REMARK  12 active torsions:
REMARK  status: ('A' for Active; 'I' for Inactive)
REMARK    1  A    between atoms: C2_2  and  N1_3 
REMARK       I    between atoms: N1_3  and  C3_5 
REMARK    2  A    between atoms: C3_5  and  C4_7 
REMARK    3  A    between atoms: C4_7  and  C5_8 
REMARK    4  A    between atoms: C5_8  and  C6_9 
REMARK    5  A    between atoms: C6_9  and  N2_10 
REMARK    6  A    between atoms: C6_9  and  C28_40 
REMARK    7  A    between atoms: N2_10  and  S1_12 
REMARK    8  A    between atoms: S1_12  and  O4_15 
REMARK    9  A    between atoms: O4_15  and  C7_16 
REMARK   10  A    between atoms: C20_29  and  C21_30 
REMARK   11  A    between atoms: C21_30  and  C22_32 
REMARK   12  A    between atoms: C22_32  and  O6_33 
ROOT
HETATM    1  C7  UNL     1       0.737   0.503   0.859  1.00  0.00     0.145 C 
HETATM    2  C8  UNL     1      -0.207   1.289   1.750  1.00  0.00     0.034 C 
HETATM    3  C9  UNL     1      -1.544   1.524   1.117  1.00  0.00     0.013 C 
HETATM    4  C10 UNL     1      -2.303   0.212   0.813  1.00  0.00    -0.033 C 
HETATM    5  C11 UNL     1      -2.493  -0.429   2.147  1.00  0.00     0.016 C 
HETATM    6  C12 UNL     1      -3.541   0.666   0.132  1.00  0.00    -0.001 C 
HETATM    7  C13 UNL     1      -4.274   1.594   1.122  1.00  0.00     0.006 C 
HETATM    8  C14 UNL     1      -4.263   3.018   0.694  1.00  0.00     0.000 C 
HETATM    9  C15 UNL     1      -5.623   3.572   0.379  1.00  0.00     0.000 C 
HETATM   10  C16 UNL     1      -6.478   2.647  -0.429  1.00  0.00     0.000 C 
HETATM   11  C17 UNL     1      -5.643   1.780  -1.384  1.00  0.00     0.000 C 
HETATM   12  C18 UNL     1      -5.714   0.358  -1.002  1.00  0.00     0.006 C 
HETATM   13  C19 UNL     1      -4.546  -0.293  -0.318  1.00  0.00     0.002 C 
HETATM   14  C20 UNL     1      -4.148  -1.480  -1.125  1.00  0.00     0.062 C 
HETATM   15  C23 UNL     1      -3.191  -2.297  -0.275  1.00  0.00     0.013 C 
HETATM   16  C24 UNL     1      -1.770  -1.938  -0.414  1.00  0.00     0.011 C 
HETATM   17  C25 UNL     1      -1.363  -0.561  -0.077  1.00  0.00    -0.034 C 
HETATM   18  C26 UNL     1      -1.110   0.205  -1.381  1.00  0.00     0.016 C 
HETATM   19  C27 UNL     1       0.021  -0.728   0.515  1.00  0.00     0.043 C 
ENDROOT
BRANCH   1  20
HETATM   20  O4  UNL     1       1.793   0.133   1.728  1.00  0.00    -0.254 OA
BRANCH  20  21
HETATM   21  S1  UNL     1       3.252   0.768   1.292  1.00  0.00     0.358 S 
HETATM   22  O2  UNL     1       3.387   0.754  -0.220  1.00  0.00    -0.176 OA
HETATM   23  O3  UNL     1       3.261   2.220   1.690  1.00  0.00    -0.176 OA
BRANCH  21  24
HETATM   24  N2  UNL     1       4.535  -0.119   1.953  1.00  0.00    -0.282 N 
ATOM     25  H2  UNL     1       4.916   0.088   2.876  1.00  0.00     0.175 HD
BRANCH  24  26
HETATM   26  C6  UNL     1       5.050  -1.172   1.143  1.00  0.00     0.196 C 
BRANCH  26  27
HETATM   27  C5  UNL     1       6.495  -1.012   0.771  1.00  0.00     0.046 C 
BRANCH  27  28
HETATM   28  C4  UNL     1       6.800   0.227  -0.002  1.00  0.00     0.105 C 
BRANCH  28  29
HETATM   29  C3  UNL     1       8.240   0.281  -0.310  1.00  0.00     0.217 C 
HETATM   30  N1  UNL     1       8.822   1.364  -1.044  1.00  0.00    -0.361 N 
ATOM     31  H1  UNL     1       8.222   2.124  -1.364  1.00  0.00     0.162 HD
HETATM   32  O1  UNL     1       8.990  -0.634   0.068  1.00  0.00    -0.274 OA
BRANCH  30  33
HETATM   33  C2  UNL     1      10.230   1.410  -1.343  1.00  0.00     0.118 C 
HETATM   34  C1  UNL     1      10.624   0.201  -2.172  1.00  0.00     0.026 C 
ENDBRANCH  30  33
ENDBRANCH  28  29
ENDBRANCH  27  28
ENDBRANCH  26  27
BRANCH  26  35
HETATM   35  C28 UNL     1       4.866  -2.520   1.738  1.00  0.00     0.197 C 
HETATM   36  O7  UNL     1       4.327  -2.756   2.824  1.00  0.00    -0.646 OA
HETATM   37  O8  UNL     1       5.349  -3.603   0.998  1.00  0.00    -0.646 OA
ENDBRANCH  26  35
ENDBRANCH  24  26
ENDBRANCH  21  24
ENDBRANCH  20  21
ENDBRANCH   1  20
BRANCH  14  38
HETATM   38  C21 UNL     1      -5.336  -2.408  -1.235  1.00  0.00     0.154 C 
HETATM   39  O5  UNL     1      -6.340  -2.141  -0.607  1.00  0.00    -0.295 OA
BRANCH  38  40
HETATM   40  C22 UNL     1      -5.323  -3.615  -2.068  1.00  0.00     0.242 C 
BRANCH  40  41
HETATM   41  O6  UNL     1      -6.576  -4.246  -1.984  1.00  0.00    -0.394 OA
ATOM     42  H6  UNL     1      -6.568  -5.028  -2.524  1.00  0.00     0.209 HD
ENDBRANCH  40  41
ENDBRANCH  38  40
ENDBRANCH  14  38
TORSDOF 12
