REMARK  7 active torsions:
REMARK  status: ('A' for Active; 'I' for Inactive)
REMARK    1  A    between atoms: C2_3  and  N2_4 
REMARK    2  A    between atoms: N2_4  and  C3_6 
REMARK    3  A    between atoms: C6_14  and  N5_15 
REMARK    4  A    between atoms: N5_15  and  C7_17 
REMARK    5  A    between atoms: C7_17  and  C8_18 
REMARK    6  A    between atoms: C8_18  and  N6_19 
REMARK    7  A    between atoms: N6_19  and  C9_21 
ROOT
HETATM    1  N1  UNL     1       6.275   3.123  -0.746  1.00  0.00    -0.191 NA
HETATM    2  C1  UNL     1       6.407   2.139  -0.175  1.00  0.00     0.105 C 
HETATM    3  C2  UNL     1       6.577   0.866   0.539  1.00  0.00     0.184 C 
ENDROOT
BRANCH   3   4
HETATM    4  N2  UNL     1       6.077  -0.240  -0.132  1.00  0.00    -0.341 N 
ATOM      5  H2  UNL     1       6.837  -0.764  -0.567  1.00  0.00     0.167 HD
BRANCH   4   6
HETATM    6  C3  UNL     1       4.986  -0.788  -0.365  1.00  0.00     0.139 A 
HETATM    7  N3  UNL     1       4.991  -1.941  -1.126  1.00  0.00    -0.292 N 
HETATM    8  C4  UNL     1       3.870  -2.592  -1.424  1.00  0.00     0.326 A 
ATOM      9  H3  UNL     1       5.880  -2.304  -1.469  1.00  0.00     0.172 HD
HETATM   10  O1  UNL     1       3.850  -3.643  -2.115  1.00  0.00    -0.247 OA
HETATM   11  N4  UNL     1       2.686  -2.121  -0.974  1.00  0.00    -0.303 N 
HETATM   12  C5  UNL     1       2.640  -1.001  -0.230  1.00  0.00     0.111 A 
ATOM     13  H4  UNL     1       1.824  -2.617  -1.199  1.00  0.00     0.171 HD
HETATM   14  C6  UNL     1       1.416  -0.530   0.225  1.00  0.00     0.132 A 
HETATM   15  C14 UNL     1       3.782  -0.296   0.101  1.00  0.00     0.108 A 
HETATM   16  N11 UNL     1       1.401   0.587   0.964  1.00  0.00    -0.337 N 
HETATM   17  C13 UNL     1       2.519   1.266   1.280  1.00  0.00     0.182 A 
ATOM     18  H11 UNL     1       0.505   0.938   1.301  1.00  0.00     0.168 HD
HETATM   19  N12 UNL     1       3.706   0.830   0.853  1.00  0.00    -0.347 N 
ATOM     20  H12 UNL     1       4.555   1.343   1.092  1.00  0.00     0.167 HD
BRANCH  14  21
HETATM   21  N5  UNL     1       0.336  -1.181  -0.078  1.00  0.00    -0.373 N 
ATOM     22  H5  UNL     1       0.369  -2.030  -0.643  1.00  0.00     0.161 HD
BRANCH  21  23
HETATM   23  C7  UNL     1      -0.920  -0.654   0.418  1.00  0.00     0.141 C 
BRANCH  23  24
HETATM   24  C8  UNL     1      -2.079  -1.552   0.051  1.00  0.00     0.141 C 
BRANCH  24  25
HETATM   25  N6  UNL     1      -3.292  -0.968   0.573  1.00  0.00    -0.373 N 
ATOM     26  H6  UNL     1      -3.640  -1.298   1.473  1.00  0.00     0.161 HD
BRANCH  25  27
HETATM   27  C9  UNL     1      -3.952  -0.059  -0.035  1.00  0.00     0.130 A 
HETATM   28  N7  UNL     1      -3.549   0.420  -1.225  1.00  0.00    -0.337 N 
HETATM   29  C10 UNL     1      -4.251   1.387  -1.873  1.00  0.00     0.183 A 
ATOM     30  H7  UNL     1      -2.699   0.050  -1.650  1.00  0.00     0.168 HD
HETATM   31  N8  UNL     1      -5.369   1.869  -1.306  1.00  0.00    -0.339 N 
HETATM   32  C11 UNL     1      -5.826   1.436  -0.123  1.00  0.00     0.145 A 
ATOM     33  H8  UNL     1      -5.892   2.595  -1.796  1.00  0.00     0.167 HD
HETATM   34  N9  UNL     1      -7.017   1.972   0.446  1.00  0.00    -0.081 NA
HETATM   35  C12 UNL     1      -5.110   0.456   0.527  1.00  0.00     0.131 A 
HETATM   36  N10 UNL     1      -5.559  -0.034   1.786  1.00  0.00    -0.095 NA
ENDBRANCH  25  27
ENDBRANCH  24  25
ENDBRANCH  23  24
ENDBRANCH  21  23
ENDBRANCH  14  21
ENDBRANCH   4   6
ENDBRANCH   3   4
TORSDOF 7
