REMARK  8 active torsions:
REMARK  status: ('A' for Active; 'I' for Inactive)
REMARK    1  A    between atoms: C2_2  and  N1_3 
REMARK    2  A    between atoms: C2_2  and  C3_7 
REMARK    3  A    between atoms: C3_7  and  N2_8 
REMARK    4  A    between atoms: C3_7  and  C4_12 
REMARK    5  A    between atoms: C7_18  and  C8_19 
REMARK    6  A    between atoms: C9_24  and  C10_25 
REMARK    7  A    between atoms: C10_25  and  N8_30 
REMARK    8  A    between atoms: N8_30  and  C12_32 
ROOT
HETATM    1  C10 UNL     1       4.257   0.381   1.202  1.00  0.00     0.175 C 
HETATM    2  N6  UNL     1       4.817  -0.630   1.715  1.00  0.00    -0.276 N 
ATOM      3  H6  UNL     1       5.823  -0.579   1.874  1.00  0.00     0.179 HD
HETATM    4  C11 UNL     1       4.178  -1.789   2.074  1.00  0.00     0.183 C 
HETATM    5  N7  UNL     1       3.656  -2.778   2.403  1.00  0.00    -0.172 NA
ENDROOT
BRANCH   1   6
HETATM    6  C9  UNL     1       2.837   0.456   0.915  1.00  0.00     0.168 A 
HETATM    7  N5  UNL     1       2.036   1.542   1.120  1.00  0.00    -0.281 N 
HETATM    8  N4  UNL     1       0.817   1.258   0.724  1.00  0.00    -0.283 N 
ATOM      9  H5  UNL     1       2.337   2.432   1.517  1.00  0.00     0.188 HD
HETATM   10  C8  UNL     1       0.765  -0.020   0.245  1.00  0.00     0.137 A 
ATOM     11  H4  UNL     1       0.024   1.898   0.768  1.00  0.00     0.188 HD
HETATM   12  N13 UNL     1       2.008  -0.476   0.376  1.00  0.00    -0.323 N 
ATOM     13  H13 UNL     1       2.303  -1.414   0.104  1.00  0.00     0.169 HD
BRANCH  10  14
HETATM   14  C7  UNL     1      -0.439  -0.672  -0.280  1.00  0.00     0.078 A 
HETATM   15  C6  UNL     1      -0.472  -1.955  -0.754  1.00  0.00     0.259 A 
HETATM   16  N3  UNL     1      -1.616  -2.500  -1.226  1.00  0.00    -0.332 N 
HETATM   17  O1  UNL     1       0.596  -2.661  -0.754  1.00  0.00    -0.267 OA
HETATM   18  C5  UNL     1      -2.741  -1.788  -1.238  1.00  0.00     0.100 A 
ATOM     19  H3  UNL     1      -1.617  -3.459  -1.574  1.00  0.00     0.168 HD
HETATM   20  C4  UNL     1      -2.802  -0.488  -0.780  1.00  0.00    -0.009 A 
HETATM   21  C13 UNL     1      -1.628   0.044  -0.305  1.00  0.00     0.031 A 
BRANCH  20  22
HETATM   22  C3  UNL     1      -4.074   0.271  -0.810  1.00  0.00     0.247 C 
BRANCH  22  23
HETATM   23  C2  UNL     1      -4.764   0.265   0.539  1.00  0.00     0.214 C 
HETATM   24  C1  UNL     1      -6.142   0.885   0.451  1.00  0.00     0.042 C 
BRANCH  23  25
HETATM   25  N1  UNL     1      -4.799  -1.037   1.123  1.00  0.00    -0.073 N 
ATOM     26  H13 UNL     1      -5.257  -1.021   2.034  1.00  0.00     0.274 HD
ATOM     27  H12 UNL     1      -5.448  -1.648   0.627  1.00  0.00     0.274 HD
ATOM     28  H11 UNL     1      -3.870  -1.455   1.182  1.00  0.00     0.274 HD
ENDBRANCH  23  25
ENDBRANCH  22  23
BRANCH  22  29
HETATM   29  N2  UNL     1      -3.919   1.619  -1.308  1.00  0.00    -0.069 N 
ATOM     30  H23 UNL     1      -4.811   2.113  -1.340  1.00  0.00     0.275 HD
ATOM     31  H22 UNL     1      -3.436   2.215  -0.636  1.00  0.00     0.275 HD
ATOM     32  H21 UNL     1      -3.455   1.623  -2.216  1.00  0.00     0.275 HD
ENDBRANCH  22  29
ENDBRANCH  20  22
ENDBRANCH  10  14
ENDBRANCH   1   6
BRANCH   1  33
HETATM   33  N8  UNL     1       5.122   1.492   0.905  1.00  0.00    -0.169 N 
ATOM     34  H8  UNL     1       4.854   2.450   1.131  1.00  0.00     0.186 HD
BRANCH  33  35
HETATM   35  C12 UNL     1       6.248   1.226   0.342  1.00  0.00     0.715 A 
HETATM   36  N9  UNL     1       6.705   0.013  -0.002  1.00  0.00    -0.115 N 
HETATM   37  N10 UNL     1       7.885   0.106  -0.554  1.00  0.00    -0.213 N 
ATOM     38  H9  UNL     1       6.201  -0.861   0.147  1.00  0.00     0.207 HD
HETATM   39  N11 UNL     1       8.187   1.371  -0.567  1.00  0.00    -0.213 N 
ATOM     40  H10 UNL     1       8.457  -0.662  -0.906  1.00  0.00     0.210 HD
HETATM   41  N12 UNL     1       7.217   2.086  -0.031  1.00  0.00    -0.115 N 
ATOM     42  H11 UNL     1       9.054   1.757  -0.940  1.00  0.00     0.210 HD
ATOM     43  H12 UNL     1       7.203   3.100   0.080  1.00  0.00     0.207 HD
ENDBRANCH  33  35
ENDBRANCH   1  33
TORSDOF 8
