REMARK  12 active torsions:
REMARK  status: ('A' for Active; 'I' for Inactive)
REMARK    1  A    between atoms: O1_2  and  C2_3 
REMARK    2  A    between atoms: C2_3  and  C3_5 
REMARK    3  A    between atoms: C6_8  and  N1_9 
REMARK    4  A    between atoms: N1_9  and  C7_11 
REMARK    5  A    between atoms: C13_19  and  O3_20 
REMARK    6  A    between atoms: C13_19  and  O4_22 
REMARK    7  A    between atoms: C14_24  and  N3_25 
REMARK    8  A    between atoms: C15_28  and  N5_29 
REMARK    9  A    between atoms: N5_29  and  C16_31 
REMARK   10  A    between atoms: C16_31  and  C17_32 
REMARK   11  A    between atoms: C18_38  and  S1_39 
REMARK   12  A    between atoms: C20_41  and  C21_42 
ROOT
HETATM    1  C7  UNL     1       2.222   1.228  -0.163  1.00  0.00     0.035 A 
HETATM    2  C8  UNL     1       1.919   0.200   0.665  1.00  0.00     0.030 A 
HETATM    3  C9  UNL     1       0.624  -0.294   0.800  1.00  0.00     0.017 A 
HETATM    4  C10 UNL     1      -0.390   0.269   0.075  1.00  0.00     0.010 A 
HETATM    5  C11 UNL     1      -0.066   1.330  -0.777  1.00  0.00     0.046 A 
HETATM    6  C12 UNL     1       1.214   1.810  -0.902  1.00  0.00     0.059 A 
HETATM    7  N2  UNL     1      -1.105   1.927  -1.536  1.00  0.00    -0.329 N 
ATOM      8  H2  UNL     1      -0.858   2.701  -2.153  1.00  0.00     0.165 HD
HETATM    9  C13 UNL     1      -2.457   1.525  -1.497  1.00  0.00     0.294 A 
HETATM   10  C14 UNL     1      -2.707   0.382  -0.556  1.00  0.00     0.139 A 
HETATM   11  C20 UNL     1      -1.793  -0.206   0.168  1.00  0.00     0.085 A 
ENDROOT
BRANCH  10  12
HETATM   12  N3  UNL     1      -4.085  -0.006  -0.533  1.00  0.00    -0.215 N 
HETATM   13  N4  UNL     1      -5.054   0.459   0.245  1.00  0.00    -0.123 N 
HETATM   14  C15 UNL     1      -6.228  -0.121  -0.103  1.00  0.00     0.695 A 
ATOM     15  H4  UNL     1      -4.934   1.146   0.989  1.00  0.00     0.206 HD
HETATM   16  N7  UNL     1      -5.940  -0.955  -1.117  1.00  0.00    -0.167 N 
HETATM   17  C18 UNL     1      -4.628  -0.906  -1.403  1.00  0.00     0.181 A 
ATOM     18  H7  UNL     1      -6.620  -1.541  -1.600  1.00  0.00     0.186 HD
BRANCH  14  19
HETATM   19  N5  UNL     1      -7.389   0.077   0.421  1.00  0.00    -0.220 N 
ATOM     20  H5  UNL     1      -8.199  -0.429   0.062  1.00  0.00     0.178 HD
BRANCH  19  21
HETATM   21  C16 UNL     1      -7.552   1.009   1.512  1.00  0.00     0.182 C 
BRANCH  21  22
HETATM   22  C17 UNL     1      -8.752   0.673   2.336  1.00  0.00     0.073 C 
HETATM   23  N6  UNL     1      -9.248  -0.500   2.306  1.00  0.00    -0.410 N 
ATOM     24  H62 UNL     1      -8.811  -1.203   1.710  1.00  0.00     0.155 HD
ATOM     25  H61 UNL     1     -10.067  -0.729   2.869  1.00  0.00     0.155 HD
ENDBRANCH  21  22
ENDBRANCH  19  21
ENDBRANCH  14  19
BRANCH  17  26
HETATM   26  S1  UNL     1      -3.836  -1.860  -2.681  1.00  0.00    -0.096 SA
HETATM   27  C19 UNL     1      -3.243  -3.442  -2.078  1.00  0.00     0.099 C 
ENDBRANCH  17  26
ENDBRANCH  10  12
BRANCH   9  28
HETATM   28  O3  UNL     1      -2.866   1.130  -2.769  1.00  0.00    -0.344 OA
ATOM     29  H3  UNL     1      -3.776   0.859  -2.743  1.00  0.00     0.215 HD
ENDBRANCH   9  28
BRANCH   9  30
HETATM   30  O4  UNL     1      -3.257   2.582  -1.030  1.00  0.00    -0.344 OA
ATOM     31  H4  UNL     1      -4.167   2.311  -1.004  1.00  0.00     0.215 HD
ENDBRANCH   9  30
BRANCH  11  32
HETATM   32  C21 UNL     1      -2.128  -1.305   1.051  1.00  0.00     0.212 C 
HETATM   33  O5  UNL     1      -3.339  -1.733   1.146  1.00  0.00    -0.644 OA
HETATM   34  O6  UNL     1      -1.281  -2.019   1.868  1.00  0.00    -0.644 OA
ENDBRANCH  11  32
BRANCH   1  35
HETATM   35  N1  UNL     1       3.515   1.719  -0.330  1.00  0.00    -0.342 N 
ATOM     36  H1  UNL     1       3.582   2.652  -0.736  1.00  0.00     0.167 HD
BRANCH  35  37
HETATM   37  C6  UNL     1       4.751   1.099  -0.013  1.00  0.00     0.105 A 
HETATM   38  C5  UNL     1       5.953   1.795  -0.231  1.00  0.00     0.050 A 
HETATM   39  C4  UNL     1       7.177   1.230   0.044  1.00  0.00     0.022 A 
HETATM   40  C3  UNL     1       7.286  -0.051   0.548  1.00  0.00     0.055 A 
HETATM   41  C22 UNL     1       6.089  -0.707   0.751  1.00  0.00     0.107 A 
HETATM   42  N8  UNL     1       4.911  -0.130   0.474  1.00  0.00    -0.351 N 
ATOM     43  H8  UNL     1       4.068  -0.677   0.651  1.00  0.00     0.166 HD
BRANCH  40  44
HETATM   44  C2  UNL     1       8.573  -0.666   0.845  1.00  0.00     0.294 C 
HETATM   45  O2  UNL     1       9.653  -0.063   0.658  1.00  0.00    -0.259 OA
BRANCH  44  46
HETATM   46  O1  UNL     1       8.617  -1.942   1.345  1.00  0.00    -0.322 OA
HETATM   47  C1  UNL     1       9.816  -2.628   1.666  1.00  0.00     0.213 C 
ENDBRANCH  44  46
ENDBRANCH  40  44
ENDBRANCH  35  37
ENDBRANCH   1  35
TORSDOF 12
