REMARK  8 active torsions:
REMARK  status: ('A' for Active; 'I' for Inactive)
REMARK    1  A    between atoms: C2_2  and  C3_3 
REMARK    2  A    between atoms: C4_4  and  C5_5 
REMARK    3  A    between atoms: C6_6  and  S1_7 
REMARK    4  A    between atoms: S1_7  and  C8_9 
REMARK    5  A    between atoms: C8_9  and  C9_10 
REMARK    6  A    between atoms: C9_10  and  N1_11 
REMARK    7  A    between atoms: C10_17  and  N3_18 
REMARK    8  A    between atoms: C11_23  and  N5_24 
ROOT
HETATM    1  C5  UNL     1      -0.973   1.366   0.335  1.00  0.00     0.095 A 
HETATM    2  C6  UNL     1       0.377   1.058   0.275  1.00  0.00     0.099 A 
HETATM    3  N2  UNL     1       1.317   1.936   0.640  1.00  0.00    -0.185 N 
ATOM      4  H2  UNL     1       2.299   1.667   0.579  1.00  0.00     0.185 HD
HETATM    5  C10 UNL     1       1.001   3.162   1.085  1.00  0.00     0.678 A 
HETATM    6  N4  UNL     1      -0.295   3.503   1.160  1.00  0.00    -0.176 N 
ATOM      7  H4  UNL     1      -0.551   4.431   1.496  1.00  0.00     0.186 HD
HETATM    8  C11 UNL     1      -1.261   2.641   0.799  1.00  0.00     0.136 A 
ENDROOT
BRANCH   2   9
HETATM    9  S1  UNL     1       0.774  -0.554  -0.311  1.00  0.00    -0.170 SA
HETATM   10  C7  UNL     1       0.831  -1.644   1.109  1.00  0.00     0.085 C 
BRANCH   9  11
HETATM   11  C8  UNL     1       2.423  -0.479  -0.967  1.00  0.00     0.096 C 
BRANCH  11  12
HETATM   12  C9  UNL     1       2.834  -1.846  -1.494  1.00  0.00     0.239 C 
BRANCH  12  13
HETATM   13  N1  UNL     1       4.177  -1.773  -2.025  1.00  0.00    -0.079 N 
ATOM     14  H13 UNL     1       4.274  -1.043  -2.730  1.00  0.00     0.274 HD
ATOM     15  H12 UNL     1       4.842  -1.406  -1.344  1.00  0.00     0.274 HD
ATOM     16  H11 UNL     1       4.453  -2.689  -2.378  1.00  0.00     0.274 HD
ENDBRANCH  12  13
ENDBRANCH  11  12
ENDBRANCH   9  11
ENDBRANCH   2   9
BRANCH   1  17
HETATM   17  C4  UNL     1      -1.973   0.416  -0.060  1.00  0.00    -0.060 C 
HETATM   18  C3  UNL     1      -2.822  -0.377  -0.384  1.00  0.00    -0.101 C 
BRANCH  18  19
HETATM   19  C2  UNL     1      -3.847  -1.369  -0.786  1.00  0.00     0.090 C 
HETATM   20  C1  UNL     1      -3.808  -2.457   0.261  1.00  0.00     0.018 C 
ENDBRANCH  18  19
ENDBRANCH   1  17
BRANCH   8  21
HETATM   21  N5  UNL     1      -2.519   2.973   0.872  1.00  0.00    -0.384 N 
ATOM     22  H52 UNL     1      -3.252   2.319   0.598  1.00  0.00     0.157 HD
ATOM     23  H51 UNL     1      -2.731   3.911   1.213  1.00  0.00     0.157 HD
ENDBRANCH   8  21
BRANCH   5  24
HETATM   24  N3  UNL     1       1.898   4.016   1.440  1.00  0.00    -0.234 N 
ATOM     25  H32 UNL     1       2.883   3.757   1.383  1.00  0.00     0.174 HD
ATOM     26  H31 UNL     1       1.658   4.948   1.778  1.00  0.00     0.174 HD
ENDBRANCH   5  24
TORSDOF 8
