REMARK  9 active torsions:
REMARK  status: ('A' for Active; 'I' for Inactive)
REMARK    1  A    between atoms: C4_4  and  C5_5 
REMARK    2  A    between atoms: C5_5  and  C6_6 
REMARK    3  A    between atoms: C6_6  and  C7_7 
REMARK    4  A    between atoms: C7_7  and  C8_8 
REMARK    5  A    between atoms: C8_8  and  C9_9 
REMARK    6  A    between atoms: C9_9  and  C10_10 
REMARK    7  A    between atoms: C11_11  and  N1_12 
REMARK    8  A    between atoms: C11_11  and  C12_17 
REMARK    9  A    between atoms: C17_22  and  C18_23 
ROOT
HETATM    1  C10 UNL     1      -0.800  -1.279  -0.334  1.00  0.00     0.000 C 
HETATM    2  C11 UNL     1      -1.389   0.033  -0.180  1.00  0.00     0.026 C 
ENDROOT
BRANCH   2   3
HETATM    3  N1  UNL     1      -0.906   1.145  -0.505  1.00  0.00    -0.311 N 
HETATM    4  N2  UNL     1      -0.635   2.093  -1.293  1.00  0.00    -0.345 N 
ATOM      5  H22 UNL     1      -1.057   1.731  -2.148  1.00  0.00     0.176 HD
ATOM      6  H21 UNL     1      -0.242   2.997  -1.557  1.00  0.00     0.176 HD
ATOM      7  H1  UNL     1      -0.498   1.469   0.372  1.00  0.00     0.186 HD
ENDBRANCH   2   3
BRANCH   2   8
HETATM    8  C12 UNL     1      -2.814   0.095   0.349  1.00  0.00     0.049 C 
HETATM    9  C13 UNL     1      -3.239   1.533   0.471  1.00  0.00     0.011 C 
HETATM   10  C14 UNL     1      -4.659   1.606   0.978  1.00  0.00     0.001 C 
HETATM   11  C15 UNL     1      -5.624   0.826   0.126  1.00  0.00     0.001 C 
HETATM   12  C16 UNL     1      -4.879   0.276  -1.063  1.00  0.00     0.014 C 
HETATM   13  C17 UNL     1      -3.697  -0.573  -0.666  1.00  0.00     0.085 C 
BRANCH  13  14
HETATM   14  C18 UNL     1      -4.129  -1.929  -0.223  1.00  0.00     0.236 C 
HETATM   15  N3  UNL     1      -4.815  -2.141   0.986  1.00  0.00    -0.062 NA
HETATM   16  O1  UNL     1      -3.882  -2.930  -0.942  1.00  0.00    -0.276 OA
ENDBRANCH  13  14
ENDBRANCH   2   8
BRANCH   1  17
HETATM   17  C9  UNL     1       0.635  -1.556  -0.407  1.00  0.00     0.029 C 
BRANCH  17  18
HETATM   18  C8  UNL     1       1.456  -1.346   0.786  1.00  0.00     0.004 C 
BRANCH  18  19
HETATM   19  C7  UNL     1       1.717  -0.015   1.303  1.00  0.00     0.000 C 
BRANCH  19  20
HETATM   20  C6  UNL     1       2.531   0.864   0.377  1.00  0.00     0.000 C 
BRANCH  20  21
HETATM   21  C5  UNL     1       3.875   0.203   0.159  1.00  0.00     0.005 C 
BRANCH  21  22
HETATM   22  C4  UNL     1       4.714   1.084  -0.751  1.00  0.00    -0.010 A 
HETATM   23  C2  UNL     1       6.077   0.698  -1.142  1.00  0.00    -0.014 A 
HETATM   24  C1  UNL     1       6.654  -0.655  -0.834  1.00  0.00     0.010 C 
HETATM   25  C3  UNL     1       5.916   1.719  -0.054  1.00  0.00     0.009 A 
ENDBRANCH  21  22
ENDBRANCH  20  21
ENDBRANCH  19  20
ENDBRANCH  18  19
ENDBRANCH  17  18
ENDBRANCH   1  17
TORSDOF 9
