REMARK  2 active torsions:
REMARK  status: ('A' for Active; 'I' for Inactive)
REMARK    1  A    between atoms: C2_2  and  C3_4 
REMARK    2  A    between atoms: C4_8  and  C5_9 
ROOT
HETATM    1  C3  UNL     1       2.921  -0.117  -0.857  1.00  0.00     0.158 A 
HETATM    2  N1  UNL     1       2.631  -0.286  -2.157  1.00  0.00    -0.308 N 
ATOM      3  H1  UNL     1       3.273  -0.387  -2.944  1.00  0.00     0.176 HD
HETATM    4  S1  UNL     1       0.952  -0.291  -2.169  1.00  0.00     0.001 SA
HETATM    5  C4  UNL     1       0.685  -0.075  -0.504  1.00  0.00     0.073 A 
HETATM    6  N3  UNL     1       1.914  -0.012  -0.034  1.00  0.00    -0.335 N 
ATOM      7  H3  UNL     1       2.077   0.118   0.965  1.00  0.00     0.168 HD
ENDROOT
BRANCH   5   8
HETATM    8  C5  UNL     1      -0.601   0.025   0.282  1.00  0.00     0.048 C 
HETATM    9  C6  UNL     1      -1.411   1.194  -0.245  1.00  0.00     0.044 C 
HETATM   10  C7  UNL     1      -2.851   1.030   0.116  1.00  0.00     0.189 C 
HETATM   11  C8  UNL     1      -3.462  -0.149  -0.653  1.00  0.00     0.066 C 
HETATM   12  N2  UNL     1      -3.022   0.234   1.316  1.00  0.00    -0.067 N 
HETATM   13  C9  UNL     1      -2.848  -0.945   0.498  1.00  0.00     0.189 C 
HETATM   14  C10 UNL     1      -1.425  -1.217   0.132  1.00  0.00     0.044 C 
ATOM     15  H22 UNL     1      -2.438   0.392   2.137  1.00  0.00     0.278 HD
ATOM     16  H21 UNL     1      -3.847   0.345   1.905  1.00  0.00     0.278 HD
ENDBRANCH   5   8
BRANCH   1  17
HETATM   17  C2  UNL     1       4.349  -0.059  -0.430  1.00  0.00     0.189 C 
HETATM   18  C1  UNL     1       4.621   0.128   1.001  1.00  0.00     0.100 C 
HETATM   19  O1  UNL     1       5.275  -0.167  -1.275  1.00  0.00    -0.290 OA
ENDBRANCH   1  17
TORSDOF 2
