REMARK  1 active torsions:
REMARK  status: ('A' for Active; 'I' for Inactive)
REMARK    1  A    between atoms: C2_3  and  N2_4 
ROOT
HETATM    1  N1  UNL     1       2.177   2.384   0.080  1.00  0.00    -0.195 NA
HETATM    2  C1  UNL     1       1.559   1.419  -0.080  1.00  0.00     0.098 C 
HETATM    3  C2  UNL     1       0.766   0.197  -0.292  1.00  0.00     0.210 C 
HETATM    4  C3  UNL     1      -0.456   0.449  -1.100  1.00  0.00     0.054 C 
HETATM    5  C4  UNL     1      -1.595  -0.247  -0.370  1.00  0.00     0.004 C 
HETATM    6  C5  UNL     1      -1.147  -0.061   1.083  1.00  0.00     0.004 C 
HETATM    7  C6  UNL     1       0.313  -0.377   1.042  1.00  0.00     0.054 C 
ENDROOT
BRANCH   3   8
HETATM    8  N2  UNL     1       1.661  -0.780  -0.874  1.00  0.00    -0.057 N 
ATOM      9  H23 UNL     1       2.125  -0.449  -1.720  1.00  0.00     0.276 HD
ATOM     10  H22 UNL     1       2.503  -0.937  -0.320  1.00  0.00     0.276 HD
ATOM     11  H21 UNL     1       1.112  -1.627  -1.021  1.00  0.00     0.276 HD
ENDBRANCH   3   8
TORSDOF 1
