REMARK  14 active torsions:
REMARK  status: ('A' for Active; 'I' for Inactive)
REMARK    1  A    between atoms: O1_2  and  C2_3 
REMARK    2  A    between atoms: C5_7  and  O3_8 
REMARK    3  A    between atoms: O3_8  and  C6_9 
REMARK    4  A    between atoms: C7_10  and  O4_11 
REMARK    5  A    between atoms: C8_13  and  O5_14 
REMARK    6  A    between atoms: C9_16  and  O6_17 
REMARK    7  A    between atoms: C10_19  and  O7_20 
REMARK    8  A    between atoms: O7_20  and  C11_21 
REMARK    9  A    between atoms: C11_21  and  C12_23 
REMARK   10  A    between atoms: N1_27  and  C14_28 
REMARK   11  A    between atoms: N2_30  and  O9_32 
REMARK   12  A    between atoms: C16_34  and  O10_35 
REMARK   13  A    between atoms: C18_37  and  O11_38 
REMARK   14  A    between atoms: O11_38  and  C19_39 
ROOT
HETATM    1  C6  UNL     1      -0.714  -0.769  -0.165  1.00  0.00     0.187 C 
HETATM    2  C7  UNL     1      -0.389  -2.158   0.263  1.00  0.00     0.181 C 
HETATM    3  C8  UNL     1       0.541  -2.810  -0.733  1.00  0.00     0.180 C 
HETATM    4  C9  UNL     1       1.606  -1.862  -1.217  1.00  0.00     0.181 C 
HETATM    5  C10 UNL     1       1.762  -0.665  -0.306  1.00  0.00     0.194 C 
HETATM    6  C16 UNL     1       0.499   0.089  -0.060  1.00  0.00     0.184 C 
ENDROOT
BRANCH   5   7
HETATM    7  O7  UNL     1       2.755   0.168  -0.879  1.00  0.00    -0.308 OA
BRANCH   7   8
HETATM    8  C11 UNL     1       3.984   0.401  -0.243  1.00  0.00     0.293 C 
HETATM    9  O8  UNL     1       4.123  -0.181   0.856  1.00  0.00    -0.262 OA
BRANCH   8  10
HETATM   10  C12 UNL     1       5.027   1.243  -0.789  1.00  0.00     0.259 C 
HETATM   11  S1  UNL     1       5.775   0.533  -2.328  1.00  0.00    -0.060 SA
HETATM   12  S2  UNL     1       7.663   1.569  -2.024  1.00  0.00    -0.075 SA
HETATM   13  C13 UNL     1       7.080   2.390  -0.474  1.00  0.00     0.212 C 
HETATM   14  N1  UNL     1       6.209   1.302   0.045  1.00  0.00    -0.337 N 
BRANCH  14  15
HETATM   15  C14 UNL     1       6.566   0.512   1.162  1.00  0.00     0.097 C 
HETATM   16  C15 UNL     1       7.112  -0.841   0.957  1.00  0.00     0.091 C 
HETATM   17  N2  UNL     1       6.419   0.988   2.339  1.00  0.00    -0.257 N 
ATOM     18  H2  UNL     1       6.679   0.411   3.139  1.00  0.00     0.195 HD
BRANCH  17  19
HETATM   19  O9  UNL     1       5.925   2.244   2.564  1.00  0.00    -0.288 OA
ATOM     20  H9  UNL     1       5.816   2.598   3.439  1.00  0.00     0.244 HD
ENDBRANCH  17  19
ENDBRANCH  14  15
ENDBRANCH   8  10
ENDBRANCH   7   8
ENDBRANCH   5   7
BRANCH   4  21
HETATM   21  O6  UNL     1       1.407  -1.451  -2.533  1.00  0.00    -0.390 OA
ATOM     22  H6  UNL     1       2.079  -0.853  -2.838  1.00  0.00     0.210 HD
ENDBRANCH   4  21
BRANCH   6  23
HETATM   23  O10 UNL     1       0.424   1.226  -0.870  1.00  0.00    -0.385 OA
HETATM   24  C17 UNL     1       0.422   2.391  -0.107  1.00  0.00     0.202 C 
ENDBRANCH   6  23
BRANCH   3  25
HETATM   25  O5  UNL     1      -0.216  -3.195  -1.838  1.00  0.00    -0.390 OA
ATOM     26  H5  UNL     1       0.369  -3.605  -2.464  1.00  0.00     0.210 HD
ENDBRANCH   3  25
BRANCH   1  27
HETATM   27  O3  UNL     1      -1.826  -0.245   0.472  1.00  0.00    -0.348 OA
BRANCH  27  28
HETATM   28  C5  UNL     1      -2.872   0.047  -0.354  1.00  0.00     0.293 C 
HETATM   29  O2  UNL     1      -3.260   1.405  -0.272  1.00  0.00    -0.351 OA
HETATM   30  C3  UNL     1      -4.522   1.479  -0.814  1.00  0.00     0.152 C 
HETATM   31  C2  UNL     1      -5.193   0.141  -0.593  1.00  0.00     0.183 C 
HETATM   32  C4  UNL     1      -5.378   2.566  -0.233  1.00  0.00     0.042 C 
HETATM   33  C18 UNL     1      -4.124  -0.608   0.200  1.00  0.00     0.218 C 
BRANCH  31  34
HETATM   34  O1  UNL     1      -5.321  -0.479  -1.813  1.00  0.00    -0.385 OA
HETATM   35  C1  UNL     1      -6.630  -0.879  -2.081  1.00  0.00     0.202 C 
ENDBRANCH  31  34
BRANCH  33  36
HETATM   36  O11 UNL     1      -4.249  -0.197   1.538  1.00  0.00    -0.309 OA
BRANCH  36  37
HETATM   37  C19 UNL     1      -4.411  -1.079   2.595  1.00  0.00     0.255 C 
HETATM   38  C20 UNL     1      -4.537  -0.585   3.982  1.00  0.00     0.126 C 
HETATM   39  O12 UNL     1      -4.443  -2.310   2.289  1.00  0.00    -0.266 OA
ENDBRANCH  36  37
ENDBRANCH  33  36
ENDBRANCH  27  28
ENDBRANCH   1  27
BRANCH   2  40
HETATM   40  O4  UNL     1      -1.554  -2.885   0.415  1.00  0.00    -0.390 OA
ATOM     41  H4  UNL     1      -1.347  -3.771   0.688  1.00  0.00     0.210 HD
ENDBRANCH   2  40
TORSDOF 14
