REMARK  9 active torsions:
REMARK  status: ('A' for Active; 'I' for Inactive)
REMARK    1  A    between atoms: O1_2  and  N1_3 
REMARK    2  A    between atoms: N1_3  and  N2_4 
REMARK    3  A    between atoms: N2_4  and  O2_5 
REMARK    4  A    between atoms: N2_4  and  N3_7 
REMARK       I    between atoms: N3_7  and  C2_9 
REMARK       I    between atoms: C2_9  and  N5_13 
REMARK    5  A    between atoms: N5_13  and  C3_15 
REMARK    6  A    between atoms: C3_15  and  C4_16 
REMARK    7  A    between atoms: C4_16  and  N6_17 
REMARK    8  A    between atoms: N6_17  and  N7_18 
REMARK    9  A    between atoms: N7_18  and  C5_20 
ROOT
HETATM    1  N3  UNL     1       3.853   0.024  -0.815  1.00  0.00    -0.111 N 
ATOM      2  H3  UNL     1       4.089   0.885  -1.308  1.00  0.00     0.203 HD
HETATM    3  C2  UNL     1       2.663  -0.657  -1.136  1.00  0.00     0.685 C 
HETATM    4  N4  UNL     1       2.651  -1.548  -2.044  1.00  0.00    -0.234 N 
ATOM      5  H41 UNL     1       1.789  -2.041  -2.277  1.00  0.00     0.174 HD
ATOM      6  H42 UNL     1       3.510  -1.773  -2.546  1.00  0.00     0.174 HD
HETATM    7  N5  UNL     1       1.475  -0.346  -0.442  1.00  0.00    -0.224 N 
ATOM      8  H5  UNL     1       1.367  -0.580   0.545  1.00  0.00     0.177 HD
ENDROOT
BRANCH   7   9
HETATM    9  C3  UNL     1       0.412   0.315  -1.172  1.00  0.00     0.155 C 
BRANCH   9  10
HETATM   10  C4  UNL     1      -0.759   0.549  -0.243  1.00  0.00     0.155 C 
BRANCH  10  11
HETATM   11  N6  UNL     1      -1.212  -0.724   0.242  1.00  0.00    -0.139 NA
BRANCH  11  12
HETATM   12  N7  UNL     1      -2.289  -0.649   1.112  1.00  0.00    -0.293 N 
ATOM     13  H7  UNL     1      -2.121  -0.866   2.094  1.00  0.00     0.183 HD
BRANCH  12  14
HETATM   14  C5  UNL     1      -3.589  -0.297   0.737  1.00  0.00     0.088 C 
HETATM   15  N8  UNL     1      -4.000  -0.446  -0.463  1.00  0.00    -0.379 N 
HETATM   16  C6  UNL     1      -5.360  -0.056  -0.767  1.00  0.00     0.121 C 
ATOM     17  H8  UNL     1      -3.389  -0.828  -1.185  1.00  0.00     0.160 HD
HETATM   18  C7  UNL     1      -6.370  -0.406   0.268  1.00  0.00     0.020 C 
HETATM   19  C8  UNL     1      -5.774  -0.597   1.636  1.00  0.00     0.009 C 
HETATM   20  C9  UNL     1      -4.528   0.256   1.730  1.00  0.00     0.077 C 
ENDBRANCH  12  14
ENDBRANCH  11  12
ENDBRANCH  10  11
ENDBRANCH   9  10
ENDBRANCH   7   9
BRANCH   1  21
HETATM   21  N2  UNL     1       4.715  -0.467   0.172  1.00  0.00     0.032 NA
BRANCH  21  22
HETATM   22  N1  UNL     1       5.685   0.535   0.412  1.00  0.00     0.042 NA
BRANCH  22  23
HETATM   23  O1  UNL     1       6.441   0.598  -0.721  1.00  0.00    -0.273 OA
HETATM   24  C1  UNL     1       7.799   0.455  -0.442  1.00  0.00     0.233 C 
ENDBRANCH  22  23
ENDBRANCH  21  22
BRANCH  21  25
HETATM   25  O2  UNL     1       4.037  -0.738   1.318  1.00  0.00    -0.277 OA
ATOM     26  H2  UNL     1       3.386  -1.411   1.157  1.00  0.00     0.240 HD
ENDBRANCH  21  25
ENDBRANCH   1  21
TORSDOF 9
