REMARK  3 active torsions:
REMARK  status: ('A' for Active; 'I' for Inactive)
REMARK    1  A    between atoms: N1_2  and  O3_4 
REMARK    2  A    between atoms: O3_4  and  C1_5 
REMARK    3  A    between atoms: N2_8  and  O4_10 
ROOT
HETATM    1  C1  UNL     1       1.046  -0.385  -0.557  1.00  0.00     0.306 C 
HETATM    2  C2  UNL     1      -0.030   0.590  -0.967  1.00  0.00     0.122 C 
HETATM    3  C3  UNL     1      -1.317   0.332  -0.274  1.00  0.00     0.038 C 
HETATM    4  N2  UNL     1      -2.314   1.089  -0.550  1.00  0.00    -0.273 N 
ATOM      5  H2  UNL     1      -2.180   1.835  -1.233  1.00  0.00     0.193 HD
HETATM    6  C4  UNL     1      -1.485  -0.741   0.699  1.00  0.00     0.051 C 
HETATM    7  C5  UNL     1      -0.559  -1.685   0.729  1.00  0.00     0.140 C 
HETATM    8  O5  UNL     1       0.519  -1.629  -0.145  1.00  0.00    -0.329 OA
ENDROOT
BRANCH   1   9
HETATM    9  O3  UNL     1       1.812   0.227   0.476  1.00  0.00    -0.188 OA
BRANCH   9  10
HETATM   10  N1  UNL     1       3.140   0.494   0.365  1.00  0.00     0.007 N 
HETATM   11  O1  UNL     1       3.609   1.635   0.645  1.00  0.00    -0.511 OA
HETATM   12  O2  UNL     1       4.050  -0.443  -0.052  1.00  0.00    -0.511 OA
ENDBRANCH   9  10
ENDBRANCH   1   9
BRANCH   4  13
HETATM   13  O4  UNL     1      -3.554   0.949   0.026  1.00  0.00    -0.290 OA
ATOM     14  H4  UNL     1      -4.293   1.510  -0.179  1.00  0.00     0.244 HD
ENDBRANCH   4  13
TORSDOF 3
