REMARK  3 active torsions:
REMARK  status: ('A' for Active; 'I' for Inactive)
REMARK    1  A    between atoms: C2_2  and  C3_3 
REMARK    2  A    between atoms: C3_3  and  N1_4 
REMARK    3  A    between atoms: N2_8  and  C6_10 
ROOT
HETATM    1  N1  UNL     1      -0.574   0.414   0.004  1.00  0.00    -0.293 N 
HETATM    2  C4  UNL     1       0.311  -0.286  -0.799  1.00  0.00     0.283 C 
HETATM    3  O1  UNL     1      -0.015  -0.803  -1.933  1.00  0.00    -0.265 OA
HETATM    4  C5  UNL     1       1.666  -0.419  -0.299  1.00  0.00     0.147 C 
HETATM    5  N2  UNL     1       2.736  -0.775  -0.887  1.00  0.00    -0.331 N 
ATOM      6  H2  UNL     1       2.699  -1.021  -1.876  1.00  0.00     0.168 HD
HETATM    7  S3  UNL     1       1.507   0.056   1.443  1.00  0.00    -0.037 SA
HETATM    8  C7  UNL     1      -0.060   0.920   1.221  1.00  0.00     0.150 C 
HETATM    9  S4  UNL     1      -0.708   2.036   2.228  1.00  0.00    -0.052 SA
ENDROOT
BRANCH   5  10
HETATM   10  C6  UNL     1       3.964  -0.840  -0.217  1.00  0.00     0.150 C 
HETATM   11  S1  UNL     1       4.894  -2.173  -0.415  1.00  0.00    -0.052 SA
HETATM   12  S2  UNL     1       4.596   0.439   0.850  1.00  0.00    -0.020 SA
ENDBRANCH   5  10
BRANCH   1  13
HETATM   13  C3  UNL     1      -1.994   0.646  -0.349  1.00  0.00     0.160 C 
BRANCH  13  14
HETATM   14  C2  UNL     1      -2.852  -0.452   0.168  1.00  0.00    -0.017 C 
HETATM   15  C1  UNL     1      -3.822  -0.171   1.026  1.00  0.00     0.008 C 
ENDBRANCH  13  14
ENDBRANCH   1  13
TORSDOF 3
