REMARK  2 active torsions:
REMARK  status: ('A' for Active; 'I' for Inactive)
REMARK    1  A    between atoms: C2_3  and  O2_5 
REMARK    2  A    between atoms: O2_5  and  C3_6 
ROOT
HETATM    1  N1  UNL     1       7.253  -0.800   0.437  1.00  0.00    -0.186 NA
HETATM    2  C1  UNL     1       6.202  -0.511   0.035  1.00  0.00     0.170 C 
HETATM    3  C2  UNL     1       4.900  -0.153  -0.473  1.00  0.00     0.365 C 
HETATM    4  O1  UNL     1       4.715   0.381  -1.575  1.00  0.00    -0.247 OA
ENDROOT
BRANCH   3   5
HETATM    5  O2  UNL     1       3.728  -0.362   0.204  1.00  0.00    -0.304 OA
BRANCH   5   6
HETATM    6  C3  UNL     1       2.448  -0.035  -0.242  1.00  0.00     0.133 C 
HETATM    7  C4  UNL     1       1.755  -1.344  -0.512  1.00  0.00     0.032 C 
HETATM    8  C5  UNL     1       1.376  -2.169   0.637  1.00  0.00     0.003 C 
HETATM    9  C6  UNL     1      -0.081  -2.158   1.021  1.00  0.00     0.004 C 
HETATM   10  C7  UNL     1      -1.006  -1.765  -0.080  1.00  0.00     0.027 C 
HETATM   11  C8  UNL     1      -2.387  -2.125   0.358  1.00  0.00    -0.031 C 
HETATM   12  C9  UNL     1      -3.456  -1.366   0.142  1.00  0.00    -0.031 C 
HETATM   13  C10 UNL     1      -3.399  -0.059  -0.568  1.00  0.00     0.027 C 
HETATM   14  C11 UNL     1      -3.198   1.089   0.418  1.00  0.00     0.011 C 
HETATM   15  C12 UNL     1      -2.858   2.319  -0.395  1.00  0.00     0.078 C 
HETATM   16  C13 UNL     1      -1.432   2.416  -0.732  1.00  0.00     0.127 C 
HETATM   17  O3  UNL     1      -1.068   2.547  -1.908  1.00  0.00    -0.298 OA
HETATM   18  C14 UNL     1      -0.370   2.365   0.293  1.00  0.00     0.078 C 
HETATM   19  C15 UNL     1       0.956   1.971  -0.327  1.00  0.00     0.010 C 
HETATM   20  C16 UNL     1       1.694   0.949   0.547  1.00  0.00     0.033 C 
ENDBRANCH   5   6
ENDBRANCH   3   5
TORSDOF 2
