REMARK  5 active torsions:
REMARK  status: ('A' for Active; 'I' for Inactive)
REMARK    1  A    between atoms: N2_5  and  C4_6 
REMARK    2  A    between atoms: C4_6  and  N3_7 
REMARK    3  A    between atoms: N3_7  and  C5_10 
REMARK    4  A    between atoms: C5_10  and  C6_11 
REMARK    5  A    between atoms: C6_11  and  N4_12 
ROOT
HETATM    1  N3  UNL     1      -0.514  -0.818   0.160  1.00  0.00    -0.056 N 
ATOM      2  H31 UNL     1      -0.689   0.187   0.183  1.00  0.00     0.279 HD
ATOM      3  H32 UNL     1      -0.369  -0.961   1.159  1.00  0.00     0.279 HD
ENDROOT
BRANCH   1   4
HETATM    4  C4  UNL     1       0.655  -1.155  -0.619  1.00  0.00     0.379 C 
BRANCH   4   5
HETATM    5  N2  UNL     1       1.832  -0.449  -0.174  1.00  0.00    -0.276 N 
HETATM    6  C3  UNL     1       2.687  -0.897   0.762  1.00  0.00     0.115 A 
HETATM    7  C2  UNL     1       3.708   0.011   0.959  1.00  0.00     0.065 A 
HETATM    8  C1  UNL     1       3.422   1.051   0.078  1.00  0.00     0.132 A 
HETATM    9  N1  UNL     1       4.217   2.227  -0.067  1.00  0.00    -0.081 NA
HETATM   10  N8  UNL     1       2.294   0.720  -0.569  1.00  0.00    -0.284 N 
ATOM     11  H8  UNL     1       1.849   1.302  -1.279  1.00  0.00     0.188 HD
ENDBRANCH   4   5
ENDBRANCH   1   4
BRANCH   1  12
HETATM   12  C5  UNL     1      -1.644  -1.560  -0.342  1.00  0.00     0.257 C 
BRANCH  12  13
HETATM   13  C6  UNL     1      -2.911  -1.273   0.411  1.00  0.00     0.200 C 
BRANCH  13  14
HETATM   14  N4  UNL     1      -3.277   0.133   0.339  1.00  0.00    -0.201 N 
HETATM   15  N5  UNL     1      -2.995   1.172   1.085  1.00  0.00    -0.209 N 
HETATM   16  N6  UNL     1      -3.707   1.946   0.308  1.00  0.00    -0.211 N 
ATOM     17  H5  UNL     1      -2.443   1.318   1.930  1.00  0.00     0.211 HD
HETATM   18  N7  UNL     1      -3.994   0.905  -0.444  1.00  0.00    -0.209 N 
ATOM     19  H6  UNL     1      -3.941   2.939   0.292  1.00  0.00     0.211 HD
ATOM     20  H7  UNL     1      -4.547   0.758  -1.289  1.00  0.00     0.211 HD
ENDBRANCH  13  14
ENDBRANCH  12  13
ENDBRANCH   1  12
TORSDOF 5
