REMARK  4 active torsions:
REMARK  status: ('A' for Active; 'I' for Inactive)
REMARK    1  A    between atoms: C2_2  and  C3_3 
REMARK    2  A    between atoms: C3_3  and  N1_4 
REMARK       I    between atoms: N1_4  and  C4_6 
REMARK       I    between atoms: C4_6  and  N2_8 
REMARK    3  A    between atoms: C8_12  and  O2_13 
REMARK    4  A    between atoms: C14_20  and  N3_21 
ROOT
HETATM    1  N1  UNL     1       3.845   0.641  -0.780  1.00  0.00    -0.343 N 
ATOM      2  H1  UNL     1       3.824  -0.318  -0.433  1.00  0.00     0.164 HD
HETATM    3  C4  UNL     1       2.624   1.319  -0.967  1.00  0.00     0.318 C 
HETATM    4  O1  UNL     1       2.650   2.492  -1.394  1.00  0.00    -0.247 OA
HETATM    5  N2  UNL     1       1.399   0.685  -0.678  1.00  0.00    -0.331 N 
HETATM    6  C5  UNL     1       0.135   1.379  -0.875  1.00  0.00     0.132 C 
HETATM    7  C6  UNL     1      -0.839   1.195   0.259  1.00  0.00     0.013 C 
HETATM    8  C7  UNL     1      -0.105   0.372   1.332  1.00  0.00     0.046 C 
HETATM    9  C8  UNL     1       0.110  -0.922   0.525  1.00  0.00     0.078 C 
HETATM   10  C9  UNL     1       1.447  -0.685  -0.179  1.00  0.00     0.165 C 
HETATM   11  C10 UNL     1      -0.944  -0.980  -0.515  1.00  0.00     0.028 C 
HETATM   12  C11 UNL     1      -1.811  -2.194  -0.508  1.00  0.00     0.008 C 
HETATM   13  C12 UNL     1      -2.951  -2.010  -1.434  1.00  0.00     0.002 C 
HETATM   14  C13 UNL     1      -3.444  -0.672  -1.749  1.00  0.00     0.025 C 
HETATM   15  C14 UNL     1      -2.879   0.516  -1.066  1.00  0.00     0.088 C 
HETATM   16  C16 UNL     1      -1.874   0.147  -0.065  1.00  0.00     0.021 C 
ENDROOT
BRANCH   1  17
HETATM   17  C3  UNL     1       5.134   1.252  -1.062  1.00  0.00     0.124 C 
BRANCH  17  18
HETATM   18  C2  UNL     1       6.251   0.307  -0.773  1.00  0.00     0.015 C 
HETATM   19  C1  UNL     1       6.296  -0.142   0.654  1.00  0.00     0.006 C 
ENDBRANCH  17  18
ENDBRANCH   1  17
BRANCH   9  20
HETATM   20  O2  UNL     1       0.166  -2.017   1.360  1.00  0.00    -0.388 OA
ATOM     21  H2  UNL     1       0.299  -2.815   0.862  1.00  0.00     0.210 HD
ENDBRANCH   9  20
BRANCH  15  22
HETATM   22  N3  UNL     1      -3.937   1.251  -0.419  1.00  0.00    -0.362 N 
HETATM   23  C15 UNL     1      -4.781   0.805   0.422  1.00  0.00     0.197 C 
HETATM   24  N4  UNL     1      -5.748   1.738   0.930  1.00  0.00    -0.067 NA
HETATM   25  N5  UNL     1      -4.888  -0.511   0.924  1.00  0.00    -0.067 NA
ATOM     26  H3  UNL     1      -4.018   2.238  -0.663  1.00  0.00     0.162 HD
ENDBRANCH  15  22
TORSDOF 4
