REMARK  3 active torsions:
REMARK  status: ('A' for Active; 'I' for Inactive)
REMARK    1  A    between atoms: C5_7  and  C6_8 
REMARK    2  A    between atoms: C6_8  and  N2_9 
REMARK    3  A    between atoms: N2_9  and  C7_11 
ROOT
HETATM    1  C1  UNL     1      -5.139  -1.323  -0.714  1.00  0.00     0.068 C 
HETATM    2  C2  UNL     1      -3.802  -0.842  -0.259  1.00  0.00     0.013 A 
HETATM    3  N1  UNL     1      -2.654  -1.570  -0.212  1.00  0.00    -0.358 N 
ATOM      4  H1  UNL     1      -2.584  -2.561  -0.444  1.00  0.00     0.166 HD
HETATM    5  C3  UNL     1      -1.602  -0.785   0.192  1.00  0.00     0.051 A 
HETATM    6  C4  UNL     1      -0.263  -0.913   0.381  1.00  0.00     0.051 A 
HETATM    7  C5  UNL     1       0.453   0.182   0.766  1.00  0.00     0.023 A 
HETATM    8  S1  UNL     1      -0.810   1.387   0.852  1.00  0.00    -0.086 SA
HETATM    9  C10 UNL     1      -2.136   0.439   0.393  1.00  0.00     0.040 A 
HETATM   10  C11 UNL     1      -3.498   0.442   0.123  1.00  0.00    -0.020 A 
HETATM   11  C12 UNL     1      -4.420   1.586   0.213  1.00  0.00     0.052 C 
ENDROOT
BRANCH   7  12
HETATM   12  C6  UNL     1       1.866   0.503   0.955  1.00  0.00     0.102 C 
BRANCH  12  13
HETATM   13  N2  UNL     1       2.856  -0.431   0.607  1.00  0.00    -0.394 N 
ATOM     14  H2  UNL     1       2.944  -1.365   1.008  1.00  0.00     0.159 HD
BRANCH  13  15
HETATM   15  C7  UNL     1       3.743   0.130  -0.415  1.00  0.00     0.072 C 
HETATM   16  C8  UNL     1       4.305   1.469  -0.095  1.00  0.00     0.031 C 
HETATM   17  C9  UNL     1       4.971  -0.823  -0.454  1.00  0.00     0.031 C 
ENDBRANCH  13  15
ENDBRANCH  12  13
ENDBRANCH   7  12
TORSDOF 3
