REMARK  7 active torsions:
REMARK  status: ('A' for Active; 'I' for Inactive)
REMARK    1  A    between atoms: N1_2  and  C3_4 
REMARK    2  A    between atoms: C3_4  and  C4_5 
REMARK    3  A    between atoms: C4_5  and  N2_6 
REMARK    4  A    between atoms: N2_6  and  C5_8 
REMARK    5  A    between atoms: C6_13  and  S1_14 
REMARK    6  A    between atoms: S1_14  and  C7_15 
REMARK    7  A    between atoms: C7_15  and  C8_16 
ROOT
HETATM    1  C5  UNL     1       1.743   0.548   0.478  1.00  0.00     0.134 A 
HETATM    2  N3  UNL     1       1.089  -0.637   0.613  1.00  0.00    -0.284 N 
ATOM      3  H3  UNL     1       1.606  -1.513   0.690  1.00  0.00     0.188 HD
HETATM    4  N4  UNL     1      -0.204  -0.627   0.642  1.00  0.00    -0.292 N 
ATOM      5  H4  UNL     1      -0.663  -1.532   0.746  1.00  0.00     0.187 HD
HETATM    6  C6  UNL     1      -1.011   0.450   0.550  1.00  0.00     0.096 A 
HETATM    7  C14 UNL     1      -0.403   1.739   0.412  1.00  0.00     0.022 A 
HETATM    8  C15 UNL     1      -1.002   2.932   0.215  1.00  0.00     0.050 A 
HETATM    9  C16 UNL     1      -0.221   4.016   0.006  1.00  0.00     0.088 A 
HETATM   10  N5  UNL     1      -0.598   5.348  -0.297  1.00  0.00    -0.094 NA
HETATM   11  S2  UNL     1       1.374   3.370   0.091  1.00  0.00    -0.071 SA
HETATM   12  C17 UNL     1       0.979   1.740   0.382  1.00  0.00     0.064 A 
ENDROOT
BRANCH   6  13
HETATM   13  S1  UNL     1      -2.708   0.209   0.581  1.00  0.00    -0.105 SA
BRANCH  13  14
HETATM   14  C7  UNL     1      -3.802   0.592  -0.737  1.00  0.00     0.122 C 
BRANCH  14  15
HETATM   15  C8  UNL     1      -4.989  -0.324  -0.567  1.00  0.00    -0.007 A 
HETATM   16  C9  UNL     1      -4.793  -1.673  -0.669  1.00  0.00     0.056 A 
HETATM   17  C10 UNL     1      -5.883  -2.551  -0.590  1.00  0.00     0.155 A 
HETATM   18  F1  UNL     1      -5.747  -3.891  -0.739  1.00  0.00    -0.203 F 
HETATM   19  C11 UNL     1      -7.130  -2.010  -0.408  1.00  0.00     0.157 A 
HETATM   20  F2  UNL     1      -8.209  -2.860  -0.285  1.00  0.00    -0.203 F 
HETATM   21  C12 UNL     1      -7.364  -0.651  -0.306  1.00  0.00     0.088 A 
HETATM   22  C13 UNL     1      -6.243   0.186  -0.393  1.00  0.00     0.126 A 
HETATM   23  F3  UNL     1      -6.462   1.511  -0.276  1.00  0.00    -0.205 F 
ENDBRANCH  14  15
ENDBRANCH  13  14
ENDBRANCH   6  13
BRANCH   1  24
HETATM   24  N2  UNL     1       2.948   0.651   0.271  1.00  0.00    -0.372 N 
ATOM     25  H2  UNL     1       3.306   1.605   0.222  1.00  0.00     0.161 HD
BRANCH  24  26
HETATM   26  C4  UNL     1       3.911  -0.374   0.090  1.00  0.00     0.151 C 
BRANCH  26  27
HETATM   27  C3  UNL     1       5.265  -0.229   0.672  1.00  0.00     0.290 C 
BRANCH  27  28
HETATM   28  N1  UNL     1       6.037  -1.454   0.326  1.00  0.00     0.081 N 
HETATM   29  C1  UNL     1       6.160  -1.542  -1.106  1.00  0.00     0.309 C 
HETATM   30  C2  UNL     1       5.555  -2.595   0.981  1.00  0.00     0.309 C 
ENDBRANCH  27  28
ENDBRANCH  26  27
ENDBRANCH  24  26
ENDBRANCH   1  24
TORSDOF 7
