REMARK  7 active torsions:
REMARK  status: ('A' for Active; 'I' for Inactive)
REMARK    1  A    between atoms: C2_2  and  N1_4 
REMARK    2  A    between atoms: N1_4  and  C4_7 
REMARK    3  A    between atoms: C4_7  and  C5_8 
REMARK    4  A    between atoms: C5_8  and  N2_9 
REMARK    5  A    between atoms: C8_15  and  C9_16 
REMARK    6  A    between atoms: C8_15  and  C12_25 
REMARK    7  A    between atoms: C9_16  and  N3_17 
ROOT
HETATM    1  C5  UNL     1       0.454   0.897  -0.018  1.00  0.00     0.249 C 
HETATM    2  C6  UNL     1      -0.237   1.862   0.943  1.00  0.00     0.074 C 
HETATM    3  C7  UNL     1      -1.693   1.415   0.700  1.00  0.00     0.054 C 
HETATM    4  C8  UNL     1      -1.569  -0.002   0.313  1.00  0.00     0.124 C 
HETATM    5  O1  UNL     1      -0.224  -0.281   0.062  1.00  0.00    -0.331 OA
ENDROOT
BRANCH   4   6
HETATM    6  C9  UNL     1      -2.187  -1.031   1.205  1.00  0.00     0.116 C 
BRANCH   6   7
HETATM    7  N3  UNL     1      -1.755  -1.127   2.542  1.00  0.00    -0.293 N 
HETATM    8  C10 UNL     1      -0.662  -1.725   3.064  1.00  0.00     0.206 A 
HETATM    9  N4  UNL     1      -0.610  -1.555   4.386  1.00  0.00    -0.293 N 
HETATM   10  N5  UNL     1      -1.661  -0.854   4.702  1.00  0.00    -0.274 N 
ATOM     11  H4  UNL     1       0.108  -1.904   5.021  1.00  0.00     0.187 HD
HETATM   12  C11 UNL     1      -2.374  -0.583   3.594  1.00  0.00     0.201 A 
ATOM     13  H5  UNL     1      -1.906  -0.556   5.646  1.00  0.00     0.189 HD
HETATM   14 CL1  UNL     1      -3.892   0.319   3.698  1.00  0.00    -0.043 Cl
ENDBRANCH   6   7
ENDBRANCH   4   6
BRANCH   4  15
HETATM   15  C12 UNL     1      -2.256  -0.179  -0.990  1.00  0.00    -0.017 A 
HETATM   16  C13 UNL     1      -1.691  -0.983  -1.936  1.00  0.00     0.012 A 
HETATM   17  C14 UNL     1      -2.320  -1.175  -3.177  1.00  0.00     0.026 A 
HETATM   18  C15 UNL     1      -3.519  -0.538  -3.427  1.00  0.00     0.055 A 
HETATM   19 CL2  UNL     1      -4.347  -0.748  -4.975  1.00  0.00    -0.083 Cl
HETATM   20  C16 UNL     1      -4.074   0.276  -2.445  1.00  0.00     0.056 A 
HETATM   21 CL3  UNL     1      -5.589   1.100  -2.725  1.00  0.00    -0.083 Cl
HETATM   22  C17 UNL     1      -3.441   0.462  -1.210  1.00  0.00     0.036 A 
ENDBRANCH   4  15
BRANCH   1  23
HETATM   23  C4  UNL     1       1.907   0.748   0.412  1.00  0.00     0.300 C 
BRANCH  23  24
HETATM   24  N1  UNL     1       2.584  -0.218  -0.429  1.00  0.00    -0.067 N 
ATOM     25  H12 UNL     1       2.520   0.018  -1.419  1.00  0.00     0.277 HD
ATOM     26  H11 UNL     1       2.095  -1.112  -0.462  1.00  0.00     0.277 HD
BRANCH  24  27
HETATM   27  C2  UNL     1       3.937  -0.356   0.009  1.00  0.00     0.178 C 
HETATM   28  C1  UNL     1       4.762   0.903  -0.106  1.00  0.00     0.039 C 
HETATM   29  C3  UNL     1       4.663  -1.447  -0.775  1.00  0.00     0.039 C 
ENDBRANCH  24  27
ENDBRANCH  23  24
ENDBRANCH   1  23
BRANCH   1  30
HETATM   30  N2  UNL     1       0.442   1.525  -1.306  1.00  0.00    -0.045 N 
ATOM     31  H23 UNL     1       0.952   2.408  -1.321  1.00  0.00     0.278 HD
ATOM     32  H22 UNL     1       1.010   1.030  -1.994  1.00  0.00     0.278 HD
ATOM     33  H21 UNL     1      -0.531   1.625  -1.594  1.00  0.00     0.278 HD
ENDBRANCH   1  30
TORSDOF 7
