REMARK  7 active torsions:
REMARK  status: ('A' for Active; 'I' for Inactive)
REMARK    1  A    between atoms: C2_2  and  C3_3 
REMARK    2  A    between atoms: C2_2  and  N1_5 
REMARK       I    between atoms: N1_5  and  C4_7 
REMARK    3  A    between atoms: C4_7  and  C5_9 
REMARK    4  A    between atoms: C6_12  and  C7_13 
REMARK    5  A    between atoms: C7_13  and  O3_14 
REMARK    6  A    between atoms: C8_17  and  C9_18 
REMARK    7  A    between atoms: C9_18  and  C10_20 
ROOT
HETATM    1  C5  UNL     1       0.209   0.646  -0.583  1.00  0.00     0.141 A 
HETATM    2  N2  UNL     1       0.118   1.955  -0.163  1.00  0.00    -0.332 N 
ATOM      3  H2  UNL     1       0.897   2.534   0.150  1.00  0.00     0.168 HD
HETATM    4  C6  UNL     1      -1.158   2.341  -0.233  1.00  0.00     0.148 A 
HETATM    5  O4  UNL     1      -1.833   1.325  -0.670  1.00  0.00    -0.289 OA
HETATM    6  C8  UNL     1      -1.069   0.258  -0.904  1.00  0.00     0.160 A 
ENDROOT
BRANCH   6   7
HETATM    7  C9  UNL     1      -1.604  -1.009  -1.396  1.00  0.00     0.222 C 
HETATM    8  O5  UNL     1      -0.992  -1.714  -2.189  1.00  0.00    -0.284 OA
BRANCH   7   9
HETATM    9  C10 UNL     1      -2.950  -1.441  -0.896  1.00  0.00     0.070 A 
HETATM   10  C11 UNL     1      -3.967  -1.699  -1.776  1.00  0.00     0.092 A 
HETATM   11 CL1  UNL     1      -3.898  -1.593  -3.546  1.00  0.00    -0.075 Cl
HETATM   12  S1  UNL     1      -5.249  -2.152  -0.762  1.00  0.00    -0.063 SA
HETATM   13  C12 UNL     1      -4.478  -2.006   0.748  1.00  0.00     0.099 A 
HETATM   14 CL2  UNL     1      -5.123  -2.296   2.377  1.00  0.00    -0.074 Cl
HETATM   15  C13 UNL     1      -3.219  -1.600   0.415  1.00  0.00     0.079 A 
HETATM   16 CL3  UNL     1      -2.019  -1.297   1.716  1.00  0.00    -0.081 Cl
ENDBRANCH   7   9
ENDBRANCH   6   7
BRANCH   1  17
HETATM   17  C4  UNL     1       1.392  -0.177  -0.602  1.00  0.00     0.271 C 
HETATM   18  N1  UNL     1       2.435  -0.110   0.389  1.00  0.00    -0.345 N 
ATOM     19  H1  UNL     1       2.346   0.554   1.158  1.00  0.00     0.163 HD
HETATM   20  O2  UNL     1       1.555  -1.035  -1.522  1.00  0.00    -0.266 OA
BRANCH  18  21
HETATM   21  C2  UNL     1       3.607  -0.960   0.324  1.00  0.00     0.142 C 
HETATM   22  C1  UNL     1       4.865  -0.287   0.757  1.00  0.00     0.039 C 
BRANCH  21  23
HETATM   23  C3  UNL     1       3.340  -2.196   1.155  1.00  0.00     0.255 C 
HETATM   24  O1  UNL     1       2.282  -2.355   1.731  1.00  0.00    -0.305 OA
ENDBRANCH  21  23
ENDBRANCH  18  21
ENDBRANCH   1  17
BRANCH   4  25
HETATM   25  C7  UNL     1      -1.709   3.699   0.122  1.00  0.00     0.248 C 
BRANCH  25  26
HETATM   26  O3  UNL     1      -0.725   4.499   0.634  1.00  0.00    -0.393 OA
ATOM     27  H3  UNL     1      -1.072   5.355   0.858  1.00  0.00     0.210 HD
ENDBRANCH  25  26
ENDBRANCH   4  25
TORSDOF 7
