REMARK  8 active torsions:
REMARK  status: ('A' for Active; 'I' for Inactive)
REMARK    1  A    between atoms: O1_2  and  C2_3 
REMARK    2  A    between atoms: C5_8  and  N2_9 
REMARK    3  A    between atoms: C8_12  and  N3_13 
REMARK    4  A    between atoms: N3_13  and  C9_15 
REMARK    5  A    between atoms: C12_18  and  N4_19 
REMARK    6  A    between atoms: N4_19  and  C13_21 
REMARK    7  A    between atoms: C13_21  and  C14_22 
REMARK    8  A    between atoms: C17_28  and  C18_30 
ROOT
HETATM    1  N2  UNL     1       2.824  -0.152   0.538  1.00  0.00    -0.363 N 
HETATM    2  C6  UNL     1       1.614   0.675   0.453  1.00  0.00     0.130 C 
HETATM    3  C7  UNL     1       0.704   0.053  -0.621  1.00  0.00     0.076 C 
HETATM    4  C8  UNL     1       0.425  -1.374  -0.340  1.00  0.00     0.035 C 
HETATM    5  C17 UNL     1       1.631  -2.160   0.081  1.00  0.00     0.253 C 
HETATM    6  F4  UNL     1       2.360  -2.476  -1.079  1.00  0.00    -0.225 F 
HETATM    7  C19 UNL     1       2.577  -1.477   1.033  1.00  0.00     0.184 C 
ENDROOT
BRANCH   4   8
HETATM    8  N3  UNL     1      -0.777  -1.704   0.341  1.00  0.00    -0.389 N 
ATOM      9  H3  UNL     1      -0.736  -2.036   1.305  1.00  0.00     0.159 HD
BRANCH   8  10
HETATM   10  C9  UNL     1      -2.034  -1.577  -0.305  1.00  0.00     0.081 C 
HETATM   11  C10 UNL     1      -2.476  -0.253  -0.788  1.00  0.00     0.027 C 
HETATM   12  C11 UNL     1      -3.939  -0.300  -1.226  1.00  0.00     0.027 C 
HETATM   13  C12 UNL     1      -4.806  -0.513  -0.033  1.00  0.00     0.077 C 
HETATM   14  C15 UNL     1      -4.111  -1.266   1.069  1.00  0.00     0.027 C 
HETATM   15  C16 UNL     1      -3.131  -2.275   0.509  1.00  0.00     0.027 C 
BRANCH  13  16
HETATM   16  N4  UNL     1      -5.367   0.701   0.479  1.00  0.00    -0.409 N 
ATOM     17  H4  UNL     1      -5.120   1.077   1.395  1.00  0.00     0.153 HD
BRANCH  16  18
HETATM   18  C13 UNL     1      -6.310   1.353  -0.402  1.00  0.00     0.232 C 
BRANCH  18  19
HETATM   19  C14 UNL     1      -6.773   2.661   0.196  1.00  0.00     0.402 C 
HETATM   20  F1  UNL     1      -7.688   3.230  -0.701  1.00  0.00    -0.169 F 
HETATM   21  F2  UNL     1      -5.672   3.514   0.267  1.00  0.00    -0.169 F 
HETATM   22  F3  UNL     1      -7.376   2.494   1.402  1.00  0.00    -0.169 F 
ENDBRANCH  18  19
ENDBRANCH  16  18
ENDBRANCH  13  16
ENDBRANCH   8  10
ENDBRANCH   4   8
BRANCH   5  23
HETATM   23  C18 UNL     1       1.284  -3.502   0.685  1.00  0.00     0.430 C 
HETATM   24  F5  UNL     1       2.487  -4.104   1.021  1.00  0.00    -0.167 F 
HETATM   25  F6  UNL     1       0.725  -4.259  -0.331  1.00  0.00    -0.167 F 
HETATM   26  F7  UNL     1       0.551  -3.439   1.825  1.00  0.00    -0.167 F 
ENDBRANCH   5  23
BRANCH   1  27
HETATM   27  C5  UNL     1       4.035   0.427   0.125  1.00  0.00     0.105 A 
HETATM   28  N1  UNL     1       4.550   0.022  -1.045  1.00  0.00    -0.352 N 
HETATM   29  C4  UNL     1       5.677   0.546  -1.537  1.00  0.00     0.092 A 
ATOM     30  H1  UNL     1       4.069  -0.705  -1.574  1.00  0.00     0.166 HD
HETATM   31  C3  UNL     1       6.323   1.526  -0.827  1.00  0.00     0.053 A 
HETATM   32  C2  UNL     1       5.850   1.987   0.380  1.00  0.00     0.073 A 
HETATM   33  C20 UNL     1       4.678   1.409   0.845  1.00  0.00     0.085 A 
BRANCH  32  34
HETATM   34  O1  UNL     1       6.502   2.985   1.103  1.00  0.00    -0.356 OA
HETATM   35  C1  UNL     1       7.685   3.539   0.546  1.00  0.00     0.210 C 
ENDBRANCH  32  34
ENDBRANCH   1  27
TORSDOF 8
