REMARK  8 active torsions:
REMARK  status: ('A' for Active; 'I' for Inactive)
REMARK    1  A    between atoms: O1_1  and  N1_3 
REMARK       I    between atoms: C1_5  and  N2_6 
REMARK       I    between atoms: C1_5  and  N6_28 
REMARK    2  A    between atoms: N2_6  and  C2_8 
REMARK    3  A    between atoms: C3_11  and  C4_12 
REMARK    4  A    between atoms: N5_19  and  C8_20 
REMARK    5  A    between atoms: N6_28  and  C14_30 
REMARK    6  A    between atoms: C14_30  and  C15_31 
REMARK    7  A    between atoms: C15_31  and  C16_32 
REMARK    8  A    between atoms: C16_32  and  C17_33 
ROOT
HETATM    1  C2  UNL     1      -0.379   0.449   0.390  1.00  0.00     0.720 A 
HETATM    2  N3  UNL     1      -0.638  -0.861   0.516  1.00  0.00    -0.174 N 
ATOM      3  H3  UNL     1       0.068  -1.583   0.659  1.00  0.00     0.185 HD
HETATM    4  C3  UNL     1      -1.959  -1.087   0.427  1.00  0.00     0.142 A 
HETATM    5  N4  UNL     1      -2.516   0.141   0.239  1.00  0.00    -0.265 N 
ATOM      6  H4  UNL     1      -3.514   0.324   0.131  1.00  0.00     0.189 HD
HETATM    7  N5  UNL     1      -1.564   1.060   0.218  1.00  0.00    -0.083 N 
ENDROOT
BRANCH   1   8
HETATM    8  N2  UNL     1       0.754   1.042   0.422  1.00  0.00    -0.019 N 
HETATM    9  C1  UNL     1       2.016   0.455   0.599  1.00  0.00     0.712 C 
HETATM   10  N1  UNL     1       2.884   1.017   1.351  1.00  0.00    -0.098 N 
HETATM   11  N6  UNL     1       2.330  -0.755  -0.052  1.00  0.00    -0.224 N 
ATOM     12  H1  UNL     1       3.796   0.576   1.467  1.00  0.00     0.213 HD
ATOM     13  H6  UNL     1       1.902  -1.617   0.286  1.00  0.00     0.177 HD
ATOM     14  H2  UNL     1       0.738   2.055   0.306  1.00  0.00     0.203 HD
BRANCH  10  15
HETATM   15  O1  UNL     1       2.626   2.198   2.009  1.00  0.00    -0.276 OA
ATOM     16  H1  UNL     1       3.271   2.616   2.568  1.00  0.00     0.245 HD
ENDBRANCH  10  15
BRANCH  11  17
HETATM   17  C14 UNL     1       3.235  -0.828  -1.181  1.00  0.00     0.138 C 
BRANCH  17  18
HETATM   18  C15 UNL     1       4.659  -0.534  -0.756  1.00  0.00     0.021 C 
BRANCH  18  19
HETATM   19  C16 UNL     1       5.129  -1.544   0.271  1.00  0.00     0.017 C 
BRANCH  19  20
HETATM   20  C17 UNL     1       6.558  -1.183   0.648  1.00  0.00     0.114 C 
HETATM   21 CL3  UNL     1       7.151  -2.345   1.849  1.00  0.00    -0.130 Cl
ENDBRANCH  19  20
ENDBRANCH  18  19
ENDBRANCH  17  18
ENDBRANCH  11  17
ENDBRANCH   1   8
BRANCH   7  22
HETATM   22  C8  UNL     1      -1.819   2.454   0.039  1.00  0.00     0.096 A 
HETATM   23  C9  UNL     1      -1.312   3.099  -1.064  1.00  0.00     0.036 A 
HETATM   24  C10 UNL     1      -1.564   4.445  -1.224  1.00  0.00     0.026 A 
HETATM   25  C11 UNL     1      -2.310   5.161  -0.309  1.00  0.00     0.035 A 
HETATM   26 CL1  UNL     1      -2.632   6.878  -0.511  1.00  0.00    -0.084 Cl
HETATM   27  C12 UNL     1      -2.823   4.515   0.803  1.00  0.00     0.050 A 
HETATM   28  C13 UNL     1      -2.571   3.169   0.964  1.00  0.00     0.065 A 
HETATM   29 CL2  UNL     1      -3.206   2.337   2.354  1.00  0.00    -0.082 Cl
ENDBRANCH   7  22
BRANCH   4  30
HETATM   30  C4  UNL     1      -2.698  -2.389   0.511  1.00  0.00     0.190 C 
HETATM   31  C5  UNL     1      -3.177  -2.823  -0.860  1.00  0.00     0.042 C 
HETATM   32  C6  UNL     1      -4.406  -3.623  -0.474  1.00  0.00     0.029 C 
HETATM   33  C7  UNL     1      -4.899  -2.829   0.714  1.00  0.00     0.168 C 
HETATM   34  O2  UNL     1      -3.810  -2.275   1.328  1.00  0.00    -0.378 OA
ENDBRANCH   4  30
TORSDOF 8
