REMARK  0 active torsions:
REMARK  status: ('A' for Active; 'I' for Inactive)
ROOT
HETATM    1  C1  UNL     1      -2.415  -1.139   0.808  1.00  0.00     0.036 C 
HETATM    2  C2  UNL     1      -1.728   0.094   0.296  1.00  0.00     0.050 C 
HETATM    3  C3  UNL     1      -2.751   1.178   0.149  1.00  0.00     0.036 C 
HETATM    4  C4  UNL     1      -1.056  -0.254  -1.030  1.00  0.00     0.031 C 
HETATM    5  C5  UNL     1       0.234  -0.989  -0.648  1.00  0.00     0.044 C 
HETATM    6  C6  UNL     1       1.158   0.106  -0.109  1.00  0.00     0.108 C 
HETATM    7  C7  UNL     1       2.030   0.566  -1.223  1.00  0.00     0.068 C 
HETATM    8  C8  UNL     1       3.426   0.310  -0.736  1.00  0.00     0.170 C 
HETATM    9  O1  UNL     1       3.360  -0.489   0.378  1.00  0.00    -0.388 OA
HETATM   10  C9  UNL     1       2.104  -0.399   0.924  1.00  0.00     0.207 C 
HETATM   11  O2  UNL     1       0.371   1.095   0.452  1.00  0.00    -0.272 OA
HETATM   12  N1  UNL     1      -0.629   0.515   1.177  1.00  0.00    -0.090 NA
ENDROOT
TORSDOF 0
