REMARK  5 active torsions:
REMARK  status: ('A' for Active; 'I' for Inactive)
REMARK    1  A    between atoms: C4_4  and  C5_5 
REMARK    2  A    between atoms: C5_5  and  C6_6 
REMARK    3  A    between atoms: C7_7  and  O1_8 
REMARK    4  A    between atoms: C11_13  and  O2_14 
REMARK    5  A    between atoms: C16_23  and  O5_24 
ROOT
HETATM    1  C6  UNL     1       1.754   0.459  -1.012  1.00  0.00     0.013 A 
HETATM    2  C7  UNL     1       1.165   1.140  -2.092  1.00  0.00     0.075 A 
HETATM    3  C8  UNL     1      -0.180   1.216  -2.278  1.00  0.00     0.053 A 
HETATM    4  C9  UNL     1      -0.992   0.596  -1.369  1.00  0.00     0.035 A 
HETATM    5  C10 UNL     1      -0.477  -0.073  -0.312  1.00  0.00     0.066 A 
HETATM    6  C11 UNL     1       0.929  -0.151  -0.117  1.00  0.00     0.090 A 
HETATM    7  C12 UNL     1      -1.196  -0.776   0.743  1.00  0.00     0.236 C 
HETATM    8  O3  UNL     1      -0.484  -1.547   1.424  1.00  0.00    -0.283 OA
HETATM    9  C13 UNL     1      -2.608  -0.677   1.075  1.00  0.00     0.234 C 
HETATM   10  O4  UNL     1      -2.855  -0.870   2.292  1.00  0.00    -0.283 OA
HETATM   11  C14 UNL     1      -3.772  -0.383   0.185  1.00  0.00     0.049 A 
HETATM   12  C15 UNL     1      -3.609   0.255  -1.016  1.00  0.00     0.073 A 
HETATM   13  S1  UNL     1      -5.202   0.348  -1.623  1.00  0.00    -0.060 SA
HETATM   14  C16 UNL     1      -6.028  -0.420  -0.348  1.00  0.00     0.114 A 
HETATM   15  C17 UNL     1      -5.020  -0.732   0.529  1.00  0.00    -0.006 A 
HETATM   16  C18 UNL     1      -5.366  -1.448   1.827  1.00  0.00     0.052 C 
HETATM   17  C19 UNL     1      -2.409   0.770  -1.702  1.00  0.00     0.201 C 
HETATM   18  O6  UNL     1      -2.692   1.451  -2.715  1.00  0.00    -0.286 OA
ENDROOT
BRANCH   1  19
HETATM   19  C5  UNL     1       3.215   0.454  -0.922  1.00  0.00     0.071 C 
BRANCH  19  20
HETATM   20  C4  UNL     1       3.866  -0.379   0.065  1.00  0.00    -0.020 C 
HETATM   21  C2  UNL     1       4.651   0.160   0.987  1.00  0.00    -0.091 C 
HETATM   22  C1  UNL     1       4.912   1.620   1.070  1.00  0.00     0.042 C 
HETATM   23  C3  UNL     1       5.298  -0.738   1.981  1.00  0.00     0.042 C 
ENDBRANCH  19  20
ENDBRANCH   1  19
BRANCH   2  24
HETATM   24  O1  UNL     1       2.021   1.759  -2.999  1.00  0.00    -0.360 OA
ATOM     25  H1  UNL     1       1.623   2.219  -3.729  1.00  0.00     0.217 HD
ENDBRANCH   2  24
BRANCH   6  26
HETATM   26  O2  UNL     1       1.323  -0.830   0.953  1.00  0.00    -0.359 OA
ATOM     27  H2  UNL     1       0.747  -1.256   1.577  1.00  0.00     0.217 HD
ENDBRANCH   6  26
BRANCH  14  28
HETATM   28  O5  UNL     1      -7.411  -0.679  -0.215  1.00  0.00    -0.353 OA
ATOM     29  H5  UNL     1      -7.872  -1.108   0.497  1.00  0.00     0.218 HD
ENDBRANCH  14  28
TORSDOF 5
