REMARK  8 active torsions:
REMARK  status: ('A' for Active; 'I' for Inactive)
REMARK    1  A    between atoms: N1_1  and  C1_4 
REMARK    2  A    between atoms: C3_8  and  C4_9 
REMARK    3  A    between atoms: N3_10  and  C5_12 
REMARK    4  A    between atoms: C5_12  and  C6_13 
REMARK    5  A    between atoms: C6_13  and  C7_14 
REMARK    6  A    between atoms: C7_14  and  C8_15 
REMARK    7  A    between atoms: C8_15  and  N4_16 
REMARK    8  A    between atoms: N4_16  and  O1_17 
ROOT
HETATM    1  C1  UNL     1       5.073   0.101  -0.664  1.00  0.00     0.678 A 
HETATM    2  N2  UNL     1       4.680   1.118   0.139  1.00  0.00    -0.201 N 
ATOM      3  H2  UNL     1       5.382   1.758   0.510  1.00  0.00     0.183 HD
HETATM    4  C2  UNL     1       3.406   1.304   0.455  1.00  0.00     0.124 A 
HETATM    5  C3  UNL     1       2.421   0.464  -0.024  1.00  0.00     0.063 A 
HETATM    6  C9  UNL     1       2.833  -0.574  -0.845  1.00  0.00     0.272 A 
HETATM    7  O2  UNL     1       1.994  -1.380  -1.320  1.00  0.00    -0.267 OA
HETATM    8  N5  UNL     1       4.134  -0.733  -1.145  1.00  0.00    -0.156 N 
ATOM      9  H5  UNL     1       4.415  -1.504  -1.751  1.00  0.00     0.187 HD
ENDROOT
BRANCH   5  10
HETATM   10  C4  UNL     1       1.018   0.648   0.309  1.00  0.00     0.101 C 
HETATM   11  N3  UNL     1       0.085  -0.117  -0.122  1.00  0.00    -0.398 N 
ATOM     12  H3  UNL     1       0.310  -0.903  -0.732  1.00  0.00     0.158 HD
BRANCH  11  13
HETATM   13  C5  UNL     1      -1.330   0.144   0.270  1.00  0.00     0.119 C 
BRANCH  13  14
HETATM   14  C6  UNL     1      -2.029  -1.139   0.523  1.00  0.00     0.021 C 
BRANCH  14  15
HETATM   15  C7  UNL     1      -3.413  -1.156   0.987  1.00  0.00     0.020 C 
BRANCH  15  16
HETATM   16  C8  UNL     1      -4.470  -0.549   0.154  1.00  0.00     0.142 C 
BRANCH  16  17
HETATM   17  N4  UNL     1      -4.454   0.837  -0.093  1.00  0.00    -0.104 NA
BRANCH  17  18
HETATM   18  O1  UNL     1      -4.420   1.085  -1.423  1.00  0.00    -0.296 OA
ATOM     19  H1  UNL     1      -4.409   2.020  -1.590  1.00  0.00     0.238 HD
ENDBRANCH  17  18
ENDBRANCH  16  17
ENDBRANCH  15  16
ENDBRANCH  14  15
ENDBRANCH  13  14
ENDBRANCH  11  13
ENDBRANCH   5  10
BRANCH   1  20
HETATM   20  N1  UNL     1       6.327  -0.074  -0.970  1.00  0.00    -0.234 N 
ATOM     21  H12 UNL     1       7.039   0.559  -0.605  1.00  0.00     0.174 HD
ATOM     22  H11 UNL     1       6.623  -0.840  -1.575  1.00  0.00     0.174 HD
ENDBRANCH   1  20
TORSDOF 8
