REMARK  4 active torsions:
REMARK  status: ('A' for Active; 'I' for Inactive)
REMARK    1  A    between atoms: C5_6  and  C6_7 
REMARK    2  A    between atoms: N2_8  and  N3_10 
REMARK    3  A    between atoms: C7_12  and  N4_13 
REMARK    4  A    between atoms: N4_13  and  N5_15 
ROOT
HETATM    1  C1  UNL     1      -4.913   0.679  -0.160  1.00  0.00     0.180 C 
HETATM    2  N1  UNL     1      -3.580   0.215   0.083  1.00  0.00    -0.272 N 
HETATM    3  C2  UNL     1      -3.258  -1.113  -0.284  1.00  0.00     0.113 C 
HETATM    4  C3  UNL     1      -2.066  -1.669  -0.480  1.00  0.00     0.021 C 
HETATM    5  C4  UNL     1      -0.778  -0.998  -0.352  1.00  0.00     0.034 C 
HETATM    6  C5  UNL     1      -0.434   0.186   0.132  1.00  0.00     0.068 C 
HETATM    7  N6  UNL     1      -1.331   1.157   0.688  1.00  0.00    -0.264 N 
ATOM      8  H6  UNL     1      -0.895   1.951   1.157  1.00  0.00     0.190 HD
HETATM    9  N7  UNL     1      -2.733   1.150   0.667  1.00  0.00    -0.136 N 
HETATM   10  N8  UNL     1      -3.249   2.144   1.269  1.00  0.00    -0.309 N 
ATOM     11  H81 UNL     1      -2.628   2.830   1.697  1.00  0.00     0.180 HD
ATOM     12  H82 UNL     1      -4.269   2.139   1.254  1.00  0.00     0.180 HD
ENDROOT
BRANCH   6  13
HETATM   13  C6  UNL     1       0.973   0.539   0.101  1.00  0.00     0.138 C 
HETATM   14  N2  UNL     1       1.806  -0.295  -0.385  1.00  0.00    -0.309 N 
ATOM     15  H2  UNL     1       1.489  -1.195  -0.746  1.00  0.00     0.186 HD
BRANCH  14  16
HETATM   16  N3  UNL     1       3.159   0.045  -0.415  1.00  0.00    -0.295 N 
HETATM   17  C7  UNL     1       4.057  -0.701   0.117  1.00  0.00     0.213 C 
ATOM     18  H3  UNL     1       3.442   0.911  -0.873  1.00  0.00     0.187 HD
BRANCH  17  19
HETATM   19  N4  UNL     1       5.423  -0.355   0.086  1.00  0.00    -0.301 N 
ATOM     20  H4  UNL     1       6.149  -1.054   0.244  1.00  0.00     0.187 HD
BRANCH  19  21
HETATM   21  N5  UNL     1       5.750   0.989  -0.171  1.00  0.00    -0.344 N 
ATOM     22  H52 UNL     1       5.013   1.676  -0.327  1.00  0.00     0.176 HD
ATOM     23  H51 UNL     1       6.739   1.239  -0.193  1.00  0.00     0.176 HD
ENDBRANCH  19  21
ENDBRANCH  17  19
ENDBRANCH  14  16
ENDBRANCH   6  13
TORSDOF 4
