REMARK  20 active torsions:
REMARK  status: ('A' for Active; 'I' for Inactive)
REMARK    1  A    between atoms: C2_2  and  C3_3 
REMARK    2  A    between atoms: C3_3  and  C4_4 
REMARK    3  A    between atoms: C4_4  and  C24_36 
REMARK    4  A    between atoms: N1_5  and  C5_7 
REMARK    5  A    between atoms: C5_7  and  O1_8 
REMARK    6  A    between atoms: C5_7  and  C6_10 
REMARK    7  A    between atoms: C6_10  and  N2_11 
REMARK    8  A    between atoms: C6_10  and  C20_32 
REMARK    9  A    between atoms: N2_11  and  C7_14 
REMARK   10  A    between atoms: C7_14  and  C8_15 
REMARK   11  A    between atoms: C7_14  and  C12_19 
REMARK   12  A    between atoms: C8_15  and  C9_16 
REMARK       I    between atoms: C12_19  and  N3_21 
REMARK   13  A    between atoms: N3_21  and  C13_23 
REMARK   14  A    between atoms: C13_23  and  O3_24 
REMARK   15  A    between atoms: C13_23  and  C14_26 
REMARK   16  A    between atoms: C20_32  and  C22_34 
REMARK       I    between atoms: C24_36  and  N4_38 
REMARK   17  A    between atoms: N4_38  and  C25_40 
REMARK   18  A    between atoms: C25_40  and  C27_42 
REMARK   19  A    between atoms: C27_42  and  O5_43 
REMARK   20  A    between atoms: C27_42  and  N5_45 
ROOT
HETATM    1  C6  UNL     1      -0.709  -2.221  -1.273  1.00  0.00     0.264 C 
ENDROOT
BRANCH   1   2
HETATM    2  C5  UNL     1      -0.100  -0.919  -1.539  1.00  0.00     0.147 C 
BRANCH   2   3
HETATM    3  N1  UNL     1       0.823  -0.480  -2.455  1.00  0.00    -0.338 N 
HETATM    4  C4  UNL     1       1.989   0.067  -2.316  1.00  0.00     0.079 C 
ATOM      5  H1  UNL     1       0.538  -0.608  -3.426  1.00  0.00     0.167 HD
BRANCH   4   6
HETATM    6  C3  UNL     1       2.648   0.405  -3.625  1.00  0.00     0.062 C 
BRANCH   6   7
HETATM    7  C2  UNL     1       3.815  -0.403  -4.006  1.00  0.00     0.002 C 
HETATM    8  C1  UNL     1       3.563  -1.865  -4.240  1.00  0.00     0.005 C 
ENDBRANCH   6   7
ENDBRANCH   4   6
BRANCH   4   9
HETATM    9  C24 UNL     1       2.664   0.368  -1.093  1.00  0.00     0.264 C 
HETATM   10  O4  UNL     1       2.178   0.073   0.048  1.00  0.00    -0.266 OA
HETATM   11  N4  UNL     1       3.906   1.017  -1.064  1.00  0.00    -0.344 N 
ATOM     12  H4  UNL     1       4.382   1.279  -1.927  1.00  0.00     0.163 HD
BRANCH  11  13
HETATM   13  C25 UNL     1       4.501   1.309   0.248  1.00  0.00     0.155 C 
HETATM   14  C26 UNL     1       5.279   0.048   0.660  1.00  0.00     0.041 C 
BRANCH  13  15
HETATM   15  C27 UNL     1       5.364   2.480   0.207  1.00  0.00     0.136 C 
BRANCH  15  16
HETATM   16  O5  UNL     1       5.842   2.847  -0.950  1.00  0.00    -0.348 OA
ATOM     17  H5  UNL     1       6.405   3.611  -0.977  1.00  0.00     0.219 HD
ENDBRANCH  15  16
BRANCH  15  18
HETATM   18  N5  UNL     1       5.734   3.260   1.308  1.00  0.00    -0.360 N 
HETATM   19  C28 UNL     1       5.192   3.009   2.618  1.00  0.00     0.151 C 
HETATM   20  C29 UNL     1       6.300   3.186   3.629  1.00  0.00     0.187 C 
HETATM   21  O6  UNL     1       6.799   4.503   3.478  1.00  0.00    -0.388 OA
HETATM   22  C30 UNL     1       7.595   4.465   2.330  1.00  0.00     0.187 C 
HETATM   23  C31 UNL     1       6.728   4.334   1.093  1.00  0.00     0.151 C 
ENDBRANCH  15  18
ENDBRANCH  13  15
ENDBRANCH  11  13
ENDBRANCH   4   9
ENDBRANCH   2   3
BRANCH   2  24
HETATM   24  O1  UNL     1      -0.510   0.079  -0.755  1.00  0.00    -0.348 OA
ATOM     25  H1  UNL     1      -1.149  -0.225  -0.121  1.00  0.00     0.219 HD
ENDBRANCH   2  24
ENDBRANCH   1   2
BRANCH   1  26
HETATM   26  N2  UNL     1      -1.856  -1.990  -0.354  1.00  0.00    -0.050 N 
ATOM     27  H22 UNL     1      -2.153  -2.850   0.108  1.00  0.00     0.279 HD
ATOM     28  H21 UNL     1      -1.580  -1.462   0.474  1.00  0.00     0.279 HD
BRANCH  26  29
HETATM   29  C7  UNL     1      -2.983  -1.332  -1.085  1.00  0.00     0.278 C 
BRANCH  29  30
HETATM   30  C8  UNL     1      -3.642  -2.406  -1.822  1.00  0.00     0.046 C 
BRANCH  30  31
HETATM   31  C9  UNL     1      -4.845  -2.202  -2.655  1.00  0.00    -0.020 C 
HETATM   32  C10 UNL     1      -5.128  -3.586  -3.327  1.00  0.00     0.009 C 
HETATM   33  C11 UNL     1      -6.116  -2.043  -1.778  1.00  0.00     0.009 C 
ENDBRANCH  30  31
ENDBRANCH  29  30
BRANCH  29  34
HETATM   34  C12 UNL     1      -3.696  -0.510  -0.134  1.00  0.00     0.254 C 
HETATM   35  O2  UNL     1      -3.448  -0.744   1.095  1.00  0.00    -0.271 OA
HETATM   36  N3  UNL     1      -4.605   0.512  -0.449  1.00  0.00    -0.309 N 
ATOM     37  H3  UNL     1      -4.816   0.566  -1.445  1.00  0.00     0.170 HD
BRANCH  36  38
HETATM   38  C13 UNL     1      -5.279   1.465   0.302  1.00  0.00     0.122 C 
BRANCH  38  39
HETATM   39  O3  UNL     1      -6.109   2.186  -0.459  1.00  0.00    -0.349 OA
ATOM     40  H3  UNL     1      -6.570   2.838   0.055  1.00  0.00     0.219 HD
ENDBRANCH  38  39
BRANCH  38  41
HETATM   41  C14 UNL     1      -5.304   1.874   1.674  1.00  0.00     0.060 C 
HETATM   42  C15 UNL     1      -3.959   2.336   2.230  1.00  0.00     0.013 C 
HETATM   43  C16 UNL     1      -4.278   3.254   3.405  1.00  0.00     0.001 C 
HETATM   44  C17 UNL     1      -5.653   3.089   3.950  1.00  0.00     0.000 C 
HETATM   45  C18 UNL     1      -6.210   1.707   3.967  1.00  0.00     0.001 C 
HETATM   46  C19 UNL     1      -5.967   0.958   2.637  1.00  0.00     0.013 C 
ENDBRANCH  38  41
ENDBRANCH  36  38
ENDBRANCH  29  34
ENDBRANCH  26  29
ENDBRANCH   1  26
BRANCH   1  47
HETATM   47  C20 UNL     1       0.186  -3.241  -0.699  1.00  0.00     0.020 C 
HETATM   48  C21 UNL     1       1.368  -3.514  -1.586  1.00  0.00     0.012 C 
BRANCH  47  49
HETATM   49  C22 UNL     1       0.502  -3.153   0.765  1.00  0.00     0.002 C 
HETATM   50  C23 UNL     1       1.410  -4.319   1.187  1.00  0.00     0.005 C 
ENDBRANCH  47  49
ENDBRANCH   1  47
TORSDOF 20
