REMARK  6 active torsions:
REMARK  status: ('A' for Active; 'I' for Inactive)
REMARK       I    between atoms: C2_2  and  N1_4 
REMARK    1  A    between atoms: N1_4  and  C3_6 
REMARK    2  A    between atoms: C3_6  and  C4_7 
REMARK       I    between atoms: C4_7  and  N2_9 
REMARK    3  A    between atoms: N2_9  and  N3_11 
REMARK    4  A    between atoms: N3_11  and  C6_13 
REMARK    5  A    between atoms: C6_13  and  N4_15 
REMARK    6  A    between atoms: N4_15  and  N5_17 
REMARK       I    between atoms: N5_17  and  C7_19 
ROOT
HETATM    1  N3  UNL     1       0.598  -0.894   0.019  1.00  0.00    -0.271 N 
ATOM      2  H3  UNL     1       0.154  -1.779   0.266  1.00  0.00     0.189 HD
ENDROOT
BRANCH   1   3
HETATM    3  N2  UNL     1      -0.176  -0.046  -0.768  1.00  0.00    -0.262 N 
HETATM    4  C4  UNL     1      -1.508   0.292  -0.409  1.00  0.00     0.255 C 
HETATM    5  O2  UNL     1      -2.189   1.019  -1.115  1.00  0.00    -0.270 OA
HETATM    6  C5  UNL     1       0.307   0.542  -2.020  1.00  0.00     0.181 C 
BRANCH   4   7
HETATM    7  C3  UNL     1      -2.024  -0.273   0.851  1.00  0.00     0.227 C 
BRANCH   7   8
HETATM    8  N1  UNL     1      -3.390   0.127   1.059  1.00  0.00    -0.353 N 
HETATM    9  C2  UNL     1      -4.420  -0.238   0.156  1.00  0.00     0.213 C 
HETATM   10  C1  UNL     1      -5.839   0.173   0.371  1.00  0.00     0.117 C 
HETATM   11  O1  UNL     1      -4.226  -0.934  -0.891  1.00  0.00    -0.274 OA
ATOM     12  H1  UNL     1      -3.624   0.688   1.878  1.00  0.00     0.162 HD
ENDBRANCH   7   8
ENDBRANCH   4   7
ENDBRANCH   1   3
BRANCH   1  13
HETATM   13  C6  UNL     1       1.881  -0.721   0.520  1.00  0.00     0.205 C 
HETATM   14  S1  UNL     1       2.599  -1.871   1.478  1.00  0.00    -0.038 SA
BRANCH  13  15
HETATM   15  N4  UNL     1       2.658   0.439   0.276  1.00  0.00    -0.271 N 
ATOM     16  H4  UNL     1       2.253   1.184  -0.291  1.00  0.00     0.189 HD
BRANCH  15  17
HETATM   17  N5  UNL     1       3.937   0.609   0.769  1.00  0.00    -0.252 N 
HETATM   18  C7  UNL     1       5.002  -0.202   0.331  1.00  0.00     0.347 C 
HETATM   19  N6  UNL     1       6.322  -0.006   0.868  1.00  0.00    -0.038 NA
HETATM   20  O3  UNL     1       4.789  -1.088  -0.523  1.00  0.00    -0.249 OA
ATOM     21  H5  UNL     1       4.114   1.335   1.463  1.00  0.00     0.191 HD
ENDBRANCH  15  17
ENDBRANCH  13  15
ENDBRANCH   1  13
TORSDOF 6
