REMARK  5 active torsions:
REMARK  status: ('A' for Active; 'I' for Inactive)
REMARK    1  A    between atoms: C2_2  and  O1_3 
REMARK    2  A    between atoms: C2_2  and  C3_5 
REMARK       I    between atoms: C3_5  and  N1_7 
REMARK    3  A    between atoms: N1_7  and  N2_9 
REMARK       I    between atoms: N2_9  and  C4_11 
REMARK       I    between atoms: C4_11  and  N6_19 
REMARK    4  A    between atoms: N3_12  and  N4_14 
REMARK    5  A    between atoms: N4_14  and  N5_16 
REMARK       I    between atoms: N6_19  and  C5_20 
REMARK       I    between atoms: C5_20  and  N7_22 
ROOT
HETATM    1  N2  UNL     1       1.386   0.925   0.781  1.00  0.00    -0.255 N 
ATOM      2  H2  UNL     1       1.523   1.632   1.503  1.00  0.00     0.191 HD
HETATM    3  C4  UNL     1       0.253   0.085   0.919  1.00  0.00     0.294 C 
HETATM    4  N3  UNL     1       0.205  -0.715   1.967  1.00  0.00    -0.244 N 
ATOM      5  H3  UNL     1      -0.618  -1.313   2.045  1.00  0.00     0.192 HD
HETATM    6  N6  UNL     1      -0.837   0.030   0.042  1.00  0.00    -0.313 NA
HETATM    7  C5  UNL     1      -1.850  -0.021  -0.772  1.00  0.00     0.399 C 
HETATM    8  O3  UNL     1      -2.001   0.626  -1.879  1.00  0.00    -0.230 OA
HETATM    9  N7  UNL     1      -3.005  -0.871  -0.493  1.00  0.00    -0.322 N 
HETATM   10  C6  UNL     1      -3.229  -1.742   0.636  1.00  0.00     0.129 C 
HETATM   11  C7  UNL     1      -4.714  -1.506   0.888  1.00  0.00     0.022 C 
HETATM   12  C8  UNL     1      -5.329  -1.422  -0.495  1.00  0.00     0.022 C 
HETATM   13  C9  UNL     1      -4.165  -0.966  -1.340  1.00  0.00     0.129 C 
ENDROOT
BRANCH   1  14
HETATM   14  N1  UNL     1       2.326   0.883  -0.236  1.00  0.00    -0.264 N 
HETATM   15  C3  UNL     1       3.704   1.113   0.023  1.00  0.00     0.264 C 
HETATM   16  O2  UNL     1       4.064   1.358   1.222  1.00  0.00    -0.269 OA
ATOM     17  H1  UNL     1       2.023   0.683  -1.189  1.00  0.00     0.190 HD
BRANCH  15  18
HETATM   18  C2  UNL     1       4.754   1.090  -1.007  1.00  0.00     0.207 C 
HETATM   19  C1  UNL     1       5.467   2.458  -0.947  1.00  0.00     0.049 C 
BRANCH  18  20
HETATM   20  O1  UNL     1       4.270   0.800  -2.258  1.00  0.00    -0.386 OA
ATOM     21  H1  UNL     1       3.831  -0.042  -2.295  1.00  0.00     0.210 HD
ENDBRANCH  18  20
ENDBRANCH  15  18
ENDBRANCH   1  14
BRANCH   4  22
HETATM   22  N4  UNL     1       1.134  -0.829   2.955  1.00  0.00    -0.246 N 
ATOM     23  H4  UNL     1       2.066  -1.145   2.687  1.00  0.00     0.208 HD
BRANCH  22  24
HETATM   24  N5  UNL     1       0.933  -0.570   4.202  1.00  0.00    -0.331 N 
ATOM     25  H52 UNL     1      -0.005  -0.255   4.451  1.00  0.00     0.178 HD
ATOM     26  H51 UNL     1       1.629  -0.655   4.942  1.00  0.00     0.178 HD
ENDBRANCH  22  24
ENDBRANCH   4  22
TORSDOF 5
