REMARK  6 active torsions:
REMARK  status: ('A' for Active; 'I' for Inactive)
REMARK    1  A    between atoms: C1_2  and  C2_4 
REMARK    2  A    between atoms: C2_4  and  N1_5 
REMARK    3  A    between atoms: C4_7  and  C5_8 
REMARK       I    between atoms: C5_8  and  N2_10 
REMARK    4  A    between atoms: N2_10  and  C6_12 
REMARK    5  A    between atoms: C11_17  and  N3_18 
REMARK    6  A    between atoms: N4_21  and  C14_22 
ROOT
HETATM    1  C6  UNL     1      -1.036  -2.283   0.447  1.00  0.00     0.061 A 
HETATM    2  C7  UNL     1      -1.558  -3.497   0.815  1.00  0.00     0.032 A 
HETATM    3  C8  UNL     1      -0.735  -4.558   1.124  1.00  0.00     0.002 A 
HETATM    4  C9  UNL     1       0.629  -4.418   1.068  1.00  0.00     0.002 A 
HETATM    5  C10 UNL     1       1.167  -3.208   0.701  1.00  0.00     0.031 A 
HETATM    6  C11 UNL     1       0.362  -2.140   0.390  1.00  0.00     0.057 A 
ENDROOT
BRANCH   1   7
HETATM    7  N2  UNL     1      -1.842  -1.178   0.089  1.00  0.00    -0.320 N 
HETATM    8  C5  UNL     1      -3.228  -1.067   0.137  1.00  0.00     0.275 C 
HETATM    9  O3  UNL     1      -4.032  -1.955   0.518  1.00  0.00    -0.266 OA
ATOM     10  H2  UNL     1      -1.342  -0.355  -0.248  1.00  0.00     0.169 HD
BRANCH   8  11
HETATM   11  C4  UNL     1      -3.852   0.218  -0.301  1.00  0.00     0.134 A 
HETATM   12  C3  UNL     1      -5.187   0.548  -0.343  1.00  0.00     0.148 A 
HETATM   13  N1  UNL     1      -5.309   1.827  -0.807  1.00  0.00    -0.277 N 
HETATM   14  N7  UNL     1      -4.084   2.249  -1.036  1.00  0.00    -0.240 N 
HETATM   15  N6  UNL     1      -3.192   1.299  -0.739  1.00  0.00    -0.280 N 
ATOM     16  H7  UNL     1      -3.847   3.175  -1.392  1.00  0.00     0.208 HD
ATOM     17  H6  UNL     1      -2.180   1.383  -0.830  1.00  0.00     0.189 HD
BRANCH  13  18
HETATM   18  C2  UNL     1      -6.569   2.520  -0.988  1.00  0.00     0.262 C 
BRANCH  18  19
HETATM   19  C1  UNL     1      -6.979   3.252   0.211  1.00  0.00     0.193 C 
HETATM   20  O1  UNL     1      -7.700   2.636   1.066  1.00  0.00    -0.647 OA
HETATM   21  O2  UNL     1      -6.646   4.552   0.486  1.00  0.00    -0.647 OA
ENDBRANCH  18  19
ENDBRANCH  13  18
ENDBRANCH   8  11
ENDBRANCH   1   7
BRANCH   6  22
HETATM   22  N3  UNL     1       0.960  -0.878   0.039  1.00  0.00    -0.376 N 
HETATM   23  C12 UNL     1       0.913   0.289   0.871  1.00  0.00     0.143 C 
HETATM   24  C13 UNL     1       2.327   0.787   1.208  1.00  0.00     0.144 C 
HETATM   25  N4  UNL     1       3.145   0.695   0.010  1.00  0.00    -0.364 N 
HETATM   26  C19 UNL     1       2.527   0.483  -1.262  1.00  0.00     0.144 C 
HETATM   27  C20 UNL     1       1.654  -0.766  -1.229  1.00  0.00     0.143 C 
BRANCH  25  28
HETATM   28  C14 UNL     1       4.565   0.816   0.083  1.00  0.00     0.102 A 
HETATM   29  C15 UNL     1       5.141   1.012   1.325  1.00  0.00     0.048 A 
HETATM   30  C16 UNL     1       6.502   1.130   1.415  1.00  0.00     0.005 A 
HETATM   31  C17 UNL     1       7.262   1.051   0.273  1.00  0.00     0.017 A 
HETATM   32  C18 UNL     1       6.639   0.855  -0.945  1.00  0.00     0.089 A 
HETATM   33  N5  UNL     1       5.305   0.739  -1.034  1.00  0.00    -0.352 N 
ATOM     34  H5  UNL     1       4.859   0.594  -1.940  1.00  0.00     0.166 HD
ENDBRANCH  25  28
ENDBRANCH   6  22
TORSDOF 6
