REMARK  14 active torsions:
REMARK  status: ('A' for Active; 'I' for Inactive)
REMARK    1  A    between atoms: C2_2  and  C4_4 
REMARK    2  A    between atoms: C4_4  and  C5_5 
REMARK    3  A    between atoms: C5_5  and  C6_6 
REMARK    4  A    between atoms: C5_5  and  C7_9 
REMARK    5  A    between atoms: C6_6  and  O1_7 
REMARK    6  A    between atoms: C7_9  and  N1_11 
REMARK    7  A    between atoms: N1_11  and  C9_13 
REMARK    8  A    between atoms: C9_13  and  C10_14 
REMARK    9  A    between atoms: C9_13  and  C14_22 
REMARK   10  A    between atoms: C10_14  and  C11_15 
REMARK   11  A    between atoms: C11_15  and  C12_16 
REMARK   12  A    between atoms: C12_16  and  N2_17 
REMARK       I    between atoms: C14_22  and  N5_24 
REMARK   13  A    between atoms: N5_24  and  C15_26 
REMARK   14  A    between atoms: C15_26  and  C16_27 
ROOT
HETATM    1  C9  UNL     1       1.985   0.420   0.050  1.00  0.00     0.170 C 
ENDROOT
BRANCH   1   2
HETATM    2  N1  UNL     1       2.098  -0.933  -0.278  1.00  0.00    -0.405 N 
ATOM      3  H1  UNL     1       2.114  -1.093  -1.285  1.00  0.00     0.154 HD
BRANCH   2   4
HETATM    4  C7  UNL     1       2.191  -2.075   0.431  1.00  0.00     0.079 C 
HETATM    5  C8  UNL     1       1.565  -3.191  -0.476  1.00  0.00     0.032 C 
BRANCH   4   6
HETATM    6  C5  UNL     1       3.548  -2.565   0.829  1.00  0.00     0.031 C 
BRANCH   6   7
HETATM    7  C4  UNL     1       4.350  -2.706  -0.412  1.00  0.00     0.012 C 
BRANCH   7   8
HETATM    8  C2  UNL     1       5.576  -3.514  -0.394  1.00  0.00    -0.022 C 
HETATM    9  C1  UNL     1       6.140  -3.409  -1.847  1.00  0.00     0.009 C 
HETATM   10  C3  UNL     1       6.683  -3.096   0.501  1.00  0.00     0.009 C 
ENDBRANCH   7   8
ENDBRANCH   6   7
BRANCH   6  11
HETATM   11  C6  UNL     1       4.147  -1.921   2.009  1.00  0.00     0.170 C 
BRANCH  11  12
HETATM   12  O1  UNL     1       3.152  -1.944   3.030  1.00  0.00    -0.400 OA
ATOM     13  H1  UNL     1       3.539  -1.528   3.792  1.00  0.00     0.209 HD
ENDBRANCH  11  12
ENDBRANCH   6  11
ENDBRANCH   4   6
ENDBRANCH   2   4
ENDBRANCH   1   2
BRANCH   1  14
HETATM   14  C10 UNL     1       2.752   1.141  -1.054  1.00  0.00     0.039 C 
BRANCH  14  15
HETATM   15  C11 UNL     1       2.772   2.565  -1.186  1.00  0.00     0.047 C 
BRANCH  15  16
HETATM   16  C12 UNL     1       3.269   3.413  -0.055  1.00  0.00     0.063 C 
BRANCH  16  17
HETATM   17  N2  UNL     1       3.326   4.725  -0.500  1.00  0.00    -0.347 N 
HETATM   18  C13 UNL     1       3.484   5.850  -0.101  1.00  0.00     0.200 C 
HETATM   19  N3  UNL     1       3.711   6.223   1.258  1.00  0.00    -0.067 NA
HETATM   20  N4  UNL     1       3.487   6.984  -1.020  1.00  0.00    -0.067 NA
ATOM     21  H2  UNL     1       3.186   4.743  -1.510  1.00  0.00     0.167 HD
ENDBRANCH  16  17
ENDBRANCH  15  16
ENDBRANCH  14  15
ENDBRANCH   1  14
BRANCH   1  22
HETATM   22  C14 UNL     1       0.498   0.723  -0.182  1.00  0.00     0.243 C 
HETATM   23  O2  UNL     1       0.058   0.355  -1.296  1.00  0.00    -0.271 OA
HETATM   24  N5  UNL     1      -0.340   1.360   0.735  1.00  0.00    -0.339 N 
ATOM     25  H5  UNL     1       0.052   1.602   1.645  1.00  0.00     0.167 HD
BRANCH  24  26
HETATM   26  C15 UNL     1      -1.703   1.697   0.492  1.00  0.00     0.069 C 
BRANCH  26  27
HETATM   27  C16 UNL     1      -2.716   0.730   0.100  1.00  0.00     0.029 C 
HETATM   28  C17 UNL     1      -3.074  -0.387   1.001  1.00  0.00     0.013 C 
HETATM   29  C18 UNL     1      -3.956  -1.455   0.393  1.00  0.00     0.031 C 
HETATM   30  C19 UNL     1      -5.423  -1.169   0.369  1.00  0.00     0.028 C 
HETATM   31  C20 UNL     1      -6.033  -0.940   1.718  1.00  0.00     0.038 C 
HETATM   32  C21 UNL     1      -6.129  -2.363  -0.260  1.00  0.00     0.034 C 
HETATM   33  N6  UNL     1      -5.708  -0.051  -0.548  1.00  0.00    -0.381 N 
HETATM   34  C22 UNL     1      -7.593  -2.108  -0.471  1.00  0.00     0.031 C 
HETATM   35  C23 UNL     1      -7.936  -0.701  -0.738  1.00  0.00    -0.010 C 
HETATM   36  C24 UNL     1      -7.057   0.279  -0.780  1.00  0.00     0.082 C 
HETATM   37  C25 UNL     1      -4.762   0.788  -1.252  1.00  0.00     0.128 C 
HETATM   38  C26 UNL     1      -4.019   1.529  -0.135  1.00  0.00     0.008 C 
HETATM   39  C27 UNL     1      -3.762   2.932  -0.560  1.00  0.00     0.012 C 
ENDBRANCH  26  27
ENDBRANCH  24  26
ENDBRANCH   1  22
TORSDOF 14
