REMARK  15 active torsions:
REMARK  status: ('A' for Active; 'I' for Inactive)
REMARK    1  A    between atoms: C7_7  and  C8_8 
REMARK    2  A    between atoms: C8_8  and  C19_28 
REMARK       I    between atoms: N1_9  and  C9_11 
REMARK    3  A    between atoms: C9_11  and  C10_13 
REMARK    4  A    between atoms: C10_13  and  C11_14 
REMARK    5  A    between atoms: C11_14  and  C12_15 
REMARK    6  A    between atoms: C12_15  and  C13_16 
REMARK    7  A    between atoms: C13_16  and  C14_17 
REMARK    8  A    between atoms: C19_28  and  O3_29 
REMARK    9  A    between atoms: C19_28  and  N4_31 
REMARK   10  A    between atoms: N4_31  and  C20_32 
REMARK   11  A    between atoms: C20_32  and  C21_33 
REMARK   12  A    between atoms: C21_33  and  C22_34 
REMARK   13  A    between atoms: C22_34  and  C23_35 
REMARK   14  A    between atoms: C23_35  and  C24_36 
REMARK   15  A    between atoms: C24_36  and  N5_37 
ROOT
HETATM    1  C8  UNL     1       1.000   0.982   0.088  1.00  0.00     0.082 C 
HETATM    2  N1  UNL     1      -0.158   1.398   0.052  1.00  0.00    -0.326 N 
ATOM      3  H1  UNL     1      -0.201   2.327   0.470  1.00  0.00     0.168 HD
HETATM    4  C9  UNL     1      -1.406   1.023  -0.365  1.00  0.00     0.222 C 
HETATM    5  O1  UNL     1      -1.929   1.668  -1.356  1.00  0.00    -0.273 OA
ENDROOT
BRANCH   1   6
HETATM    6  C7  UNL     1       2.113   1.830   0.697  1.00  0.00     0.045 C 
HETATM    7  C2  UNL     1       3.014   2.338  -0.393  1.00  0.00    -0.009 C 
HETATM    8  C1  UNL     1       4.449   2.518  -0.001  1.00  0.00     0.011 C 
HETATM    9  C3  UNL     1       2.478   3.678  -0.918  1.00  0.00     0.005 C 
HETATM   10  C4  UNL     1       2.493   4.704   0.182  1.00  0.00     0.000 C 
HETATM   11  C5  UNL     1       2.382   4.128   1.564  1.00  0.00     0.001 C 
HETATM   12  C6  UNL     1       1.490   2.920   1.528  1.00  0.00     0.011 C 
ENDBRANCH   1   6
BRANCH   1  13
HETATM   13  C19 UNL     1       1.423  -0.310  -0.504  1.00  0.00     0.232 C 
BRANCH  13  14
HETATM   14  O3  UNL     1       0.407  -0.892  -1.091  1.00  0.00    -0.334 OA
ATOM     15  H3  UNL     1       0.678  -1.720  -1.470  1.00  0.00     0.220 HD
ENDBRANCH  13  14
BRANCH  13  16
HETATM   16  N4  UNL     1       2.658  -0.760  -0.410  1.00  0.00    -0.423 NA
BRANCH  16  17
HETATM   17  C20 UNL     1       3.949  -1.231  -0.311  1.00  0.00     0.221 C 
BRANCH  17  18
HETATM   18  C21 UNL     1       4.570  -1.470  -1.694  1.00  0.00     0.033 C 
BRANCH  18  19
HETATM   19  C22 UNL     1       5.988  -1.930  -1.565  1.00  0.00     0.004 C 
BRANCH  19  20
HETATM   20  C23 UNL     1       6.163  -3.187  -0.792  1.00  0.00     0.027 C 
BRANCH  20  21
HETATM   21  C24 UNL     1       7.658  -3.516  -0.757  1.00  0.00     0.229 C 
BRANCH  21  22
HETATM   22  N5  UNL     1       8.303  -2.378  -0.115  1.00  0.00    -0.079 N 
ATOM     23  H53 UNL     1       8.093  -1.485  -0.561  1.00  0.00     0.274 HD
ATOM     24  H52 UNL     1       7.914  -2.152   0.801  1.00  0.00     0.274 HD
ATOM     25  H51 UNL     1       9.299  -2.597  -0.092  1.00  0.00     0.274 HD
ENDBRANCH  21  22
ENDBRANCH  20  21
ENDBRANCH  19  20
ENDBRANCH  18  19
ENDBRANCH  17  18
ENDBRANCH  16  17
ENDBRANCH  13  16
ENDBRANCH   1  13
BRANCH   4  26
HETATM   26  C10 UNL     1      -2.221  -0.053   0.210  1.00  0.00     0.103 C 
BRANCH  26  27
HETATM   27  C11 UNL     1      -3.295  -0.392  -0.809  1.00  0.00     0.009 C 
BRANCH  27  28
HETATM   28  C12 UNL     1      -4.170  -1.528  -0.464  1.00  0.00     0.002 C 
BRANCH  28  29
HETATM   29  C13 UNL     1      -4.985  -1.464   0.763  1.00  0.00     0.017 C 
BRANCH  29  30
HETATM   30  C14 UNL     1      -5.996  -0.375   0.861  1.00  0.00     0.072 C 
HETATM   31  S1  UNL     1      -6.813  -0.612   2.501  1.00  0.00    -0.160 SA
HETATM   32  C15 UNL     1      -7.845  -2.018   1.920  1.00  0.00     0.101 C 
HETATM   33  C16 UNL     1      -8.081  -1.624   0.505  1.00  0.00     0.119 C 
HETATM   34  N2  UNL     1      -9.398  -0.963   0.450  1.00  0.00    -0.336 N 
HETATM   35  C18 UNL     1      -7.155  -0.666  -0.034  1.00  0.00     0.123 C 
HETATM   36  C17 UNL     1      -9.207   0.418   0.206  1.00  0.00     0.316 C 
ATOM     37  H2  UNL     1     -10.299  -1.425   0.568  1.00  0.00     0.164 HD
HETATM   38  O2  UNL     1     -10.068   1.313   0.427  1.00  0.00    -0.247 OA
HETATM   39  N3  UNL     1      -7.889   0.552  -0.318  1.00  0.00    -0.335 N 
ATOM     40  H3  UNL     1      -7.523   1.367  -0.810  1.00  0.00     0.164 HD
ENDBRANCH  29  30
ENDBRANCH  28  29
ENDBRANCH  27  28
ENDBRANCH  26  27
ENDBRANCH   4  26
TORSDOF 15
