REMARK  4 active torsions:
REMARK  status: ('A' for Active; 'I' for Inactive)
REMARK    1  A    between atoms: O1_3  and  N2_4 
REMARK    2  A    between atoms: C2_6  and  C3_7 
REMARK    3  A    between atoms: C2_6  and  C4_12 
REMARK    4  A    between atoms: N3_8  and  O2_10 
REMARK       I    between atoms: C4_12  and  N4_14 
ROOT
HETATM    1  N1  UNL     1       3.256   3.953   0.841  1.00  0.00    -0.162 NA
HETATM    2  C1  UNL     1       3.025   2.872   1.210  1.00  0.00     0.253 C 
HETATM    3  O1  UNL     1       2.777   1.605   1.634  1.00  0.00    -0.159 OA
ENDROOT
BRANCH   3   4
HETATM    4  N2  UNL     1       1.731   0.907   1.096  1.00  0.00    -0.243 N 
HETATM    5  C2  UNL     1       1.871   0.087   0.114  1.00  0.00     0.140 C 
ATOM      6  H2  UNL     1       0.800   1.042   1.490  1.00  0.00     0.196 HD
BRANCH   5   7
HETATM    7  C3  UNL     1       3.229  -0.070  -0.414  1.00  0.00     0.150 C 
HETATM    8  N3  UNL     1       3.438  -0.879  -1.401  1.00  0.00    -0.278 N 
ATOM      9  H3  UNL     1       2.640  -1.387  -1.783  1.00  0.00     0.193 HD
BRANCH   8  10
HETATM   10  O2  UNL     1       4.653  -1.091  -1.957  1.00  0.00    -0.290 OA
ATOM     11  H2  UNL     1       4.807  -1.685  -2.682  1.00  0.00     0.244 HD
ENDBRANCH   8  10
ENDBRANCH   5   7
BRANCH   5  12
HETATM   12  C4  UNL     1       0.763  -0.653  -0.456  1.00  0.00     0.273 C 
HETATM   13  O3  UNL     1       1.024  -1.432  -1.423  1.00  0.00    -0.266 OA
HETATM   14  N4  UNL     1      -0.569  -0.587  -0.037  1.00  0.00    -0.347 N 
HETATM   15  C5  UNL     1      -0.961   0.266   1.053  1.00  0.00     0.126 C 
HETATM   16  C9  UNL     1      -1.609  -1.355  -0.667  1.00  0.00     0.126 C 
HETATM   17  C6  UNL     1      -2.460   0.092   1.303  1.00  0.00     0.020 C 
HETATM   18  C7  UNL     1      -3.277   0.291   0.070  1.00  0.00     0.003 C 
HETATM   19  C8  UNL     1      -2.726  -0.445  -1.123  1.00  0.00     0.020 C 
ENDBRANCH   5  12
ENDBRANCH   3   4
TORSDOF 4
