REMARK  7 active torsions:
REMARK  status: ('A' for Active; 'I' for Inactive)
REMARK    1  A    between atoms: C2_2  and  O1_3 
REMARK    2  A    between atoms: O1_3  and  C3_4 
REMARK    3  A    between atoms: C3_4  and  C4_6 
REMARK    4  A    between atoms: C7_11  and  C8_12 
REMARK    5  A    between atoms: C8_12  and  O4_14 
REMARK    6  A    between atoms: O4_14  and  C9_15 
REMARK    7  A    between atoms: C11_17  and  C12_18 
ROOT
HETATM    1  C4  UNL     1       1.208   0.753   0.272  1.00  0.00     0.122 A 
HETATM    2  N1  UNL     1       0.661   1.723   1.089  1.00  0.00    -0.353 N 
ATOM      3  H1  UNL     1       1.193   2.391   1.647  1.00  0.00     0.166 HD
HETATM    4  C5  UNL     1      -0.665   1.653   1.037  1.00  0.00     0.023 A 
HETATM    5  C6  UNL     1      -1.673   2.498   1.748  1.00  0.00     0.069 C 
HETATM    6  C7  UNL     1      -1.052   0.632   0.183  1.00  0.00     0.076 A 
HETATM    7  C11 UNL     1       0.148   0.077  -0.283  1.00  0.00     0.043 A 
ENDROOT
BRANCH   7   8
HETATM    8  C12 UNL     1       0.183  -1.145  -1.087  1.00  0.00     0.064 A 
HETATM    9  C13 UNL     1       1.008  -2.239  -0.979  1.00  0.00     0.070 A 
HETATM   10  C14 UNL     1       0.616  -3.249  -1.867  1.00  0.00     0.096 A 
HETATM   11 BR1  UNL     1       1.424  -4.959  -2.114  1.00  0.00    -0.030 Br
HETATM   12  N2  UNL     1      -0.435  -2.749  -2.492  1.00  0.00    -0.293 N 
HETATM   13  N3  UNL     1      -0.703  -1.523  -2.050  1.00  0.00    -0.299 N 
ATOM     14  H2  UNL     1      -0.967  -3.235  -3.213  1.00  0.00     0.187 HD
ATOM     15  H3  UNL     1      -1.471  -0.943  -2.388  1.00  0.00     0.187 HD
ENDBRANCH   7   8
BRANCH   1  16
HETATM   16  C3  UNL     1       2.632   0.589   0.051  1.00  0.00     0.311 C 
HETATM   17  O2  UNL     1       3.214  -0.204  -0.691  1.00  0.00    -0.258 OA
BRANCH  16  18
HETATM   18  O1  UNL     1       3.512   1.436   0.766  1.00  0.00    -0.317 OA
BRANCH  18  19
HETATM   19  C2  UNL     1       4.935   1.324   0.593  1.00  0.00     0.175 C 
HETATM   20  C1  UNL     1       5.388  -0.081   0.983  1.00  0.00     0.034 C 
ENDBRANCH  18  19
ENDBRANCH  16  18
ENDBRANCH   1  16
BRANCH   6  21
HETATM   21  C8  UNL     1      -2.401   0.209  -0.124  1.00  0.00     0.296 C 
HETATM   22  O3  UNL     1      -3.113   0.703  -1.049  1.00  0.00    -0.259 OA
BRANCH  21  23
HETATM   23  O4  UNL     1      -3.015  -0.809   0.615  1.00  0.00    -0.318 OA
BRANCH  23  24
HETATM   24  C9  UNL     1      -4.351  -1.223   0.307  1.00  0.00     0.174 C 
HETATM   25  C10 UNL     1      -5.263  -0.053   0.466  1.00  0.00     0.034 C 
ENDBRANCH  23  24
ENDBRANCH  21  23
ENDBRANCH   6  21
TORSDOF 7
