REMARK  11 active torsions:
REMARK  status: ('A' for Active; 'I' for Inactive)
REMARK    1  A    between atoms: C2_2  and  C3_3 
REMARK    2  A    between atoms: C3_3  and  N1_4 
REMARK    3  A    between atoms: N1_4  and  C4_5 
REMARK    4  A    between atoms: N1_4  and  C14_31 
REMARK    5  A    between atoms: C4_5  and  C5_6 
REMARK    6  A    between atoms: C5_6  and  O1_7 
REMARK    7  A    between atoms: O1_7  and  C6_8 
REMARK    8  A    between atoms: C6_8  and  C7_9 
REMARK    9  A    between atoms: C7_9  and  N2_10 
REMARK       I    between atoms: N2_10  and  C8_12 
REMARK   10  A    between atoms: C8_12  and  C9_14 
REMARK   11  A    between atoms: C16_36  and  N10_37 
ROOT
HETATM    1  C7  UNL     1       1.335  -2.667  -2.132  1.00  0.00     0.149 C 
ENDROOT
BRANCH   1   2
HETATM    2  C6  UNL     1       0.106  -1.848  -2.339  1.00  0.00     0.187 C 
BRANCH   2   3
HETATM    3  O1  UNL     1      -0.459  -1.382  -1.236  1.00  0.00    -0.388 OA
BRANCH   3   4
HETATM    4  C5  UNL     1       0.073  -0.554  -0.342  1.00  0.00     0.187 C 
BRANCH   4   5
HETATM    5  C4  UNL     1      -0.932  -0.242   0.756  1.00  0.00     0.149 C 
BRANCH   5   6
HETATM    6  N1  UNL     1      -2.146   0.410   0.207  1.00  0.00    -0.372 N 
BRANCH   6   7
HETATM    7  C3  UNL     1      -1.927   1.715  -0.333  1.00  0.00     0.123 C 
BRANCH   7   8
HETATM    8  C2  UNL     1      -3.053   2.434  -0.983  1.00  0.00     0.015 C 
HETATM    9  C1  UNL     1      -4.159   2.738  -0.042  1.00  0.00     0.006 C 
ENDBRANCH   7   8
ENDBRANCH   6   7
BRANCH   6  10
HETATM   10  C14 UNL     1      -3.382  -0.238   0.363  1.00  0.00     0.141 A 
HETATM   11  C15 UNL     1      -3.994  -0.218   1.631  1.00  0.00     0.164 A 
HETATM   12  N8  UNL     1      -3.328   0.387   2.729  1.00  0.00    -0.080 NA
HETATM   13  N9  UNL     1      -5.188  -0.789   1.824  1.00  0.00    -0.177 N 
HETATM   14  C16 UNL     1      -5.874  -1.408   0.852  1.00  0.00     0.680 A 
ATOM     15  H9  UNL     1      -5.597  -0.752   2.757  1.00  0.00     0.185 HD
HETATM   16  N11 UNL     1      -5.313  -1.440  -0.363  1.00  0.00    -0.154 N 
HETATM   17  C17 UNL     1      -4.095  -0.874  -0.623  1.00  0.00     0.289 A 
ATOM     18  H11 UNL     1      -5.812  -1.903  -1.123  1.00  0.00     0.187 HD
HETATM   19  O5  UNL     1      -3.624  -0.937  -1.789  1.00  0.00    -0.265 OA
BRANCH  14  20
HETATM   20  N10 UNL     1      -7.037  -1.953   1.083  1.00  0.00    -0.234 N 
ATOM     21 2H10 UNL     1      -7.464  -1.929   2.009  1.00  0.00     0.174 HD
ATOM     22 1H10 UNL     1      -7.559  -2.424   0.344  1.00  0.00     0.174 HD
ENDBRANCH  14  20
ENDBRANCH   6  10
ENDBRANCH   5   6
ENDBRANCH   4   5
ENDBRANCH   3   4
ENDBRANCH   2   3
ENDBRANCH   1   2
BRANCH   1  23
HETATM   23  N2  UNL     1       2.397  -1.965  -1.508  1.00  0.00    -0.352 N 
HETATM   24  C8  UNL     1       3.021  -0.826  -2.076  1.00  0.00     0.287 C 
HETATM   25  O2  UNL     1       2.624  -0.413  -3.187  1.00  0.00    -0.264 OA
ATOM     26  H2  UNL     1       2.730  -2.297  -0.603  1.00  0.00     0.162 HD
BRANCH  24  27
HETATM   27  C9  UNL     1       4.100  -0.152  -1.386  1.00  0.00     0.191 A 
HETATM   28  N3  UNL     1       4.694   0.918  -1.938  1.00  0.00    -0.280 N 
HETATM   29  N4  UNL     1       5.676   1.551  -1.330  1.00  0.00    -0.291 N 
ATOM     30  H3  UNL     1       4.377   1.248  -2.850  1.00  0.00     0.188 HD
HETATM   31  C10 UNL     1       6.139   1.159  -0.118  1.00  0.00     0.161 A 
ATOM     32  H4  UNL     1       6.100   2.360  -1.784  1.00  0.00     0.187 HD
HETATM   33  C11 UNL     1       7.161   1.808   0.527  1.00  0.00     0.281 A 
HETATM   34  C13 UNL     1       5.543   0.050   0.484  1.00  0.00     0.145 A 
HETATM   35  O3  UNL     1       7.711   2.811  -0.001  1.00  0.00    -0.265 OA
HETATM   36  N5  UNL     1       7.556   1.341   1.737  1.00  0.00    -0.273 N 
HETATM   37  C12 UNL     1       6.952   0.257   2.294  1.00  0.00     0.328 A 
ATOM     38  H5  UNL     1       8.314   1.808   2.235  1.00  0.00     0.173 HD
HETATM   39  O4  UNL     1       7.328  -0.169   3.424  1.00  0.00    -0.247 OA
HETATM   40  N6  UNL     1       5.956  -0.392   1.687  1.00  0.00    -0.292 N 
ATOM     41  H6  UNL     1       5.518  -1.203   2.124  1.00  0.00     0.172 HD
HETATM   42  N7  UNL     1       4.553  -0.550  -0.181  1.00  0.00    -0.321 N 
ATOM     43  H7  UNL     1       4.111  -1.362   0.251  1.00  0.00     0.169 HD
ENDBRANCH  24  27
ENDBRANCH   1  23
TORSDOF 11
