REMARK  2 active torsions:
REMARK  status: ('A' for Active; 'I' for Inactive)
REMARK    1  A    between atoms: C2_2  and  N1_4 
REMARK       I    between atoms: C4_6  and  N3_8 
REMARK    2  A    between atoms: N3_8  and  C5_10 
ROOT
HETATM    1  N1  UNL     1      -1.798  -0.607  -0.304  1.00  0.00    -0.361 N 
ATOM      2  H1  UNL     1      -1.683  -1.515  -0.754  1.00  0.00     0.162 HD
HETATM    3  C4  UNL     1      -0.764   0.124  -0.230  1.00  0.00     0.184 C 
HETATM    4  N2  UNL     1      -0.799   1.427   0.380  1.00  0.00    -0.064 NA
HETATM    5  N3  UNL     1       0.500  -0.279  -0.739  1.00  0.00    -0.360 N 
ATOM      6  H3  UNL     1       0.581  -0.453  -1.741  1.00  0.00     0.162 HD
ENDROOT
BRANCH   1   7
HETATM    7  C2  UNL     1      -3.100  -0.295   0.173  1.00  0.00     0.076 C 
HETATM    8  C1  UNL     1      -4.047  -1.455   0.021  1.00  0.00     0.032 C 
HETATM    9  C3  UNL     1      -3.722   0.917  -0.438  1.00  0.00     0.032 C 
ENDBRANCH   1   7
BRANCH   5  10
HETATM   10  C5  UNL     1       1.664  -0.455   0.069  1.00  0.00     0.084 C 
HETATM   11  C6  UNL     1       2.836  -0.883  -0.753  1.00  0.00     0.025 C 
HETATM   12  C7  UNL     1       4.066  -0.437   0.024  1.00  0.00     0.002 C 
HETATM   13  C8  UNL     1       3.552   0.423   1.162  1.00  0.00     0.002 C 
HETATM   14  C9  UNL     1       2.165   0.855   0.673  1.00  0.00     0.025 C 
ENDBRANCH   5  10
TORSDOF 2
