REMARK  2 active torsions:
REMARK  status: ('A' for Active; 'I' for Inactive)
REMARK    1  A    between atoms: O1_1  and  N1_3 
REMARK       I    between atoms: N1_3  and  C1_5 
REMARK       I    between atoms: C1_5  and  N2_7 
REMARK    2  A    between atoms: N2_7  and  C2_9 
ROOT
HETATM    1  N1  UNL     1       3.228   0.079  -0.019  1.00  0.00    -0.219 N 
ATOM      2  H1  UNL     1       4.060  -0.506  -0.101  1.00  0.00     0.199 HD
HETATM    3  C1  UNL     1       1.972  -0.514   0.262  1.00  0.00     0.340 C 
HETATM    4  O2  UNL     1       1.947  -1.665   0.750  1.00  0.00    -0.245 OA
HETATM    5  N2  UNL     1       0.747   0.144   0.012  1.00  0.00    -0.337 N 
ATOM      6  H2  UNL     1       0.762   1.083  -0.386  1.00  0.00     0.164 HD
ENDROOT
BRANCH   1   7
HETATM    7  O1  UNL     1       3.320   1.315  -0.167  1.00  0.00    -0.286 OA
ATOM      8  H1  UNL     1       4.162   1.713  -0.355  1.00  0.00     0.244 HD
ENDBRANCH   1   7
BRANCH   5   9
HETATM    9  C2  UNL     1      -0.523  -0.472   0.303  1.00  0.00     0.086 A 
HETATM   10  C3  UNL     1      -1.620   0.368   0.878  1.00  0.00     0.027 A 
HETATM   11  C4  UNL     1      -1.673  -0.081  -0.555  1.00  0.00     0.027 A 
ENDBRANCH   5   9
TORSDOF 2
