REMARK  2 active torsions:
REMARK  status: ('A' for Active; 'I' for Inactive)
REMARK    1  A    between atoms: C1_2  and  C2_4 
REMARK    2  A    between atoms: C8_10  and  N2_11 
ROOT
HETATM    1  C2  UNL     1      -0.846   0.027  -0.323  1.00  0.00     0.049 A 
HETATM    2  C3  UNL     1      -0.504   0.622   1.052  1.00  0.00     0.026 C 
HETATM    3  C4  UNL     1       0.962   0.268   1.103  1.00  0.00     0.018 C 
HETATM    4  C5  UNL     1       0.922  -1.210   0.793  1.00  0.00     0.013 C 
HETATM    5  C6  UNL     1       0.008  -1.146  -0.439  1.00  0.00     0.011 A 
HETATM    6  C7  UNL     1       0.377   0.151  -1.123  1.00  0.00     0.039 A 
HETATM    7  C8  UNL     1       1.425   0.820  -0.242  1.00  0.00     0.193 C 
ENDROOT
BRANCH   7   8
HETATM    8  N2  UNL     1       2.755   0.393  -0.565  1.00  0.00    -0.074 N 
ATOM      9  H23 UNL     1       3.412   0.630   0.179  1.00  0.00     0.274 HD
ATOM     10  H22 UNL     1       2.836  -0.623  -0.533  1.00  0.00     0.274 HD
ATOM     11  H21 UNL     1       3.065   0.762  -1.464  1.00  0.00     0.274 HD
ENDBRANCH   7   8
BRANCH   1  12
HETATM   12  C1  UNL     1      -2.187   0.152  -0.851  1.00  0.00     0.240 C 
HETATM   13  N1  UNL     1      -3.295  -0.393  -0.157  1.00  0.00    -0.061 NA
HETATM   14  O1  UNL     1      -2.418   0.744  -1.937  1.00  0.00    -0.276 OA
ENDBRANCH   1  12
TORSDOF 2
