REMARK  6 active torsions:
REMARK  status: ('A' for Active; 'I' for Inactive)
REMARK    1  A    between atoms: C3_5  and  C4_6 
REMARK    2  A    between atoms: C4_6  and  C5_7 
REMARK    3  A    between atoms: C7_10  and  N2_11 
REMARK    4  A    between atoms: N2_11  and  C8_13 
REMARK    5  A    between atoms: C8_13  and  C10_15 
REMARK    6  A    between atoms: C10_15  and  C11_16 
ROOT
HETATM    1  C1  UNL     1       0.505  -2.254   0.896  1.00  0.00     0.046 C 
HETATM    2  C2  UNL     1       0.953  -1.086   0.418  1.00  0.00     0.057 A 
HETATM    3  N1  UNL     1       2.188  -0.854   0.076  1.00  0.00    -0.349 N 
ATOM      4  H1  UNL     1       2.893  -1.586   0.163  1.00  0.00     0.166 HD
HETATM    5  C3  UNL     1       2.520   0.346  -0.388  1.00  0.00     0.072 A 
HETATM    6  S1  UNL     1       1.047   1.196  -0.348  1.00  0.00    -0.053 SA
HETATM    7  C7  UNL     1       0.059  -0.050   0.271  1.00  0.00     0.098 A 
ENDROOT
BRANCH   7   8
HETATM    8  N2  UNL     1      -1.214  -0.038   0.541  1.00  0.00    -0.378 N 
ATOM      9  H2  UNL     1      -1.654  -0.881   0.911  1.00  0.00     0.160 HD
BRANCH   8  10
HETATM   10  C8  UNL     1      -2.020   1.147   0.327  1.00  0.00     0.078 C 
HETATM   11  C9  UNL     1      -2.056   1.462  -1.163  1.00  0.00     0.032 C 
BRANCH  10  12
HETATM   12  C10 UNL     1      -3.425   0.794   0.766  1.00  0.00     0.024 C 
BRANCH  12  13
HETATM   13  C11 UNL     1      -3.928  -0.375  -0.077  1.00  0.00    -0.003 C 
HETATM   14  C12 UNL     1      -5.328  -0.769   0.318  1.00  0.00     0.005 C 
ENDBRANCH  12  13
ENDBRANCH  10  12
ENDBRANCH   8  10
ENDBRANCH   7   8
BRANCH   5  15
HETATM   15  C4  UNL     1       3.718   0.788  -0.790  1.00  0.00     0.010 C 
BRANCH  15  16
HETATM   16  C5  UNL     1       4.922  -0.042  -0.778  1.00  0.00     0.025 C 
HETATM   17  C6  UNL     1       5.768   0.286   0.446  1.00  0.00     0.009 C 
ENDBRANCH  15  16
ENDBRANCH   5  15
TORSDOF 6
