REMARK  1 active torsions:
REMARK  status: ('A' for Active; 'I' for Inactive)
REMARK    1  A    between atoms: N6_14  and  N7_15 
ROOT
HETATM    1  N1  UNL     1       3.046  -0.602  -0.663  1.00  0.00    -0.062 NA
HETATM    2  C1  UNL     1       1.751   0.031  -0.579  1.00  0.00     0.208 C 
HETATM    3  N2  UNL     1       1.200   0.740  -1.510  1.00  0.00    -0.357 N 
ATOM      4  H2  UNL     1       1.616   0.938  -2.420  1.00  0.00     0.162 HD
HETATM    5  C2  UNL     1      -0.094   1.210  -1.069  1.00  0.00     0.199 C 
HETATM    6  C3  UNL     1      -0.431   0.185  -0.013  1.00  0.00     0.240 C 
HETATM    7  N3  UNL     1      -0.966  -1.023  -0.623  1.00  0.00    -0.079 NA
HETATM    8  N4  UNL     1      -2.357  -0.962  -0.446  1.00  0.00    -0.251 N 
ATOM      9  H4  UNL     1      -3.054  -1.505  -0.956  1.00  0.00     0.187 HD
HETATM   10  C4  UNL     1      -2.622   0.007   0.588  1.00  0.00     0.335 C 
HETATM   11  O1  UNL     1      -3.777   0.189   1.032  1.00  0.00    -0.246 OA
HETATM   12  N5  UNL     1      -1.392   0.634   0.939  1.00  0.00    -0.297 N 
ATOM     13  H5  UNL     1      -1.231   1.275   1.716  1.00  0.00     0.168 HD
HETATM   14  N6  UNL     1       0.885  -0.043   0.549  1.00  0.00    -0.222 N 
ENDROOT
BRANCH  14  15
HETATM   15  N7  UNL     1       1.315  -0.284   1.849  1.00  0.00    -0.337 N 
ATOM     16  H72 UNL     1       2.241  -0.444   2.245  1.00  0.00     0.177 HD
ATOM     17  H71 UNL     1       0.695  -0.337   2.657  1.00  0.00     0.177 HD
ENDBRANCH  14  15
TORSDOF 1
