REMARK  5 active torsions:
REMARK  status: ('A' for Active; 'I' for Inactive)
REMARK    1  A    between atoms: C3_6  and  N3_7 
REMARK    2  A    between atoms: C5_9  and  C6_10 
REMARK    3  A    between atoms: C6_10  and  N4_11 
REMARK    4  A    between atoms: C6_10  and  O1_15 
REMARK    5  A    between atoms: C8_27  and  N9_28 
ROOT
HETATM    1  N1  UNL     1       5.023  -3.697  -0.688  1.00  0.00    -0.188 NA
HETATM    2  C1  UNL     1       4.467  -2.716  -0.423  1.00  0.00     0.138 C 
HETATM    3  C2  UNL     1       3.760  -1.513  -0.107  1.00  0.00     0.217 A 
HETATM    4  N2  UNL     1       2.420  -1.372  -0.333  1.00  0.00    -0.164 N 
ATOM      5  H2  UNL     1       1.906  -2.151  -0.743  1.00  0.00     0.186 HD
HETATM    6  C3  UNL     1       1.765  -0.259  -0.038  1.00  0.00     0.716 A 
HETATM    7  N8  UNL     1       2.483   0.764   0.508  1.00  0.00    -0.021 N 
ATOM      8  H8  UNL     1       2.000   1.631   0.743  1.00  0.00     0.203 HD
HETATM    9  C8  UNL     1       3.801   0.675   0.748  1.00  0.00     0.692 A 
HETATM   10  N10 UNL     1       4.435  -0.472   0.437  1.00  0.00    -0.166 N 
ATOM     11  H10 UNL     1       5.436  -0.558   0.613  1.00  0.00     0.186 HD
ENDROOT
BRANCH   6  12
HETATM   12  N3  UNL     1       0.374  -0.027  -0.255  1.00  0.00    -0.107 N 
HETATM   13  C4  UNL     1      -0.542  -0.678   0.646  1.00  0.00     0.198 C 
HETATM   14  C5  UNL     1      -1.857   0.002   0.793  1.00  0.00     0.175 C 
HETATM   15  N5  UNL     1      -1.978   1.249   0.073  1.00  0.00    -0.215 N 
HETATM   16  C7  UNL     1      -1.295   1.501  -1.144  1.00  0.00     0.687 C 
ATOM     17  H5  UNL     1      -2.580   1.978   0.456  1.00  0.00     0.178 HD
HETATM   18  N6  UNL     1      -1.745   2.295  -2.042  1.00  0.00    -0.234 N 
HETATM   19  N7  UNL     1      -0.038   0.807  -1.301  1.00  0.00    -0.116 N 
ATOM     20  H62 UNL     1      -2.633   2.785  -1.931  1.00  0.00     0.174 HD
ATOM     21  H61 UNL     1      -1.254   2.476  -2.917  1.00  0.00     0.174 HD
ATOM     22  H7  UNL     1       0.528   0.920  -2.142  1.00  0.00     0.206 HD
BRANCH  14  23
HETATM   23  C6  UNL     1      -2.998  -0.948   0.474  1.00  0.00     0.341 C 
BRANCH  23  24
HETATM   24  N4  UNL     1      -4.283  -0.411   0.865  1.00  0.00    -0.051 N 
ATOM     25  H43 UNL     1      -4.288  -0.147   1.850  1.00  0.00     0.277 HD
ATOM     26  H42 UNL     1      -4.441   0.507   0.450  1.00  0.00     0.277 HD
ATOM     27  H41 UNL     1      -5.049  -1.049   0.651  1.00  0.00     0.277 HD
ENDBRANCH  23  24
BRANCH  23  28
HETATM   28  O1  UNL     1      -3.026  -1.240  -0.883  1.00  0.00    -0.368 OA
ATOM     29  H1  UNL     1      -3.740  -1.834  -1.083  1.00  0.00     0.212 HD
ENDBRANCH  23  28
ENDBRANCH  14  23
ENDBRANCH   6  12
BRANCH   9  30
HETATM   30  N9  UNL     1       4.493   1.658   1.270  1.00  0.00    -0.234 N 
ATOM     31  H92 UNL     1       4.013   2.527   1.506  1.00  0.00     0.174 HD
ATOM     32  H91 UNL     1       5.494   1.590   1.452  1.00  0.00     0.174 HD
ENDBRANCH   9  30
TORSDOF 5
