REMARK  5 active torsions:
REMARK  status: ('A' for Active; 'I' for Inactive)
REMARK    1  A    between atoms: N1_1  and  C1_4 
REMARK    2  A    between atoms: C2_7  and  N3_8 
REMARK    3  A    between atoms: N3_8  and  N4_10 
REMARK    4  A    between atoms: N4_10  and  N5_11 
REMARK    5  A    between atoms: N4_10  and  C3_14 
ROOT
HETATM    1  C1  UNL     1      -2.189  -0.934   0.205  1.00  0.00     0.694 A 
HETATM    2  N2  UNL     1      -0.894  -0.999   0.560  1.00  0.00    -0.021 N 
ATOM      3  H2  UNL     1      -0.461  -1.904   0.746  1.00  0.00     0.203 HD
HETATM    4  C2  UNL     1      -0.165   0.133   0.671  1.00  0.00     0.717 A 
HETATM    5  N6  UNL     1      -0.742   1.309   0.427  1.00  0.00    -0.139 N 
ATOM      6  H6  UNL     1      -0.190   2.163   0.512  1.00  0.00     0.189 HD
HETATM    7  C4  UNL     1      -2.022   1.394   0.075  1.00  0.00     0.352 A 
HETATM    8  O2  UNL     1      -2.572   2.534  -0.161  1.00  0.00    -0.246 OA
HETATM    9  N7  UNL     1      -2.754   0.277  -0.040  1.00  0.00    -0.141 N 
ATOM     10  H7  UNL     1      -3.735   0.336  -0.312  1.00  0.00     0.189 HD
ENDROOT
BRANCH   4  11
HETATM   11  N3  UNL     1       1.199   0.078   1.092  1.00  0.00    -0.108 N 
ATOM     12  H3  UNL     1       1.446   0.255   2.066  1.00  0.00     0.208 HD
BRANCH  11  13
HETATM   13  N4  UNL     1       2.180  -0.218   0.166  1.00  0.00    -0.162 N 
BRANCH  13  14
HETATM   14  N5  UNL     1       2.254  -1.469  -0.407  1.00  0.00    -0.321 N 
ATOM     15  H52 UNL     1       1.575  -2.188  -0.156  1.00  0.00     0.179 HD
ATOM     16  H51 UNL     1       2.979  -1.688  -1.091  1.00  0.00     0.179 HD
ENDBRANCH  13  14
BRANCH  13  17
HETATM   17  C3  UNL     1       3.119   0.777  -0.181  1.00  0.00     0.394 C 
HETATM   18  O1  UNL     1       4.035   0.459  -1.019  1.00  0.00    -0.280 OA
ENDBRANCH  13  17
ENDBRANCH  11  13
ENDBRANCH   4  11
BRANCH   1  19
HETATM   19  N1  UNL     1      -2.930  -1.981   0.088  1.00  0.00    -0.234 N 
ATOM     20  H12 UNL     1      -2.506  -2.890   0.272  1.00  0.00     0.174 HD
ATOM     21  H11 UNL     1      -3.913  -1.932  -0.181  1.00  0.00     0.174 HD
ENDBRANCH   1  19
TORSDOF 5
