REMARK  6 active torsions:
REMARK  status: ('A' for Active; 'I' for Inactive)
REMARK    1  A    between atoms: N1_1  and  C1_4 
REMARK    2  A    between atoms: C2_10  and  C3_11 
REMARK    3  A    between atoms: C3_11  and  N4_12 
REMARK    4  A    between atoms: C3_11  and  C4_16 
REMARK    5  A    between atoms: C4_16  and  C5_17 
REMARK    6  A    between atoms: C5_17  and  N5_18 
ROOT
HETATM    1  C3  UNL     1      -0.038  -0.434   0.077  1.00  0.00     0.240 C 
ENDROOT
BRANCH   1   2
HETATM    2  C2  UNL     1      -1.360   0.156  -0.259  1.00  0.00     0.110 A 
HETATM    3  C1  UNL     1      -2.611  -0.260   0.152  1.00  0.00     0.148 A 
HETATM    4  N2  UNL     1      -3.542   0.574  -0.400  1.00  0.00    -0.224 N 
HETATM    5  O1  UNL     1      -2.884   1.441  -1.103  1.00  0.00    -0.155 OA
ATOM      6  H2  UNL     1      -4.554   0.524  -0.282  1.00  0.00     0.198 HD
HETATM    7  N3  UNL     1      -1.615   1.231  -1.046  1.00  0.00    -0.240 N 
ATOM      8  H3  UNL     1      -0.907   1.790  -1.522  1.00  0.00     0.196 HD
BRANCH   3   9
HETATM    9  N1  UNL     1      -2.882  -1.254   0.921  1.00  0.00    -0.382 N 
ATOM     10  H12 UNL     1      -3.806  -1.561   1.225  1.00  0.00     0.157 HD
ATOM     11  H11 UNL     1      -2.187  -1.877   1.333  1.00  0.00     0.157 HD
ENDBRANCH   3   9
ENDBRANCH   1   2
BRANCH   1  12
HETATM   12  N4  UNL     1       0.190  -0.516   1.507  1.00  0.00    -0.069 N 
ATOM     13  H43 UNL     1       0.073   0.396   1.949  1.00  0.00     0.275 HD
ATOM     14  H42 UNL     1      -0.565  -1.022   1.970  1.00  0.00     0.275 HD
ATOM     15  H41 UNL     1       1.097  -0.921   1.738  1.00  0.00     0.275 HD
ENDBRANCH   1  12
BRANCH   1  16
HETATM   16  C4  UNL     1       1.091   0.369  -0.526  1.00  0.00     0.066 C 
BRANCH  16  17
HETATM   17  C5  UNL     1       2.427  -0.224  -0.191  1.00  0.00     0.232 C 
BRANCH  17  18
HETATM   18  N5  UNL     1       3.473   0.579  -0.788  1.00  0.00    -0.079 N 
ATOM     19  H53 UNL     1       3.344   0.696  -1.793  1.00  0.00     0.274 HD
ATOM     20  H52 UNL     1       3.408   1.560  -0.518  1.00  0.00     0.274 HD
ATOM     21  H51 UNL     1       4.382   0.176  -0.560  1.00  0.00     0.274 HD
ENDBRANCH  17  18
ENDBRANCH  16  17
ENDBRANCH   1  16
TORSDOF 6
