REMARK  4 active torsions:
REMARK  status: ('A' for Active; 'I' for Inactive)
REMARK    1  A    between atoms: C2_2  and  O1_3 
REMARK    2  A    between atoms: O1_3  and  C3_4 
REMARK    3  A    between atoms: C3_4  and  O3_6 
REMARK    4  A    between atoms: O3_6  and  N1_7 
ROOT
HETATM    1  N1  UNL     1      -0.082   0.929  -0.836  1.00  0.00    -0.264 N 
ATOM      2  H1  UNL     1      -0.019   1.909  -1.111  1.00  0.00     0.194 HD
HETATM    3  C4  UNL     1      -1.194   0.533  -0.367  1.00  0.00     0.016 C 
HETATM    4  C5  UNL     1      -2.417   1.415  -0.192  1.00  0.00     0.060 C 
HETATM    5  C6  UNL     1      -3.290   0.396   0.500  1.00  0.00     0.007 C 
HETATM    6  C7  UNL     1      -2.341  -0.347   1.449  1.00  0.00     0.018 C 
HETATM    7  C8  UNL     1      -1.675  -0.755   0.127  1.00  0.00     0.048 C 
HETATM    8  C9  UNL     1      -3.113  -0.804  -0.410  1.00  0.00     0.072 C 
HETATM    9 BR1  UNL     1      -4.077  -2.375   0.182  1.00  0.00    -0.090 Br
ENDROOT
BRANCH   1  10
HETATM   10  O3  UNL     1       1.026   0.174  -1.005  1.00  0.00    -0.175 OA
BRANCH  10  11
HETATM   11  C3  UNL     1       2.277   0.455  -0.486  1.00  0.00     0.433 C 
HETATM   12  O2  UNL     1       2.373   1.516   0.206  1.00  0.00    -0.227 OA
BRANCH  11  13
HETATM   13  O1  UNL     1       3.384  -0.336  -0.678  1.00  0.00    -0.267 OA
BRANCH  13  14
HETATM   14  C2  UNL     1       4.634  -0.035  -0.147  1.00  0.00     0.137 C 
HETATM   15  C1  UNL     1       5.681  -0.815  -0.349  1.00  0.00     0.038 C 
ENDBRANCH  13  14
ENDBRANCH  11  13
ENDBRANCH  10  11
ENDBRANCH   1  10
TORSDOF 4
