REMARK  4 active torsions:
REMARK  status: ('A' for Active; 'I' for Inactive)
REMARK    1  A    between atoms: C6_6  and  N1_7 
REMARK    2  A    between atoms: C9_10  and  N2_11 
REMARK       I    between atoms: N2_11  and  C11_13 
REMARK    3  A    between atoms: C11_13  and  O2_15 
REMARK    4  A    between atoms: O2_15  and  C12_16 
ROOT
HETATM    1  N1  UNL     1      -1.257   0.912   1.179  1.00  0.00     0.095 N 
HETATM    2  C7  UNL     1      -0.582   0.834   2.395  1.00  0.00     0.275 C 
HETATM    3  C8  UNL     1       0.607  -0.064   2.109  1.00  0.00     0.057 C 
HETATM    4  C9  UNL     1       1.073   0.580   0.795  1.00  0.00     0.118 C 
HETATM    5  C15 UNL     1      -0.244   0.941   0.158  1.00  0.00     0.298 C 
ENDROOT
BRANCH   4   6
HETATM    6  N2  UNL     1       1.904  -0.277   0.016  1.00  0.00    -0.326 N 
HETATM    7  C10 UNL     1       1.377  -1.545  -0.450  1.00  0.00     0.155 C 
HETATM    8  C11 UNL     1       3.246   0.118  -0.297  1.00  0.00     0.364 C 
HETATM    9  O1  UNL     1       3.691   1.201   0.104  1.00  0.00    -0.238 OA
BRANCH   8  10
HETATM   10  O2  UNL     1       4.104  -0.665  -1.048  1.00  0.00    -0.277 OA
BRANCH  10  11
HETATM   11  C12 UNL     1       5.418  -0.327  -1.381  1.00  0.00     0.141 C 
HETATM   12  C13 UNL     1       6.321  -0.110  -0.201  1.00  0.00     0.064 C 
HETATM   13  C14 UNL     1       5.472   0.862  -2.315  1.00  0.00     0.064 C 
HETATM   14 CL1  UNL     1       6.091  -1.722  -2.289  1.00  0.00    -0.088 Cl
ENDBRANCH  10  11
ENDBRANCH   8  10
ENDBRANCH   4   6
BRANCH   1  15
HETATM   15  C6  UNL     1      -2.282  -0.015   0.888  1.00  0.00     0.223 C 
HETATM   16  C5  UNL     1      -3.475  -0.008   1.772  1.00  0.00     0.036 C 
HETATM   17  C4  UNL     1      -4.460  -1.079   1.344  1.00  0.00     0.002 C 
HETATM   18  C3  UNL     1      -4.888  -0.876  -0.081  1.00  0.00     0.004 C 
HETATM   19  C2  UNL     1      -4.237   0.367  -0.656  1.00  0.00    -0.017 C 
HETATM   20  C1  UNL     1      -4.563   0.519  -2.119  1.00  0.00     0.010 C 
HETATM   21  C16 UNL     1      -2.738   0.204  -0.540  1.00  0.00     0.040 C 
ENDBRANCH   1  15
TORSDOF 4
