REMARK  4 active torsions:
REMARK  status: ('A' for Active; 'I' for Inactive)
REMARK    1  A    between atoms: N1_2  and  C2_4 
REMARK    2  A    between atoms: C3_7  and  C4_8 
REMARK    3  A    between atoms: C11_16  and  C12_17 
REMARK    4  A    between atoms: C13_18  and  C14_19 
ROOT
HETATM    1  C2  UNL     1      -1.705  -2.351  -0.191  1.00  0.00     0.679 A 
HETATM    2  N2  UNL     1      -2.621  -1.395  -0.148  1.00  0.00    -0.191 N 
ATOM      3  H2  UNL     1      -3.602  -1.673  -0.145  1.00  0.00     0.184 HD
HETATM    4  C3  UNL     1      -2.335  -0.065  -0.107  1.00  0.00     0.062 A 
HETATM    5  C10 UNL     1      -1.007   0.269  -0.112  1.00  0.00     0.070 A 
HETATM    6  C11 UNL     1      -0.014  -0.691  -0.156  1.00  0.00     0.105 A 
HETATM    7  N3  UNL     1      -0.399  -1.985  -0.194  1.00  0.00    -0.184 N 
ATOM      8  H3  UNL     1       0.316  -2.711  -0.226  1.00  0.00     0.185 HD
ENDROOT
BRANCH   6   9
HETATM    9  C12 UNL     1       1.370  -0.301  -0.159  1.00  0.00    -0.043 C 
HETATM   10  C13 UNL     1       2.539   0.031  -0.179  1.00  0.00    -0.060 C 
BRANCH  10  11
HETATM   11  C14 UNL     1       3.921   0.413  -0.214  1.00  0.00     0.018 A 
HETATM   12  C15 UNL     1       4.887  -0.560  -0.366  1.00  0.00     0.020 A 
HETATM   13  C16 UNL     1       6.237  -0.233  -0.405  1.00  0.00     0.001 A 
HETATM   14  C17 UNL     1       6.626   1.089  -0.290  1.00  0.00     0.000 A 
HETATM   15  C18 UNL     1       5.666   2.060  -0.138  1.00  0.00     0.001 A 
HETATM   16  C19 UNL     1       4.327   1.722  -0.101  1.00  0.00     0.020 A 
ENDBRANCH  10  11
ENDBRANCH   6   9
BRANCH   4  17
HETATM   17  C4  UNL     1      -3.401   0.925  -0.061  1.00  0.00    -0.009 A 
HETATM   18  C5  UNL     1      -4.708   0.507  -0.059  1.00  0.00     0.017 A 
HETATM   19  C6  UNL     1      -5.782   1.369  -0.017  1.00  0.00     0.043 A 
HETATM   20  C7  UNL     1      -5.511   2.717   0.025  1.00  0.00     0.116 A 
HETATM   21  F1  UNL     1      -6.542   3.609   0.067  1.00  0.00    -0.206 F 
HETATM   22  C8  UNL     1      -4.195   3.178   0.024  1.00  0.00     0.043 A 
HETATM   23  C9  UNL     1      -3.147   2.261  -0.019  1.00  0.00     0.017 A 
ENDBRANCH   4  17
BRANCH   1  24
HETATM   24  N1  UNL     1      -1.971  -3.610  -0.230  1.00  0.00    -0.230 N 
HETATM   25  C1  UNL     1      -0.922  -4.619  -0.276  1.00  0.00     0.165 C 
ATOM     26  H1  UNL     1      -2.946  -3.910  -0.229  1.00  0.00     0.177 HD
ENDBRANCH   1  24
TORSDOF 4
