REMARK  10 active torsions:
REMARK  status: ('A' for Active; 'I' for Inactive)
REMARK    1  A    between atoms: O1_2  and  C2_3 
REMARK    2  A    between atoms: C3_4  and  C4_5 
REMARK    3  A    between atoms: C5_6  and  C6_7 
REMARK    4  A    between atoms: C6_7  and  O2_8 
REMARK    5  A    between atoms: C6_7  and  O3_10 
REMARK    6  A    between atoms: C6_7  and  C7_12 
REMARK    7  A    between atoms: C7_12  and  C8_13 
REMARK    8  A    between atoms: C8_13  and  C9_14 
REMARK    9  A    between atoms: C9_14  and  C10_15 
REMARK   10  A    between atoms: C11_16  and  C12_17 
ROOT
HETATM    1  C6  UNL     1       0.279  -3.762   0.548  1.00  0.00     0.228 C 
ENDROOT
BRANCH   1   2
HETATM    2  C5  UNL     1       1.115  -2.674   0.082  1.00  0.00    -0.033 C 
HETATM    3  C4  UNL     1       1.817  -1.777  -0.324  1.00  0.00    -0.059 C 
BRANCH   3   4
HETATM    4  C3  UNL     1       2.662  -0.721  -0.828  1.00  0.00     0.052 A 
HETATM    5  C2  UNL     1       3.459   0.053  -0.016  1.00  0.00     0.098 A 
HETATM    6  C25 UNL     1       4.263   1.061  -0.513  1.00  0.00     0.009 A 
HETATM    7  C20 UNL     1       4.289   1.325  -1.866  1.00  0.00    -0.023 A 
HETATM    8  C24 UNL     1       5.048   1.815   0.331  1.00  0.00     0.015 A 
HETATM    9  C19 UNL     1       3.498   0.560  -2.693  1.00  0.00     0.014 A 
HETATM   10  C21 UNL     1       5.098   2.341  -2.378  1.00  0.00     0.012 A 
HETATM   11  C18 UNL     1       2.698  -0.444  -2.192  1.00  0.00     0.024 A 
HETATM   12  C22 UNL     1       5.890   3.106  -1.546  1.00  0.00     0.001 A 
HETATM   13  C23 UNL     1       5.847   2.823  -0.196  1.00  0.00     0.001 A 
BRANCH   5  14
HETATM   14  O1  UNL     1       3.439  -0.208   1.367  1.00  0.00    -0.354 OA
HETATM   15  C1  UNL     1       2.477   0.499   2.164  1.00  0.00     0.210 C 
ENDBRANCH   5  14
ENDBRANCH   3   4
ENDBRANCH   1   2
BRANCH   1  16
HETATM   16  O2  UNL     1      -0.121  -4.602  -0.509  1.00  0.00    -0.355 OA
ATOM     17  H2  UNL     1      -0.669  -5.315  -0.203  1.00  0.00     0.214 HD
ENDBRANCH   1  16
BRANCH   1  18
HETATM   18  O3  UNL     1       0.982  -4.540   1.438  1.00  0.00    -0.355 OA
ATOM     19  H3  UNL     1       0.434  -5.253   1.744  1.00  0.00     0.214 HD
ENDBRANCH   1  18
BRANCH   1  20
HETATM   20  C7  UNL     1      -0.990  -3.195   1.148  1.00  0.00     0.084 C 
BRANCH  20  21
HETATM   21  C8  UNL     1      -0.653  -2.282   2.320  1.00  0.00     0.018 C 
BRANCH  21  22
HETATM   22  C9  UNL     1      -1.964  -1.756   2.865  1.00  0.00     0.094 C 
BRANCH  22  23
HETATM   23  C10 UNL     1      -2.660  -1.014   1.814  1.00  0.00    -0.101 C 
HETATM   24  C11 UNL     1      -3.253  -0.394   0.957  1.00  0.00    -0.066 C 
BRANCH  24  25
HETATM   25  C12 UNL     1      -3.979   0.344  -0.050  1.00  0.00     0.036 A 
HETATM   26  C13 UNL     1      -3.959  -0.006  -1.386  1.00  0.00     0.065 A 
HETATM   27  C14 UNL     1      -4.668   0.727  -2.313  1.00  0.00     0.133 A 
HETATM   28  F1  UNL     1      -4.643   0.376  -3.622  1.00  0.00    -0.205 F 
HETATM   29  C15 UNL     1      -5.411   1.823  -1.936  1.00  0.00     0.132 A 
HETATM   30  N1  UNL     1      -5.430   2.164  -0.636  1.00  0.00    -0.366 N 
HETATM   31  C16 UNL     1      -6.222   3.323  -0.265  1.00  0.00     0.155 C 
HETATM   32  C17 UNL     1      -4.741   1.452   0.273  1.00  0.00     0.110 A 
ENDBRANCH  24  25
ENDBRANCH  22  23
ENDBRANCH  21  22
ENDBRANCH  20  21
ENDBRANCH   1  20
TORSDOF 10
