REMARK  6 active torsions:
REMARK  status: ('A' for Active; 'I' for Inactive)
REMARK    1  A    between atoms: N3_10  and  C5_11 
REMARK    2  A    between atoms: C5_11  and  C6_12 
REMARK    3  A    between atoms: C6_12  and  N4_13 
REMARK    4  A    between atoms: N5_19  and  C12_20 
REMARK    5  A    between atoms: C12_20  and  C13_21 
REMARK    6  A    between atoms: C13_21  and  C14_22 
ROOT
HETATM    1  N4  UNL     1      -2.031   0.465   0.501  1.00  0.00    -0.389 N 
HETATM    2  C7  UNL     1      -1.574   1.716   0.095  1.00  0.00     0.059 C 
HETATM    3  C8  UNL     1      -0.212   1.804  -0.510  1.00  0.00     0.054 C 
HETATM    4  C9  UNL     1       0.625   0.575  -0.431  1.00  0.00    -0.031 C 
HETATM    5  C10 UNL     1       1.497   0.540   0.811  1.00  0.00     0.040 C 
HETATM    6  C11 UNL     1       2.938   0.878   0.471  1.00  0.00     0.273 C 
HETATM    7  N5  UNL     1       3.532  -0.151  -0.364  1.00  0.00     0.088 N 
HETATM    8  C20 UNL     1       2.643  -0.540  -1.435  1.00  0.00     0.273 C 
HETATM    9  C21 UNL     1       1.559   0.499  -1.605  1.00  0.00     0.040 C 
HETATM   10  C22 UNL     1      -0.195  -0.702  -0.415  1.00  0.00     0.029 C 
HETATM   11  C23 UNL     1      -1.095  -0.564   0.812  1.00  0.00     0.123 C 
ENDROOT
BRANCH   1  12
HETATM   12  C6  UNL     1      -3.246  -0.040  -0.118  1.00  0.00     0.167 C 
BRANCH  12  13
HETATM   13  C5  UNL     1      -4.388   0.751   0.336  1.00  0.00     0.101 C 
BRANCH  13  14
HETATM   14  N3  UNL     1      -5.690   0.473  -0.065  1.00  0.00    -0.196 N 
HETATM   15  C1  UNL     1      -6.067  -0.569  -0.932  1.00  0.00     0.673 C 
HETATM   16  N1  UNL     1      -5.259  -0.908  -1.858  1.00  0.00    -0.235 N 
HETATM   17  N2  UNL     1      -7.340  -1.240  -0.785  1.00  0.00    -0.226 N 
ATOM     18  H12 UNL     1      -5.532  -1.663  -2.487  1.00  0.00     0.174 HD
ATOM     19  H11 UNL     1      -4.361  -0.435  -1.962  1.00  0.00     0.174 HD
HETATM   20  C2  UNL     1      -8.398  -0.437  -0.186  1.00  0.00     0.139 C 
ATOM     21  H2  UNL     1      -7.486  -2.206  -1.079  1.00  0.00     0.177 HD
HETATM   22  C3  UNL     1      -7.862   0.364   0.966  1.00  0.00     0.041 C 
HETATM   23  C4  UNL     1      -6.782   1.317   0.464  1.00  0.00     0.148 C 
ENDBRANCH  13  14
ENDBRANCH  12  13
ENDBRANCH   1  12
BRANCH   7  24
HETATM   24  C12 UNL     1       3.854  -1.333   0.405  1.00  0.00     0.277 C 
BRANCH  24  25
HETATM   25  C13 UNL     1       4.965  -1.170   1.381  1.00  0.00     0.068 C 
BRANCH  25  26
HETATM   26  C14 UNL     1       6.281  -0.837   0.808  1.00  0.00    -0.056 A 
HETATM   27  C15 UNL     1       7.190  -1.830   0.452  1.00  0.00     0.009 A 
HETATM   28  C16 UNL     1       8.424  -1.517  -0.082  1.00  0.00     0.024 A 
HETATM   29  C17 UNL     1       8.790  -0.192  -0.277  1.00  0.00     0.034 A 
HETATM   30 CL1  UNL     1      10.383   0.179  -0.960  1.00  0.00    -0.084 Cl
HETATM   31  C18 UNL     1       7.910   0.787   0.065  1.00  0.00     0.024 A 
HETATM   32  C19 UNL     1       6.665   0.460   0.603  1.00  0.00     0.009 A 
ENDBRANCH  25  26
ENDBRANCH  24  25
ENDBRANCH   7  24
TORSDOF 6
