REMARK  9 active torsions:
REMARK  status: ('A' for Active; 'I' for Inactive)
REMARK    1  A    between atoms: C2_2  and  N1_3 
REMARK    2  A    between atoms: N2_6  and  C5_7 
REMARK    3  A    between atoms: C5_7  and  C6_8 
REMARK    4  A    between atoms: C7_9  and  C8_10 
REMARK    5  A    between atoms: C8_10  and  O1_11 
REMARK    6  A    between atoms: C8_10  and  N3_13 
REMARK    7  A    between atoms: N3_13  and  C9_15 
REMARK    8  A    between atoms: C10_16  and  O2_17 
REMARK    9  A    between atoms: N8_31  and  C14_32 
ROOT
HETATM    1  C6  UNL     1       0.137  -1.536  -0.484  1.00  0.00     0.087 A 
HETATM    2  C7  UNL     1      -1.044  -1.178  -1.012  1.00  0.00     0.126 A 
HETATM    3  N6  UNL     1      -1.220  -2.072  -2.077  1.00  0.00    -0.280 N 
ATOM      4  H6  UNL     1      -2.015  -2.083  -2.716  1.00  0.00     0.189 HD
HETATM    5  N7  UNL     1      -0.193  -2.896  -2.120  1.00  0.00    -0.234 N 
ATOM      6  H7  UNL     1      -0.058  -3.644  -2.801  1.00  0.00     0.209 HD
HETATM    7  N8  UNL     1       0.633  -2.592  -1.134  1.00  0.00    -0.221 N 
ENDROOT
BRANCH   2   8
HETATM    8  C8  UNL     1      -2.197  -0.404  -0.500  1.00  0.00     0.171 C 
BRANCH   8   9
HETATM    9  O1  UNL     1      -2.679  -0.787   0.652  1.00  0.00    -0.344 OA
ATOM     10  H1  UNL     1      -3.419  -0.290   0.981  1.00  0.00     0.219 HD
ENDBRANCH   8   9
BRANCH   8  11
HETATM   11  N3  UNL     1      -2.866   0.642  -1.113  1.00  0.00    -0.327 N 
ATOM     12  H3  UNL     1      -2.480   1.103  -1.937  1.00  0.00     0.168 HD
BRANCH  11  13
HETATM   13  C9  UNL     1      -4.135   1.062  -0.544  1.00  0.00     0.154 A 
HETATM   14  C10 UNL     1      -5.110   0.080  -0.918  1.00  0.00     0.177 A 
HETATM   15  N4  UNL     1      -6.407   0.259  -0.674  1.00  0.00    -0.287 N 
HETATM   16  C11 UNL     1      -6.836   1.372  -0.071  1.00  0.00     0.331 A 
ATOM     17  H4  UNL     1      -7.078  -0.458  -0.949  1.00  0.00     0.172 HD
HETATM   18  O3  UNL     1      -8.076   1.507   0.136  1.00  0.00    -0.246 OA
HETATM   19  N5  UNL     1      -5.925   2.297   0.284  1.00  0.00    -0.269 N 
HETATM   20  C12 UNL     1      -6.434   3.496   0.894  1.00  0.00     0.164 C 
HETATM   21  C13 UNL     1      -4.569   2.154   0.053  1.00  0.00     0.282 A 
HETATM   22  O4  UNL     1      -3.779   3.078   0.430  1.00  0.00    -0.265 OA
BRANCH  14  23
HETATM   23  O2  UNL     1      -4.700  -1.096  -1.545  1.00  0.00    -0.344 OA
ATOM     24  H2  UNL     1      -5.346  -1.747  -1.793  1.00  0.00     0.219 HD
ENDBRANCH  14  23
ENDBRANCH  11  13
ENDBRANCH   8  11
ENDBRANCH   2   8
BRANCH   1  25
HETATM   25  C5  UNL     1       0.795  -0.814   0.654  1.00  0.00     0.179 C 
BRANCH  25  26
HETATM   26  N2  UNL     1       2.102  -0.383   0.315  1.00  0.00    -0.404 N 
HETATM   27  C4  UNL     1       2.752   0.342   1.339  1.00  0.00     0.147 C 
HETATM   28  C3  UNL     1       3.704   1.432   0.986  1.00  0.00     0.291 C 
HETATM   29  N1  UNL     1       4.104   1.560  -0.374  1.00  0.00     0.091 N 
HETATM   30  C17 UNL     1       3.971   0.280  -1.040  1.00  0.00     0.291 C 
HETATM   31  C16 UNL     1       2.444  -0.027  -1.009  1.00  0.00     0.147 C 
BRANCH  29  32
HETATM   32  C2  UNL     1       5.521   1.924  -0.500  1.00  0.00     0.268 C 
HETATM   33  C1  UNL     1       5.846   3.286  -0.005  1.00  0.00     0.037 C 
ENDBRANCH  29  32
ENDBRANCH  25  26
ENDBRANCH   1  25
BRANCH   7  34
HETATM   34  C14 UNL     1       1.590  -3.510  -0.473  1.00  0.00     0.196 A 
HETATM   35  N9  UNL     1       2.809  -3.631  -0.194  1.00  0.00    -0.220 N 
HETATM   36  O5  UNL     1       2.989  -4.682   0.578  1.00  0.00    -0.153 OA
ATOM     37  H9  UNL     1       3.549  -3.008  -0.517  1.00  0.00     0.198 HD
HETATM   38  N10 UNL     1       1.888  -5.264   0.816  1.00  0.00    -0.222 N 
HETATM   39  C15 UNL     1       0.917  -4.616   0.203  1.00  0.00     0.169 A 
ATOM     40  H10 UNL     1       1.772  -6.099   1.390  1.00  0.00     0.198 HD
HETATM   41  N11 UNL     1      -0.308  -4.823   0.131  1.00  0.00    -0.381 N 
ATOM     42 2H11 UNL     1      -1.059  -4.322  -0.343  1.00  0.00     0.157 HD
ATOM     43 1H11 UNL     1      -0.778  -5.595   0.603  1.00  0.00     0.157 HD
ENDBRANCH   7  34
TORSDOF 9
