REMARK  4 active torsions:
REMARK  status: ('A' for Active; 'I' for Inactive)
REMARK    1  A    between atoms: N2_4  and  C1_6 
REMARK    2  A    between atoms: C1_6  and  N3_7 
REMARK    3  A    between atoms: C3_13  and  N6_14 
REMARK       I    between atoms: N6_14  and  C4_16 
REMARK       I    between atoms: C4_16  and  N8_20 
REMARK    4  A    between atoms: N8_20  and  C5_22 
ROOT
HETATM    1  N6  UNL     1      -0.511  -0.151   0.603  1.00  0.00    -0.020 N 
ATOM      2  H6  UNL     1      -0.889   0.585   1.199  1.00  0.00     0.203 HD
HETATM    3  C4  UNL     1       0.869  -0.519   0.677  1.00  0.00     0.705 C 
HETATM    4  N7  UNL     1       1.204  -1.440   1.519  1.00  0.00    -0.234 N 
ATOM      5  H71 UNL     1       2.188  -1.702   1.572  1.00  0.00     0.174 HD
ATOM      6  H72 UNL     1       0.533  -1.909   2.127  1.00  0.00     0.174 HD
HETATM    7  N8  UNL     1       1.793   0.126  -0.160  1.00  0.00    -0.020 N 
ATOM      8  H8  UNL     1       1.521   0.307  -1.126  1.00  0.00     0.203 HD
ENDROOT
BRANCH   1   9
HETATM    9  C3  UNL     1      -1.270  -0.778  -0.242  1.00  0.00     0.716 A 
HETATM   10  N3  UNL     1      -2.574  -0.518  -0.396  1.00  0.00    -0.103 N 
HETATM   11  N4  UNL     1      -3.047  -1.335  -1.336  1.00  0.00    -0.278 N 
HETATM   12  C2  UNL     1      -2.051  -2.124  -1.789  1.00  0.00     0.215 A 
ATOM     13  H4  UNL     1      -4.013  -1.360  -1.663  1.00  0.00     0.188 HD
HETATM   14  N5  UNL     1      -0.940  -1.763  -1.093  1.00  0.00    -0.184 N 
ATOM     15  H5  UNL     1      -0.012  -2.172  -1.199  1.00  0.00     0.185 HD
BRANCH  10  16
HETATM   16  C1  UNL     1      -3.389   0.446   0.283  1.00  0.00     0.306 C 
BRANCH  16  17
HETATM   17  N2  UNL     1      -3.415   1.712  -0.377  1.00  0.00    -0.322 N 
HETATM   18  N1  UNL     1      -4.206   2.580   0.017  1.00  0.00    -0.348 N 
ATOM     19  H12 UNL     1      -4.823   2.377   0.803  1.00  0.00     0.176 HD
ATOM     20  H11 UNL     1      -4.225   3.484  -0.454  1.00  0.00     0.176 HD
ATOM     21  H2  UNL     1      -2.791   1.899  -1.162  1.00  0.00     0.181 HD
ENDBRANCH  16  17
ENDBRANCH  10  16
ENDBRANCH   1   9
BRANCH   7  22
HETATM   22  C5  UNL     1       2.966   0.503   0.222  1.00  0.00     0.722 A 
HETATM   23  N9  UNL     1       3.569   0.390   1.419  1.00  0.00    -0.116 N 
HETATM   24  N10 UNL     1       4.785   0.912   1.388  1.00  0.00     0.006 NA
ATOM     25  H9  UNL     1       3.146  -0.041   2.241  1.00  0.00     0.202 HD
HETATM   26  N11 UNL     1       4.950   1.360   0.151  1.00  0.00     0.006 NA
HETATM   27  N12 UNL     1       3.862   1.123  -0.567  1.00  0.00    -0.116 N 
ATOM     28  H12 UNL     1       3.727   1.368  -1.548  1.00  0.00     0.202 HD
ENDBRANCH   7  22
TORSDOF 4
