REMARK  5 active torsions:
REMARK  status: ('A' for Active; 'I' for Inactive)
REMARK    1  A    between atoms: N1_1  and  N2_4 
REMARK    2  A    between atoms: N2_4  and  C1_6 
REMARK    3  A    between atoms: C2_9  and  N4_10 
REMARK    4  A    between atoms: N4_10  and  C3_12 
REMARK    5  A    between atoms: C5_18  and  C6_19 
ROOT
HETATM    1  C1  UNL     1       0.451  -1.189  -0.575  1.00  0.00     0.186 C 
HETATM    2  N3  UNL     1       1.218  -0.150  -0.200  1.00  0.00    -0.171 N 
ATOM      3  H3  UNL     1       2.213  -0.240  -0.404  1.00  0.00     0.186 HD
HETATM    4  C2  UNL     1       0.848   0.997   0.411  1.00  0.00     0.687 C 
HETATM    5  N5  UNL     1      -0.352   1.277   0.951  1.00  0.00    -0.177 N 
ATOM      6  H5  UNL     1      -0.351   2.043   1.625  1.00  0.00     0.185 HD
HETATM    7  C4  UNL     1      -1.569   0.699   0.740  1.00  0.00     0.149 C 
HETATM    8  N6  UNL     1      -2.675   1.194   1.438  1.00  0.00    -0.081 NA
HETATM    9  C5  UNL     1      -1.866  -0.362  -0.113  1.00  0.00     0.097 C 
HETATM   10  C7  UNL     1      -0.938  -1.268  -0.608  1.00  0.00     0.234 C 
HETATM   11  O3  UNL     1      -1.403  -2.285  -1.154  1.00  0.00    -0.283 OA
ENDROOT
BRANCH   1  12
HETATM   12  N2  UNL     1       1.060  -2.261  -0.957  1.00  0.00    -0.288 N 
ATOM     13  H2  UNL     1       0.533  -3.083  -1.254  1.00  0.00     0.188 HD
BRANCH  12  14
HETATM   14  N1  UNL     1       2.457  -2.270  -0.955  1.00  0.00    -0.344 N 
ATOM     15  H12 UNL     1       2.969  -1.440  -0.656  1.00  0.00     0.176 HD
ATOM     16  H11 UNL     1       2.938  -3.117  -1.257  1.00  0.00     0.176 HD
ENDBRANCH  12  14
ENDBRANCH   1  12
BRANCH   4  17
HETATM   17  N4  UNL     1       1.745   1.933   0.488  1.00  0.00    -0.167 N 
ATOM     18  H4  UNL     1       1.496   2.811   0.943  1.00  0.00     0.186 HD
BRANCH  17  19
HETATM   19  C3  UNL     1       3.049   1.787  -0.031  1.00  0.00     0.368 C 
HETATM   20  O1  UNL     1       4.022   2.016   0.727  1.00  0.00    -0.283 OA
ENDBRANCH  17  19
ENDBRANCH   4  17
BRANCH   9  21
HETATM   21  C6  UNL     1      -3.249  -0.535  -0.515  1.00  0.00     0.277 C 
HETATM   22  O2  UNL     1      -4.129   0.248  -0.103  1.00  0.00    -0.301 OA
ENDBRANCH   9  21
TORSDOF 5
