REMARK  16 active torsions:
REMARK  status: ('A' for Active; 'I' for Inactive)
REMARK    1  A    between atoms: C3_3  and  N1_4 
REMARK    2  A    between atoms: C4_8  and  O1_9 
REMARK    3  A    between atoms: O1_9  and  C5_10 
REMARK    4  A    between atoms: C7_12  and  C8_13 
REMARK    5  A    between atoms: C8_13  and  N2_14 
REMARK    6  A    between atoms: C11_20  and  N3_21 
REMARK    7  A    between atoms: C12_26  and  O3_27 
REMARK    8  A    between atoms: O3_27  and  C13_28 
REMARK    9  A    between atoms: C14_30  and  C15_31 
REMARK   10  A    between atoms: C15_31  and  O5_32 
REMARK   11  A    between atoms: C16_37  and  C17_38 
REMARK   12  A    between atoms: C17_38  and  O6_39 
REMARK   13  A    between atoms: C18_41  and  O7_42 
REMARK   14  A    between atoms: C19_44  and  O8_45 
REMARK   15  A    between atoms: O8_45  and  C20_46 
REMARK   16  A    between atoms: C24_50  and  N5_51 
ROOT
HETATM    1  C1  UNL     1       0.907   2.822  -0.637  1.00  0.00     0.015 C 
HETATM    2  C2  UNL     1       0.301   1.831  -1.627  1.00  0.00     0.051 C 
HETATM    3  C3  UNL     1       1.240   0.659  -1.820  1.00  0.00     0.244 C 
HETATM    4  C4  UNL     1       1.652   0.189  -0.444  1.00  0.00     0.294 C 
HETATM    5  O2  UNL     1       0.528   0.049   0.343  1.00  0.00    -0.327 OA
HETATM    6  C12 UNL     1      -0.653  -0.002  -0.343  1.00  0.00     0.295 C 
HETATM    7  C19 UNL     1      -1.000   1.288  -1.055  1.00  0.00     0.183 C 
ENDROOT
BRANCH   6   8
HETATM    8  O3  UNL     1      -1.672  -0.207   0.615  1.00  0.00    -0.326 OA
BRANCH   8   9
HETATM    9  C13 UNL     1      -2.362  -1.368   0.393  1.00  0.00     0.296 C 
HETATM   10  O4  UNL     1      -3.696  -1.051   0.126  1.00  0.00    -0.324 OA
HETATM   11  C14 UNL     1      -4.520  -2.148   0.167  1.00  0.00     0.347 C 
HETATM   12  N4  UNL     1      -4.718  -2.565   1.518  1.00  0.00    -0.038 N 
HETATM   13  C16 UNL     1      -3.566  -2.382   2.338  1.00  0.00     0.245 C 
ATOM     14  H42 UNL     1      -5.530  -2.102   1.925  1.00  0.00     0.281 HD
ATOM     15  H41 UNL     1      -5.040  -3.532   1.556  1.00  0.00     0.281 HD
HETATM   16  C18 UNL     1      -2.264  -2.264   1.611  1.00  0.00     0.206 C 
BRANCH  11  17
HETATM   17  C15 UNL     1      -5.874  -1.727  -0.388  1.00  0.00     0.225 C 
BRANCH  17  18
HETATM   18  O5  UNL     1      -5.756  -1.309  -1.700  1.00  0.00    -0.397 OA
ATOM     19  H5  UNL     1      -6.601  -1.046  -2.046  1.00  0.00     0.209 HD
ENDBRANCH  17  18
ENDBRANCH  11  17
BRANCH  13  20
HETATM   20  C17 UNL     1      -3.436  -3.575   3.295  1.00  0.00     0.200 C 
BRANCH  20  21
HETATM   21  O6  UNL     1      -4.578  -3.628   4.076  1.00  0.00    -0.399 OA
ATOM     22  H6  UNL     1      -4.498  -4.366   4.668  1.00  0.00     0.209 HD
ENDBRANCH  20  21
ENDBRANCH  13  20
BRANCH  16  23
HETATM   23  O7  UNL     1      -1.335  -1.722   2.528  1.00  0.00    -0.388 OA
ATOM     24  H7  UNL     1      -1.274  -2.284   3.292  1.00  0.00     0.210 HD
ENDBRANCH  16  23
ENDBRANCH   8   9
ENDBRANCH   6   8
BRANCH   7  25
HETATM   25  O8  UNL     1      -1.538   2.249  -0.256  1.00  0.00    -0.373 OA
BRANCH  25  26
HETATM   26  C20 UNL     1      -2.756   2.743  -0.629  1.00  0.00     0.152 C 
HETATM   27  C21 UNL     1      -3.844   2.603   0.377  1.00  0.00     0.034 C 
HETATM   28  C22 UNL     1      -3.869   3.897   1.180  1.00  0.00     0.005 C 
HETATM   29  C23 UNL     1      -3.278   4.924   0.275  1.00  0.00     0.035 C 
HETATM   30  C24 UNL     1      -2.753   4.218  -0.951  1.00  0.00     0.212 C 
BRANCH  30  31
HETATM   31  N5  UNL     1      -3.712   4.515  -2.028  1.00  0.00    -0.073 N 
ATOM     32  H53 UNL     1      -3.539   3.946  -2.857  1.00  0.00     0.274 HD
ATOM     33  H52 UNL     1      -4.648   4.178  -1.805  1.00  0.00     0.274 HD
ATOM     34  H51 UNL     1      -3.710   5.512  -2.246  1.00  0.00     0.274 HD
ENDBRANCH  30  31
ENDBRANCH  25  26
ENDBRANCH   7  25
BRANCH   4  35
HETATM   35  O1  UNL     1       2.447  -0.945  -0.485  1.00  0.00    -0.352 OA
BRANCH  35  36
HETATM   36  C5  UNL     1       3.721  -0.745   0.011  1.00  0.00     0.155 C 
HETATM   37  C6  UNL     1       4.802  -1.051  -0.977  1.00  0.00     0.040 C 
HETATM   38  C7  UNL     1       6.035  -1.669  -0.310  1.00  0.00     0.013 C 
HETATM   39  C9  UNL     1       6.305  -0.915   0.953  1.00  0.00     0.008 C 
HETATM   40  C10 UNL     1       5.208  -1.228   1.946  1.00  0.00     0.036 C 
HETATM   41  C11 UNL     1       3.905  -1.554   1.277  1.00  0.00     0.212 C 
BRANCH  38  42
HETATM   42  C8  UNL     1       7.205  -1.436  -1.252  1.00  0.00     0.234 C 
BRANCH  42  43
HETATM   43  N2  UNL     1       8.424  -1.983  -0.716  1.00  0.00    -0.079 N 
ATOM     44  H23 UNL     1       8.618  -1.622   0.218  1.00  0.00     0.274 HD
ATOM     45  H22 UNL     1       8.321  -2.971  -0.484  1.00  0.00     0.274 HD
ATOM     46  H21 UNL     1       9.209  -1.827  -1.348  1.00  0.00     0.274 HD
ENDBRANCH  42  43
ENDBRANCH  38  42
BRANCH  41  47
HETATM   47  N3  UNL     1       2.836  -1.117   2.189  1.00  0.00    -0.073 N 
ATOM     48  H33 UNL     1       2.820  -0.109   2.347  1.00  0.00     0.274 HD
ATOM     49  H32 UNL     1       1.901  -1.192   1.788  1.00  0.00     0.274 HD
ATOM     50  H31 UNL     1       2.960  -1.662   3.042  1.00  0.00     0.274 HD
ENDBRANCH  41  47
ENDBRANCH  35  36
ENDBRANCH   4  35
BRANCH   3  51
HETATM   51  N1  UNL     1       2.372   1.141  -2.587  1.00  0.00    -0.070 N 
ATOM     52  H13 UNL     1       2.101   1.585  -3.464  1.00  0.00     0.274 HD
ATOM     53  H12 UNL     1       2.825   1.951  -2.165  1.00  0.00     0.274 HD
ATOM     54  H11 UNL     1       3.005   0.351  -2.717  1.00  0.00     0.274 HD
ENDBRANCH   3  51
TORSDOF 16
