REMARK  5 active torsions:
REMARK  status: ('A' for Active; 'I' for Inactive)
REMARK    1  A    between atoms: N1_2  and  C2_5 
REMARK    2  A    between atoms: C2_5  and  C4_7 
REMARK    3  A    between atoms: C4_7  and  C5_8 
REMARK    4  A    between atoms: C4_7  and  N2_13 
REMARK    5  A    between atoms: C5_8  and  C7_10 
ROOT
HETATM    1  C4  UNL     1       0.070  -0.110   0.341  1.00  0.00     0.257 C 
ENDROOT
BRANCH   1   2
HETATM    2  C2  UNL     1       1.096  -0.596  -0.627  1.00  0.00     0.215 C 
HETATM    3  C3  UNL     1       2.517  -0.243  -0.360  1.00  0.00     0.042 C 
BRANCH   2   4
HETATM    4  N1  UNL     1       1.024  -2.076  -0.523  1.00  0.00    -0.073 N 
HETATM    5  C1  UNL     1       1.853  -2.695  -1.531  1.00  0.00     0.267 C 
ATOM      6  H12 UNL     1       0.062  -2.413  -0.564  1.00  0.00     0.277 HD
ATOM      7  H11 UNL     1       1.259  -2.402   0.414  1.00  0.00     0.277 HD
ENDBRANCH   2   4
ENDBRANCH   1   2
BRANCH   1   8
HETATM    8  C5  UNL     1      -0.126   1.351   0.469  1.00  0.00     0.021 C 
HETATM    9  C6  UNL     1      -0.533   2.061  -0.789  1.00  0.00     0.012 C 
BRANCH   8  10
HETATM   10  C7  UNL     1       0.963   2.067   1.244  1.00  0.00    -0.009 A 
HETATM   11  C8  UNL     1       0.802   3.578   1.418  1.00  0.00     0.005 A 
HETATM   12  C9  UNL     1       1.909   3.002   0.572  1.00  0.00     0.005 A 
ENDBRANCH   8  10
ENDBRANCH   1   8
BRANCH   1  13
HETATM   13  N2  UNL     1      -1.084  -0.902   0.147  1.00  0.00     0.095 N 
HETATM   14  C10 UNL     1      -1.760  -0.888  -1.086  1.00  0.00     0.273 C 
HETATM   15  C11 UNL     1      -2.801  -1.999  -0.845  1.00  0.00     0.032 C 
HETATM   16  C12 UNL     1      -2.977  -2.048   0.674  1.00  0.00     0.032 C 
HETATM   17  C13 UNL     1      -2.114  -0.855   1.118  1.00  0.00     0.273 C 
ENDBRANCH   1  13
TORSDOF 5
