REMARK  3 active torsions:
REMARK  status: ('A' for Active; 'I' for Inactive)
REMARK    1  A    between atoms: O1_1  and  C1_3 
REMARK    2  A    between atoms: C7_13  and  C8_14 
REMARK    3  A    between atoms: C8_14  and  N2_15 
ROOT
HETATM    1  C1  UNL     1      -0.589  -1.574   0.162  1.00  0.00     0.154 C 
HETATM    2  C2  UNL     1      -1.993  -0.995   0.040  1.00  0.00     0.045 C 
HETATM    3  C3  UNL     1      -2.248  -0.435  -1.331  1.00  0.00     0.239 C 
HETATM    4  N1  UNL     1      -2.797   0.892  -1.264  1.00  0.00    -0.072 N 
ATOM      5  H11 UNL     1      -3.688   0.892  -0.768  1.00  0.00     0.277 HD
ATOM      6  H12 UNL     1      -3.117   1.200  -2.182  1.00  0.00     0.277 HD
HETATM    7  C4  UNL     1      -1.890   1.851  -0.689  1.00  0.00     0.264 C 
HETATM    8  C5  UNL     1      -1.125   1.222   0.479  1.00  0.00     0.148 C 
HETATM    9  C6  UNL     1      -2.027   0.157   1.053  1.00  0.00     0.042 C 
HETATM   10  O2  UNL     1       0.051   0.746  -0.025  1.00  0.00    -0.375 OA
HETATM   11  C7  UNL     1       0.434  -0.495   0.438  1.00  0.00     0.170 C 
ENDROOT
BRANCH  11  12
HETATM   12  C8  UNL     1       1.681  -0.880  -0.338  1.00  0.00     0.184 C 
BRANCH  12  13
HETATM   13  N2  UNL     1       2.749   0.105  -0.143  1.00  0.00    -0.285 N 
HETATM   14  C9  UNL     1       3.693   0.097   0.808  1.00  0.00     0.130 A 
HETATM   15  C10 UNL     1       4.503   1.193   0.645  1.00  0.00     0.127 A 
HETATM   16  N3  UNL     1       4.002   1.832  -0.423  1.00  0.00    -0.296 N 
HETATM   17  N4  UNL     1       2.960   1.174  -0.881  1.00  0.00    -0.241 N 
ATOM     18  H3  UNL     1       4.373   2.696  -0.819  1.00  0.00     0.187 HD
ATOM     19  H4  UNL     1       2.399   1.450  -1.687  1.00  0.00     0.208 HD
ENDBRANCH  12  13
ENDBRANCH  11  12
BRANCH   1  20
HETATM   20  O1  UNL     1      -0.610  -2.424   1.270  1.00  0.00    -0.393 OA
ATOM     21  H1  UNL     1       0.265  -2.785   1.346  1.00  0.00     0.210 HD
ENDBRANCH   1  20
TORSDOF 3
