REMARK  4 active torsions:
REMARK  status: ('A' for Active; 'I' for Inactive)
REMARK    1  A    between atoms: O1_1  and  C1_3 
REMARK    2  A    between atoms: C3_6  and  O3_7 
REMARK    3  A    between atoms: O3_7  and  C4_8 
REMARK    4  A    between atoms: C4_8  and  C5_9 
ROOT
HETATM    1  O3  UNL     1       0.883   0.291   0.092  1.00  0.00    -0.338 OA
ENDROOT
BRANCH   1   2
HETATM    2  C3  UNL     1       2.156  -0.261   0.035  1.00  0.00     0.415 C 
HETATM    3  O2  UNL     1       2.806  -0.103   1.254  1.00  0.00    -0.334 OA
HETATM    4  C2  UNL     1       4.072   0.370   1.015  1.00  0.00     0.234 C 
HETATM    5  C1  UNL     1       4.262   0.100  -0.461  1.00  0.00     0.286 C 
HETATM    6  O4  UNL     1       2.951   0.341  -0.935  1.00  0.00    -0.306 OA
BRANCH   5   7
HETATM    7  O1  UNL     1       5.151   1.046  -1.018  1.00  0.00    -0.369 OA
ATOM      8  H1  UNL     1       5.270   0.876  -1.945  1.00  0.00     0.212 HD
ENDBRANCH   5   7
ENDBRANCH   1   2
BRANCH   1   9
HETATM    9  C4  UNL     1      -0.032  -0.681  -0.210  1.00  0.00     0.184 C 
BRANCH   9  10
HETATM   10  C5  UNL     1      -1.443  -0.269  -0.198  1.00  0.00     0.011 C 
HETATM   11  C6  UNL     1      -1.839   0.812  -1.136  1.00  0.00     0.043 C 
HETATM   12  C7  UNL     1      -3.082   1.391  -0.447  1.00  0.00     0.273 C 
HETATM   13  N1  UNL     1      -3.286   0.578   0.755  1.00  0.00     0.089 N 
HETATM   14  C8  UNL     1      -3.690  -0.740   0.287  1.00  0.00     0.273 C 
HETATM   15  C10 UNL     1      -1.882   0.341   1.143  1.00  0.00     0.284 C 
HETATM   16  C9  UNL     1      -2.437  -1.393  -0.305  1.00  0.00     0.043 C 
ENDBRANCH   9  10
ENDBRANCH   1   9
TORSDOF 4
