REMARK  5 active torsions:
REMARK  status: ('A' for Active; 'I' for Inactive)
REMARK    1  A    between atoms: C2_2  and  O1_3 
REMARK    2  A    between atoms: O1_3  and  C3_4 
REMARK    3  A    between atoms: C6_8  and  O3_9 
REMARK    4  A    between atoms: C7_11  and  O4_12 
REMARK    5  A    between atoms: C9_15  and  O5_16 
ROOT
HETATM    1  O4  UNL     1      -2.200  -1.499   1.398  1.00  0.00    -0.272 OA
HETATM    2  C8  UNL     1      -2.378  -1.479   2.772  1.00  0.00     0.229 C 
HETATM    3  N1  UNL     1      -2.536  -1.481   3.918  1.00  0.00    -0.164 NA
ENDROOT
BRANCH   1   4
HETATM    4  C7  UNL     1      -1.275  -0.669   0.766  1.00  0.00     0.206 C 
HETATM    5  C6  UNL     1      -1.902   0.274  -0.239  1.00  0.00     0.179 C 
HETATM    6  C4  UNL     1      -0.729   1.076  -0.815  1.00  0.00     0.152 C 
HETATM    7  O2  UNL     1      -0.046   0.202  -1.650  1.00  0.00    -0.351 OA
HETATM    8  C5  UNL     1      -1.276   2.277  -1.512  1.00  0.00     0.042 C 
HETATM    9  C3  UNL     1       0.638  -0.693  -0.862  1.00  0.00     0.291 C 
HETATM   10  C9  UNL     1      -0.245  -1.489   0.062  1.00  0.00     0.206 C 
BRANCH   5  11
HETATM   11  O3  UNL     1      -2.814   1.139   0.319  1.00  0.00    -0.390 OA
ATOM     12  H3  UNL     1      -3.541   0.642   0.676  1.00  0.00     0.210 HD
ENDBRANCH   5  11
BRANCH   9  13
HETATM   13  O1  UNL     1       1.532   0.020  -0.073  1.00  0.00    -0.359 OA
BRANCH  13  14
HETATM   14  C2  UNL     1       2.856  -0.341  -0.291  1.00  0.00     0.166 C 
HETATM   15  C1  UNL     1       3.705   0.514   0.632  1.00  0.00     0.033 C 
ENDBRANCH  13  14
ENDBRANCH   9  13
BRANCH  10  16
HETATM   16  O5  UNL     1      -0.831  -2.546  -0.603  1.00  0.00    -0.388 OA
ATOM     17  H5  UNL     1      -1.388  -3.048  -0.020  1.00  0.00     0.210 HD
ENDBRANCH  10  16
ENDBRANCH   1   4
TORSDOF 5
