REMARK  11 active torsions:
REMARK  status: ('A' for Active; 'I' for Inactive)
REMARK    1  A    between atoms: C3_3  and  O1_4 
REMARK    2  A    between atoms: O1_4  and  C4_5 
REMARK       I    between atoms: N2_12  and  C9_14 
REMARK    3  A    between atoms: C9_14  and  C10_16 
REMARK    4  A    between atoms: C10_16  and  C11_17 
REMARK    5  A    between atoms: C11_17  and  C12_18 
REMARK    6  A    between atoms: C12_18  and  C13_19 
REMARK    7  A    between atoms: C13_19  and  N3_20 
REMARK    8  A    between atoms: C18_28  and  C19_29 
REMARK    9  A    between atoms: N6_35  and  C23_37 
REMARK   10  A    between atoms: C23_37  and  C24_38 
REMARK   11  A    between atoms: C24_38  and  N7_39 
ROOT
HETATM    1  C1  UNL     1      -0.846   0.188  -1.036  1.00  0.00     0.055 C 
HETATM    2  C2  UNL     1      -2.017   1.019  -0.754  1.00  0.00     0.016 A 
HETATM    3  C3  UNL     1      -2.045   2.352  -0.932  1.00  0.00     0.089 A 
HETATM    4  C17 UNL     1      -3.257   3.032  -0.660  1.00  0.00     0.063 A 
HETATM    5  C18 UNL     1      -4.354   2.340  -0.229  1.00  0.00     0.017 A 
HETATM    6  N5  UNL     1      -4.321   1.008  -0.051  1.00  0.00    -0.345 N 
ATOM      7  H5  UNL     1      -5.145   0.501   0.271  1.00  0.00     0.167 HD
HETATM    8  C22 UNL     1      -3.177   0.369  -0.309  1.00  0.00     0.110 A 
HETATM    9  N6  UNL     1      -3.128  -0.905  -0.142  1.00  0.00    -0.374 N 
ATOM     10  H6  UNL     1      -2.245  -1.374  -0.344  1.00  0.00     0.161 HD
ENDROOT
BRANCH   3  11
HETATM   11  O1  UNL     1      -0.992   3.111  -1.358  1.00  0.00    -0.293 OA
BRANCH  11  12
HETATM   12  C4  UNL     1       0.168   3.318  -0.687  1.00  0.00     0.149 A 
HETATM   13  C5  UNL     1       0.269   4.288   0.326  1.00  0.00     0.059 A 
HETATM   14  C6  UNL     1       1.404   4.534   1.027  1.00  0.00     0.037 A 
HETATM   15  C7  UNL     1       2.580   3.795   0.759  1.00  0.00     0.068 A 
HETATM   16  N1  UNL     1       3.748   3.918   1.351  1.00  0.00    -0.334 N 
HETATM   17  C16 UNL     1       2.459   2.858  -0.227  1.00  0.00     0.106 A 
HETATM   18  C8  UNL     1       4.741   3.125   0.954  1.00  0.00     0.153 A 
ATOM     19  H1  UNL     1       3.889   4.602   2.094  1.00  0.00     0.168 HD
HETATM   20  N2  UNL     1       5.955   3.107   1.424  1.00  0.00    -0.307 N 
HETATM   21  S1  UNL     1       4.032   2.185  -0.272  1.00  0.00    -0.034 SA
HETATM   22  C9  UNL     1       6.931   2.233   0.937  1.00  0.00     0.223 C 
ATOM     23  H2  UNL     1       6.202   3.753   2.174  1.00  0.00     0.171 HD
HETATM   24  O2  UNL     1       7.405   2.488  -0.203  1.00  0.00    -0.273 OA
HETATM   25  N4  UNL     1       1.286   2.645  -0.912  1.00  0.00    -0.329 N 
ATOM     26  H4  UNL     1       1.276   1.926  -1.636  1.00  0.00     0.168 HD
BRANCH  22  27
HETATM   27  C10 UNL     1       7.431   1.056   1.657  1.00  0.00     0.103 C 
BRANCH  27  28
HETATM   28  C11 UNL     1       8.641   0.407   1.129  1.00  0.00     0.011 C 
BRANCH  28  29
HETATM   29  C12 UNL     1       8.652  -0.157  -0.226  1.00  0.00     0.031 C 
BRANCH  29  30
HETATM   30  C13 UNL     1       7.695  -1.241  -0.551  1.00  0.00     0.271 C 
BRANCH  30  31
HETATM   31  N3  UNL     1       7.906  -2.410   0.305  1.00  0.00     0.080 N 
HETATM   32  C14 UNL     1       9.224  -2.952  -0.082  1.00  0.00     0.309 C 
HETATM   33  C15 UNL     1       6.949  -3.438  -0.095  1.00  0.00     0.309 C 
ENDBRANCH  30  31
ENDBRANCH  29  30
ENDBRANCH  28  29
ENDBRANCH  27  28
ENDBRANCH  22  27
ENDBRANCH  11  12
ENDBRANCH   3  11
BRANCH   5  34
HETATM   34  C19 UNL     1      -5.622   3.094   0.046  1.00  0.00     0.036 A 
HETATM   35  C20 UNL     1      -5.530   4.511   0.431  1.00  0.00     0.011 A 
HETATM   36  C21 UNL     1      -5.959   4.191  -0.944  1.00  0.00     0.011 A 
ENDBRANCH   5  34
BRANCH   9  37
HETATM   37  C23 UNL     1      -4.219  -1.711   0.305  1.00  0.00     0.151 C 
BRANCH  37  38
HETATM   38  C24 UNL     1      -5.221  -2.076  -0.753  1.00  0.00     0.292 C 
BRANCH  38  39
HETATM   39  N7  UNL     1      -6.301  -2.880  -0.225  1.00  0.00     0.093 N 
HETATM   40  C25 UNL     1      -5.817  -4.171   0.149  1.00  0.00     0.300 C 
HETATM   41  C26 UNL     1      -6.908  -5.154   0.512  1.00  0.00     0.262 C 
HETATM   42  N8  UNL     1      -7.981  -5.152  -0.461  1.00  0.00    -0.072 N 
HETATM   43  C27 UNL     1      -8.473  -3.810  -0.714  1.00  0.00     0.262 C 
ATOM     44  H82 UNL     1      -7.700  -5.614  -1.326  1.00  0.00     0.277 HD
ATOM     45  H81 UNL     1      -8.736  -5.779  -0.183  1.00  0.00     0.277 HD
HETATM   46  C28 UNL     1      -7.354  -2.938  -1.200  1.00  0.00     0.300 C 
ENDBRANCH  38  39
ENDBRANCH  37  38
ENDBRANCH   9  37
TORSDOF 11
