REMARK  3 active torsions:
REMARK  status: ('A' for Active; 'I' for Inactive)
REMARK    1  A    between atoms: N3_10  and  N4_12 
REMARK    2  A    between atoms: C6_17  and  N5_18 
REMARK    3  A    between atoms: N5_18  and  O3_20 
ROOT
HETATM    1  C1  UNL     1      -3.002   0.023  -0.397  1.00  0.00     0.071 C 
HETATM    2  C2  UNL     1      -1.523  -0.031  -0.337  1.00  0.00     0.042 C 
HETATM    3  N1  UNL     1      -0.921  -1.054  -0.961  1.00  0.00    -0.310 N 
ATOM      4  H1  UNL     1      -1.538  -1.710  -1.440  1.00  0.00     0.170 HD
HETATM    5  C3  UNL     1       0.399  -1.324  -1.035  1.00  0.00     0.326 C 
HETATM    6  O1  UNL     1       0.774  -2.252  -1.788  1.00  0.00    -0.247 OA
HETATM    7  N2  UNL     1       1.455  -0.734  -0.401  1.00  0.00    -0.290 N 
ATOM      8  H2  UNL     1       2.378  -1.084  -0.657  1.00  0.00     0.172 HD
HETATM    9  C4  UNL     1       1.435   0.248   0.517  1.00  0.00     0.177 C 
HETATM   10  N3  UNL     1       2.495   0.416   1.259  1.00  0.00    -0.289 N 
ATOM     11  H3  UNL     1       2.502   1.155   1.962  1.00  0.00     0.188 HD
HETATM   12  C5  UNL     1       0.398   1.105   0.757  1.00  0.00     0.247 C 
HETATM   13  O2  UNL     1       0.687   2.125   1.415  1.00  0.00    -0.282 OA
HETATM   14  C6  UNL     1      -0.931   0.998   0.369  1.00  0.00     0.130 C 
ENDROOT
BRANCH  10  15
HETATM   15  N4  UNL     1       3.620  -0.398   1.108  1.00  0.00    -0.344 N 
ATOM     16  H42 UNL     1       3.596  -1.132   0.400  1.00  0.00     0.176 HD
ATOM     17  H41 UNL     1       4.449  -0.267   1.688  1.00  0.00     0.176 HD
ENDBRANCH  10  15
BRANCH  14  18
HETATM   18  N5  UNL     1      -1.819   2.031   0.712  1.00  0.00    -0.263 N 
ATOM     19  H5  UNL     1      -2.341   1.954   1.585  1.00  0.00     0.194 HD
BRANCH  18  20
HETATM   20  O3  UNL     1      -2.001   3.050  -0.009  1.00  0.00    -0.289 OA
ATOM     21  H3  UNL     1      -2.602   3.749   0.223  1.00  0.00     0.244 HD
ENDBRANCH  18  20
ENDBRANCH  14  18
TORSDOF 3
