REMARK  6 active torsions:
REMARK  status: ('A' for Active; 'I' for Inactive)
REMARK    1  A    between atoms: N1_2  and  C3_4 
REMARK    2  A    between atoms: C3_4  and  C4_5 
REMARK       I    between atoms: C4_5  and  N2_7 
REMARK    3  A    between atoms: N2_7  and  N3_9 
REMARK    4  A    between atoms: N3_9  and  C5_11 
REMARK    5  A    between atoms: C5_11  and  N4_13 
REMARK    6  A    between atoms: N4_13  and  N5_15 
ROOT
HETATM    1  C5  UNL     1      -0.401   1.202  -0.059  1.00  0.00     0.205 C 
HETATM    2  S1  UNL     1       0.443   2.480   0.481  1.00  0.00    -0.038 SA
ENDROOT
BRANCH   1   3
HETATM    3  N3  UNL     1       0.207   0.213  -0.838  1.00  0.00    -0.272 N 
ATOM      4  H3  UNL     1      -0.371  -0.563  -1.162  1.00  0.00     0.189 HD
BRANCH   3   5
HETATM    5  N2  UNL     1       1.537   0.221  -1.195  1.00  0.00    -0.266 N 
HETATM    6  C4  UNL     1       2.575   0.108  -0.234  1.00  0.00     0.264 C 
HETATM    7  O1  UNL     1       2.276  -0.001   0.966  1.00  0.00    -0.270 OA
ATOM      8  H2  UNL     1       1.784   0.311  -2.181  1.00  0.00     0.190 HD
BRANCH   6   9
HETATM    9  C3  UNL     1       3.988   0.120  -0.647  1.00  0.00     0.375 C 
BRANCH   9  10
HETATM   10  N1  UNL     1       4.908   0.000   0.465  1.00  0.00     0.088 N 
HETATM   11  C1  UNL     1       4.832  -1.318   1.084  1.00  0.00     0.310 C 
HETATM   12  C2  UNL     1       6.272   0.285   0.047  1.00  0.00     0.310 C 
ENDBRANCH   9  10
ENDBRANCH   6   9
ENDBRANCH   3   5
ENDBRANCH   1   3
BRANCH   1  13
HETATM   13  N4  UNL     1      -1.778   1.106   0.270  1.00  0.00    -0.274 N 
ATOM     14  H4  UNL     1      -2.227   1.825   0.837  1.00  0.00     0.189 HD
BRANCH  13  15
HETATM   15  N5  UNL     1      -2.505   0.015  -0.194  1.00  0.00    -0.286 N 
HETATM   16  C6  UNL     1      -3.778  -0.021  -0.021  1.00  0.00     0.106 C 
HETATM   17  C7  UNL     1      -4.530  -1.203  -0.529  1.00  0.00     0.219 C 
HETATM   18  N6  UNL     1      -4.554   0.941   0.602  1.00  0.00    -0.365 N 
HETATM   19  S2  UNL     1      -6.140  -0.939   0.213  1.00  0.00     0.167 S 
HETATM   20  O2  UNL     1      -7.247  -1.284  -0.725  1.00  0.00    -0.226 OA
HETATM   21  O3  UNL     1      -6.256  -1.615   1.543  1.00  0.00    -0.226 OA
HETATM   22  C8  UNL     1      -5.976   0.828   0.416  1.00  0.00     0.262 C 
ATOM     23  H6  UNL     1      -4.141   1.688   1.161  1.00  0.00     0.161 HD
ATOM     24  H5  UNL     1      -2.030  -0.753  -0.669  1.00  0.00     0.188 HD
ENDBRANCH  13  15
ENDBRANCH   1  13
TORSDOF 6
