REMARK  6 active torsions:
REMARK  status: ('A' for Active; 'I' for Inactive)
REMARK    1  A    between atoms: C2_2  and  N1_4 
REMARK    2  A    between atoms: N1_4  and  C3_6 
REMARK    3  A    between atoms: C3_6  and  C5_8 
REMARK       I    between atoms: C5_8  and  N2_10 
REMARK    4  A    between atoms: N2_10  and  C6_12 
REMARK    5  A    between atoms: C7_17  and  S2_18 
REMARK    6  A    between atoms: S2_18  and  N5_19 
ROOT
HETATM    1  C6  UNL     1      -0.966   0.038  -0.153  1.00  0.00     0.192 A 
HETATM    2  N3  UNL     1      -1.838  -0.904  -0.530  1.00  0.00    -0.279 N 
ATOM      3  H3  UNL     1      -1.483  -1.791  -0.888  1.00  0.00     0.189 HD
HETATM    4  N4  UNL     1      -3.138  -0.722  -0.454  1.00  0.00    -0.273 N 
ATOM      5  H4  UNL     1      -3.754  -1.480  -0.750  1.00  0.00     0.189 HD
HETATM    6  C7  UNL     1      -3.697   0.425  -0.001  1.00  0.00     0.241 A 
HETATM    7  N6  UNL     1      -2.853   1.385   0.371  1.00  0.00    -0.294 N 
ATOM      8  H6  UNL     1      -3.240   2.265   0.713  1.00  0.00     0.171 HD
HETATM    9  C8  UNL     1      -1.526   1.254   0.319  1.00  0.00     0.293 A 
HETATM   10  O4  UNL     1      -0.737   2.174   0.685  1.00  0.00    -0.264 OA
ENDROOT
BRANCH   1  11
HETATM   11  N2  UNL     1       0.253  -0.118  -0.026  1.00  0.00    -0.306 N 
HETATM   12  C5  UNL     1       1.183  -1.099  -0.158  1.00  0.00     0.245 C 
HETATM   13  O1  UNL     1       1.065  -2.265   0.369  1.00  0.00    -0.271 OA
ATOM     14  H2  UNL     1       0.695   0.754   0.266  1.00  0.00     0.170 HD
BRANCH  12  15
HETATM   15  C3  UNL     1       2.456  -0.830  -0.946  1.00  0.00     0.170 C 
HETATM   16  C4  UNL     1       3.281  -2.113  -0.775  1.00  0.00     0.042 C 
BRANCH  15  17
HETATM   17  N1  UNL     1       3.128   0.280  -0.291  1.00  0.00    -0.372 N 
ATOM     18  H1  UNL     1       2.496   1.040  -0.040  1.00  0.00     0.161 HD
BRANCH  17  19
HETATM   19  C2  UNL     1       4.424   0.521   0.059  1.00  0.00     0.070 C 
HETATM   20  C1  UNL     1       4.724   1.856   0.714  1.00  0.00     0.081 C 
HETATM   21  S1  UNL     1       5.664  -0.496  -0.130  1.00  0.00    -0.066 SA
ENDBRANCH  17  19
ENDBRANCH  15  17
ENDBRANCH  12  15
ENDBRANCH   1  11
BRANCH   6  22
HETATM   22  S2  UNL     1      -5.394   0.672   0.110  1.00  0.00     0.290 S 
HETATM   23  O2  UNL     1      -5.608   1.806   1.119  1.00  0.00    -0.198 OA
HETATM   24  O3  UNL     1      -5.974   1.138  -1.168  1.00  0.00    -0.198 OA
BRANCH  22  25
HETATM   25  N5  UNL     1      -6.226  -0.730   0.687  1.00  0.00    -0.322 N 
ATOM     26  H52 UNL     1      -5.749  -1.598   0.930  1.00  0.00     0.169 HD
ATOM     27  H51 UNL     1      -7.233  -0.583   0.753  1.00  0.00     0.169 HD
ENDBRANCH  22  25
ENDBRANCH   6  22
TORSDOF 6
