REMARK  6 active torsions:
REMARK  status: ('A' for Active; 'I' for Inactive)
REMARK    1  A    between atoms: C2_2  and  C3_3 
REMARK    2  A    between atoms: C2_2  and  S2_23 
REMARK       I    between atoms: C3_3  and  N1_5 
REMARK    3  A    between atoms: N1_5  and  C4_7 
REMARK    4  A    between atoms: C5_10  and  S1_11 
REMARK    5  A    between atoms: C6_17  and  N4_18 
REMARK    6  A    between atoms: S2_23  and  N6_24 
ROOT
HETATM    1  C4  UNL     1       0.615  -0.150  -0.524  1.00  0.00     0.701 A 
HETATM    2  N2  UNL     1       1.515  -1.155  -0.477  1.00  0.00    -0.162 N 
ATOM      3  H2  UNL     1       1.188  -2.120  -0.521  1.00  0.00     0.186 HD
HETATM    4  C5  UNL     1       2.834  -0.912  -0.373  1.00  0.00     0.254 A 
HETATM    5  N3  UNL     1       3.220   0.376  -0.318  1.00  0.00    -0.163 N 
ATOM      6  H3  UNL     1       4.213   0.595  -0.239  1.00  0.00     0.186 HD
HETATM    7  C6  UNL     1       2.321   1.389  -0.365  1.00  0.00     0.692 A 
HETATM    8  N5  UNL     1       0.999   1.137  -0.469  1.00  0.00    -0.022 N 
ATOM      9  H5  UNL     1       0.317   1.895  -0.505  1.00  0.00     0.203 HD
ENDROOT
BRANCH   1  10
HETATM   10  N1  UNL     1      -0.646  -0.401  -0.623  1.00  0.00    -0.158 N 
HETATM   11  C3  UNL     1      -1.660   0.570  -0.680  1.00  0.00     0.256 C 
HETATM   12  O1  UNL     1      -1.786   1.322  -1.657  1.00  0.00    -0.271 OA
ATOM     13  H1  UNL     1      -0.929  -1.380  -0.663  1.00  0.00     0.187 HD
BRANCH  11  14
HETATM   14  C2  UNL     1      -2.583   0.676   0.466  1.00  0.00     0.217 C 
HETATM   15  C1  UNL     1      -1.752   0.996   1.692  1.00  0.00     0.038 C 
BRANCH  14  16
HETATM   16  S2  UNL     1      -3.380  -0.912   0.628  1.00  0.00     0.237 S 
HETATM   17  O5  UNL     1      -4.324  -0.965   1.766  1.00  0.00    -0.205 OA
HETATM   18  O6  UNL     1      -2.342  -1.996   0.658  1.00  0.00    -0.205 OA
BRANCH  16  19
HETATM   19  N6  UNL     1      -4.288  -1.151  -0.844  1.00  0.00    -0.328 N 
ATOM     20  H62 UNL     1      -4.342  -0.503  -1.630  1.00  0.00     0.168 HD
ATOM     21  H61 UNL     1      -4.744  -2.059  -0.751  1.00  0.00     0.168 HD
ENDBRANCH  16  19
ENDBRANCH  14  16
ENDBRANCH  11  14
ENDBRANCH   1  10
BRANCH   4  22
HETATM   22  S1  UNL     1       4.001  -2.232  -0.312  1.00  0.00     0.173 S 
HETATM   23  O2  UNL     1       3.592  -3.110   0.854  1.00  0.00    -0.589 OA
HETATM   24  O3  UNL     1       5.366  -1.721  -0.056  1.00  0.00    -0.589 OA
HETATM   25  O4  UNL     1       3.852  -3.109  -1.713  1.00  0.00    -0.589 OA
ENDBRANCH   4  22
BRANCH   7  26
HETATM   26  N4  UNL     1       2.692   2.624  -0.312  1.00  0.00    -0.234 N 
ATOM     27  H42 UNL     1       3.691   2.814  -0.233  1.00  0.00     0.174 HD
ATOM     28  H41 UNL     1       2.015   3.386  -0.347  1.00  0.00     0.174 HD
ENDBRANCH   7  26
TORSDOF 6
