REMARK  5 active torsions:
REMARK  status: ('A' for Active; 'I' for Inactive)
REMARK    1  A    between atoms: C1_2  and  C2_4 
REMARK    2  A    between atoms: C2_4  and  C7_9 
REMARK    3  A    between atoms: C3_5  and  C4_6 
REMARK    4  A    between atoms: C7_9  and  C8_10 
REMARK    5  A    between atoms: C8_10  and  N1_11 
ROOT
HETATM    1  C2  UNL     1      -1.470  -0.645   1.043  1.00  0.00     0.020 C 
HETATM    2  C3  UNL     1      -2.549   0.021   0.808  1.00  0.00    -0.008 C 
ENDROOT
BRANCH   1   3
HETATM    3  C1  UNL     1      -1.580  -1.891   1.808  1.00  0.00     0.205 C 
HETATM    4  O1  UNL     1      -2.740  -2.273   2.205  1.00  0.00    -0.644 OA
HETATM    5  O2  UNL     1      -0.547  -2.712   2.156  1.00  0.00    -0.644 OA
ENDBRANCH   1   3
BRANCH   1   6
HETATM    6  C7  UNL     1      -0.146  -0.218   0.584  1.00  0.00     0.089 C 
BRANCH   6   7
HETATM    7  C8  UNL     1       0.535  -1.192  -0.363  1.00  0.00     0.063 C 
BRANCH   7   8
HETATM    8  N1  UNL     1       1.768  -0.716  -0.746  1.00  0.00    -0.393 N 
HETATM    9  C9  UNL     1       1.975   0.389  -1.546  1.00  0.00     0.122 C 
HETATM   10  C10 UNL     1       3.247   1.023  -0.963  1.00  0.00     0.021 C 
HETATM   11  C11 UNL     1       3.597   0.173   0.265  1.00  0.00     0.021 C 
HETATM   12  C12 UNL     1       2.947  -1.167  -0.118  1.00  0.00     0.122 C 
ENDBRANCH   7   8
ENDBRANCH   6   7
ENDBRANCH   1   6
BRANCH   2  13
HETATM   13  C4  UNL     1      -2.602   1.281   0.062  1.00  0.00     0.009 A 
HETATM   14  C5  UNL     1      -3.895   2.020  -0.066  1.00  0.00     0.009 A 
HETATM   15  C6  UNL     1      -3.446   1.238  -1.214  1.00  0.00     0.009 A 
ENDBRANCH   2  13
TORSDOF 5
