REMARK  5 active torsions:
REMARK  status: ('A' for Active; 'I' for Inactive)
REMARK    1  A    between atoms: C2_2  and  C3_3 
REMARK    2  A    between atoms: C3_3  and  O1_4 
REMARK    3  A    between atoms: C3_3  and  C9_10 
REMARK    4  A    between atoms: O1_4  and  C4_5 
REMARK       I    between atoms: C9_10  and  N1_12 
REMARK    5  A    between atoms: N1_12  and  C10_14 
ROOT
HETATM    1  C3  UNL     1       0.156   0.612   0.116  1.00  0.00     0.235 C 
ENDROOT
BRANCH   1   2
HETATM    2  C2  UNL     1       0.468   1.997  -0.344  1.00  0.00     0.004 C 
HETATM    3  C1  UNL     1      -0.143   2.584  -1.347  1.00  0.00     0.010 C 
ENDBRANCH   1   2
BRANCH   1   4
HETATM    4  O1  UNL     1      -1.084   0.274  -0.377  1.00  0.00    -0.367 OA
BRANCH   4   5
HETATM    5  C4  UNL     1      -1.970   0.105   0.661  1.00  0.00     0.123 C 
HETATM    6  C5  UNL     1      -3.243   0.895   0.470  1.00  0.00     0.032 C 
HETATM    7  C6  UNL     1      -4.189   0.001  -0.289  1.00  0.00     0.002 C 
HETATM    8  C7  UNL     1      -3.419  -1.288  -0.552  1.00  0.00     0.002 C 
HETATM    9  C8  UNL     1      -2.471  -1.324   0.632  1.00  0.00     0.032 C 
ENDBRANCH   4   5
ENDBRANCH   1   4
BRANCH   1  10
HETATM   10  C9  UNL     1       1.210  -0.347  -0.303  1.00  0.00     0.250 C 
HETATM   11  O2  UNL     1       0.947  -1.357  -1.039  1.00  0.00    -0.270 OA
HETATM   12  N1  UNL     1       2.553  -0.163   0.109  1.00  0.00    -0.354 N 
ATOM     13  H1  UNL     1       2.774   0.640   0.697  1.00  0.00     0.162 HD
BRANCH  12  14
HETATM   14  C10 UNL     1       3.623  -1.055  -0.262  1.00  0.00     0.084 A 
HETATM   15  C11 UNL     1       4.980  -0.419  -0.391  1.00  0.00     0.027 A 
HETATM   16  C12 UNL     1       4.680  -1.305   0.784  1.00  0.00     0.027 A 
ENDBRANCH  12  14
ENDBRANCH   1  10
TORSDOF 5
