REMARK  7 active torsions:
REMARK  status: ('A' for Active; 'I' for Inactive)
REMARK    1  A    between atoms: C3_3  and  C4_4 
REMARK    2  A    between atoms: C6_6  and  C7_7 
REMARK    3  A    between atoms: C8_8  and  C9_9 
REMARK    4  A    between atoms: N1_16  and  C15_17 
REMARK    5  A    between atoms: C15_17  and  C16_18 
REMARK    6  A    between atoms: C16_18  and  N2_19 
REMARK    7  A    between atoms: N2_19  and  C17_20 
REMARK       I    between atoms: N2_19  and  C18_22 
ROOT
HETATM    1  C9  UNL     1       2.099  -0.205   0.330  1.00  0.00     0.153 C 
HETATM    2  C10 UNL     1       1.415   1.069   0.614  1.00  0.00     0.119 C 
HETATM    3  C11 UNL     1       0.017   0.986   1.092  1.00  0.00     0.159 C 
HETATM    4  O1  UNL     1      -0.291   1.756   2.054  1.00  0.00    -0.293 OA
HETATM    5  C12 UNL     1      -1.045   0.100   0.557  1.00  0.00     0.005 C 
HETATM    6  C13 UNL     1      -0.902  -0.779  -0.402  1.00  0.00    -0.018 C 
HETATM    7  C14 UNL     1      -1.969  -1.636  -0.921  1.00  0.00     0.166 C 
HETATM    8  N1  UNL     1      -3.314  -1.182  -0.524  1.00  0.00    -0.358 N 
HETATM    9  C19 UNL     1      -3.407  -0.559   0.748  1.00  0.00     0.016 C 
HETATM   10  C20 UNL     1      -4.488  -0.767   1.467  1.00  0.00     0.003 C 
HETATM   11  C21 UNL     1      -4.591  -0.107   2.834  1.00  0.00     0.006 C 
HETATM   12  C22 UNL     1      -5.679  -0.752   3.636  1.00  0.00     0.014 C 
HETATM   13  C23 UNL     1      -3.248  -0.521   3.461  1.00  0.00     0.009 C 
HETATM   14  C24 UNL     1      -2.119   0.211   2.747  1.00  0.00     0.016 C 
HETATM   15  C25 UNL     1      -2.322   0.318   1.256  1.00  0.00     0.072 C 
HETATM   16  C26 UNL     1       0.414  -1.060  -1.108  1.00  0.00     0.080 C 
HETATM   17  C27 UNL     1       0.538  -0.113  -2.247  1.00  0.00     0.051 C 
HETATM   18  C28 UNL     1       0.247  -2.453  -1.730  1.00  0.00     0.051 C 
HETATM   19  O3  UNL     1       1.461  -1.194  -0.267  1.00  0.00    -0.367 OA
ENDROOT
BRANCH   8  20
HETATM   20  C15 UNL     1      -4.445  -1.357  -1.344  1.00  0.00     0.084 C 
BRANCH  20  21
HETATM   21  C16 UNL     1      -4.477  -0.513  -2.611  1.00  0.00     0.178 C 
BRANCH  21  22
HETATM   22  N2  UNL     1      -4.486   0.889  -2.400  1.00  0.00    -0.295 N 
HETATM   23  C18 UNL     1      -5.712   1.587  -2.264  1.00  0.00     0.190 C 
HETATM   24  N3  UNL     1      -5.983   2.519  -3.105  1.00  0.00    -0.373 N 
HETATM   25  N4  UNL     1      -6.648   1.300  -1.247  1.00  0.00    -0.063 NA
ATOM     26  H32 UNL     1      -5.307   2.726  -3.840  1.00  0.00     0.158 HD
ATOM     27  H31 UNL     1      -6.865   3.021  -3.007  1.00  0.00     0.158 HD
BRANCH  22  28
HETATM   28  C17 UNL     1      -3.283   1.618  -2.323  1.00  0.00     0.357 C 
HETATM   29  O2  UNL     1      -3.329   2.858  -2.133  1.00  0.00    -0.283 OA
ENDBRANCH  22  28
ENDBRANCH  21  22
ENDBRANCH  20  21
ENDBRANCH   8  20
BRANCH   1  30
HETATM   30  C8  UNL     1       3.376   0.137  -0.376  1.00  0.00     0.005 C 
HETATM   31  C7  UNL     1       4.548   0.080   0.233  1.00  0.00    -0.001 C 
BRANCH  31  32
HETATM   32  C6  UNL     1       5.796   0.406  -0.426  1.00  0.00     0.006 C 
HETATM   33  C4  UNL     1       6.986   0.373   0.112  1.00  0.00    -0.062 C 
HETATM   34  C5  UNL     1       7.250  -0.011   1.513  1.00  0.00     0.048 C 
BRANCH  33  35
HETATM   35  C3  UNL     1       8.133   0.742  -0.729  1.00  0.00     0.002 C 
HETATM   36  C2  UNL     1       9.343   0.728  -0.253  1.00  0.00    -0.030 C 
HETATM   37  C1  UNL     1      10.511   1.105  -1.115  1.00  0.00     0.036 C 
ENDBRANCH  33  35
ENDBRANCH  31  32
ENDBRANCH   1  30
TORSDOF 7
