REMARK  9 active torsions:
REMARK  status: ('A' for Active; 'I' for Inactive)
REMARK    1  A    between atoms: C2_2  and  C3_3 
REMARK    2  A    between atoms: C3_3  and  C4_4 
REMARK    3  A    between atoms: C4_4  and  C5_6 
REMARK    4  A    between atoms: C11_12  and  N1_13 
REMARK       I    between atoms: N1_13  and  C12_15 
REMARK    5  A    between atoms: C14_18  and  O3_19 
REMARK    6  A    between atoms: C15_21  and  C16_22 
REMARK    7  A    between atoms: C16_22  and  S1_23 
REMARK    8  A    between atoms: S1_23  and  C17_24 
REMARK    9  A    between atoms: C17_24  and  C18_25 
ROOT
HETATM    1  C5  UNL     1      -3.466   1.382  -0.033  1.00  0.00    -0.015 C 
HETATM    2  C6  UNL     1      -2.315   1.001   0.471  1.00  0.00    -0.004 C 
HETATM    3  C7  UNL     1      -1.509  -0.263   0.418  1.00  0.00     0.015 C 
HETATM    4  C8  UNL     1      -1.675  -0.858   1.787  1.00  0.00     0.023 C 
HETATM    5  C9  UNL     1      -2.030  -1.106  -0.691  1.00  0.00     0.006 C 
HETATM    6  C10 UNL     1      -1.265  -2.350  -0.944  1.00  0.00     0.034 C 
HETATM    7  C11 UNL     1       0.223  -2.311  -0.628  1.00  0.00     0.122 C 
HETATM    8  C14 UNL     1       0.708  -0.937  -0.665  1.00  0.00     0.118 C 
HETATM    9  C15 UNL     1       2.037  -0.577  -0.125  1.00  0.00     0.060 C 
HETATM   10  C21 UNL     1       1.795  -0.088   1.305  1.00  0.00     0.241 C 
HETATM   11  N2  UNL     1       0.600   0.689   1.097  1.00  0.00    -0.062 N 
ATOM     12  H21 UNL     1       0.800   1.679   0.955  1.00  0.00     0.278 HD
ATOM     13  H22 UNL     1       0.041   0.777   1.945  1.00  0.00     0.278 HD
HETATM   14  C22 UNL     1      -0.142   0.119   0.009  1.00  0.00     0.169 C 
HETATM   15  C23 UNL     1      -0.328   1.231  -1.028  1.00  0.00     0.044 C 
HETATM   16  C24 UNL     1      -1.334   0.917  -2.067  1.00  0.00     0.007 C 
HETATM   17  C25 UNL     1      -2.216  -0.244  -1.919  1.00  0.00    -0.009 C 
HETATM   18  C26 UNL     1      -3.686   0.103  -2.144  1.00  0.00     0.010 C 
HETATM   19  C27 UNL     1      -4.351   0.571  -0.871  1.00  0.00     0.042 C 
ENDROOT
BRANCH   9  20
HETATM   20  C16 UNL     1       3.193  -1.443  -0.312  1.00  0.00     0.083 C 
BRANCH  20  21
HETATM   21  S1  UNL     1       4.723  -0.814   0.422  1.00  0.00    -0.168 SA
BRANCH  21  22
HETATM   22  C17 UNL     1       5.341   0.674  -0.330  1.00  0.00     0.077 C 
BRANCH  22  23
HETATM   23  C18 UNL     1       6.614   1.185   0.304  1.00  0.00    -0.013 C 
HETATM   24  C19 UNL     1       7.748   0.202   0.230  1.00  0.00     0.010 C 
HETATM   25  C20 UNL     1       7.017   2.428  -0.473  1.00  0.00     0.010 C 
ENDBRANCH  22  23
ENDBRANCH  21  22
ENDBRANCH  20  21
ENDBRANCH   9  20
BRANCH   8  26
HETATM   26  O3  UNL     1       0.816  -0.642  -2.071  1.00  0.00    -0.385 OA
ATOM     27  H3  UNL     1       1.132   0.254  -2.095  1.00  0.00     0.210 HD
ENDBRANCH   8  26
BRANCH   7  28
HETATM   28  N1  UNL     1       0.529  -3.163   0.467  1.00  0.00    -0.354 N 
HETATM   29  C12 UNL     1       0.843  -4.540   0.197  1.00  0.00     0.214 C 
HETATM   30  C13 UNL     1       1.178  -5.525   1.254  1.00  0.00     0.117 C 
HETATM   31  O2  UNL     1       0.844  -4.974  -0.988  1.00  0.00    -0.274 OA
ATOM     32  H1  UNL     1       0.526  -2.806   1.423  1.00  0.00     0.163 HD
ENDBRANCH   7  28
BRANCH   1  33
HETATM   33  C4  UNL     1      -3.820   2.754   0.323  1.00  0.00     0.155 C 
HETATM   34  O1  UNL     1      -3.036   3.454   1.060  1.00  0.00    -0.293 OA
BRANCH  33  35
HETATM   35  C3  UNL     1      -5.038   3.462  -0.090  1.00  0.00     0.083 C 
BRANCH  35  36
HETATM   36  C2  UNL     1      -5.923   3.583   1.152  1.00  0.00     0.003 C 
HETATM   37  C1  UNL     1      -6.285   2.238   1.710  1.00  0.00     0.005 C 
ENDBRANCH  35  36
ENDBRANCH  33  35
ENDBRANCH   1  33
TORSDOF 9
