REMARK  2 active torsions:
REMARK  status: ('A' for Active; 'I' for Inactive)
REMARK    1  A    between atoms: C1_2  and  C2_4 
REMARK    2  A    between atoms: C2_4  and  N1_5 
ROOT
HETATM    1  N1  UNL     1       2.948   0.420   0.691  1.00  0.00    -0.355 N 
ATOM      2  H1  UNL     1       2.912   1.418   0.897  1.00  0.00     0.162 HD
HETATM    3  C3  UNL     1       1.847  -0.221   0.482  1.00  0.00     0.181 C 
HETATM    4  O3  UNL     1       0.604   0.340   0.514  1.00  0.00    -0.292 OA
HETATM    5  C4  UNL     1      -0.498  -0.052  -0.269  1.00  0.00     0.172 C 
HETATM    6  C5  UNL     1      -1.574  -0.724   0.549  1.00  0.00     0.069 C 
HETATM    7  C6  UNL     1      -2.371   0.228   1.382  1.00  0.00     0.005 C 
HETATM    8  C7  UNL     1      -3.621   0.673   0.650  1.00  0.00     0.002 C 
HETATM    9  C8  UNL     1      -3.168   1.742  -0.341  1.00  0.00     0.026 C 
HETATM   10  C9  UNL     1      -2.253   1.023  -1.333  1.00  0.00     0.171 C 
HETATM   11  O4  UNL     1      -0.961   1.111  -0.897  1.00  0.00    -0.355 OA
HETATM   12  C10 UNL     1      -0.121  -1.016  -1.372  1.00  0.00     0.079 C 
HETATM   13  C11 UNL     1       0.400  -2.329  -0.833  1.00  0.00     0.088 C 
HETATM   14  S1  UNL     1       1.928  -1.984   0.119  1.00  0.00    -0.087 SA
ENDROOT
BRANCH   1  15
HETATM   15  C2  UNL     1       4.216  -0.237   0.641  1.00  0.00     0.235 C 
BRANCH  15  16
HETATM   16  C1  UNL     1       5.300   0.639   0.130  1.00  0.00     0.191 C 
HETATM   17  O1  UNL     1       6.450   0.170   0.043  1.00  0.00    -0.647 OA
HETATM   18  O2  UNL     1       5.076   1.961  -0.252  1.00  0.00    -0.647 OA
ENDBRANCH  15  16
ENDBRANCH   1  15
TORSDOF 2
