REMARK  4 active torsions:
REMARK  status: ('A' for Active; 'I' for Inactive)
REMARK    1  A    between atoms: O1_2  and  C2_3 
REMARK    2  A    between atoms: C7_9  and  O3_10 
REMARK    3  A    between atoms: C9_12  and  O4_13 
REMARK    4  A    between atoms: C10_15  and  O5_16 
ROOT
HETATM    1  C2  UNL     1      -1.958  -0.120  -0.305  1.00  0.00     0.175 C 
HETATM    2  C3  UNL     1      -1.207   1.211  -0.179  1.00  0.00     0.203 C 
HETATM    3  O2  UNL     1      -0.227   1.171  -1.137  1.00  0.00    -0.376 OA
HETATM    4  C4  UNL     1       0.983   0.880  -0.587  1.00  0.00     0.082 C 
HETATM    5  C5  UNL     1       1.441   2.124   0.191  1.00  0.00     0.048 C 
HETATM    6  C6  UNL     1       2.010   0.701  -1.692  1.00  0.00     0.048 C 
HETATM    7  C7  UNL     1       1.005  -0.263   0.367  1.00  0.00     0.185 C 
HETATM    8  C9  UNL     1       0.172  -1.424   0.058  1.00  0.00     0.181 C 
HETATM    9  C10 UNL     1      -1.056  -1.220  -0.748  1.00  0.00     0.180 C 
ENDROOT
BRANCH   1  10
HETATM   10  O1  UNL     1      -2.637  -0.347   0.857  1.00  0.00    -0.386 OA
HETATM   11  C1  UNL     1      -3.999  -0.279   0.587  1.00  0.00     0.202 C 
ENDBRANCH   1  10
BRANCH   9  12
HETATM   12  O5  UNL     1      -0.724  -1.011  -2.093  1.00  0.00    -0.390 OA
ATOM     13  H5  UNL     1      -0.149  -1.712  -2.375  1.00  0.00     0.210 HD
ENDBRANCH   9  12
BRANCH   8  14
HETATM   14  O4  UNL     1      -0.235  -2.021   1.277  1.00  0.00    -0.390 OA
ATOM     15  H4  UNL     1      -0.776  -2.775   1.076  1.00  0.00     0.210 HD
ENDBRANCH   8  14
BRANCH   7  16
HETATM   16  O3  UNL     1       2.339  -0.662   0.477  1.00  0.00    -0.385 OA
HETATM   17  C8  UNL     1       2.866  -0.448   1.733  1.00  0.00     0.202 C 
ENDBRANCH   7  16
TORSDOF 4
