REMARK  5 active torsions:
REMARK  status: ('A' for Active; 'I' for Inactive)
REMARK    1  A    between atoms: C2_2  and  N1_5 
REMARK    2  A    between atoms: N1_5  and  C5_7 
REMARK    3  A    between atoms: C5_7  and  O1_9 
REMARK    4  A    between atoms: O1_9  and  C6_10 
REMARK    5  A    between atoms: C6_10  and  C7_11 
ROOT
HETATM    1  C7  UNL     1       2.734  -0.340   0.374  1.00  0.00     0.056 A 
HETATM    2  C8  UNL     1       2.546  -1.222  -0.781  1.00  0.00     0.087 A 
HETATM    3  N2  UNL     1       3.442  -1.491  -1.654  1.00  0.00    -0.315 N 
ATOM      4  H2  UNL     1       3.246  -2.115  -2.437  1.00  0.00     0.185 HD
HETATM    5  N3  UNL     1       4.694  -0.903  -1.498  1.00  0.00    -0.295 N 
ATOM      6  H3  UNL     1       5.400  -1.125  -2.200  1.00  0.00     0.187 HD
HETATM    7  C9  UNL     1       5.043  -0.110  -0.556  1.00  0.00     0.106 A 
HETATM    8  C10 UNL     1       6.389   0.448  -0.494  1.00  0.00     0.114 C 
HETATM    9  N4  UNL     1       7.465   0.872  -0.448  1.00  0.00    -0.190 NA
HETATM   10  C11 UNL     1       4.088   0.257   0.489  1.00  0.00     0.082 A 
ENDROOT
BRANCH   1  11
HETATM   11  C6  UNL     1       1.635   0.746   0.299  1.00  0.00     0.188 C 
BRANCH  11  12
HETATM   12  O1  UNL     1       0.422   0.281   0.331  1.00  0.00    -0.326 OA
BRANCH  12  13
HETATM   13  C5  UNL     1      -0.772  -0.190   0.346  1.00  0.00     0.210 C 
HETATM   14  S1  UNL     1      -1.174  -1.765   0.720  1.00  0.00    -0.033 SA
BRANCH  13  15
HETATM   15  N1  UNL     1      -1.915   0.626   0.030  1.00  0.00    -0.353 N 
ATOM     16  H1  UNL     1      -1.754   1.604  -0.211  1.00  0.00     0.163 HD
BRANCH  15  17
HETATM   17  C2  UNL     1      -3.270   0.146   0.033  1.00  0.00     0.022 C 
HETATM   18  C1  UNL     1      -4.184   1.293  -0.341  1.00  0.00     0.037 C 
HETATM   19  C3  UNL     1      -3.645  -0.368   1.418  1.00  0.00     0.037 C 
HETATM   20  C4  UNL     1      -3.397  -0.989  -0.979  1.00  0.00     0.037 C 
ENDBRANCH  15  17
ENDBRANCH  13  15
ENDBRANCH  12  13
ENDBRANCH  11  12
ENDBRANCH   1  11
TORSDOF 5
