REMARK  7 active torsions:
REMARK  status: ('A' for Active; 'I' for Inactive)
REMARK    1  A    between atoms: C2_2  and  S1_3 
REMARK    2  A    between atoms: S1_3  and  N1_6 
REMARK    3  A    between atoms: N1_6  and  C3_8 
REMARK    4  A    between atoms: C3_8  and  C4_9 
REMARK    5  A    between atoms: C4_9  and  N2_10 
REMARK       I    between atoms: N2_10  and  C5_12 
REMARK       I    between atoms: C5_12  and  N3_14 
REMARK    6  A    between atoms: N3_14  and  N4_15 
REMARK    7  A    between atoms: N4_15  and  C6_17 
ROOT
HETATM    1  N2  UNL     1       1.150  -0.250   1.218  1.00  0.00    -0.308 N 
ATOM      2  H2  UNL     1       1.573  -0.963   1.813  1.00  0.00     0.170 HD
HETATM    3  C5  UNL     1       2.082   0.632   0.521  1.00  0.00     0.416 C 
HETATM    4  O3  UNL     1       1.599   1.519  -0.235  1.00  0.00    -0.228 OA
HETATM    5  N3  UNL     1       3.398   0.363   0.820  1.00  0.00    -0.263 NA
ENDROOT
BRANCH   1   6
HETATM    6  C4  UNL     1      -0.226  -0.243   1.175  1.00  0.00     0.087 C 
BRANCH   6   7
HETATM    7  C3  UNL     1      -0.857  -0.479  -0.175  1.00  0.00     0.176 C 
BRANCH   7   8
HETATM    8  N1  UNL     1      -2.290  -0.568   0.163  1.00  0.00    -0.315 N 
ATOM      9  H1  UNL     1      -2.648  -0.473   1.113  1.00  0.00     0.172 HD
BRANCH   8  10
HETATM   10  S1  UNL     1      -3.277  -0.842  -1.175  1.00  0.00     0.226 S 
HETATM   11  O1  UNL     1      -2.568  -1.044  -2.478  1.00  0.00    -0.206 OA
HETATM   12  O2  UNL     1      -4.130  -2.060  -0.874  1.00  0.00    -0.206 OA
BRANCH  10  13
HETATM   13  C2  UNL     1      -4.441   0.521  -1.300  1.00  0.00     0.158 C 
HETATM   14  C1  UNL     1      -5.237   0.497   0.028  1.00  0.00     0.023 C 
ENDBRANCH  10  13
ENDBRANCH   8  10
ENDBRANCH   7   8
ENDBRANCH   6   7
ENDBRANCH   1   6
BRANCH   5  15
HETATM   15  N4  UNL     1       4.637   0.111   1.100  1.00  0.00    -0.206 N 
ATOM     16  H4  UNL     1       4.827  -0.061   2.087  1.00  0.00     0.204 HD
BRANCH  15  17
HETATM   17  C6  UNL     1       5.768   0.036   0.256  1.00  0.00     0.210 C 
HETATM   18  N5  UNL     1       5.700   0.272  -1.118  1.00  0.00    -0.068 NA
HETATM   19  S2  UNL     1       7.229  -0.367   0.904  1.00  0.00    -0.042 SA
ENDBRANCH  15  17
ENDBRANCH   5  15
TORSDOF 7
