REMARK  3 active torsions:
REMARK  status: ('A' for Active; 'I' for Inactive)
REMARK    1  A    between atoms: N1_3  and  N2_5 
REMARK       I    between atoms: N2_5  and  C3_7 
REMARK       I    between atoms: C3_7  and  N4_12 
REMARK    2  A    between atoms: N3_8  and  O1_10 
REMARK    3  A    between atoms: N4_12  and  C4_14 
ROOT
HETATM    1  N2  UNL     1       2.267   0.830  -0.167  1.00  0.00    -0.131 N 
ATOM      2  H2  UNL     1       1.869   1.584   0.394  1.00  0.00     0.205 HD
HETATM    3  C3  UNL     1       1.380  -0.096  -0.783  1.00  0.00     0.713 C 
HETATM    4  N3  UNL     1       1.812  -1.307  -0.870  1.00  0.00    -0.098 N 
ATOM      5  H3  UNL     1       1.205  -2.001  -1.306  1.00  0.00     0.213 HD
HETATM    6  N4  UNL     1       0.102   0.269  -1.277  1.00  0.00    -0.214 N 
ATOM      7  H4  UNL     1       0.065   0.813  -2.139  1.00  0.00     0.178 HD
ENDROOT
BRANCH   1   8
HETATM    8  N1  UNL     1       3.656   0.757  -0.293  1.00  0.00    -0.302 N 
HETATM    9  C2  UNL     1       4.450   1.057   0.698  1.00  0.00     0.076 C 
HETATM   10  C1  UNL     1       5.910   0.992   0.600  1.00  0.00     0.056 C 
ATOM     11  H1  UNL     1       4.060   0.462  -1.182  1.00  0.00     0.186 HD
ENDBRANCH   1   8
BRANCH   4  12
HETATM   12  O1  UNL     1       3.020  -1.716  -0.419  1.00  0.00    -0.276 OA
ATOM     13  H1  UNL     1       3.338  -2.609  -0.483  1.00  0.00     0.245 HD
ENDBRANCH   4  12
BRANCH   6  14
HETATM   14  C4  UNL     1      -1.132  -0.070  -0.656  1.00  0.00     0.051 C 
HETATM   15  C5  UNL     1      -2.296   0.483  -1.452  1.00  0.00     0.036 C 
HETATM   16  C6  UNL     1      -3.359   0.578  -0.348  1.00  0.00    -0.011 C 
HETATM   17  C7  UNL     1      -3.672  -0.817   0.088  1.00  0.00     0.009 C 
HETATM   18  C11 UNL     1      -2.547   1.336   0.705  1.00  0.00     0.012 C 
HETATM   19  C8  UNL     1      -2.451  -1.561   0.548  1.00  0.00    -0.011 C 
HETATM   20  C9  UNL     1      -1.691  -0.746   1.604  1.00  0.00     0.012 C 
HETATM   21  C12 UNL     1      -1.384  -1.559  -0.560  1.00  0.00     0.036 C 
HETATM   22  C10 UNL     1      -1.287   0.458   0.741  1.00  0.00     0.015 C 
ENDBRANCH   6  14
TORSDOF 3
