REMARK  12 active torsions:
REMARK  status: ('A' for Active; 'I' for Inactive)
REMARK    1  A    between atoms: C2_2  and  N1_3 
REMARK    2  A    between atoms: N2_6  and  C5_7 
REMARK    3  A    between atoms: C5_7  and  C6_8 
REMARK    4  A    between atoms: C6_8  and  C7_9 
REMARK    5  A    between atoms: C7_9  and  C8_10 
REMARK    6  A    between atoms: C8_10  and  C9_11 
REMARK    7  A    between atoms: C9_11  and  S1_12 
REMARK    8  A    between atoms: S1_12  and  C10_13 
REMARK    9  A    between atoms: C12_18  and  N5_19 
REMARK       I    between atoms: N5_19  and  C13_21 
REMARK   10  A    between atoms: C13_21  and  C14_23 
REMARK   11  A    between atoms: N6_28  and  C18_29 
REMARK   12  A    between atoms: C18_29  and  C19_30 
ROOT
HETATM    1  C10 UNL     1       1.042  -0.215   1.027  1.00  0.00     0.148 A 
HETATM    2  N3  UNL     1       0.577  -0.320  -0.228  1.00  0.00    -0.323 N 
ATOM      3  H3  UNL     1       1.236  -0.179  -0.994  1.00  0.00     0.169 HD
HETATM    4  C11 UNL     1      -0.707  -0.600  -0.543  1.00  0.00     0.150 A 
HETATM    5  N4  UNL     1      -1.184  -0.709  -1.879  1.00  0.00    -0.080 NA
HETATM    6  C12 UNL     1      -1.563  -0.784   0.512  1.00  0.00     0.145 A 
HETATM    7  C24 UNL     1      -1.126  -0.685   1.829  1.00  0.00     0.277 A 
HETATM    8  O2  UNL     1      -1.913  -0.853   2.811  1.00  0.00    -0.266 OA
HETATM    9  N7  UNL     1       0.157  -0.404   2.052  1.00  0.00    -0.302 N 
ATOM     10  H7  UNL     1       0.488  -0.328   3.014  1.00  0.00     0.171 HD
ENDROOT
BRANCH   6  11
HETATM   11  N5  UNL     1      -2.938  -1.073   0.296  1.00  0.00    -0.319 N 
HETATM   12  C13 UNL     1      -3.910  -0.052   0.310  1.00  0.00     0.228 C 
HETATM   13  O1  UNL     1      -3.568   1.132   0.512  1.00  0.00    -0.273 OA
ATOM     14  H5  UNL     1      -3.227  -2.037   0.128  1.00  0.00     0.169 HD
BRANCH  12  15
HETATM   15  C14 UNL     1      -5.336  -0.413   0.083  1.00  0.00     0.096 C 
HETATM   16  C15 UNL     1      -5.730  -1.561   0.999  1.00  0.00     0.022 C 
HETATM   17  C16 UNL     1      -5.848  -1.043   2.444  1.00  0.00     0.070 C 
HETATM   18  C17 UNL     1      -7.058  -0.184   2.418  1.00  0.00     0.075 C 
HETATM   19  S2  UNL     1      -8.060   0.049   3.674  1.00  0.00    -0.066 SA
HETATM   20  N6  UNL     1      -7.332   0.460   1.146  1.00  0.00    -0.374 N 
HETATM   21  C23 UNL     1      -6.182   0.785   0.344  1.00  0.00     0.137 C 
BRANCH  20  22
HETATM   22  C18 UNL     1      -8.684   0.721   0.772  1.00  0.00     0.128 C 
BRANCH  22  23
HETATM   23  C19 UNL     1      -9.292  -0.060  -0.315  1.00  0.00     0.003 C 
HETATM   24  C20 UNL     1      -8.755  -0.049  -1.694  1.00  0.00     0.006 C 
HETATM   25  C21 UNL     1      -9.515   1.248  -1.930  1.00  0.00     0.001 C 
HETATM   26  C22 UNL     1     -10.503   0.728  -0.871  1.00  0.00     0.006 C 
ENDBRANCH  22  23
ENDBRANCH  20  22
ENDBRANCH  12  15
ENDBRANCH   6  11
BRANCH   1  27
HETATM   27  S1  UNL     1       2.742   0.168   1.401  1.00  0.00    -0.094 SA
BRANCH  27  28
HETATM   28  C9  UNL     1       2.920   1.992   1.310  1.00  0.00     0.082 C 
BRANCH  28  29
HETATM   29  C8  UNL     1       2.766   2.338  -0.147  1.00  0.00     0.010 C 
BRANCH  29  30
HETATM   30  C7  UNL     1       3.844   1.657  -0.940  1.00  0.00     0.002 C 
BRANCH  30  31
HETATM   31  C6  UNL     1       5.195   2.178  -0.513  1.00  0.00     0.019 C 
BRANCH  31  32
HETATM   32  C5  UNL     1       6.266   1.510  -1.305  1.00  0.00     0.117 C 
BRANCH  32  33
HETATM   33  N2  UNL     1       6.351   0.103  -1.165  1.00  0.00    -0.409 N 
HETATM   34  C4  UNL     1       7.317  -0.511  -2.039  1.00  0.00     0.147 C 
HETATM   35  C3  UNL     1       7.898  -1.765  -1.505  1.00  0.00     0.291 C 
HETATM   36  N1  UNL     1       8.574  -1.457  -0.244  1.00  0.00     0.091 N 
HETATM   37  C26 UNL     1       7.541  -1.109   0.671  1.00  0.00     0.291 C 
HETATM   38  C25 UNL     1       6.337  -0.435   0.147  1.00  0.00     0.147 C 
BRANCH  36  39
HETATM   39  C2  UNL     1       9.631  -0.524  -0.416  1.00  0.00     0.268 C 
HETATM   40  C1  UNL     1      10.451  -0.381   0.830  1.00  0.00     0.037 C 
ENDBRANCH  36  39
ENDBRANCH  32  33
ENDBRANCH  31  32
ENDBRANCH  30  31
ENDBRANCH  29  30
ENDBRANCH  28  29
ENDBRANCH  27  28
ENDBRANCH   1  27
TORSDOF 12
