REMARK  11 active torsions:
REMARK  status: ('A' for Active; 'I' for Inactive)
REMARK    1  A    between atoms: C4_5  and  C5_6 
REMARK    2  A    between atoms: C5_6  and  C6_7 
REMARK    3  A    between atoms: C6_7  and  C7_8 
REMARK    4  A    between atoms: C7_8  and  C8_9 
REMARK    5  A    between atoms: C8_9  and  N1_10 
REMARK    6  A    between atoms: N1_10  and  C9_11 
REMARK    7  A    between atoms: N1_10  and  S3_29 
REMARK    8  A    between atoms: N2_17  and  C13_18 
REMARK    9  A    between atoms: C13_18  and  C14_19 
REMARK   10  A    between atoms: C21_33  and  C22_34 
REMARK   11  A    between atoms: C22_34  and  C23_35 
ROOT
HETATM    1  N1  UNL     1      -0.112  -1.225   2.041  1.00  0.00    -0.253 N 
ENDROOT
BRANCH   1   2
HETATM    2  C8  UNL     1       0.899  -1.867   1.248  1.00  0.00     0.143 C 
BRANCH   2   3
HETATM    3  C7  UNL     1       2.299  -1.738   1.704  1.00  0.00     0.021 C 
BRANCH   3   4
HETATM    4  C6  UNL     1       2.896  -0.376   1.775  1.00  0.00     0.004 C 
BRANCH   4   5
HETATM    5  C5  UNL     1       2.949   0.337   0.468  1.00  0.00     0.036 C 
BRANCH   5   6
HETATM    6  C4  UNL     1       3.764  -0.349  -0.506  1.00  0.00     0.145 C 
HETATM    7  S1  UNL     1       3.765   0.449  -2.195  1.00  0.00    -0.142 SA
HETATM    8  C3  UNL     1       5.169  -0.612  -2.778  1.00  0.00     0.100 C 
HETATM    9  C2  UNL     1       5.596  -1.251  -1.451  1.00  0.00     0.090 C 
HETATM   10  C1  UNL     1       7.016  -1.682  -1.429  1.00  0.00     0.033 C 
HETATM   11  N4  UNL     1       5.175  -0.383  -0.411  1.00  0.00    -0.374 N 
HETATM   12  C21 UNL     1       5.957   0.100   0.561  1.00  0.00     0.070 C 
BRANCH  12  13
HETATM   13  C22 UNL     1       7.104   1.049   0.259  1.00  0.00     0.157 C 
BRANCH  13  14
HETATM   14  C23 UNL     1       6.694   2.311  -0.376  1.00  0.00     0.177 C 
HETATM   15  O5  UNL     1       6.780   2.423  -1.619  1.00  0.00    -0.648 OA
HETATM   16  O6  UNL     1       6.212   3.392   0.343  1.00  0.00    -0.648 OA
ENDBRANCH  13  14
ENDBRANCH  12  13
ENDBRANCH   5   6
ENDBRANCH   4   5
ENDBRANCH   3   4
ENDBRANCH   2   3
ENDBRANCH   1   2
BRANCH   1  17
HETATM   17  C9  UNL     1      -0.779  -0.005   1.647  1.00  0.00     0.114 A 
HETATM   18  S2  UNL     1      -0.423   1.615   2.017  1.00  0.00    -0.080 SA
HETATM   19  C10 UNL     1      -1.687   2.382   1.169  1.00  0.00     0.071 A 
HETATM   20  C11 UNL     1      -2.367   1.327   0.609  1.00  0.00     0.068 A 
HETATM   21  C12 UNL     1      -3.517   1.455  -0.199  1.00  0.00     0.264 A 
HETATM   22  C20 UNL     1      -1.903   0.102   0.854  1.00  0.00     0.087 A 
HETATM   23  O1  UNL     1      -3.992   2.596  -0.460  1.00  0.00    -0.267 OA
HETATM   24  N2  UNL     1      -4.158   0.406  -0.727  1.00  0.00    -0.265 N 
HETATM   25  C19 UNL     1      -3.662  -0.831  -0.462  1.00  0.00     0.330 A 
HETATM   26  O2  UNL     1      -4.244  -1.864  -0.947  1.00  0.00    -0.246 OA
HETATM   27  N3  UNL     1      -2.577  -0.957   0.300  1.00  0.00    -0.305 N 
ATOM     28  H3  UNL     1      -2.226  -1.897   0.483  1.00  0.00     0.171 HD
BRANCH  24  29
HETATM   29  C13 UNL     1      -5.354   0.472  -1.541  1.00  0.00     0.142 C 
BRANCH  29  30
HETATM   30  C14 UNL     1      -6.634   0.319  -0.824  1.00  0.00     0.004 C 
HETATM   31  C15 UNL     1      -6.981   1.318   0.229  1.00  0.00     0.006 C 
HETATM   32  C16 UNL     1      -8.510   1.174   0.372  1.00  0.00     0.000 C 
HETATM   33  C17 UNL     1      -8.994   0.641  -0.946  1.00  0.00     0.000 C 
HETATM   34  C18 UNL     1      -7.785   0.412  -1.828  1.00  0.00     0.006 C 
ENDBRANCH  29  30
ENDBRANCH  24  29
ENDBRANCH   1  17
BRANCH   1  35
HETATM   35  S3  UNL     1      -0.681  -1.925   3.534  1.00  0.00     0.361 S 
HETATM   36  O3  UNL     1      -1.155  -0.801   4.403  1.00  0.00    -0.187 OA
HETATM   37  O4  UNL     1       0.406  -2.720   4.203  1.00  0.00    -0.187 OA
ENDBRANCH   1  35
TORSDOF 11
