REMARK  6 active torsions:
REMARK  status: ('A' for Active; 'I' for Inactive)
REMARK    1  A    between atoms: N1_2  and  C3_4 
REMARK    2  A    between atoms: C4_7  and  N3_8 
REMARK    3  A    between atoms: N3_8  and  N4_10 
REMARK       I    between atoms: N4_10  and  C5_12 
REMARK    4  A    between atoms: C5_12  and  C6_14 
REMARK    5  A    between atoms: C6_14  and  N5_15 
REMARK    6  A    between atoms: C6_14  and  C7_19 
ROOT
HETATM    1  N4  UNL     1      -0.740  -0.642   0.306  1.00  0.00    -0.254 N 
ATOM      2  H4  UNL     1      -1.218  -1.542   0.278  1.00  0.00     0.190 HD
HETATM    3  C5  UNL     1      -1.409   0.540  -0.097  1.00  0.00     0.269 C 
HETATM    4  O1  UNL     1      -0.817   1.669  -0.073  1.00  0.00    -0.269 OA
ENDROOT
BRANCH   3   5
HETATM    5  C6  UNL     1      -2.822   0.489  -0.563  1.00  0.00     0.316 C 
BRANCH   5   6
HETATM    6  N5  UNL     1      -3.068   1.744  -1.275  1.00  0.00    -0.064 N 
ATOM      7  H53 UNL     1      -2.855   2.573  -0.720  1.00  0.00     0.275 HD
ATOM      8  H52 UNL     1      -2.401   1.920  -2.026  1.00  0.00     0.275 HD
ATOM      9  H51 UNL     1      -4.036   1.709  -1.594  1.00  0.00     0.275 HD
ENDBRANCH   5   6
BRANCH   5  10
HETATM   10  C7  UNL     1      -3.687   0.490   0.705  1.00  0.00     0.320 C 
HETATM   11  N6  UNL     1      -5.089   0.443   0.278  1.00  0.00    -0.029 N 
HETATM   12  C8  UNL     1      -5.235  -0.913  -0.238  1.00  0.00     0.362 C 
ATOM     13  H62 UNL     1      -5.762   0.696   1.002  1.00  0.00     0.281 HD
ATOM     14  H61 UNL     1      -5.358   1.177  -0.377  1.00  0.00     0.281 HD
HETATM   15  S1  UNL     1      -6.917  -1.471   0.109  1.00  0.00    -0.040 SA
HETATM   16  N7  UNL     1      -4.249  -1.727   0.466  1.00  0.00    -0.323 N 
HETATM   17  C9  UNL     1      -3.572  -0.836   1.345  1.00  0.00     0.253 C 
ATOM     18  H7  UNL     1      -4.080  -2.726   0.352  1.00  0.00     0.165 HD
HETATM   19  O2  UNL     1      -3.015  -1.152   2.419  1.00  0.00    -0.271 OA
ENDBRANCH   5  10
ENDBRANCH   3   5
BRANCH   1  20
HETATM   20  N3  UNL     1       0.575  -0.557   0.739  1.00  0.00    -0.129 N 
ATOM     21  H3  UNL     1       0.768  -0.777   1.716  1.00  0.00     0.205 HD
BRANCH  20  22
HETATM   22  C4  UNL     1       1.570  -0.219  -0.007  1.00  0.00     0.712 A 
HETATM   23  N2  UNL     1       2.782  -0.190   0.587  1.00  0.00    -0.021 N 
HETATM   24  C3  UNL     1       3.854   0.156  -0.150  1.00  0.00     0.695 A 
ATOM     25  H2  UNL     1       2.883  -0.425   1.574  1.00  0.00     0.203 HD
HETATM   26  N9  UNL     1       3.704   0.468  -1.460  1.00  0.00    -0.187 N 
HETATM   27  C10 UNL     1       2.501   0.442  -2.060  1.00  0.00     0.215 A 
ATOM     28  H9  UNL     1       4.525   0.729  -2.005  1.00  0.00     0.185 HD
HETATM   29  N8  UNL     1       1.450   0.092  -1.298  1.00  0.00    -0.185 N 
ATOM     30  H8  UNL     1       0.524   0.063  -1.725  1.00  0.00     0.185 HD
BRANCH  24  31
HETATM   31  N1  UNL     1       5.116   0.184   0.478  1.00  0.00    -0.226 N 
HETATM   32  C1  UNL     1       5.949  -0.990   0.502  1.00  0.00     0.168 C 
HETATM   33  C2  UNL     1       5.584   1.392   1.103  1.00  0.00     0.168 C 
ENDBRANCH  24  31
ENDBRANCH  20  22
ENDBRANCH   1  20
TORSDOF 6
