REMARK  10 active torsions:
REMARK  status: ('A' for Active; 'I' for Inactive)
REMARK    1  A    between atoms: O1_2  and  C2_3 
REMARK    2  A    between atoms: C3_4  and  O2_5 
REMARK    3  A    between atoms: C4_7  and  O3_8 
REMARK    4  A    between atoms: C8_12  and  O4_13 
REMARK    5  A    between atoms: C9_15  and  C10_16 
REMARK    6  A    between atoms: C10_16  and  O5_17 
REMARK    7  A    between atoms: C10_16  and  O6_19 
REMARK    8  A    between atoms: O6_19  and  C11_20 
REMARK    9  A    between atoms: N2_22  and  N3_24 
REMARK   10  A    between atoms: C12_27  and  O7_28 
ROOT
HETATM    1  C2  UNL     1      -2.063   0.761   1.054  1.00  0.00     0.138 A 
HETATM    2  C3  UNL     1      -3.043  -0.139   0.680  1.00  0.00     0.138 A 
HETATM    3  C4  UNL     1      -2.748  -1.108  -0.255  1.00  0.00     0.131 A 
HETATM    4  C6  UNL     1      -1.481  -1.206  -0.838  1.00  0.00     0.080 A 
HETATM    5  C7  UNL     1      -0.499  -0.305  -0.463  1.00  0.00     0.041 A 
HETATM    6  C8  UNL     1      -0.813   0.671   0.484  1.00  0.00     0.115 A 
HETATM    7  C9  UNL     1       0.612  -0.587  -1.119  1.00  0.00     0.038 A 
HETATM    8  C12 UNL     1       0.307  -1.738  -2.004  1.00  0.00     0.254 A 
HETATM    9  N4  UNL     1      -1.051  -2.026  -1.714  1.00  0.00    -0.357 N 
ATOM     10  H4  UNL     1      -1.599  -2.773  -2.140  1.00  0.00     0.162 HD
ENDROOT
BRANCH   7  11
HETATM   11  C10 UNL     1       1.916   0.071  -1.065  1.00  0.00     0.302 C 
BRANCH  11  12
HETATM   12  O5  UNL     1       2.877  -0.823  -1.628  1.00  0.00    -0.367 OA
ATOM     13  H5  UNL     1       3.725  -0.395  -1.593  1.00  0.00     0.213 HD
ENDBRANCH  11  12
BRANCH  11  14
HETATM   14  O6  UNL     1       2.420   0.234   0.277  1.00  0.00    -0.288 OA
BRANCH  14  15
HETATM   15  C11 UNL     1       3.652   0.851   0.388  1.00  0.00     0.248 C 
HETATM   16  N1  UNL     1       4.397   0.771   1.601  1.00  0.00    -0.055 NA
HETATM   17  N2  UNL     1       4.105   1.493  -0.625  1.00  0.00    -0.274 N 
ATOM     18  H2  UNL     1       3.525   1.513  -1.464  1.00  0.00     0.189 HD
BRANCH  17  19
HETATM   19  N3  UNL     1       5.307   2.156  -0.673  1.00  0.00    -0.342 N 
ATOM     20  H32 UNL     1       5.873   2.125   0.175  1.00  0.00     0.176 HD
ATOM     21  H31 UNL     1       5.667   2.667  -1.479  1.00  0.00     0.176 HD
ENDBRANCH  17  19
ENDBRANCH  14  15
ENDBRANCH  11  14
ENDBRANCH   7  11
BRANCH   8  22
HETATM   22  O7  UNL     1       1.168  -2.811  -1.784  1.00  0.00    -0.373 OA
ATOM     23  H7  UNL     1       0.973  -3.548  -2.351  1.00  0.00     0.212 HD
ENDBRANCH   8  22
BRANCH   6  24
HETATM   24  O4  UNL     1       0.127   1.600   0.895  1.00  0.00    -0.357 OA
ATOM     25  H4  UNL     1       0.990   1.538   0.502  1.00  0.00     0.217 HD
ENDBRANCH   6  24
BRANCH   3  26
HETATM   26  O3  UNL     1      -3.761  -2.002  -0.611  1.00  0.00    -0.351 OA
HETATM   27  C5  UNL     1      -3.912  -3.193   0.100  1.00  0.00     0.210 C 
ENDBRANCH   3  26
BRANCH   1  28
HETATM   28  O1  UNL     1      -2.329   1.765   2.006  1.00  0.00    -0.351 OA
HETATM   29  C1  UNL     1      -2.822   3.038   1.582  1.00  0.00     0.210 C 
ENDBRANCH   1  28
BRANCH   2  30
HETATM   30  O2  UNL     1      -4.292  -0.013   1.280  1.00  0.00    -0.356 OA
ATOM     31  H2  UNL     1      -4.966  -0.632   1.023  1.00  0.00     0.218 HD
ENDBRANCH   2  30
TORSDOF 10
