REMARK  13 active torsions:
REMARK  status: ('A' for Active; 'I' for Inactive)
REMARK    1  A    between atoms: C2_2  and  C3_3 
REMARK    2  A    between atoms: C3_3  and  C4_4 
REMARK    3  A    between atoms: C4_4  and  C5_5 
REMARK    4  A    between atoms: C5_5  and  C6_6 
REMARK    5  A    between atoms: C6_6  and  O1_7 
REMARK    6  A    between atoms: O1_7  and  C7_8 
REMARK       I    between atoms: C7_8  and  N1_10 
REMARK    7  A    between atoms: N2_13  and  C10_14 
REMARK    8  A    between atoms: C10_14  and  C11_15 
REMARK    9  A    between atoms: C11_15  and  C12_16 
REMARK   10  A    between atoms: C12_16  and  N3_17 
REMARK       I    between atoms: N3_17  and  C13_19 
REMARK   11  A    between atoms: C13_19  and  C14_21 
REMARK   12  A    between atoms: C14_21  and  N4_22 
REMARK   13  A    between atoms: C19_27  and  C20_28 
ROOT
HETATM    1  N3  UNL     1      -1.888  -2.708  -1.519  1.00  0.00    -0.359 N 
ATOM      2  H3  UNL     1      -1.994  -3.621  -1.077  1.00  0.00     0.162 HD
HETATM    3  C13 UNL     1      -2.860  -1.723  -1.235  1.00  0.00     0.235 C 
HETATM    4  O3  UNL     1      -2.780  -0.583  -1.743  1.00  0.00    -0.272 OA
ENDROOT
BRANCH   1   5
HETATM    5  C12 UNL     1      -0.755  -2.511  -2.392  1.00  0.00     0.128 C 
BRANCH   5   6
HETATM    6  C11 UNL     1       0.155  -1.397  -1.986  1.00  0.00     0.064 C 
BRANCH   6   7
HETATM    7  C10 UNL     1       0.738  -1.526  -0.614  1.00  0.00     0.060 C 
BRANCH   7   8
HETATM    8  N2  UNL     1       1.498  -2.694  -0.418  1.00  0.00    -0.391 N 
HETATM    9  C9  UNL     1       2.726  -2.831  -1.105  1.00  0.00     0.143 C 
HETATM   10  C8  UNL     1       3.930  -2.723  -0.179  1.00  0.00     0.168 C 
HETATM   11  N1  UNL     1       3.811  -1.511   0.628  1.00  0.00    -0.255 N 
HETATM   12  C7  UNL     1       4.838  -0.591   0.433  1.00  0.00     0.377 C 
HETATM   13  N6  UNL     1       2.811  -1.216   1.530  1.00  0.00    -0.227 NA
HETATM   14  O2  UNL     1       5.795  -0.884  -0.359  1.00  0.00    -0.237 OA
HETATM   15  C30 UNL     1       2.107  -2.418   1.968  1.00  0.00     0.133 C 
HETATM   16  C31 UNL     1       3.348  -0.629   2.740  1.00  0.00     0.136 C 
HETATM   17  C29 UNL     1       1.478  -3.220   0.903  1.00  0.00     0.138 C 
BRANCH  12  18
HETATM   18  O1  UNL     1       4.856   0.620   1.060  1.00  0.00    -0.303 OA
BRANCH  18  19
HETATM   19  C6  UNL     1       5.830   1.587   0.923  1.00  0.00     0.180 C 
BRANCH  19  20
HETATM   20  C5  UNL     1       5.949   2.059  -0.482  1.00  0.00     0.027 C 
BRANCH  20  21
HETATM   21  C4  UNL     1       7.023   3.141  -0.578  1.00  0.00     0.002 C 
BRANCH  21  22
HETATM   22  C3  UNL     1       8.358   2.644  -0.127  1.00  0.00    -0.000 C 
BRANCH  22  23
HETATM   23  C2  UNL     1       8.882   1.479  -0.903  1.00  0.00    -0.005 C 
HETATM   24  C1  UNL     1      10.243   1.109  -0.305  1.00  0.00     0.005 C 
ENDBRANCH  22  23
ENDBRANCH  21  22
ENDBRANCH  20  21
ENDBRANCH  19  20
ENDBRANCH  18  19
ENDBRANCH  12  18
ENDBRANCH   7   8
ENDBRANCH   6   7
ENDBRANCH   5   6
ENDBRANCH   1   5
BRANCH   3  25
HETATM   25  C14 UNL     1      -3.996  -2.019  -0.331  1.00  0.00     0.235 C 
BRANCH  25  26
HETATM   26  N4  UNL     1      -4.821  -0.849  -0.108  1.00  0.00    -0.307 N 
HETATM   27  C15 UNL     1      -4.552  -0.027   0.936  1.00  0.00     0.022 A 
HETATM   28  C16 UNL     1      -5.265   1.105   1.215  1.00  0.00    -0.022 A 
HETATM   29  C28 UNL     1      -3.480  -0.152   1.989  1.00  0.00     0.058 C 
HETATM   30  C17 UNL     1      -6.327   1.450   0.400  1.00  0.00     0.007 A 
HETATM   31  C26 UNL     1      -4.740   1.808   2.417  1.00  0.00     0.042 C 
HETATM   32  C18 UNL     1      -7.239   2.490   0.376  1.00  0.00     0.046 A 
HETATM   33  C24 UNL     1      -6.627   0.636  -0.669  1.00  0.00     0.112 A 
HETATM   34  C19 UNL     1      -8.080   2.301  -0.694  1.00  0.00     0.068 A 
HETATM   35  N5  UNL     1      -7.689   1.176  -1.309  1.00  0.00    -0.349 N 
ATOM     36  H5  UNL     1      -8.130   0.783  -2.141  1.00  0.00     0.166 HD
HETATM   37  C25 UNL     1      -5.854  -0.495  -0.886  1.00  0.00     0.276 A 
HETATM   38  O5  UNL     1      -6.129  -1.234  -1.862  1.00  0.00    -0.265 OA
HETATM   39  C27 UNL     1      -4.043   0.665   3.137  1.00  0.00     0.011 C 
BRANCH  34  40
HETATM   40  C20 UNL     1      -9.195   3.181  -1.086  1.00  0.00     0.101 A 
HETATM   41  C21 UNL     1     -10.029   2.958  -2.177  1.00  0.00     0.041 A 
HETATM   42  C22 UNL     1     -10.945   3.987  -2.219  1.00  0.00     0.027 A 
HETATM   43  C23 UNL     1     -10.626   4.791  -1.149  1.00  0.00     0.142 A 
HETATM   44  O4  UNL     1      -9.601   4.282  -0.519  1.00  0.00    -0.321 OA
ENDBRANCH  34  40
ENDBRANCH  25  26
ENDBRANCH   3  25
TORSDOF 13
