REMARK  7 active torsions:
REMARK  status: ('A' for Active; 'I' for Inactive)
REMARK    1  A    between atoms: N1_1  and  S1_4 
REMARK    2  A    between atoms: S1_4  and  N2_6 
REMARK    3  A    between atoms: S1_4  and  C10_22 
REMARK       I    between atoms: N2_6  and  C1_8 
REMARK    4  A    between atoms: C1_8  and  C2_10 
REMARK    5  A    between atoms: C2_10  and  N3_11 
REMARK    6  A    between atoms: C2_10  and  C9_19 
REMARK    7  A    between atoms: N3_11  and  C3_13 
ROOT
HETATM    1  N2  UNL     1       0.285   0.069  -0.545  1.00  0.00    -0.265 N 
ATOM      2  H2  UNL     1      -0.060  -0.099  -1.490  1.00  0.00     0.180 HD
HETATM    3  C1  UNL     1      -0.259  -0.803   0.392  1.00  0.00     0.263 C 
HETATM    4  O2  UNL     1      -0.037  -0.838   1.615  1.00  0.00    -0.270 OA
ENDROOT
BRANCH   3   5
HETATM    5  C2  UNL     1      -1.263  -1.833  -0.105  1.00  0.00     0.277 C 
BRANCH   5   6
HETATM    6  N3  UNL     1      -2.451  -1.192  -0.435  1.00  0.00    -0.368 N 
ATOM      7  H3  UNL     1      -2.707  -1.501  -1.373  1.00  0.00     0.161 HD
BRANCH   6   8
HETATM    8  C3  UNL     1      -3.425  -0.313  -0.020  1.00  0.00     0.029 A 
HETATM    9  C4  UNL     1      -4.140  -0.425   1.124  1.00  0.00     0.029 A 
HETATM   10  C5  UNL     1      -5.138   0.499   1.435  1.00  0.00     0.002 A 
HETATM   11  C6  UNL     1      -5.388   1.529   0.557  1.00  0.00     0.000 A 
HETATM   12  C7  UNL     1      -4.676   1.660  -0.608  1.00  0.00     0.002 A 
HETATM   13  C8  UNL     1      -3.702   0.770  -0.917  1.00  0.00     0.029 A 
ENDBRANCH   6   8
ENDBRANCH   5   6
BRANCH   5  14
HETATM   14  C9  UNL     1      -1.371  -2.904   0.856  1.00  0.00     0.206 C 
HETATM   15  O3  UNL     1      -1.983  -2.882   1.968  1.00  0.00    -0.646 OA
HETATM   16  O4  UNL     1      -0.758  -4.155   0.590  1.00  0.00    -0.646 OA
ENDBRANCH   5  14
ENDBRANCH   3   5
BRANCH   1  17
HETATM   17  S1  UNL     1       1.506   1.478  -0.456  1.00  0.00     0.139 S 
HETATM   18  O1  UNL     1       1.573   1.661  -1.987  1.00  0.00    -0.223 OA
BRANCH  17  19
HETATM   19  N1  UNL     1       1.539   1.408   1.365  1.00  0.00    -0.341 N 
ATOM     20  H12 UNL     1       2.149   2.216   1.240  1.00  0.00     0.167 HD
ATOM     21  H11 UNL     1       1.495   1.287   2.377  1.00  0.00     0.167 HD
ENDBRANCH  17  19
BRANCH  17  22
HETATM   22  C10 UNL     1       3.361   0.939  -0.477  1.00  0.00     0.058 A 
HETATM   23  C11 UNL     1       3.638  -0.391  -0.320  1.00  0.00     0.023 A 
HETATM   24  C12 UNL     1       4.930  -0.830  -0.371  1.00  0.00     0.002 A 
HETATM   25  C13 UNL     1       5.998   0.060  -0.578  1.00  0.00     0.000 A 
HETATM   26  C14 UNL     1       5.685   1.382  -0.733  1.00  0.00     0.002 A 
HETATM   27  C15 UNL     1       4.341   1.817  -0.682  1.00  0.00     0.023 A 
ENDBRANCH  17  22
ENDBRANCH   1  17
TORSDOF 7
