REMARK  10 active torsions:
REMARK  status: ('A' for Active; 'I' for Inactive)
REMARK    1  A    between atoms: O1_2  and  C2_3 
REMARK    2  A    between atoms: C2_3  and  C3_5 
REMARK    3  A    between atoms: C3_5  and  N1_6 
REMARK    4  A    between atoms: C3_5  and  C15_23 
REMARK       I    between atoms: N1_6  and  C4_8 
REMARK    5  A    between atoms: C4_8  and  C5_10 
REMARK    6  A    between atoms: C5_10  and  C6_11 
REMARK    7  A    between atoms: C5_10  and  N2_18 
REMARK    8  A    between atoms: C6_11  and  C7_12 
REMARK       I    between atoms: N2_18  and  C13_20 
REMARK    9  A    between atoms: C15_23  and  O5_24 
REMARK   10  A    between atoms: N3_26  and  O6_28 
ROOT
HETATM    1  N1  UNL     1       0.730  -0.154  -0.058  1.00  0.00    -0.339 N 
ATOM      2  H1  UNL     1       0.102  -0.933   0.139  1.00  0.00     0.163 HD
HETATM    3  C4  UNL     1       0.239   0.956  -0.815  1.00  0.00     0.241 C 
HETATM    4  O3  UNL     1       0.992   1.936  -1.079  1.00  0.00    -0.271 OA
ENDROOT
BRANCH   3   5
HETATM    5  C5  UNL     1      -1.133   0.945  -1.285  1.00  0.00     0.180 C 
BRANCH   5   6
HETATM    6  C6  UNL     1      -2.223   1.088  -0.288  1.00  0.00     0.073 C 
BRANCH   6   7
HETATM    7  C7  UNL     1      -2.358   0.127   0.780  1.00  0.00    -0.056 A 
HETATM    8  C8  UNL     1      -3.035  -1.057   0.593  1.00  0.00     0.007 A 
HETATM    9  C9  UNL     1      -3.168  -1.928   1.661  1.00  0.00     0.001 A 
HETATM   10  C10 UNL     1      -2.649  -1.660   2.914  1.00  0.00     0.000 A 
HETATM   11  C11 UNL     1      -1.972  -0.472   3.094  1.00  0.00     0.001 A 
HETATM   12  C12 UNL     1      -1.837   0.401   2.028  1.00  0.00     0.007 A 
ENDBRANCH   6   7
ENDBRANCH   5   6
BRANCH   5  13
HETATM   13  N2  UNL     1      -1.244   2.111  -2.208  1.00  0.00    -0.348 N 
HETATM   14  C13 UNL     1      -1.534   1.959  -3.577  1.00  0.00     0.214 C 
HETATM   15  C14 UNL     1      -1.627   3.180  -4.428  1.00  0.00     0.117 C 
HETATM   16  O4  UNL     1      -1.704   0.805  -4.032  1.00  0.00    -0.274 OA
ATOM     17  H2  UNL     1      -1.105   3.050  -1.835  1.00  0.00     0.163 HD
ENDBRANCH   5  13
ENDBRANCH   3   5
BRANCH   1  18
HETATM   18  C3  UNL     1       2.089  -0.208   0.438  1.00  0.00     0.261 C 
BRANCH  18  19
HETATM   19  C2  UNL     1       2.774  -1.334  -0.254  1.00  0.00     0.289 C 
HETATM   20  O2  UNL     1       2.146  -2.025  -1.095  1.00  0.00    -0.262 OA
BRANCH  19  21
HETATM   21  O1  UNL     1       4.099  -1.660  -0.007  1.00  0.00    -0.325 OA
HETATM   22  C1  UNL     1       4.685  -2.732  -0.691  1.00  0.00     0.213 C 
ENDBRANCH  19  21
ENDBRANCH  18  19
BRANCH  18  23
HETATM   23  C15 UNL     1       2.204  -0.379   1.885  1.00  0.00     0.168 C 
HETATM   24  N3  UNL     1       2.774  -1.427   2.367  1.00  0.00    -0.249 N 
ATOM     25  H3  UNL     1       3.141  -2.130   1.725  1.00  0.00     0.196 HD
BRANCH  23  26
HETATM   26  O5  UNL     1       1.706   0.571   2.760  1.00  0.00    -0.346 OA
ATOM     27  H5  UNL     1       1.781   0.460   3.701  1.00  0.00     0.219 HD
ENDBRANCH  23  26
BRANCH  24  28
HETATM   28  O6  UNL     1       2.905  -1.631   3.735  1.00  0.00    -0.288 OA
ATOM     29  H6  UNL     1       3.326  -2.405   4.091  1.00  0.00     0.244 HD
ENDBRANCH  24  28
ENDBRANCH  18  23
ENDBRANCH   1  18
TORSDOF 10
