REMARK  15 active torsions:
REMARK  status: ('A' for Active; 'I' for Inactive)
REMARK    1  A    between atoms: C2_2  and  C3_3 
REMARK    2  A    between atoms: C3_3  and  N1_4 
REMARK    3  A    between atoms: N1_4  and  C4_6 
REMARK    4  A    between atoms: C4_6  and  C5_7 
REMARK    5  A    between atoms: C5_7  and  C6_8 
REMARK    6  A    between atoms: C6_8  and  C7_9 
REMARK    7  A    between atoms: C7_9  and  C8_10 
REMARK    8  A    between atoms: C8_10  and  C9_11 
REMARK    9  A    between atoms: C9_11  and  C10_12 
REMARK   10  A    between atoms: C10_12  and  C11_13 
REMARK   11  A    between atoms: C11_13  and  N2_14 
REMARK   12  A    between atoms: N2_14  and  C12_17 
REMARK   13  A    between atoms: C12_17  and  C13_18 
REMARK   14  A    between atoms: C16_23  and  C17_24 
REMARK   15  A    between atoms: C24_33  and  C25_34 
ROOT
HETATM    1  C13 UNL     1      -2.032   0.213   0.997  1.00  0.00     0.037 A 
HETATM    2  C14 UNL     1      -2.148   0.401  -0.368  1.00  0.00     0.044 A 
HETATM    3  C15 UNL     1      -3.385   0.399  -0.972  1.00  0.00     0.092 A 
HETATM    4  N3  UNL     1      -4.408   0.218  -0.111  1.00  0.00    -0.350 N 
ATOM      5  H3  UNL     1      -5.343   0.214  -0.518  1.00  0.00     0.166 HD
HETATM    6  C16 UNL     1      -4.342   0.045   1.200  1.00  0.00     0.133 A 
HETATM    7  N5  UNL     1      -3.095   0.039   1.777  1.00  0.00    -0.343 N 
ATOM      8  H5  UNL     1      -2.987  -0.096   2.782  1.00  0.00     0.167 HD
ENDROOT
BRANCH   1   9
HETATM    9  C12 UNL     1      -0.579   0.244   1.441  1.00  0.00     0.289 C 
BRANCH   9  10
HETATM   10  N2  UNL     1       0.093  -0.557   0.429  1.00  0.00    -0.070 N 
ATOM     11  H22 UNL     1      -0.498  -0.728  -0.384  1.00  0.00     0.277 HD
ATOM     12  H21 UNL     1       0.218  -1.526   0.723  1.00  0.00     0.277 HD
BRANCH  10  13
HETATM   13  C11 UNL     1       1.328   0.067   0.079  1.00  0.00     0.232 C 
BRANCH  13  14
HETATM   14  C10 UNL     1       1.570  -0.326  -1.414  1.00  0.00     0.027 C 
BRANCH  14  15
HETATM   15  C9  UNL     1       2.581   0.539  -1.970  1.00  0.00     0.002 C 
BRANCH  15  16
HETATM   16  C8  UNL     1       4.002   0.411  -1.590  1.00  0.00     0.000 C 
BRANCH  16  17
HETATM   17  C7  UNL     1       4.603  -0.851  -2.189  1.00  0.00     0.000 C 
BRANCH  17  18
HETATM   18  C6  UNL     1       6.068  -0.914  -1.845  1.00  0.00     0.005 C 
BRANCH  18  19
HETATM   19  C5  UNL     1       6.668   0.407  -2.231  1.00  0.00     0.044 C 
BRANCH  19  20
HETATM   20  C4  UNL     1       8.143   0.528  -2.232  1.00  0.00     0.055 C 
BRANCH  20  21
HETATM   21  N1  UNL     1       8.884   0.196  -1.102  1.00  0.00    -0.402 N 
ATOM     22  H1  UNL     1       9.513  -0.607  -1.131  1.00  0.00     0.158 HD
BRANCH  21  23
HETATM   23  C3  UNL     1       8.777   0.959   0.091  1.00  0.00     0.118 C 
BRANCH  23  24
HETATM   24  C2  UNL     1       9.898   0.433   1.017  1.00  0.00     0.015 C 
HETATM   25  C1  UNL     1       9.695  -1.053   1.202  1.00  0.00     0.006 C 
ENDBRANCH  23  24
ENDBRANCH  21  23
ENDBRANCH  20  21
ENDBRANCH  19  20
ENDBRANCH  18  19
ENDBRANCH  17  18
ENDBRANCH  16  17
ENDBRANCH  15  16
ENDBRANCH  14  15
ENDBRANCH  13  14
ENDBRANCH  10  13
ENDBRANCH   9  10
ENDBRANCH   1   9
BRANCH   6  26
HETATM   26  C17 UNL     1      -5.564  -0.087   1.983  1.00  0.00     0.089 A 
HETATM   27  N4  UNL     1      -5.765  -0.233   3.291  1.00  0.00    -0.352 N 
HETATM   28  C18 UNL     1      -7.106  -0.278   3.560  1.00  0.00     0.043 A 
ATOM     29  H4  UNL     1      -5.026  -0.301   3.991  1.00  0.00     0.166 HD
HETATM   30  C19 UNL     1      -7.839  -0.398   4.719  1.00  0.00     0.030 A 
HETATM   31  C23 UNL     1      -7.797  -0.155   2.361  1.00  0.00     0.004 A 
HETATM   32  C20 UNL     1      -9.199  -0.399   4.713  1.00  0.00     0.002 A 
HETATM   33  C21 UNL     1      -9.871  -0.275   3.501  1.00  0.00     0.001 A 
HETATM   34  C22 UNL     1      -9.171  -0.154   2.313  1.00  0.00     0.014 A 
HETATM   35  C24 UNL     1      -6.839  -0.042   1.397  1.00  0.00     0.017 A 
BRANCH  35  36
HETATM   36  C25 UNL     1      -7.073   0.012  -0.050  1.00  0.00    -0.023 A 
HETATM   37  C26 UNL     1      -7.050  -1.227  -0.729  1.00  0.00     0.012 A 
HETATM   38  C27 UNL     1      -7.216  -1.317  -2.091  1.00  0.00     0.001 A 
HETATM   39  C28 UNL     1      -7.418  -0.168  -2.853  1.00  0.00     0.000 A 
HETATM   40  C29 UNL     1      -7.444   1.042  -2.191  1.00  0.00     0.001 A 
HETATM   41  C30 UNL     1      -7.272   1.123  -0.803  1.00  0.00     0.012 A 
ENDBRANCH  35  36
ENDBRANCH   6  26
TORSDOF 15
