REMARK  15 active torsions:
REMARK  status: ('A' for Active; 'I' for Inactive)
REMARK    1  A    between atoms: O1_1  and  N1_3 
REMARK    2  A    between atoms: N1_3  and  C1_4 
REMARK    3  A    between atoms: N1_3  and  C23_32 
REMARK    4  A    between atoms: C1_4  and  C2_5 
REMARK    5  A    between atoms: C2_5  and  N2_6 
REMARK    6  A    between atoms: N2_6  and  C3_8 
REMARK    7  A    between atoms: C6_11  and  C7_12 
REMARK    8  A    between atoms: C7_12  and  C8_13 
REMARK    9  A    between atoms: C8_13  and  C9_14 
REMARK   10  A    between atoms: C9_14  and  C10_15 
REMARK   11  A    between atoms: C10_15  and  C11_16 
REMARK   12  A    between atoms: C11_16  and  C12_17 
REMARK   13  A    between atoms: C12_17  and  C13_18 
REMARK   14  A    between atoms: C13_18  and  C14_19 
REMARK   15  A    between atoms: C23_32  and  C24_33 
ROOT
HETATM    1  C3  UNL     1       2.273  -1.044   0.394  1.00  0.00     0.039 A 
HETATM    2  C4  UNL     1       1.686   0.017   1.068  1.00  0.00     0.030 A 
HETATM    3  C5  UNL     1       0.387   0.403   0.862  1.00  0.00     0.010 A 
HETATM    4  C6  UNL     1      -0.398  -0.261  -0.037  1.00  0.00    -0.047 A 
HETATM    5  C17 UNL     1       0.164  -1.335  -0.731  1.00  0.00    -0.017 A 
HETATM    6  C18 UNL     1      -0.570  -2.037  -1.656  1.00  0.00     0.013 A 
HETATM    7  C19 UNL     1      -0.084  -3.097  -2.381  1.00  0.00     0.001 A 
HETATM    8  C20 UNL     1       1.218  -3.466  -2.159  1.00  0.00     0.001 A 
HETATM    9  C21 UNL     1       2.003  -2.784  -1.231  1.00  0.00     0.014 A 
HETATM   10  C22 UNL     1       1.488  -1.725  -0.519  1.00  0.00     0.001 A 
ENDROOT
BRANCH   1  11
HETATM   11  N2  UNL     1       3.600  -1.422   0.660  1.00  0.00    -0.388 N 
ATOM     12  H2  UNL     1       3.961  -2.279   0.242  1.00  0.00     0.159 HD
BRANCH  11  13
HETATM   13  C2  UNL     1       4.483  -0.628   1.517  1.00  0.00     0.136 C 
BRANCH  13  14
HETATM   14  C1  UNL     1       4.877   0.638   0.793  1.00  0.00     0.140 C 
BRANCH  14  15
HETATM   15  N1  UNL     1       5.734   1.431   1.638  1.00  0.00    -0.194 NA
BRANCH  15  16
HETATM   16  O1  UNL     1       5.794   2.690   1.159  1.00  0.00    -0.313 OA
ATOM     17  H1  UNL     1       6.359   3.213   1.716  1.00  0.00     0.237 HD
ENDBRANCH  15  16
BRANCH  15  18
HETATM   18  C23 UNL     1       7.027   0.880   1.894  1.00  0.00     0.159 C 
BRANCH  18  19
HETATM   19  C24 UNL     1       7.822   0.856   0.646  1.00  0.00    -0.043 A 
HETATM   20  C25 UNL     1       8.434   2.015   0.195  1.00  0.00     0.008 A 
HETATM   21  C26 UNL     1       9.189   2.049  -0.951  1.00  0.00     0.001 A 
HETATM   22  C27 UNL     1       9.353   0.898  -1.691  1.00  0.00     0.000 A 
HETATM   23  C28 UNL     1       8.749  -0.284  -1.262  1.00  0.00     0.001 A 
HETATM   24  C29 UNL     1       7.997  -0.274  -0.102  1.00  0.00     0.008 A 
ENDBRANCH  18  19
ENDBRANCH  15  18
ENDBRANCH  14  15
ENDBRANCH  13  14
ENDBRANCH  11  13
ENDBRANCH   1  11
BRANCH   4  25
HETATM   25  C7  UNL     1      -1.824   0.089  -0.281  1.00  0.00     0.039 C 
BRANCH  25  26
HETATM   26  C8  UNL     1      -2.723  -0.846   0.490  1.00  0.00     0.005 C 
BRANCH  26  27
HETATM   27  C9  UNL     1      -4.188  -0.559   0.272  1.00  0.00     0.000 C 
BRANCH  27  28
HETATM   28  C10 UNL     1      -4.494   0.829   0.709  1.00  0.00     0.000 C 
BRANCH  28  29
HETATM   29  C11 UNL     1      -5.942   1.236   0.557  1.00  0.00     0.000 C 
BRANCH  29  30
HETATM   30  C12 UNL     1      -6.837   0.358   1.361  1.00  0.00     0.006 C 
BRANCH  30  31
HETATM   31  C13 UNL     1      -8.286   0.689   1.284  1.00  0.00     0.058 C 
BRANCH  31  32
HETATM   32  C14 UNL     1      -8.883   0.612  -0.054  1.00  0.00     0.025 A 
HETATM   33  C15 UNL     1     -10.234   0.919  -0.263  1.00  0.00     0.113 A 
HETATM   34  N3  UNL     1     -10.514   0.764  -1.551  1.00  0.00    -0.360 N 
HETATM   35  C16 UNL     1      -9.382   0.369  -2.154  1.00  0.00     0.180 A 
ATOM     36  H3  UNL     1     -11.418   0.916  -1.998  1.00  0.00     0.166 HD
HETATM   37  N4  UNL     1      -8.393   0.276  -1.248  1.00  0.00    -0.355 N 
ATOM     38  H4  UNL     1      -7.431  -0.004  -1.441  1.00  0.00     0.166 HD
ENDBRANCH  31  32
ENDBRANCH  30  31
ENDBRANCH  29  30
ENDBRANCH  28  29
ENDBRANCH  27  28
ENDBRANCH  26  27
ENDBRANCH  25  26
ENDBRANCH   4  25
TORSDOF 15
