REMARK  13 active torsions:
REMARK  status: ('A' for Active; 'I' for Inactive)
REMARK    1  A    between atoms: N1_1  and  C1_5 
REMARK    2  A    between atoms: C1_5  and  C2_6 
REMARK    3  A    between atoms: C2_6  and  C3_7 
REMARK    4  A    between atoms: C19_30  and  C20_31 
REMARK    5  A    between atoms: C20_31  and  N5_32 
REMARK    6  A    between atoms: N5_32  and  C21_35 
REMARK    7  A    between atoms: C21_35  and  C22_36 
REMARK    8  A    between atoms: C22_36  and  C23_37 
REMARK    9  A    between atoms: C23_37  and  C24_38 
REMARK   10  A    between atoms: C24_38  and  N6_39 
REMARK   11  A    between atoms: N6_39  and  C25_42 
REMARK   12  A    between atoms: C25_42  and  C26_43 
REMARK   13  A    between atoms: C26_43  and  O1_44 
ROOT
HETATM    1  C3  UNL     1      -1.577   2.775   0.540  1.00  0.00     0.013 C 
HETATM    2  C4  UNL     1      -2.685   1.855   0.967  1.00  0.00     0.026 C 
HETATM    3  C5  UNL     1      -4.023   2.386   0.449  1.00  0.00     0.114 C 
HETATM    4  N2  UNL     1      -4.527   1.642  -0.663  1.00  0.00    -0.421 N 
ATOM      5  H2  UNL     1      -4.552   2.029  -1.607  1.00  0.00     0.153 HD
HETATM    6  C6  UNL     1      -4.992   0.326  -0.371  1.00  0.00     0.115 C 
HETATM    7  C7  UNL     1      -6.475   0.258  -0.758  1.00  0.00     0.046 C 
HETATM    8  C8  UNL     1      -6.829  -1.209  -0.812  1.00  0.00     0.234 C 
HETATM    9  N3  UNL     1      -5.721  -2.064  -0.505  1.00  0.00    -0.075 N 
ATOM     10  H31 UNL     1      -5.919  -2.635   0.317  1.00  0.00     0.277 HD
ATOM     11  H32 UNL     1      -4.933  -1.524  -0.147  1.00  0.00     0.277 HD
HETATM   12  C9  UNL     1      -5.317  -2.885  -1.614  1.00  0.00     0.237 C 
HETATM   13  C10 UNL     1      -4.019  -3.635  -1.308  1.00  0.00     0.071 C 
HETATM   14  C11 UNL     1      -2.963  -3.010  -2.205  1.00  0.00     0.057 C 
HETATM   15  N4  UNL     1      -1.713  -3.642  -2.212  1.00  0.00    -0.398 N 
ATOM     16  H4  UNL     1      -1.639  -4.650  -2.348  1.00  0.00     0.158 HD
HETATM   17  C12 UNL     1      -0.539  -2.840  -2.023  1.00  0.00     0.158 C 
HETATM   18  C13 UNL     1      -0.437  -2.555  -0.547  1.00  0.00    -0.031 A 
HETATM   19  C14 UNL     1      -0.663  -3.684   0.261  1.00  0.00     0.009 A 
HETATM   20  C15 UNL     1      -0.612  -3.627   1.623  1.00  0.00     0.002 A 
HETATM   21  C16 UNL     1      -0.331  -2.419   2.195  1.00  0.00     0.017 A 
HETATM   22  C17 UNL     1      -0.106  -1.300   1.415  1.00  0.00     0.041 A 
HETATM   23  C18 UNL     1      -0.151  -1.330   0.011  1.00  0.00    -0.011 A 
HETATM   24  C19 UNL     1       0.127  -0.111  -0.867  1.00  0.00     0.137 C 
HETATM   25  N7  UNL     1      -0.604   0.922  -0.433  1.00  0.00    -0.405 N 
ATOM     26  H7  UNL     1      -1.601   0.834  -0.629  1.00  0.00     0.154 HD
HETATM   27  C27 UNL     1      -0.261   2.096   0.237  1.00  0.00     0.099 C 
HETATM   28  C28 UNL     1       0.685   2.028   1.354  1.00  0.00     0.148 C 
HETATM   29  N8  UNL     1       0.307   1.103   2.401  1.00  0.00    -0.355 N 
ATOM     30  H8  UNL     1       0.116   1.572   3.286  1.00  0.00     0.162 HD
HETATM   31  C29 UNL     1       0.140  -0.308   2.484  1.00  0.00     0.252 C 
HETATM   32  O2  UNL     1       0.214  -0.783   3.642  1.00  0.00    -0.268 OA
ENDROOT
BRANCH  24  33
HETATM   33  C20 UNL     1       1.612  -0.137  -1.005  1.00  0.00     0.261 C 
BRANCH  33  34
HETATM   34  N5  UNL     1       2.219   0.875  -1.796  1.00  0.00    -0.073 N 
ATOM     35  H52 UNL     1       1.777   0.957  -2.712  1.00  0.00     0.277 HD
ATOM     36  H51 UNL     1       2.011   1.809  -1.443  1.00  0.00     0.277 HD
BRANCH  34  37
HETATM   37  C21 UNL     1       3.643   0.645  -1.904  1.00  0.00     0.232 C 
BRANCH  37  38
HETATM   38  C22 UNL     1       4.406   0.850  -0.629  1.00  0.00     0.029 C 
BRANCH  38  39
HETATM   39  C23 UNL     1       5.889   0.553  -0.832  1.00  0.00     0.029 C 
BRANCH  39  40
HETATM   40  C24 UNL     1       6.588   0.781   0.482  1.00  0.00     0.232 C 
BRANCH  40  41
HETATM   41  N6  UNL     1       7.994   0.494   0.359  1.00  0.00    -0.073 N 
ATOM     42  H62 UNL     1       8.428   1.021  -0.399  1.00  0.00     0.277 HD
ATOM     43  H61 UNL     1       8.533   0.879   1.135  1.00  0.00     0.277 HD
BRANCH  41  44
HETATM   44  C25 UNL     1       8.191  -0.918   0.214  1.00  0.00     0.258 C 
BRANCH  44  45
HETATM   45  C26 UNL     1       9.683  -1.178   0.048  1.00  0.00     0.191 C 
BRANCH  45  46
HETATM   46  O1  UNL     1      10.384  -0.727   1.155  1.00  0.00    -0.399 OA
ATOM     47  H1  UNL     1      11.314  -0.889   1.051  1.00  0.00     0.209 HD
ENDBRANCH  45  46
ENDBRANCH  44  45
ENDBRANCH  41  44
ENDBRANCH  40  41
ENDBRANCH  39  40
ENDBRANCH  38  39
ENDBRANCH  37  38
ENDBRANCH  34  37
ENDBRANCH  33  34
ENDBRANCH  24  33
BRANCH   1  48
HETATM   48  C2  UNL     1      -1.564   4.125   1.094  1.00  0.00     0.034 C 
BRANCH  48  49
HETATM   49  C1  UNL     1      -1.522   4.352   2.550  1.00  0.00     0.230 C 
BRANCH  49  50
HETATM   50  N1  UNL     1      -2.672   3.796   3.254  1.00  0.00    -0.079 N 
ATOM     51  H13 UNL     1      -3.544   4.147   2.858  1.00  0.00     0.274 HD
ATOM     52  H12 UNL     1      -2.780   2.803   3.045  1.00  0.00     0.274 HD
ATOM     53  H11 UNL     1      -2.643   3.953   4.261  1.00  0.00     0.274 HD
ENDBRANCH  49  50
ENDBRANCH  48  49
ENDBRANCH   1  48
TORSDOF 13
