REMARK  1 active torsions:
REMARK  status: ('A' for Active; 'I' for Inactive)
REMARK    1  A    between atoms: C2_2  and  N1_3 
ROOT
HETATM    1  C1  UNL     1      -1.059   1.105  -0.380  1.00  0.00     0.082 C 
HETATM    2  C2  UNL     1      -0.664  -0.248   0.195  1.00  0.00     0.277 C 
HETATM    3  N2  UNL     1       0.217  -0.004   1.310  1.00  0.00    -0.301 N 
ATOM      4  H2  UNL     1      -0.087  -0.161   2.271  1.00  0.00     0.167 HD
HETATM    5  C3  UNL     1       1.539   0.468   1.013  1.00  0.00     0.337 C 
HETATM    6  O1  UNL     1       2.134   1.159   1.903  1.00  0.00    -0.246 OA
HETATM    7  N3  UNL     1       2.140   0.163  -0.239  1.00  0.00    -0.249 N 
ATOM      8  H3  UNL     1       3.078   0.489  -0.472  1.00  0.00     0.192 HD
HETATM    9  N4  UNL     1       1.390  -0.604  -1.139  1.00  0.00    -0.262 N 
ATOM     10  H4  UNL     1       1.787  -0.844  -2.047  1.00  0.00     0.190 HD
HETATM   11  C4  UNL     1       0.084  -1.052  -0.804  1.00  0.00     0.292 C 
HETATM   12  O2  UNL     1      -0.424  -2.095  -1.335  1.00  0.00    -0.267 OA
ENDROOT
BRANCH   2  13
HETATM   13  N1  UNL     1      -1.848  -0.975   0.566  1.00  0.00    -0.044 N 
ATOM     14  H13 UNL     1      -2.443  -0.444   1.202  1.00  0.00     0.278 HD
ATOM     15  H12 UNL     1      -2.505  -1.062  -0.209  1.00  0.00     0.278 HD
ATOM     16  H11 UNL     1      -1.583  -1.882   0.951  1.00  0.00     0.278 HD
ENDBRANCH   2  13
TORSDOF 1
