REMARK  3 active torsions:
REMARK  status: ('A' for Active; 'I' for Inactive)
REMARK    1  A    between atoms: C2_8  and  N5_9 
REMARK    2  A    between atoms: N5_9  and  N6_11 
REMARK    3  A    between atoms: N6_11  and  N7_13 
ROOT
HETATM    1  C1  UNL     1      -2.073  -1.567   0.152  1.00  0.00     0.195 C 
HETATM    2  N1  UNL     1      -1.507  -0.209   0.108  1.00  0.00    -0.108 N 
HETATM    3  N2  UNL     1      -2.165   0.929   0.286  1.00  0.00     0.011 NA
HETATM    4  N3  UNL     1      -1.300   1.922   0.168  1.00  0.00    -0.211 N 
ATOM      5  H3  UNL     1      -1.510   2.916   0.254  1.00  0.00     0.206 HD
HETATM    6  N4  UNL     1      -0.123   1.399  -0.079  1.00  0.00    -0.117 N 
ATOM      7  H4  UNL     1       0.735   1.933  -0.216  1.00  0.00     0.207 HD
HETATM    8  C2  UNL     1      -0.210   0.058  -0.125  1.00  0.00     0.728 A 
ENDROOT
BRANCH   8   9
HETATM    9  N5  UNL     1       0.686  -0.838  -0.336  1.00  0.00    -0.115 N 
ATOM     10  H5  UNL     1       0.395  -1.816  -0.326  1.00  0.00     0.207 HD
BRANCH   9  11
HETATM   11  N6  UNL     1       2.021  -0.562  -0.576  1.00  0.00    -0.235 N 
ATOM     12  H6  UNL     1       2.422  -0.693  -1.504  1.00  0.00     0.208 HD
BRANCH  11  13
HETATM   13  N7  UNL     1       2.801  -0.102   0.477  1.00  0.00    -0.330 N 
ATOM     14  H72 UNL     1       2.385   0.024   1.400  1.00  0.00     0.178 HD
ATOM     15  H71 UNL     1       3.785   0.101   0.300  1.00  0.00     0.178 HD
ENDBRANCH  11  13
ENDBRANCH   9  11
ENDBRANCH   8   9
TORSDOF 3
