REMARK  11 active torsions:
REMARK  status: ('A' for Active; 'I' for Inactive)
REMARK    1  A    between atoms: O1_2  and  C2_3 
REMARK    2  A    between atoms: C2_3  and  C3_5 
REMARK    3  A    between atoms: C3_5  and  C4_6 
REMARK    4  A    between atoms: C3_5  and  C17_23 
REMARK    5  A    between atoms: C5_7  and  C6_8 
REMARK    6  A    between atoms: C6_8  and  O3_9 
REMARK    7  A    between atoms: C7_11  and  O4_12 
REMARK    8  A    between atoms: C17_23  and  C18_25 
REMARK    9  A    between atoms: C18_25  and  C19_26 
REMARK   10  A    between atoms: C18_25  and  C20_29 
REMARK   11  A    between atoms: C20_29  and  O8_30 
ROOT
HETATM    1  C3  UNL     1      -1.097  -1.637  -1.047  1.00  0.00     0.183 C 
ENDROOT
BRANCH   1   2
HETATM    2  C2  UNL     1      -1.349  -2.932  -0.375  1.00  0.00     0.273 C 
HETATM    3  O2  UNL     1      -1.824  -3.056   0.757  1.00  0.00    -0.264 OA
BRANCH   2   4
HETATM    4  O1  UNL     1      -1.015  -4.101  -1.094  1.00  0.00    -0.326 OA
HETATM    5  C1  UNL     1      -1.217  -5.386  -0.535  1.00  0.00     0.213 C 
ENDBRANCH   2   4
ENDBRANCH   1   2
BRANCH   1   6
HETATM    6  C4  UNL     1       0.319  -1.328  -1.215  1.00  0.00    -0.005 C 
HETATM    7  C5  UNL     1       1.273  -2.071  -0.712  1.00  0.00     0.011 C 
BRANCH   7   8
HETATM    8  C6  UNL     1       2.717  -1.844  -0.828  1.00  0.00     0.109 C 
HETATM    9  C7  UNL     1       3.201  -1.515  -2.200  1.00  0.00     0.161 C 
HETATM   10  C8  UNL     1       3.467  -0.038  -2.231  1.00  0.00     0.069 C 
HETATM   11  C9  UNL     1       3.692   0.342  -0.845  1.00  0.00    -0.073 C 
HETATM   12  C10 UNL     1       4.154   1.424  -0.197  1.00  0.00    -0.015 C 
HETATM   13  C16 UNL     1       3.293  -0.784   0.037  1.00  0.00     0.055 C 
HETATM   14  C11 UNL     1       4.250   1.465   1.286  1.00  0.00    -0.030 C 
HETATM   15  C12 UNL     1       4.165   2.923   1.691  1.00  0.00     0.019 C 
HETATM   16  C13 UNL     1       5.621   0.969   1.691  1.00  0.00     0.019 C 
HETATM   17  C14 UNL     1       3.184   0.667   1.987  1.00  0.00     0.013 C 
HETATM   18  C15 UNL     1       2.360  -0.191   1.057  1.00  0.00     0.013 C 
BRANCH   8  19
HETATM   19  O3  UNL     1       3.376  -3.048  -0.466  1.00  0.00    -0.382 OA
ATOM     20  H3  UNL     1       4.312  -2.901  -0.541  1.00  0.00     0.211 HD
ENDBRANCH   8  19
BRANCH   9  21
HETATM   21  O4  UNL     1       4.433  -2.163  -2.456  1.00  0.00    -0.392 OA
ATOM     22  H4  UNL     1       4.741  -1.953  -3.330  1.00  0.00     0.210 HD
ENDBRANCH   9  21
ENDBRANCH   7   8
ENDBRANCH   1   6
BRANCH   1  23
HETATM   23  C17 UNL     1      -1.893  -0.587  -0.350  1.00  0.00     0.186 C 
HETATM   24  O5  UNL     1      -1.205   0.241   0.214  1.00  0.00    -0.291 OA
BRANCH  23  25
HETATM   25  C18 UNL     1      -3.385  -0.602  -0.375  1.00  0.00     0.120 C 
BRANCH  25  26
HETATM   26  C19 UNL     1      -3.899  -0.537  -1.767  1.00  0.00     0.216 C 
HETATM   27  O6  UNL     1      -4.762  -1.296  -2.262  1.00  0.00    -0.644 OA
HETATM   28  O7  UNL     1      -3.417   0.422  -2.631  1.00  0.00    -0.644 OA
ENDBRANCH  25  26
BRANCH  25  29
HETATM   29  C20 UNL     1      -4.089   0.113   0.670  1.00  0.00     0.088 C 
HETATM   30  C21 UNL     1      -4.329   1.496   0.855  1.00  0.00    -0.046 C 
HETATM   31  C22 UNL     1      -5.128   2.267  -0.212  1.00  0.00     0.037 C 
HETATM   32  C25 UNL     1      -3.316   2.491   1.310  1.00  0.00     0.037 C 
HETATM   33  C23 UNL     1      -5.352   3.598   0.487  1.00  0.00     0.005 C 
HETATM   34  C24 UNL     1      -4.143   3.793   1.324  1.00  0.00     0.005 C 
BRANCH  29  35
HETATM   35  O8  UNL     1      -3.668  -0.458   1.913  1.00  0.00    -0.359 OA
ATOM     36  H8  UNL     1      -4.130   0.011   2.598  1.00  0.00     0.217 HD
ENDBRANCH  29  35
ENDBRANCH  25  29
ENDBRANCH  23  25
ENDBRANCH   1  23
TORSDOF 11
