REMARK  9 active torsions:
REMARK  status: ('A' for Active; 'I' for Inactive)
REMARK    1  A    between atoms: C2_2  and  C3_3 
REMARK    2  A    between atoms: C3_3  and  C4_4 
REMARK    3  A    between atoms: C4_4  and  C5_5 
REMARK    4  A    between atoms: C5_5  and  N1_6 
REMARK    5  A    between atoms: C8_9  and  O1_10 
REMARK    6  A    between atoms: C15_18  and  O2_19 
REMARK    7  A    between atoms: C27_32  and  O3_33 
REMARK    8  A    between atoms: C27_32  and  N2_35 
REMARK    9  A    between atoms: N2_35  and  C29_37 
ROOT
HETATM    1  C29 UNL     1       6.080   0.211  -2.404  1.00  0.00     0.186 C 
HETATM    2  C30 UNL     1       7.212  -0.229  -1.524  1.00  0.00     0.105 C 
HETATM    3  N3  UNL     1       8.082  -0.545  -0.848  1.00  0.00    -0.191 NA
ENDROOT
BRANCH   1   4
HETATM    4  N2  UNL     1       5.279   1.099  -1.662  1.00  0.00    -0.333 N 
HETATM    5  C28 UNL     1       5.782   2.534  -1.746  1.00  0.00     0.158 C 
BRANCH   4   6
HETATM    6  C27 UNL     1       4.171   0.880  -0.855  1.00  0.00     0.147 C 
HETATM    7  C2  UNL     1       3.364  -0.249  -0.537  1.00  0.00    -0.014 C 
HETATM    8  C1  UNL     1       3.727  -1.478  -1.408  1.00  0.00     0.052 C 
BRANCH   7   9
HETATM    9  C3  UNL     1       2.386  -0.376   0.258  1.00  0.00    -0.002 C 
BRANCH   9  10
HETATM   10  C4  UNL     1       1.476   0.098   1.267  1.00  0.00     0.035 C 
HETATM   11  C8  UNL     1       1.559   1.403   1.946  1.00  0.00     0.132 C 
HETATM   12  C9  UNL     1       0.814   2.568   1.406  1.00  0.00     0.034 C 
HETATM   13  C10 UNL     1      -0.226   2.359   0.398  1.00  0.00     0.012 C 
HETATM   14  C11 UNL     1      -0.423   1.002  -0.193  1.00  0.00    -0.035 C 
HETATM   15  C12 UNL     1       0.337   1.030  -1.504  1.00  0.00     0.016 C 
HETATM   16  C13 UNL     1      -1.867   0.804  -0.608  1.00  0.00     0.001 C 
HETATM   17  C26 UNL     1       0.012  -0.052   0.745  1.00  0.00     0.011 C 
HETATM   18  C14 UNL     1      -2.090   0.490  -2.049  1.00  0.00     0.038 C 
HETATM   19  C23 UNL     1      -2.601  -0.265   0.171  1.00  0.00    -0.004 C 
HETATM   20  C15 UNL     1      -3.316  -0.329  -2.355  1.00  0.00     0.127 C 
HETATM   21  C16 UNL     1      -4.469   0.018  -1.483  1.00  0.00    -0.014 C 
HETATM   22  C17 UNL     1      -5.002   1.373  -1.947  1.00  0.00     0.018 C 
HETATM   23  C18 UNL     1      -5.594  -0.955  -1.541  1.00  0.00     0.012 C 
HETATM   24  C22 UNL     1      -4.073   0.013  -0.045  1.00  0.00     0.004 C 
HETATM   25  C19 UNL     1      -6.268  -0.745  -0.178  1.00  0.00     0.005 C 
HETATM   26  C20 UNL     1      -5.018  -0.820   0.717  1.00  0.00    -0.013 C 
HETATM   27  C21 UNL     1      -4.704  -2.251   0.902  1.00  0.00     0.010 C 
HETATM   28  C24 UNL     1      -2.355  -0.082   1.608  1.00  0.00     0.006 C 
HETATM   29  C25 UNL     1      -0.876  -0.304   1.886  1.00  0.00     0.007 C 
BRANCH  10  30
HETATM   30  C5  UNL     1       1.517  -1.003   2.389  1.00  0.00     0.287 C 
BRANCH  30  31
HETATM   31  N1  UNL     1       2.764  -1.220   3.002  1.00  0.00     0.081 N 
HETATM   32  C6  UNL     1       2.434  -2.113   4.174  1.00  0.00     0.309 C 
HETATM   33  C7  UNL     1       3.793  -1.933   2.345  1.00  0.00     0.309 C 
ENDBRANCH  30  31
ENDBRANCH  10  30
BRANCH  11  34
HETATM   34  O1  UNL     1       2.761   1.716   2.584  1.00  0.00    -0.394 OA
ATOM     35  H1  UNL     1       2.815   2.557   3.022  1.00  0.00     0.210 HD
ENDBRANCH  11  34
BRANCH  20  36
HETATM   36  O2  UNL     1      -3.047  -1.708  -2.412  1.00  0.00    -0.395 OA
ATOM     37  H2  UNL     1      -3.820  -2.225  -2.605  1.00  0.00     0.210 HD
ENDBRANCH  20  36
ENDBRANCH   9  10
ENDBRANCH   7   9
BRANCH   6  38
HETATM   38  O3  UNL     1       3.801   1.994  -0.255  1.00  0.00    -0.346 OA
ATOM     39  H3  UNL     1       4.339   2.747  -0.467  1.00  0.00     0.219 HD
ENDBRANCH   6  38
ENDBRANCH   4   6
ENDBRANCH   1   4
TORSDOF 9
