REMARK  15 active torsions:
REMARK  status: ('A' for Active; 'I' for Inactive)
REMARK    1  A    between atoms: C2_2  and  C3_3 
REMARK    2  A    between atoms: N1_4  and  C4_5 
REMARK    3  A    between atoms: N1_4  and  C17_20 
REMARK    4  A    between atoms: C4_5  and  C5_6 
REMARK    5  A    between atoms: C17_20  and  C18_21 
REMARK    6  A    between atoms: C18_21  and  C20_23 
REMARK    7  A    between atoms: C18_21  and  N2_25 
REMARK    8  A    between atoms: N2_25  and  C22_26 
REMARK    9  A    between atoms: N2_25  and  S2_38 
REMARK   10  A    between atoms: C22_26  and  O3_27 
REMARK   11  A    between atoms: C22_26  and  N3_29 
REMARK   12  A    between atoms: N3_29  and  C23_30 
REMARK   13  A    between atoms: N3_29  and  S1_34 
REMARK   14  A    between atoms: C23_30  and  C24_31 
REMARK   15  A    between atoms: S2_38  and  C28_41 
ROOT
HETATM    1  C18 UNL     1      -1.210  -1.214  -0.357  1.00  0.00     0.064 C 
HETATM    2  C19 UNL     1      -0.571  -0.549   0.815  1.00  0.00     0.041 C 
ENDROOT
BRANCH   1   3
HETATM    3  C17 UNL     1      -0.126  -1.591  -1.296  1.00  0.00     0.154 C 
BRANCH   3   4
HETATM    4  N1  UNL     1       0.765  -0.581  -1.746  1.00  0.00    -0.387 N 
HETATM    5  C3  UNL     1       0.448   0.473  -2.546  1.00  0.00     0.058 C 
BRANCH   5   6
HETATM    6  C2  UNL     1       0.782   0.292  -4.044  1.00  0.00     0.040 C 
HETATM    7  C1  UNL     1       0.353   1.577  -4.722  1.00  0.00     0.010 C 
ENDBRANCH   5   6
BRANCH   4   8
HETATM    8  C4  UNL     1       2.113  -0.964  -1.499  1.00  0.00     0.156 C 
BRANCH   8   9
HETATM    9  C5  UNL     1       2.935  -0.051  -0.679  1.00  0.00    -0.058 C 
HETATM   10  C6  UNL     1       3.439  -0.494   0.498  1.00  0.00    -0.013 C 
HETATM   11  C7  UNL     1       4.248   0.435   1.285  1.00  0.00     0.058 C 
HETATM   12  C8  UNL     1       5.305  -0.281   2.143  1.00  0.00     0.030 C 
HETATM   13  C11 UNL     1       5.301   1.030   0.325  1.00  0.00     0.129 C 
HETATM   14  C9  UNL     1       5.893  -1.185   1.098  1.00  0.00     0.012 C 
HETATM   15  C12 UNL     1       6.240   0.889   2.342  1.00  0.00     0.059 C 
HETATM   16  C10 UNL     1       6.019  -0.227  -0.086  1.00  0.00     0.047 C 
HETATM   17  O1  UNL     1       6.054   1.744   1.228  1.00  0.00    -0.361 OA
HETATM   18  C13 UNL     1       7.673   0.514   2.514  1.00  0.00     0.046 C 
HETATM   19  C14 UNL     1       5.743   1.617   3.598  1.00  0.00     0.046 C 
HETATM   20  C15 UNL     1       4.637   1.750  -0.715  1.00  0.00     0.166 C 
HETATM   21  O2  UNL     1       5.124   2.694  -1.302  1.00  0.00    -0.294 OA
HETATM   22  C16 UNL     1       3.244   1.330  -1.128  1.00  0.00     0.117 C 
ENDBRANCH   8   9
ENDBRANCH   4   8
ENDBRANCH   3   4
ENDBRANCH   1   3
BRANCH   1  23
HETATM   23  C20 UNL     1      -1.383  -2.671   0.420  1.00  0.00     0.029 C 
HETATM   24  C21 UNL     1      -1.765  -3.724  -0.507  1.00  0.00     0.007 C 
ENDBRANCH   1  23
BRANCH   1  25
HETATM   25  N2  UNL     1      -2.519  -0.913  -0.713  1.00  0.00    -0.224 N 
BRANCH  25  26
HETATM   26  C22 UNL     1      -3.486  -0.326   0.077  1.00  0.00     0.246 C 
BRANCH  26  27
HETATM   27  O3  UNL     1      -4.688  -0.804  -0.400  1.00  0.00    -0.331 OA
ATOM     28  H3  UNL     1      -5.354  -0.400   0.144  1.00  0.00     0.221 HD
ENDBRANCH  26  27
BRANCH  26  29
HETATM   29  N3  UNL     1      -3.816   0.517   1.118  1.00  0.00    -0.240 N 
BRANCH  29  30
HETATM   30  C23 UNL     1      -5.220   0.451   1.709  1.00  0.00     0.149 C 
BRANCH  30  31
HETATM   31  C24 UNL     1      -5.220  -0.250   3.020  1.00  0.00    -0.003 C 
HETATM   32  C25 UNL     1      -4.738  -1.678   2.991  1.00  0.00     0.011 C 
HETATM   33  C26 UNL     1      -6.624  -0.302   3.624  1.00  0.00     0.011 C 
ENDBRANCH  30  31
ENDBRANCH  29  30
BRANCH  29  34
HETATM   34  S1  UNL     1      -2.970   1.868   1.767  1.00  0.00     0.231 S 
HETATM   35  C27 UNL     1      -2.214   2.883   0.499  1.00  0.00     0.186 C 
HETATM   36  O4  UNL     1      -4.034   2.884   2.328  1.00  0.00    -0.206 OA
HETATM   37  O5  UNL     1      -2.142   1.631   2.953  1.00  0.00    -0.206 OA
ENDBRANCH  29  34
ENDBRANCH  26  29
ENDBRANCH  25  26
BRANCH  25  38
HETATM   38  S2  UNL     1      -3.176  -1.186  -2.324  1.00  0.00     0.270 S 
HETATM   39  O6  UNL     1      -4.180  -2.325  -2.136  1.00  0.00    -0.200 OA
HETATM   40  O7  UNL     1      -2.298  -1.541  -3.394  1.00  0.00    -0.200 OA
BRANCH  38  41
HETATM   41  C28 UNL     1      -4.102   0.179  -2.888  1.00  0.00     0.104 A 
HETATM   42  C29 UNL     1      -5.472   0.260  -3.010  1.00  0.00     0.052 A 
HETATM   43  C30 UNL     1      -5.804   1.516  -3.492  1.00  0.00     0.143 A 
HETATM   44  O8  UNL     1      -4.672   2.122  -3.637  1.00  0.00    -0.333 OA
HETATM   45  C31 UNL     1      -3.637   1.400  -3.303  1.00  0.00     0.166 A 
ENDBRANCH  38  41
ENDBRANCH  25  38
ENDBRANCH   1  25
TORSDOF 15
