REMARK  10 active torsions:
REMARK  status: ('A' for Active; 'I' for Inactive)
REMARK    1  A    between atoms: C2_2  and  C4_4 
REMARK    2  A    between atoms: C4_4  and  N1_5 
REMARK    3  A    between atoms: C4_4  and  C17_29 
REMARK       I    between atoms: N1_5  and  C5_7 
REMARK    4  A    between atoms: C5_7  and  C6_9 
REMARK    5  A    between atoms: C6_9  and  N2_10 
REMARK    6  A    between atoms: C6_9  and  C11_23 
REMARK       I    between atoms: N2_10  and  C7_12 
REMARK    7  A    between atoms: C7_12  and  C8_14 
REMARK    8  A    between atoms: C8_14  and  N3_15 
REMARK    9  A    between atoms: C8_14  and  C9_19 
REMARK   10  A    between atoms: C9_19  and  C10_20 
ROOT
HETATM    1  C6  UNL     1      -0.745  -0.519   0.650  1.00  0.00     0.180 C 
ENDROOT
BRANCH   1   2
HETATM    2  C5  UNL     1       0.375   0.344   0.303  1.00  0.00     0.241 C 
HETATM    3  N1  UNL     1       1.736  -0.017   0.138  1.00  0.00    -0.354 N 
ATOM      4  H1  UNL     1       2.008  -0.991   0.271  1.00  0.00     0.162 HD
HETATM    5  O1  UNL     1       0.059   1.593   0.134  1.00  0.00    -0.271 OA
BRANCH   3   6
HETATM    6  C4  UNL     1       2.764   0.962  -0.217  1.00  0.00     0.091 C 
BRANCH   6   7
HETATM    7  C2  UNL     1       3.744   1.141   0.919  1.00  0.00     0.001 C 
HETATM    8  C1  UNL     1       4.478  -0.082   1.331  1.00  0.00     0.011 C 
HETATM    9  C3  UNL     1       4.752   2.189   0.499  1.00  0.00     0.011 C 
ENDBRANCH   6   7
BRANCH   6  10
HETATM   10  C17 UNL     1       3.408   0.727  -1.533  1.00  0.00     0.001 C 
HETATM   11  C18 UNL     1       4.275  -0.479  -1.654  1.00  0.00     0.011 C 
HETATM   12  C19 UNL     1       2.343   0.720  -2.605  1.00  0.00     0.011 C 
ENDBRANCH   6  10
ENDBRANCH   3   6
ENDBRANCH   1   2
BRANCH   1  13
HETATM   13  N2  UNL     1      -1.939   0.243   0.935  1.00  0.00    -0.346 N 
HETATM   14  C7  UNL     1      -3.058   0.554   0.185  1.00  0.00     0.249 C 
HETATM   15  O2  UNL     1      -3.242   0.210  -0.984  1.00  0.00    -0.271 OA
ATOM     16  H2  UNL     1      -1.961   0.629   1.879  1.00  0.00     0.163 HD
BRANCH  14  17
HETATM   17  C8  UNL     1      -4.164   1.379   0.809  1.00  0.00     0.283 C 
BRANCH  17  18
HETATM   18  N3  UNL     1      -5.233   1.606  -0.107  1.00  0.00    -0.066 N 
ATOM     19  H33 UNL     1      -4.898   2.028  -0.973  1.00  0.00     0.275 HD
ATOM     20  H32 UNL     1      -5.591   0.729  -0.485  1.00  0.00     0.275 HD
ATOM     21  H31 UNL     1      -5.978   2.162   0.313  1.00  0.00     0.275 HD
ENDBRANCH  17  18
BRANCH  17  22
HETATM   22  C9  UNL     1      -3.630   2.704   1.277  1.00  0.00     0.142 C 
BRANCH  22  23
HETATM   23  C10 UNL     1      -4.686   3.524   1.887  1.00  0.00     0.233 C 
HETATM   24  N4  UNL     1      -4.428   4.827   2.407  1.00  0.00    -0.062 NA
HETATM   25  O3  UNL     1      -5.855   3.042   1.943  1.00  0.00    -0.277 OA
ENDBRANCH  22  23
ENDBRANCH  17  22
ENDBRANCH  14  17
ENDBRANCH   1  13
BRANCH   1  26
HETATM   26  C11 UNL     1      -1.054  -1.504  -0.467  1.00  0.00     0.018 C 
HETATM   27  C12 UNL     1      -2.190  -2.422  -0.061  1.00  0.00     0.007 C 
HETATM   28  C13 UNL     1      -1.698  -3.775   0.436  1.00  0.00     0.000 C 
HETATM   29  C14 UNL     1      -1.035  -4.551  -0.686  1.00  0.00     0.000 C 
HETATM   30  C15 UNL     1      -0.482  -3.545  -1.673  1.00  0.00     0.000 C 
HETATM   31  C16 UNL     1       0.108  -2.417  -0.802  1.00  0.00     0.007 C 
ENDBRANCH   1  26
TORSDOF 10
