REMARK  3 active torsions:
REMARK  status: ('A' for Active; 'I' for Inactive)
REMARK    1  A    between atoms: O1_2  and  C2_3 
REMARK    2  A    between atoms: C6_9  and  O4_10 
REMARK    3  A    between atoms: C8_12  and  N1_13 
ROOT
HETATM    1  C2  UNL     1      -2.570   0.078  -0.246  1.00  0.00     0.147 C 
HETATM    2  C3  UNL     1      -2.597  -1.346   0.329  1.00  0.00     0.200 C 
HETATM    3  O2  UNL     1      -1.471  -1.342   1.113  1.00  0.00    -0.375 OA
HETATM    4  C4  UNL     1      -0.477  -0.644   0.459  1.00  0.00     0.087 C 
HETATM    5  C5  UNL     1       0.118   0.376   1.427  1.00  0.00     0.209 C 
HETATM    6  O3  UNL     1       0.948   1.190   0.672  1.00  0.00    -0.356 OA
HETATM    7  C6  UNL     1       2.082   0.559   0.218  1.00  0.00     0.289 C 
HETATM    8  C8  UNL     1       2.006  -0.931   0.184  1.00  0.00     0.241 C 
HETATM    9  C9  UNL     1       0.655  -1.502  -0.006  1.00  0.00     0.078 C 
HETATM   10  C10 UNL     1      -1.118   0.123  -0.670  1.00  0.00     0.074 C 
ENDROOT
BRANCH   8  11
HETATM   11  N1  UNL     1       2.840  -1.373  -0.947  1.00  0.00    -0.070 N 
ATOM     12  H13 UNL     1       2.582  -0.937  -1.832  1.00  0.00     0.274 HD
ATOM     13  H12 UNL     1       3.796  -1.020  -0.904  1.00  0.00     0.274 HD
ATOM     14  H11 UNL     1       2.788  -2.391  -0.970  1.00  0.00     0.274 HD
ENDBRANCH   8  11
BRANCH   1  15
HETATM   15  O1  UNL     1      -3.445   0.202  -1.312  1.00  0.00    -0.388 OA
HETATM   16  C1  UNL     1      -4.278   1.285  -1.031  1.00  0.00     0.202 C 
ENDBRANCH   1  15
BRANCH   7  17
HETATM   17  O4  UNL     1       3.133   0.916   1.062  1.00  0.00    -0.364 OA
HETATM   18  C7  UNL     1       4.109   1.647   0.399  1.00  0.00     0.204 C 
ENDBRANCH   7  17
TORSDOF 3
