REMARK  4 active torsions:
REMARK  status: ('A' for Active; 'I' for Inactive)
REMARK    1  A    between atoms: C6_7  and  C7_8 
REMARK       I    between atoms: C7_8  and  N1_10 
REMARK    2  A    between atoms: N1_10  and  C8_12 
REMARK    3  A    between atoms: C8_12  and  C9_16 
REMARK    4  A    between atoms: C9_16  and  C10_18 
ROOT
HETATM    1  C7  UNL     1      -0.791  -0.839   0.747  1.00  0.00     0.264 C 
HETATM    2  O2  UNL     1      -1.208  -1.591   1.635  1.00  0.00    -0.267 OA
HETATM    3  N1  UNL     1      -1.543  -0.115  -0.157  1.00  0.00    -0.306 N 
ATOM      4  H1  UNL     1      -0.992   0.445  -0.807  1.00  0.00     0.170 HD
ENDROOT
BRANCH   1   5
HETATM    5  C6  UNL     1       0.715  -0.753   0.709  1.00  0.00     0.078 A 
HETATM    6  C5  UNL     1       1.493  -0.020  -0.140  1.00  0.00     0.065 A 
HETATM    7  C4  UNL     1       2.827  -0.099   0.013  1.00  0.00     0.112 A 
HETATM    8  O1  UNL     1       3.855   0.548  -0.722  1.00  0.00    -0.334 OA
HETATM    9  C16 UNL     1       3.297  -0.910   1.010  1.00  0.00     0.145 A 
HETATM   10  C2  UNL     1       5.065   0.815  -0.052  1.00  0.00     0.092 C 
HETATM   11  C1  UNL     1       5.977   1.641  -0.895  1.00  0.00     0.049 C 
HETATM   12  C3  UNL     1       4.732   1.651   1.190  1.00  0.00     0.049 C 
HETATM   13  C17 UNL     1       5.673  -0.464   0.443  1.00  0.00     0.099 C 
HETATM   14  O4  UNL     1       4.680  -1.074   1.266  1.00  0.00    -0.327 OA
HETATM   15  C18 UNL     1       6.997  -0.339   1.119  1.00  0.00     0.042 C 
HETATM   16  C20 UNL     1       6.254  -1.378  -0.582  1.00  0.00     0.042 C 
HETATM   17  C19 UNL     1       7.442  -1.596   0.360  1.00  0.00     0.006 C 
HETATM   18  S1  UNL     1       1.861  -1.532   1.697  1.00  0.00    -0.057 SA
ENDBRANCH   1   5
BRANCH   3  19
HETATM   19  C8  UNL     1      -2.909  -0.014  -0.338  1.00  0.00     0.148 C 
HETATM   20  N2  UNL     1      -3.322   0.791  -1.324  1.00  0.00    -0.382 N 
ATOM     21  H22 UNL     1      -2.575   1.254  -1.842  1.00  0.00     0.157 HD
ATOM     22  H21 UNL     1      -4.330   0.866  -1.458  1.00  0.00     0.157 HD
BRANCH  19  23
HETATM   23  C9  UNL     1      -3.956  -0.663   0.389  1.00  0.00     0.196 C 
HETATM   24  O3  UNL     1      -3.719  -1.467   1.355  1.00  0.00    -0.289 OA
BRANCH  23  25
HETATM   25  C10 UNL     1      -5.407  -0.490   0.123  1.00  0.00     0.064 C 
HETATM   26  C11 UNL     1      -5.847  -0.857  -1.269  1.00  0.00     0.013 C 
HETATM   27  C12 UNL     1      -7.362  -0.994  -1.169  1.00  0.00     0.001 C 
HETATM   28  C13 UNL     1      -8.041   0.220  -0.676  1.00  0.00     0.000 C 
HETATM   29  C14 UNL     1      -7.376   1.005   0.402  1.00  0.00     0.001 C 
HETATM   30  C15 UNL     1      -5.864   0.903   0.386  1.00  0.00     0.013 C 
ENDBRANCH  23  25
ENDBRANCH  19  23
ENDBRANCH   3  19
TORSDOF 4
