REMARK  5 active torsions:
REMARK  status: ('A' for Active; 'I' for Inactive)
REMARK    1  A    between atoms: N1_2  and  C2_4 
REMARK    2  A    between atoms: C3_7  and  N3_8 
REMARK    3  A    between atoms: N3_8  and  C4_10 
REMARK    4  A    between atoms: C10_19  and  N5_20 
REMARK    5  A    between atoms: N5_20  and  C11_22 
ROOT
HETATM    1  C2  UNL     1      -0.417  -0.542   0.673  1.00  0.00     0.706 A 
HETATM    2  N2  UNL     1      -1.590  -0.312   0.053  1.00  0.00    -0.021 N 
ATOM      3  H2  UNL     1      -2.454  -0.597   0.514  1.00  0.00     0.203 HD
HETATM    4  C3  UNL     1      -1.663   0.279  -1.151  1.00  0.00     0.711 A 
HETATM    5  N4  UNL     1      -0.512   0.647  -1.740  1.00  0.00    -0.021 N 
ATOM      6  H4  UNL     1      -0.545   1.098  -2.654  1.00  0.00     0.203 HD
HETATM    7  C10 UNL     1       0.684   0.436  -1.156  1.00  0.00     0.711 A 
HETATM    8  N8  UNL     1       0.717  -0.163   0.060  1.00  0.00    -0.021 N 
ATOM      9  H8  UNL     1       1.615  -0.328   0.515  1.00  0.00     0.203 HD
ENDROOT
BRANCH   7  10
HETATM   10  N5  UNL     1       1.740   0.807  -1.763  1.00  0.00    -0.191 N 
ATOM     11  H5  UNL     1       1.624   1.251  -2.674  1.00  0.00     0.184 HD
BRANCH  10  12
HETATM   12  C11 UNL     1       3.051   0.656  -1.284  1.00  0.00     0.051 A 
HETATM   13  C12 UNL     1       3.882  -0.263  -1.874  1.00  0.00     0.031 A 
HETATM   14  C13 UNL     1       5.189  -0.450  -1.434  1.00  0.00     0.017 A 
HETATM   15  C14 UNL     1       5.646   0.309  -0.385  1.00  0.00     0.009 A 
HETATM   16  C15 UNL     1       6.868   0.348   0.258  1.00  0.00     0.120 A 
HETATM   17  C16 UNL     1       4.796   1.223   0.191  1.00  0.00     0.061 A 
HETATM   18  N6  UNL     1       6.732   1.288   1.213  1.00  0.00    -0.311 N 
HETATM   19  N7  UNL     1       5.519   1.805   1.179  1.00  0.00    -0.300 N 
ATOM     20  H6  UNL     1       7.463   1.561   1.869  1.00  0.00     0.186 HD
ATOM     21  H7  UNL     1       5.176   2.535   1.804  1.00  0.00     0.187 HD
HETATM   22  C17 UNL     1       3.486   1.424  -0.234  1.00  0.00     0.061 A 
ENDBRANCH  10  12
ENDBRANCH   7  10
BRANCH   4  23
HETATM   23  N3  UNL     1      -2.807   0.501  -1.752  1.00  0.00    -0.191 N 
ATOM     24  H3  UNL     1      -2.829   0.952  -2.666  1.00  0.00     0.184 HD
BRANCH  23  25
HETATM   25  C4  UNL     1      -4.013   0.108  -1.119  1.00  0.00     0.050 A 
HETATM   26  C5  UNL     1      -4.478  -1.182  -1.124  1.00  0.00     0.030 A 
HETATM   27  C6  UNL     1      -5.661  -1.481  -0.484  1.00  0.00     0.004 A 
HETATM   28  C7  UNL     1      -6.400  -0.500   0.171  1.00  0.00     0.019 A 
HETATM   29  C8  UNL     1      -5.936   0.801   0.178  1.00  0.00     0.013 A 
HETATM   30 BR1  UNL     1      -6.880   2.208   1.048  1.00  0.00    -0.051 Br
HETATM   31  C9  UNL     1      -4.752   1.094  -0.464  1.00  0.00     0.049 A 
ENDBRANCH  23  25
ENDBRANCH   4  23
BRANCH   1  32
HETATM   32  N1  UNL     1      -0.341  -1.109   1.830  1.00  0.00    -0.229 N 
HETATM   33  C1  UNL     1      -1.584  -1.505   2.464  1.00  0.00     0.165 C 
ATOM     34  H1  UNL     1       0.559  -1.272   2.281  1.00  0.00     0.177 HD
ENDBRANCH   1  32
TORSDOF 5
