REMARK  8 active torsions:
REMARK  status: ('A' for Active; 'I' for Inactive)
REMARK    1  A    between atoms: C1_2  and  C2_3 
REMARK       I    between atoms: C1_2  and  N2_16 
REMARK    2  A    between atoms: C2_3  and  C3_4 
REMARK    3  A    between atoms: C3_4  and  C4_5 
REMARK    4  A    between atoms: C4_5  and  C5_6 
REMARK    5  A    between atoms: C5_6  and  C6_7 
REMARK       I    between atoms: C6_7  and  N1_9 
REMARK    6  A    between atoms: N2_16  and  C13_18 
REMARK    7  A    between atoms: C13_18  and  N3_20 
REMARK    8  A    between atoms: N3_20  and  C14_22 
ROOT
HETATM    1  O1  UNL     1      -2.298   0.173   2.234  1.00  0.00    -0.273 OA
HETATM    2  C1  UNL     1      -1.887  -0.319   1.160  1.00  0.00     0.223 C 
HETATM    3  N2  UNL     1      -2.752  -0.443   0.054  1.00  0.00    -0.304 N 
ATOM      4  H2  UNL     1      -2.379  -0.849  -0.804  1.00  0.00     0.171 HD
ENDROOT
BRANCH   2   5
HETATM    5  C2  UNL     1      -0.481  -0.768   1.062  1.00  0.00     0.103 C 
BRANCH   5   6
HETATM    6  C3  UNL     1       0.254  -0.543   2.350  1.00  0.00     0.010 C 
BRANCH   6   7
HETATM    7  C4  UNL     1       1.691  -0.985   2.319  1.00  0.00     0.010 C 
BRANCH   7   8
HETATM    8  C5  UNL     1       2.517  -0.284   1.286  1.00  0.00     0.103 C 
BRANCH   8   9
HETATM    9  C6  UNL     1       3.925  -0.740   1.286  1.00  0.00     0.219 C 
HETATM   10  O2  UNL     1       4.284  -1.623   2.098  1.00  0.00    -0.273 OA
HETATM   11  N1  UNL     1       4.898  -0.216   0.398  1.00  0.00    -0.352 N 
HETATM   12  C7  UNL     1       6.249  -0.735   0.485  1.00  0.00     0.125 C 
HETATM   13  C12 UNL     1       4.478   0.812  -0.545  1.00  0.00     0.125 C 
HETATM   14  C8  UNL     1       6.833  -1.005  -0.892  1.00  0.00     0.020 C 
HETATM   15  C9  UNL     1       7.014   0.243  -1.690  1.00  0.00     0.002 C 
HETATM   16  C10 UNL     1       5.858   0.604  -2.562  1.00  0.00     0.002 C 
HETATM   17  C11 UNL     1       4.544   0.209  -1.921  1.00  0.00     0.020 C 
ENDBRANCH   8   9
ENDBRANCH   7   8
ENDBRANCH   6   7
ENDBRANCH   5   6
ENDBRANCH   2   5
BRANCH   3  18
HETATM   18  C13 UNL     1      -4.118  -0.035   0.064  1.00  0.00     0.174 C 
HETATM   19  S1  UNL     1      -4.699   0.610   1.440  1.00  0.00    -0.041 SA
BRANCH  18  20
HETATM   20  N3  UNL     1      -4.913  -0.198  -1.077  1.00  0.00    -0.362 N 
ATOM     21  H3  UNL     1      -4.455  -0.618  -1.886  1.00  0.00     0.162 HD
BRANCH  20  22
HETATM   22  C14 UNL     1      -6.294   0.155  -1.246  1.00  0.00     0.083 C 
HETATM   23  C15 UNL     1      -6.522   1.629  -1.101  1.00  0.00     0.025 C 
HETATM   24  C16 UNL     1      -8.001   1.732  -0.760  1.00  0.00     0.002 C 
HETATM   25  C17 UNL     1      -8.154   0.615   0.240  1.00  0.00     0.002 C 
HETATM   26  C18 UNL     1      -7.228  -0.475  -0.258  1.00  0.00     0.025 C 
ENDBRANCH  20  22
ENDBRANCH  18  20
ENDBRANCH   3  18
TORSDOF 8
