REMARK  6 active torsions:
REMARK  status: ('A' for Active; 'I' for Inactive)
REMARK    1  A    between atoms: N1_2  and  C2_3 
REMARK    2  A    between atoms: N1_2  and  C10_17 
REMARK    3  A    between atoms: C2_3  and  C3_4 
REMARK    4  A    between atoms: C3_4  and  O1_5 
REMARK    5  A    between atoms: C3_4  and  C4_7 
REMARK    6  A    between atoms: C4_7  and  N2_8 
ROOT
HETATM    1  C3  UNL     1      -0.257  -0.901  -0.678  1.00  0.00     0.164 C 
ENDROOT
BRANCH   1   2
HETATM    2  C2  UNL     1      -1.488  -0.663   0.148  1.00  0.00     0.305 C 
BRANCH   2   3
HETATM    3  N1  UNL     1      -2.569  -0.230  -0.666  1.00  0.00     0.093 N 
HETATM    4  C1  UNL     1      -2.401   1.069  -1.206  1.00  0.00     0.310 C 
BRANCH   3   5
HETATM    5  C10 UNL     1      -3.816  -0.519  -0.043  1.00  0.00     0.248 C 
HETATM    6  C11 UNL     1      -4.095   0.341   1.167  1.00  0.00     0.064 C 
HETATM    7  C12 UNL     1      -5.294   1.135   0.735  1.00  0.00     0.170 C 
HETATM    8  O2  UNL     1      -5.922   0.456  -0.284  1.00  0.00    -0.389 OA
HETATM    9  C13 UNL     1      -4.999  -0.306  -0.965  1.00  0.00     0.203 C 
ENDBRANCH   3   5
ENDBRANCH   2   3
ENDBRANCH   1   2
BRANCH   1  10
HETATM   10  O1  UNL     1       0.151   0.251  -1.331  1.00  0.00    -0.392 OA
ATOM     11  H1  UNL     1       0.930   0.100  -1.854  1.00  0.00     0.210 HD
ENDBRANCH   1  10
BRANCH   1  12
HETATM   12  C4  UNL     1       0.868  -1.270   0.284  1.00  0.00     0.154 C 
BRANCH  12  13
HETATM   13  N2  UNL     1       2.092  -1.520  -0.392  1.00  0.00    -0.378 N 
HETATM   14  C5  UNL     1       3.165  -0.874  -0.108  1.00  0.00     0.072 C 
HETATM   15  C6  UNL     1       3.241   0.178   0.936  1.00  0.00     0.076 C 
HETATM   16  N3  UNL     1       4.363  -1.160  -0.830  1.00  0.00    -0.380 N 
HETATM   17  C7  UNL     1       4.683   0.514   1.177  1.00  0.00     0.009 C 
HETATM   18  C8  UNL     1       5.299   0.980  -0.123  1.00  0.00     0.020 C 
HETATM   19  C9  UNL     1       5.357  -0.151  -1.135  1.00  0.00     0.121 C 
ATOM     20  H3  UNL     1       4.526  -2.116  -1.145  1.00  0.00     0.160 HD
ATOM     21  H2  UNL     1       2.119  -2.231  -1.122  1.00  0.00     0.160 HD
ENDBRANCH  12  13
ENDBRANCH   1  12
TORSDOF 6
