REMARK  7 active torsions:
REMARK  status: ('A' for Active; 'I' for Inactive)
REMARK    1  A    between atoms: N1_2  and  C2_4 
REMARK    2  A    between atoms: C3_7  and  N3_8 
REMARK    3  A    between atoms: N3_8  and  C4_10 
REMARK    4  A    between atoms: C11_21  and  N6_22 
REMARK    5  A    between atoms: N6_22  and  C12_24 
REMARK    6  A    between atoms: C12_24  and  C13_25 
REMARK    7  A    between atoms: C13_25  and  O1_26 
ROOT
HETATM    1  C2  UNL     1      -1.785  -2.175  -1.412  1.00  0.00     0.706 A 
HETATM    2  N2  UNL     1      -0.718  -1.402  -1.762  1.00  0.00    -0.021 N 
ATOM      3  H2  UNL     1      -0.031  -1.769  -2.421  1.00  0.00     0.203 HD
HETATM    4  C3  UNL     1      -0.550  -0.168  -1.259  1.00  0.00     0.713 A 
HETATM    5  N5  UNL     1      -1.476   0.282  -0.394  1.00  0.00    -0.021 N 
ATOM      6  H5  UNL     1      -1.367   1.217  -0.000  1.00  0.00     0.203 HD
HETATM    7  C11 UNL     1      -2.546  -0.459  -0.027  1.00  0.00     0.707 A 
HETATM    8  N7  UNL     1      -2.695  -1.693  -0.542  1.00  0.00    -0.022 N 
ATOM      9  H7  UNL     1      -3.497  -2.264  -0.274  1.00  0.00     0.203 HD
ENDROOT
BRANCH   4  10
HETATM   10  N3  UNL     1       0.543   0.624  -1.617  1.00  0.00    -0.175 N 
ATOM     11  H3  UNL     1       0.425   1.193  -2.456  1.00  0.00     0.186 HD
BRANCH  10  12
HETATM   12  C4  UNL     1       1.655   0.725  -1.036  1.00  0.00     0.121 A 
HETATM   13  C5  UNL     1       2.632   1.559  -1.525  1.00  0.00     0.056 A 
HETATM   14  C6  UNL     1       3.870   1.694  -0.909  1.00  0.00    -0.057 A 
HETATM   15  C7  UNL     1       4.930   2.595  -1.435  1.00  0.00     0.048 C 
HETATM   16  C8  UNL     1       4.126   0.972   0.226  1.00  0.00     0.031 A 
HETATM   17  C9  UNL     1       3.129   0.138   0.702  1.00  0.00     0.007 A 
HETATM   18  C10 UNL     1       3.390  -0.650   1.927  1.00  0.00     0.068 C 
HETATM   19  N4  UNL     1       1.926   0.027   0.076  1.00  0.00    -0.346 N 
ATOM     20  H4  UNL     1       1.218  -0.599   0.460  1.00  0.00     0.167 HD
ENDBRANCH  10  12
ENDBRANCH   4  10
BRANCH   1  21
HETATM   21  N1  UNL     1      -1.929  -3.356  -1.905  1.00  0.00    -0.229 N 
HETATM   22  C1  UNL     1      -3.047  -4.165  -1.538  1.00  0.00     0.165 C 
ATOM     23  H1  UNL     1      -1.238  -3.717  -2.563  1.00  0.00     0.177 HD
ENDBRANCH   1  21
BRANCH   7  24
HETATM   24  N6  UNL     1      -3.446  -0.046   0.802  1.00  0.00    -0.223 N 
ATOM     25  H6  UNL     1      -4.243  -0.627   1.062  1.00  0.00     0.177 HD
BRANCH  24  26
HETATM   26  C12 UNL     1      -3.265   1.287   1.345  1.00  0.00     0.164 C 
BRANCH  26  27
HETATM   27  C13 UNL     1      -4.001   1.431   2.663  1.00  0.00     0.184 C 
BRANCH  27  28
HETATM   28  O1  UNL     1      -3.784   2.728   3.124  1.00  0.00    -0.399 OA
ATOM     29  H1  UNL     1      -4.245   2.818   3.950  1.00  0.00     0.209 HD
ENDBRANCH  27  28
ENDBRANCH  26  27
ENDBRANCH  24  26
ENDBRANCH   7  24
TORSDOF 7
