REMARK  6 active torsions:
REMARK  status: ('A' for Active; 'I' for Inactive)
REMARK    1  A    between atoms: C3_3  and  N1_4 
REMARK    2  A    between atoms: N1_4  and  C4_6 
REMARK    3  A    between atoms: C8_16  and  C9_17 
REMARK    4  A    between atoms: C10_18  and  C11_19 
REMARK    5  A    between atoms: C11_19  and  C12_20 
REMARK    6  A    between atoms: C12_20  and  O3_21 
ROOT
HETATM    1  C1  UNL     1       7.020   2.508   0.058  1.00  0.00     0.014 C 
HETATM    2  C2  UNL     1       6.276   1.564   0.105  1.00  0.00    -0.097 C 
HETATM    3  C3  UNL     1       5.359   0.405   0.137  1.00  0.00     0.231 C 
ENDROOT
BRANCH   3   4
HETATM    4  N1  UNL     1       4.025   0.926   0.101  1.00  0.00    -0.216 N 
ATOM      5  H1  UNL     1       3.868   1.931   0.174  1.00  0.00     0.178 HD
BRANCH   4   6
HETATM    6  C4  UNL     1       3.028   0.130  -0.023  1.00  0.00     0.682 A 
HETATM    7  N2  UNL     1       3.260  -1.187  -0.116  1.00  0.00    -0.155 N 
HETATM    8  C5  UNL     1       2.229  -2.066  -0.249  1.00  0.00     0.277 A 
ATOM      9  H2  UNL     1       4.219  -1.534  -0.087  1.00  0.00     0.187 HD
HETATM   10  O1  UNL     1       2.416  -3.307  -0.338  1.00  0.00    -0.266 OA
HETATM   11  C6  UNL     1       0.966  -1.524  -0.279  1.00  0.00     0.128 A 
HETATM   12  C7  UNL     1      -0.112  -2.368  -0.411  1.00  0.00     0.264 A 
HETATM   13  C14 UNL     1       0.722  -0.162  -0.183  1.00  0.00     0.073 A 
HETATM   14  O2  UNL     1       0.116  -3.600  -0.498  1.00  0.00    -0.267 OA
HETATM   15  N3  UNL     1      -1.387  -1.879  -0.447  1.00  0.00    -0.315 N 
HETATM   16  C8  UNL     1      -1.652  -0.568  -0.356  1.00  0.00     0.091 A 
ATOM     17  H3  UNL     1      -2.163  -2.533  -0.546  1.00  0.00     0.170 HD
HETATM   18  C13 UNL     1      -0.574   0.287  -0.223  1.00  0.00     0.070 A 
HETATM   19  N4  UNL     1       1.785   0.655  -0.054  1.00  0.00    -0.191 N 
ATOM     20  H4  UNL     1       1.652   1.664   0.020  1.00  0.00     0.184 HD
BRANCH  16  21
HETATM   21  C9  UNL     1      -3.005  -0.060  -0.395  1.00  0.00    -0.049 C 
HETATM   22  C10 UNL     1      -4.141   0.344  -0.430  1.00  0.00    -0.098 C 
BRANCH  22  23
HETATM   23  C11 UNL     1      -5.516   0.844  -0.448  1.00  0.00     0.120 C 
BRANCH  23  24
HETATM   24  C12 UNL     1      -6.190   0.668   0.897  1.00  0.00     0.176 C 
BRANCH  24  25
HETATM   25  O3  UNL     1      -5.428   1.397   1.834  1.00  0.00    -0.400 OA
ATOM     26  H3  UNL     1      -5.851   1.287   2.678  1.00  0.00     0.209 HD
ENDBRANCH  24  25
ENDBRANCH  23  24
ENDBRANCH  22  23
ENDBRANCH  16  21
ENDBRANCH   4   6
ENDBRANCH   3   4
TORSDOF 6
