REMARK  3 active torsions:
REMARK  status: ('A' for Active; 'I' for Inactive)
REMARK    1  A    between atoms: C3_5  and  C4_6 
REMARK    2  A    between atoms: C4_6  and  N2_7 
REMARK    3  A    between atoms: C8_16  and  N4_17 
ROOT
HETATM    1  C1  UNL     1       4.012   1.260  -0.344  1.00  0.00     0.089 C 
HETATM    2  C2  UNL     1       2.574   0.913  -0.278  1.00  0.00     0.078 A 
HETATM    3  N1  UNL     1       2.221  -0.227   0.299  1.00  0.00    -0.344 N 
ATOM      4  H1  UNL     1       2.973  -0.808   0.670  1.00  0.00     0.167 HD
HETATM    5  C3  UNL     1       0.967  -0.691   0.442  1.00  0.00     0.064 A 
HETATM    6  C5  UNL     1      -0.094   0.084  -0.058  1.00  0.00     0.055 A 
HETATM    7  C6  UNL     1       0.280   1.257  -0.651  1.00  0.00     0.091 A 
HETATM    8  N3  UNL     1       1.579   1.673  -0.765  1.00  0.00    -0.340 N 
ATOM      9  H3  UNL     1       1.792   2.561  -1.220  1.00  0.00     0.167 HD
HETATM   10  S1  UNL     1      -1.197   1.957  -1.146  1.00  0.00    -0.065 SA
HETATM   11  C7  UNL     1      -2.267   0.759  -0.597  1.00  0.00     0.081 A 
HETATM   12  C8  UNL     1      -3.614   0.376  -0.504  1.00  0.00     0.133 A 
HETATM   13  N5  UNL     1      -3.573  -0.780   0.114  1.00  0.00    -0.284 N 
ATOM     14  H5  UNL     1      -4.394  -1.340   0.343  1.00  0.00     0.188 HD
HETATM   15  N6  UNL     1      -2.315  -1.130   0.405  1.00  0.00    -0.297 N 
ATOM     16  H6  UNL     1      -2.045  -1.989   0.885  1.00  0.00     0.187 HD
HETATM   17  C9  UNL     1      -1.441  -0.170  -0.034  1.00  0.00     0.084 A 
ENDROOT
BRANCH   5  18
HETATM   18  C4  UNL     1       0.808  -1.972   1.111  1.00  0.00     0.111 C 
BRANCH  18  19
HETATM   19  N2  UNL     1       1.874  -2.599   1.533  1.00  0.00    -0.406 N 
ATOM     20  H22 UNL     1       2.794  -2.183   1.388  1.00  0.00     0.155 HD
ATOM     21  H21 UNL     1       1.762  -3.498   2.002  1.00  0.00     0.155 HD
ENDBRANCH  18  19
ENDBRANCH   5  18
BRANCH  12  22
HETATM   22  N4  UNL     1      -4.571   1.092  -0.965  1.00  0.00    -0.383 N 
ATOM     23  H42 UNL     1      -4.603   1.991  -1.446  1.00  0.00     0.157 HD
ATOM     24  H41 UNL     1      -5.550   0.814  -0.897  1.00  0.00     0.157 HD
ENDBRANCH  12  22
TORSDOF 3
