REMARK  12 active torsions:
REMARK  status: ('A' for Active; 'I' for Inactive)
REMARK    1  A    between atoms: C2_2  and  N1_3 
REMARK    2  A    between atoms: C3_4  and  N2_5 
REMARK    3  A    between atoms: C4_8  and  C5_9 
REMARK       I    between atoms: C5_9  and  N3_11 
REMARK    4  A    between atoms: N3_11  and  C6_13 
REMARK    5  A    between atoms: C6_13  and  C7_14 
REMARK    6  A    between atoms: C7_14  and  C8_15 
REMARK    7  A    between atoms: C8_15  and  C9_16 
REMARK    8  A    between atoms: C9_16  and  C10_17 
REMARK    9  A    between atoms: C10_17  and  C11_18 
REMARK       I    between atoms: C11_18  and  N4_20 
REMARK   10  A    between atoms: N4_20  and  C12_22 
REMARK   11  A    between atoms: C12_22  and  C13_23 
REMARK   12  A    between atoms: C13_23  and  N5_24 
ROOT
HETATM    1  C5  UNL     1       2.411  -0.888   0.200  1.00  0.00     0.255 C 
HETATM    2  O1  UNL     1       1.851  -1.430   1.195  1.00  0.00    -0.268 OA
HETATM    3  N3  UNL     1       1.669  -0.146  -0.759  1.00  0.00    -0.357 N 
ATOM      4  H3  UNL     1       2.095   0.287  -1.578  1.00  0.00     0.162 HD
ENDROOT
BRANCH   1   5
HETATM    5  C4  UNL     1       3.847  -1.083   0.110  1.00  0.00     0.082 A 
HETATM    6  C3  UNL     1       4.269  -2.392   0.265  1.00  0.00     0.118 A 
HETATM    7  N1  UNL     1       5.599  -2.561   0.235  1.00  0.00    -0.327 N 
HETATM    8  C24 UNL     1       6.473  -1.523   0.063  1.00  0.00     0.089 A 
HETATM    9  C21 UNL     1       6.094  -0.214  -0.095  1.00  0.00     0.012 A 
HETATM   10  S1  UNL     1       8.177  -1.456  -0.008  1.00  0.00    -0.073 SA
HETATM   11  C19 UNL     1       4.690  -0.010  -0.062  1.00  0.00    -0.029 A 
HETATM   12  C22 UNL     1       7.073   0.700  -0.257  1.00  0.00    -0.028 A 
HETATM   13  C20 UNL     1       4.105   1.363  -0.081  1.00  0.00     0.050 C 
HETATM   14  C23 UNL     1       8.380   0.201  -0.236  1.00  0.00     0.020 A 
HETATM   15  C28 UNL     1       7.134   2.194  -0.531  1.00  0.00     0.070 C 
HETATM   16  C25 UNL     1       9.506   1.182  -0.380  1.00  0.00     0.318 C 
HETATM   17  N7  UNL     1       9.362   2.319   0.468  1.00  0.00     0.089 N 
HETATM   18  C26 UNL     1      10.108   3.472   0.010  1.00  0.00     0.310 C 
HETATM   19  C27 UNL     1       7.984   2.747   0.622  1.00  0.00     0.277 C 
BRANCH   6  20
HETATM   20  N2  UNL     1       3.536  -3.419   0.415  1.00  0.00    -0.384 N 
ATOM     21  H22 UNL     1       3.847  -4.384   0.529  1.00  0.00     0.157 HD
ATOM     22  H21 UNL     1       2.524  -3.290   0.438  1.00  0.00     0.157 HD
ENDBRANCH   6  20
BRANCH   7  23
HETATM   23  C2  UNL     1       6.209  -3.880   0.384  1.00  0.00     0.127 C 
HETATM   24  C1  UNL     1       6.421  -4.571  -0.944  1.00  0.00     0.027 C 
ENDBRANCH   7  23
ENDBRANCH   1   5
BRANCH   3  25
HETATM   25  C6  UNL     1       0.232  -0.060  -0.462  1.00  0.00     0.123 C 
BRANCH  25  26
HETATM   26  C7  UNL     1      -0.537   0.705  -1.474  1.00  0.00     0.020 C 
BRANCH  26  27
HETATM   27  C8  UNL     1      -2.008   0.695  -1.043  1.00  0.00     0.002 C 
BRANCH  27  28
HETATM   28  C9  UNL     1      -2.190   1.303   0.297  1.00  0.00     0.009 C 
BRANCH  28  29
HETATM   29  C10 UNL     1      -3.563   1.407   0.833  1.00  0.00     0.103 C 
BRANCH  29  30
HETATM   30  C11 UNL     1      -4.280   0.135   1.006  1.00  0.00     0.221 C 
HETATM   31  O2  UNL     1      -3.947  -0.967   0.532  1.00  0.00    -0.273 OA
HETATM   32  N4  UNL     1      -5.481   0.145   1.804  1.00  0.00    -0.336 N 
ATOM     33  H4  UNL     1      -5.782   1.027   2.218  1.00  0.00     0.168 HD
BRANCH  32  34
HETATM   34  C12 UNL     1      -6.258  -1.007   2.038  1.00  0.00     0.102 C 
BRANCH  34  35
HETATM   35  C13 UNL     1      -6.955  -1.613   0.873  1.00  0.00     0.081 C 
BRANCH  35  36
HETATM   36  N5  UNL     1      -7.968  -0.802   0.335  1.00  0.00    -0.267 NA
HETATM   37  C14 UNL     1      -8.804  -1.572  -0.629  1.00  0.00     0.115 C 
HETATM   38  C15 UNL     1     -10.178  -0.959  -0.475  1.00  0.00     0.109 C 
HETATM   39  N6  UNL     1     -10.199   0.452  -0.641  1.00  0.00    -0.295 NA
HETATM   40  C16 UNL     1     -11.270   0.950   0.241  1.00  0.00     0.116 C 
HETATM   41  C17 UNL     1      -9.044   1.194  -0.336  1.00  0.00     0.071 C 
HETATM   42  C18 UNL     1      -7.727   0.419  -0.305  1.00  0.00     0.076 C 
ENDBRANCH  35  36
ENDBRANCH  34  35
ENDBRANCH  32  34
ENDBRANCH  29  30
ENDBRANCH  28  29
ENDBRANCH  27  28
ENDBRANCH  26  27
ENDBRANCH  25  26
ENDBRANCH   3  25
TORSDOF 12
