REMARK  14 active torsions:
REMARK  status: ('A' for Active; 'I' for Inactive)
REMARK    1  A    between atoms: C2_2  and  C3_3 
REMARK    2  A    between atoms: C3_3  and  C4_4 
REMARK    3  A    between atoms: C4_4  and  C5_5 
REMARK    4  A    between atoms: C7_10  and  C8_11 
REMARK    5  A    between atoms: C8_11  and  C9_12 
REMARK    6  A    between atoms: C13_19  and  C14_20 
REMARK    7  A    between atoms: C14_20  and  C15_21 
REMARK    8  A    between atoms: C18_26  and  O3_27 
REMARK    9  A    between atoms: C19_29  and  C20_30 
REMARK   10  A    between atoms: C20_30  and  C21_31 
REMARK   11  A    between atoms: C25_38  and  C26_39 
REMARK   12  A    between atoms: C29_44  and  O5_45 
REMARK   13  A    between atoms: C30_47  and  C31_48 
REMARK   14  A    between atoms: C31_48  and  C32_49 
ROOT
HETATM    1  C5  UNL     1       2.898   1.042   0.184  1.00  0.00     0.176 C 
HETATM    2  N1  UNL     1       2.237   1.360  -1.044  1.00  0.00    -0.346 N 
ATOM      3  H1  UNL     1       2.118   0.553  -1.657  1.00  0.00     0.163 HD
HETATM    4  C6  UNL     1       1.726   2.526  -1.575  1.00  0.00     0.241 C 
HETATM    5  O1  UNL     1       2.129   2.856  -2.762  1.00  0.00    -0.271 OA
HETATM    6  C7  UNL     1       0.752   3.518  -1.011  1.00  0.00     0.177 C 
HETATM    7  N2  UNL     1      -0.511   3.282  -1.710  1.00  0.00    -0.346 N 
ATOM      8  H2  UNL     1      -0.507   3.582  -2.685  1.00  0.00     0.163 HD
HETATM    9  C12 UNL     1      -1.708   2.729  -1.298  1.00  0.00     0.241 C 
HETATM   10  O2  UNL     1      -2.736   3.486  -1.520  1.00  0.00    -0.271 OA
HETATM   11  C13 UNL     1      -2.019   1.431  -0.663  1.00  0.00     0.175 C 
HETATM   12  N3  UNL     1      -2.296   0.403  -1.654  1.00  0.00    -0.359 N 
ATOM     13  H3  UNL     1      -2.527   0.796  -2.567  1.00  0.00     0.162 HD
HETATM   14  C18 UNL     1      -2.321  -0.980  -1.654  1.00  0.00     0.135 C 
HETATM   15  C19 UNL     1      -3.163  -1.989  -1.003  1.00  0.00     0.159 C 
HETATM   16  N4  UNL     1      -2.928  -2.327   0.361  1.00  0.00    -0.347 N 
ATOM     17  H4  UNL     1      -3.750  -2.760   0.782  1.00  0.00     0.163 HD
HETATM   18  C24 UNL     1      -1.894  -2.229   1.268  1.00  0.00     0.241 C 
HETATM   19  O4  UNL     1      -2.078  -1.376   2.230  1.00  0.00    -0.271 OA
HETATM   20  C25 UNL     1      -0.582  -2.891   1.412  1.00  0.00     0.179 C 
HETATM   21  N5  UNL     1       0.090  -3.307   0.233  1.00  0.00    -0.359 N 
ATOM     22  H5  UNL     1      -0.394  -4.041  -0.284  1.00  0.00     0.162 HD
HETATM   23  C29 UNL     1       1.283  -2.901  -0.347  1.00  0.00     0.135 C 
HETATM   24  C30 UNL     1       2.441  -2.187   0.154  1.00  0.00     0.164 C 
HETATM   25  N7  UNL     1       2.262  -1.238   1.205  1.00  0.00    -0.347 N 
ATOM     26  H7  UNL     1       2.249  -1.614   2.153  1.00  0.00     0.163 HD
HETATM   27  C36 UNL     1       2.102   0.150   1.088  1.00  0.00     0.241 C 
HETATM   28  O6  UNL     1       1.226   0.722   1.787  1.00  0.00    -0.271 OA
ENDROOT
BRANCH  24  29
HETATM   29  C31 UNL     1       3.498  -3.195   0.577  1.00  0.00     0.090 C 
BRANCH  29  30
HETATM   30  C32 UNL     1       3.945  -4.079  -0.524  1.00  0.00     0.011 A 
HETATM   31  C33 UNL     1       4.980  -3.848  -1.396  1.00  0.00     0.026 A 
HETATM   32  C34 UNL     1       5.082  -4.931  -2.281  1.00  0.00     0.019 A 
HETATM   33  C35 UNL     1       4.089  -5.793  -1.908  1.00  0.00     0.088 A 
HETATM   34  N6  UNL     1       3.427  -5.268  -0.863  1.00  0.00    -0.369 N 
ATOM     35  H6  UNL     1       2.639  -5.713  -0.393  1.00  0.00     0.165 HD
ENDBRANCH  29  30
ENDBRANCH  24  29
BRANCH  23  36
HETATM   36  O5  UNL     1       1.383  -3.230  -1.606  1.00  0.00    -0.348 OA
ATOM     37  H5  UNL     1       2.200  -2.952  -2.003  1.00  0.00     0.219 HD
ENDBRANCH  23  36
BRANCH  20  38
HETATM   38  C26 UNL     1      -0.766  -4.154   2.281  1.00  0.00     0.009 C 
HETATM   39  C27 UNL     1      -1.731  -5.134   1.671  1.00  0.00     0.012 C 
HETATM   40  C28 UNL     1       0.523  -4.766   2.695  1.00  0.00     0.012 C 
ENDBRANCH  20  38
BRANCH   1  41
HETATM   41  C4  UNL     1       3.405   2.246   0.888  1.00  0.00     0.035 C 
BRANCH  41  42
HETATM   42  C3  UNL     1       4.435   3.056   0.161  1.00  0.00     0.002 C 
BRANCH  42  43
HETATM   43  C2  UNL     1       5.701   2.238  -0.121  1.00  0.00    -0.004 C 
HETATM   44  C1  UNL     1       6.329   1.738   1.137  1.00  0.00     0.005 C 
ENDBRANCH  42  43
ENDBRANCH  41  42
ENDBRANCH   1  41
BRANCH  15  45
HETATM   45  C20 UNL     1      -4.651  -1.713  -1.264  1.00  0.00     0.037 C 
BRANCH  45  46
HETATM   46  C21 UNL     1      -5.596  -2.696  -0.673  1.00  0.00    -0.020 C 
HETATM   47  C22 UNL     1      -5.263  -4.059  -1.252  1.00  0.00     0.009 C 
HETATM   48  C23 UNL     1      -7.040  -2.374  -1.114  1.00  0.00     0.009 C 
ENDBRANCH  45  46
ENDBRANCH  15  45
BRANCH   6  49
HETATM   49  C8  UNL     1       1.291   4.901  -1.453  1.00  0.00     0.038 C 
BRANCH  49  50
HETATM   50  C9  UNL     1       0.489   6.054  -1.005  1.00  0.00    -0.020 C 
HETATM   51  C10 UNL     1       0.349   6.268   0.457  1.00  0.00     0.009 C 
HETATM   52  C11 UNL     1       1.090   7.323  -1.605  1.00  0.00     0.009 C 
ENDBRANCH  49  50
ENDBRANCH   6  49
BRANCH  14  53
HETATM   53  O3  UNL     1      -1.406  -1.540  -2.395  1.00  0.00    -0.348 OA
ATOM     54  H3  UNL     1      -1.423  -2.490  -2.395  1.00  0.00     0.219 HD
ENDBRANCH  14  53
BRANCH  11  55
HETATM   55  C14 UNL     1      -3.075   1.539   0.382  1.00  0.00     0.038 C 
BRANCH  55  56
HETATM   56  C15 UNL     1      -2.831   2.323   1.614  1.00  0.00    -0.020 C 
HETATM   57  C16 UNL     1      -2.546   3.776   1.470  1.00  0.00     0.009 C 
HETATM   58  C17 UNL     1      -4.171   2.259   2.404  1.00  0.00     0.009 C 
ENDBRANCH  55  56
ENDBRANCH  11  55
TORSDOF 14
