REMARK  14 active torsions:
REMARK  status: ('A' for Active; 'I' for Inactive)
REMARK    1  A    between atoms: C2_2  and  C3_3 
REMARK    2  A    between atoms: C3_3  and  C4_4 
REMARK    3  A    between atoms: C5_5  and  C6_6 
REMARK    4  A    between atoms: C6_6  and  C7_7 
REMARK    5  A    between atoms: N2_14  and  C12_15 
REMARK    6  A    between atoms: C17_24  and  C18_25 
REMARK    7  A    between atoms: C18_25  and  C19_26 
REMARK    8  A    between atoms: C22_29  and  O3_30 
REMARK    9  A    between atoms: C26_38  and  C27_39 
REMARK   10  A    between atoms: C31_46  and  C32_47 
REMARK   11  A    between atoms: C32_47  and  C33_48 
REMARK   12  A    between atoms: C33_48  and  C34_49 
REMARK   13  A    between atoms: C34_49  and  C35_50 
REMARK   14  A    between atoms: C35_50  and  N6_51 
ROOT
HETATM    1  C4  UNL     1       2.248  -0.268   0.582  1.00  0.00     0.142 C 
HETATM    2  C5  UNL     1       2.919  -1.631   0.541  1.00  0.00     0.038 C 
HETATM    3  N2  UNL     1       2.594  -2.352  -0.621  1.00  0.00    -0.318 N 
HETATM    4  C14 UNL     1       1.182  -2.423  -0.926  1.00  0.00     0.256 C 
HETATM    5  O1  UNL     1       0.742  -3.271  -1.744  1.00  0.00    -0.270 OA
HETATM    6  C15 UNL     1       0.250  -1.447  -0.231  1.00  0.00     0.273 C 
HETATM    7  C16 UNL     1      -1.001  -1.496  -0.964  1.00  0.00     0.250 C 
HETATM    8  O2  UNL     1      -0.903  -1.592  -2.249  1.00  0.00    -0.271 OA
HETATM    9  N3  UNL     1      -2.323  -1.459  -0.474  1.00  0.00    -0.345 N 
ATOM     10  H3  UNL     1      -3.056  -1.659  -1.154  1.00  0.00     0.163 HD
HETATM   11  C17 UNL     1      -2.766  -1.176   0.858  1.00  0.00     0.180 C 
HETATM   12  C25 UNL     1      -3.902  -0.245   0.972  1.00  0.00     0.241 C 
HETATM   13  O4  UNL     1      -4.576  -0.370   2.067  1.00  0.00    -0.271 OA
HETATM   14  N4  UNL     1      -4.333   0.735   0.067  1.00  0.00    -0.346 N 
ATOM     15  H4  UNL     1      -5.261   0.579  -0.325  1.00  0.00     0.163 HD
HETATM   16  C26 UNL     1      -3.673   1.923  -0.394  1.00  0.00     0.180 C 
HETATM   17  C30 UNL     1      -2.903   1.773  -1.643  1.00  0.00     0.241 C 
HETATM   18  O5  UNL     1      -3.559   1.640  -2.716  1.00  0.00    -0.271 OA
HETATM   19  N5  UNL     1      -1.502   1.763  -1.766  1.00  0.00    -0.346 N 
ATOM     20  H5  UNL     1      -1.112   1.681  -2.705  1.00  0.00     0.163 HD
HETATM   21  C31 UNL     1      -0.561   1.861  -0.647  1.00  0.00     0.176 C 
HETATM   22  C36 UNL     1       0.635   1.022  -0.800  1.00  0.00     0.244 C 
HETATM   23  O6  UNL     1       1.503   1.501  -1.629  1.00  0.00    -0.271 OA
HETATM   24  N7  UNL     1       0.979  -0.213  -0.184  1.00  0.00    -0.318 N 
ENDROOT
BRANCH  11  25
HETATM   25  C18 UNL     1      -2.888  -2.461   1.599  1.00  0.00     0.073 C 
BRANCH  25  26
HETATM   26  C19 UNL     1      -3.776  -3.475   1.061  1.00  0.00    -0.056 A 
HETATM   27  C20 UNL     1      -3.280  -4.382   0.110  1.00  0.00     0.010 A 
HETATM   28  C21 UNL     1      -4.096  -5.361  -0.406  1.00  0.00     0.037 A 
HETATM   29  C22 UNL     1      -5.416  -5.484  -0.009  1.00  0.00     0.065 A 
HETATM   30  C23 UNL     1      -5.910  -4.611   0.913  1.00  0.00     0.037 A 
HETATM   31  C24 UNL     1      -5.075  -3.629   1.425  1.00  0.00     0.010 A 
BRANCH  29  32
HETATM   32  O3  UNL     1      -6.249  -6.471  -0.523  1.00  0.00    -0.361 OA
ATOM     33  H3  UNL     1      -7.155  -6.555  -0.250  1.00  0.00     0.217 HD
ENDBRANCH  29  32
ENDBRANCH  25  26
ENDBRANCH  11  25
BRANCH  16  34
HETATM   34  C27 UNL     1      -4.673   3.061  -0.683  1.00  0.00     0.009 C 
HETATM   35  C28 UNL     1      -5.674   2.727  -1.724  1.00  0.00     0.012 C 
HETATM   36  C29 UNL     1      -5.296   3.502   0.624  1.00  0.00     0.012 C 
ENDBRANCH  16  34
BRANCH   3  37
HETATM   37  C12 UNL     1       3.405  -3.054  -1.578  1.00  0.00     0.127 C 
HETATM   38  C13 UNL     1       3.831  -2.163  -2.751  1.00  0.00     0.027 C 
ENDBRANCH   3  37
BRANCH   1  39
HETATM   39  C3  UNL     1       2.040   0.156   1.999  1.00  0.00     0.058 C 
BRANCH  39  40
HETATM   40  C2  UNL     1       1.205  -0.648   2.873  1.00  0.00    -0.035 C 
HETATM   41  C1  UNL     1       1.639  -1.287   3.955  1.00  0.00     0.007 C 
ENDBRANCH  39  40
ENDBRANCH   1  39
BRANCH   2  42
HETATM   42  C6  UNL     1       4.257  -1.527   1.100  1.00  0.00     0.041 C 
BRANCH  42  43
HETATM   43  C7  UNL     1       5.350  -0.729   0.602  1.00  0.00    -0.011 A 
HETATM   44  C8  UNL     1       5.442   0.660   0.717  1.00  0.00     0.030 A 
HETATM   45  C9  UNL     1       6.571   1.057   0.061  1.00  0.00     0.089 A 
HETATM   46  N1  UNL     1       7.177  -0.011  -0.449  1.00  0.00    -0.369 N 
HETATM   47  C10 UNL     1       6.438  -1.114  -0.123  1.00  0.00     0.015 A 
ATOM     48  H1  UNL     1       8.042  -0.008  -0.989  1.00  0.00     0.165 HD
HETATM   49  C11 UNL     1       6.922  -2.502  -0.485  1.00  0.00     0.069 C 
ENDBRANCH  42  43
ENDBRANCH   2  42
BRANCH  21  50
HETATM   50  C32 UNL     1      -0.184   3.359  -0.682  1.00  0.00     0.035 C 
BRANCH  50  51
HETATM   51  C33 UNL     1       0.778   3.658   0.393  1.00  0.00     0.004 C 
BRANCH  51  52
HETATM   52  C34 UNL     1       1.198   5.102   0.451  1.00  0.00     0.027 C 
BRANCH  52  53
HETATM   53  C35 UNL     1       1.857   5.599  -0.802  1.00  0.00     0.229 C 
BRANCH  53  54
HETATM   54  N6  UNL     1       2.201   7.006  -0.583  1.00  0.00    -0.079 N 
ATOM     55  H63 UNL     1       1.402   7.573  -0.300  1.00  0.00     0.274 HD
ATOM     56  H62 UNL     1       2.768   7.153   0.252  1.00  0.00     0.274 HD
ATOM     57  H61 UNL     1       2.649   7.344  -1.435  1.00  0.00     0.274 HD
ENDBRANCH  53  54
ENDBRANCH  52  53
ENDBRANCH  51  52
ENDBRANCH  50  51
ENDBRANCH  21  50
TORSDOF 14
