REMARK  7 active torsions:
REMARK  status: ('A' for Active; 'I' for Inactive)
REMARK    1  A    between atoms: C2_2  and  C3_3 
REMARK    2  A    between atoms: C3_3  and  C4_4 
REMARK    3  A    between atoms: C5_7  and  C6_8 
REMARK    4  A    between atoms: C9_11  and  N2_12 
REMARK    5  A    between atoms: N2_12  and  N3_14 
REMARK    6  A    between atoms: C13_18  and  O1_19 
REMARK    7  A    between atoms: N4_25  and  C19_26 
ROOT
HETATM    1  N3  UNL     1      -1.606  -0.110   1.138  1.00  0.00    -0.193 N 
HETATM    2  C10 UNL     1      -1.989  -0.889   0.118  1.00  0.00     0.086 A 
HETATM    3  C11 UNL     1      -1.188  -1.945  -0.273  1.00  0.00     0.037 A 
HETATM    4  C12 UNL     1      -1.625  -2.759  -1.301  1.00  0.00     0.039 A 
HETATM    5  C13 UNL     1      -2.814  -2.572  -1.947  1.00  0.00     0.069 A 
HETATM    6  C15 UNL     1      -3.637  -1.512  -1.561  1.00  0.00     0.051 A 
HETATM    7  C16 UNL     1      -3.215  -0.690  -0.539  1.00  0.00     0.011 A 
HETATM    8  C17 UNL     1      -4.083   0.316  -0.150  1.00  0.00     0.021 A 
HETATM    9  C18 UNL     1      -5.306   0.549  -0.751  1.00  0.00     0.105 A 
HETATM   10  N4  UNL     1      -6.134   1.533  -0.336  1.00  0.00    -0.366 N 
HETATM   11  C21 UNL     1      -5.733   2.286   0.688  1.00  0.00     0.092 A 
HETATM   12  C22 UNL     1      -4.511   2.091   1.327  1.00  0.00     0.049 A 
HETATM   13  C23 UNL     1      -3.650   1.085   0.910  1.00  0.00     0.066 A 
HETATM   14  N5  UNL     1      -2.465   0.874   1.514  1.00  0.00    -0.274 N 
HETATM   15  C24 UNL     1      -2.133   1.798   2.558  1.00  0.00     0.180 C 
ENDROOT
BRANCH   1  16
HETATM   16  N2  UNL     1      -0.375  -0.079   1.732  1.00  0.00    -0.279 N 
ATOM     17  H2  UNL     1      -0.428   0.270   2.689  1.00  0.00     0.189 HD
BRANCH  16  18
HETATM   18  C9  UNL     1       0.930  -0.398   1.376  1.00  0.00     0.050 A 
HETATM   19  C8  UNL     1       1.556  -0.021   0.177  1.00  0.00     0.031 A 
HETATM   20  C7  UNL     1       2.858  -0.346  -0.115  1.00  0.00     0.011 A 
HETATM   21  C6  UNL     1       3.623  -1.069   0.769  1.00  0.00    -0.035 A 
HETATM   22  C26 UNL     1       3.045  -1.457   1.952  1.00  0.00     0.011 A 
HETATM   23  C25 UNL     1       1.745  -1.132   2.244  1.00  0.00     0.031 A 
BRANCH  21  24
HETATM   24  C5  UNL     1       5.025  -1.453   0.507  1.00  0.00     0.127 C 
HETATM   25  N1  UNL     1       5.755  -0.410  -0.061  1.00  0.00    -0.376 N 
HETATM   26  C4  UNL     1       6.963  -0.281   0.191  1.00  0.00     0.073 C 
ATOM     27  H1  UNL     1       5.294   0.250  -0.687  1.00  0.00     0.160 HD
HETATM   28  S1  UNL     1       7.368  -1.597   1.317  1.00  0.00     0.064 S 
HETATM   29  C27 UNL     1       5.648  -1.876   1.826  1.00  0.00     0.145 C 
HETATM   30  O2  UNL     1       8.273  -1.040   2.596  1.00  0.00    -0.252 OA
BRANCH  26  31
HETATM   31  C3  UNL     1       7.977   0.713  -0.260  1.00  0.00     0.066 C 
BRANCH  31  32
HETATM   32  C2  UNL     1       7.380   1.725  -1.212  1.00  0.00     0.002 C 
HETATM   33  C1  UNL     1       8.501   2.679  -1.600  1.00  0.00     0.005 C 
ENDBRANCH  31  32
ENDBRANCH  26  31
ENDBRANCH  21  24
ENDBRANCH  16  18
ENDBRANCH   1  16
BRANCH   5  34
HETATM   34  O1  UNL     1      -3.229  -3.400  -2.973  1.00  0.00    -0.356 OA
HETATM   35  C14 UNL     1      -4.457  -3.192  -3.627  1.00  0.00     0.210 C 
ENDBRANCH   5  34
BRANCH  10  36
HETATM   36  C19 UNL     1      -7.423   1.753  -0.994  1.00  0.00     0.123 C 
HETATM   37  C20 UNL     1      -8.525   0.959  -0.365  1.00  0.00     0.027 C 
ENDBRANCH  10  36
TORSDOF 7
