REMARK  9 active torsions:
REMARK  status: ('A' for Active; 'I' for Inactive)
REMARK    1  A    between atoms: C2_2  and  O1_3 
REMARK    2  A    between atoms: O1_3  and  C3_4 
REMARK    3  A    between atoms: C3_4  and  C4_6 
REMARK    4  A    between atoms: C4_6  and  C5_7 
REMARK    5  A    between atoms: C5_7  and  C6_8 
REMARK    6  A    between atoms: C6_8  and  C8_10 
REMARK    7  A    between atoms: C17_19  and  O3_20 
REMARK    8  A    between atoms: C18_22  and  C19_23 
REMARK    9  A    between atoms: C19_23  and  N1_24 
ROOT
HETATM    1  C8  UNL     1       2.539  -0.429   1.336  1.00  0.00    -0.002 C 
HETATM    2  C9  UNL     1       1.561  -0.719   2.548  1.00  0.00     0.006 C 
HETATM    3  C10 UNL     1       0.858   0.599   2.540  1.00  0.00     0.006 C 
HETATM    4  C11 UNL     1       0.727   0.929   1.059  1.00  0.00    -0.002 C 
HETATM    5  C12 UNL     1      -0.659   1.155   0.651  1.00  0.00    -0.005 C 
HETATM    6  C13 UNL     1      -0.803   2.333  -0.288  1.00  0.00     0.006 C 
HETATM    7  C14 UNL     1      -2.267   2.720  -0.134  1.00  0.00     0.006 C 
HETATM    8  C15 UNL     1      -3.031   1.521  -0.631  1.00  0.00    -0.003 C 
HETATM    9  C16 UNL     1      -4.424   1.998  -0.839  1.00  0.00     0.037 C 
HETATM   10  C17 UNL     1      -5.199   0.902  -1.517  1.00  0.00     0.125 C 
HETATM   11  C18 UNL     1      -5.223  -0.239  -0.523  1.00  0.00     0.048 C 
HETATM   12  C20 UNL     1      -3.840  -0.763  -0.344  1.00  0.00    -0.032 C 
HETATM   13  C21 UNL     1      -3.500  -1.301  -1.739  1.00  0.00     0.016 C 
HETATM   14  C22 UNL     1      -3.783  -1.949   0.579  1.00  0.00     0.016 C 
HETATM   15  C23 UNL     1      -2.842   0.259   0.154  1.00  0.00    -0.029 C 
HETATM   16  C24 UNL     1      -3.238   0.460   1.633  1.00  0.00     0.016 C 
HETATM   17  C25 UNL     1      -1.443  -0.068   0.205  1.00  0.00    -0.001 C 
HETATM   18  C26 UNL     1      -0.623  -0.633  -0.872  1.00  0.00     0.006 C 
HETATM   19  C27 UNL     1       0.706  -1.134  -0.257  1.00  0.00     0.010 C 
HETATM   20  C28 UNL     1       1.573  -0.074   0.293  1.00  0.00    -0.036 C 
HETATM   21  C29 UNL     1       2.254   0.646  -0.869  1.00  0.00     0.016 C 
ENDROOT
BRANCH   1  22
HETATM   22  C6  UNL     1       3.473  -1.554   1.306  1.00  0.00    -0.013 C 
HETATM   23  C7  UNL     1       2.803  -2.908   1.076  1.00  0.00     0.010 C 
BRANCH  22  24
HETATM   24  C5  UNL     1       4.570  -1.472   0.287  1.00  0.00     0.014 C 
BRANCH  24  25
HETATM   25  C4  UNL     1       5.446  -0.245   0.386  1.00  0.00     0.111 C 
BRANCH  25  26
HETATM   26  C3  UNL     1       6.473  -0.240  -0.693  1.00  0.00     0.258 C 
HETATM   27  O2  UNL     1       6.125  -0.288  -1.901  1.00  0.00    -0.265 OA
BRANCH  26  28
HETATM   28  O1  UNL     1       7.812  -0.184  -0.394  1.00  0.00    -0.322 OA
BRANCH  28  29
HETATM   29  C2  UNL     1       8.807  -0.177  -1.423  1.00  0.00     0.174 C 
HETATM   30  C1  UNL     1       8.629   1.052  -2.302  1.00  0.00     0.034 C 
ENDBRANCH  28  29
ENDBRANCH  26  28
ENDBRANCH  25  26
ENDBRANCH  24  25
ENDBRANCH  22  24
ENDBRANCH   1  22
BRANCH  11  31
HETATM   31  C19 UNL     1      -6.106   0.091   0.583  1.00  0.00     0.237 C 
BRANCH  31  32
HETATM   32  N1  UNL     1      -7.446   0.308   0.038  1.00  0.00    -0.079 N 
ATOM     33  H13 UNL     1      -7.463   1.008  -0.704  1.00  0.00     0.274 HD
ATOM     34  H12 UNL     1      -7.781  -0.482  -0.513  1.00  0.00     0.274 HD
ATOM     35  H11 UNL     1      -8.066   0.540   0.814  1.00  0.00     0.274 HD
ENDBRANCH  31  32
ENDBRANCH  11  31
BRANCH  10  36
HETATM   36  O3  UNL     1      -6.423   1.273  -2.002  1.00  0.00    -0.395 OA
ATOM     37  H3  UNL     1      -6.913   0.581  -2.430  1.00  0.00     0.210 HD
ENDBRANCH  10  36
TORSDOF 9
