REMARK  8 active torsions:
REMARK  status: ('A' for Active; 'I' for Inactive)
REMARK    1  A    between atoms: C2_2  and  C3_3 
REMARK    2  A    between atoms: C4_8  and  S1_9 
REMARK    3  A    between atoms: S1_9  and  C5_10 
REMARK    4  A    between atoms: C5_10  and  C6_11 
REMARK    5  A    between atoms: C6_11  and  N3_12 
REMARK    6  A    between atoms: N3_12  and  C9_15 
REMARK    7  A    between atoms: C9_15  and  C10_16 
REMARK    8  A    between atoms: N5_18  and  N6_20 
ROOT
HETATM    1  C5  UNL     1      -0.596   1.065   0.956  1.00  0.00     0.110 C 
ENDROOT
BRANCH   1   2
HETATM    2  S1  UNL     1       0.674   0.482   2.086  1.00  0.00    -0.091 SA
BRANCH   2   3
HETATM    3  C4  UNL     1       2.311   0.629   1.398  1.00  0.00     0.161 A 
HETATM    4  N2  UNL     1       2.593   1.185   0.211  1.00  0.00    -0.279 N 
HETATM    5  N1  UNL     1       3.830   1.274  -0.292  1.00  0.00    -0.297 N 
ATOM      6  H2  UNL     1       1.821   1.561  -0.340  1.00  0.00     0.189 HD
HETATM    7  C3  UNL     1       4.888   0.797   0.385  1.00  0.00     0.093 A 
ATOM      8  H1  UNL     1       3.972   1.710  -1.203  1.00  0.00     0.187 HD
HETATM    9  C12 UNL     1       4.623   0.221   1.608  1.00  0.00     0.271 A 
HETATM   10  N9  UNL     1       3.375   0.142   2.094  1.00  0.00    -0.301 N 
HETATM   11  O1  UNL     1       5.625  -0.230   2.248  1.00  0.00    -0.266 OA
ATOM     12  H9  UNL     1       3.220  -0.292   3.004  1.00  0.00     0.171 HD
BRANCH   7  13
HETATM   13  C2  UNL     1       6.271   0.889  -0.163  1.00  0.00     0.060 C 
HETATM   14  C1  UNL     1       7.095   1.955   0.477  1.00  0.00     0.011 C 
ENDBRANCH   7  13
ENDBRANCH   2   3
ENDBRANCH   1   2
BRANCH   1  15
HETATM   15  C6  UNL     1      -0.834   0.206  -0.226  1.00  0.00     0.247 C 
BRANCH  15  16
HETATM   16  N3  UNL     1      -1.286  -1.140   0.028  1.00  0.00    -0.068 N 
HETATM   17  C7  UNL     1      -1.515  -1.709  -1.314  1.00  0.00     0.272 C 
HETATM   18  C8  UNL     1      -0.306  -1.993   0.648  1.00  0.00     0.272 C 
BRANCH  16  19
HETATM   19  C9  UNL     1      -2.511  -1.077   0.774  1.00  0.00     0.310 C 
BRANCH  19  20
HETATM   20  C10 UNL     1      -3.623  -1.806   0.165  1.00  0.00     0.133 C 
HETATM   21  N4  UNL     1      -3.625  -3.189  -0.126  1.00  0.00    -0.084 NA
HETATM   22  N5  UNL     1      -4.702  -1.141  -0.133  1.00  0.00    -0.288 N 
ATOM     23  H5  UNL     1      -5.485  -1.637  -0.559  1.00  0.00     0.188 HD
BRANCH  22  24
HETATM   24  N6  UNL     1      -4.821   0.222   0.110  1.00  0.00    -0.275 N 
HETATM   25  C11 UNL     1      -4.840   1.034  -0.885  1.00  0.00     0.215 C 
HETATM   26  N7  UNL     1      -4.963   2.437  -0.625  1.00  0.00    -0.065 NA
HETATM   27  N8  UNL     1      -4.742   0.610  -2.233  1.00  0.00    -0.065 NA
ATOM     28  H6  UNL     1      -4.892   0.573   1.065  1.00  0.00     0.189 HD
ENDBRANCH  22  24
ENDBRANCH  19  20
ENDBRANCH  16  19
ENDBRANCH  15  16
ENDBRANCH   1  15
TORSDOF 8
