REMARK  10 active torsions:
REMARK  status: ('A' for Active; 'I' for Inactive)
REMARK    1  A    between atoms: N1_1  and  C1_5 
REMARK    2  A    between atoms: C1_5  and  C2_6 
REMARK    3  A    between atoms: C1_5  and  C9_18 
REMARK    4  A    between atoms: C2_6  and  N2_7 
REMARK    5  A    between atoms: C6_11  and  O1_12 
REMARK    6  A    between atoms: C7_14  and  C8_15 
REMARK    7  A    between atoms: C8_15  and  O2_16 
REMARK    8  A    between atoms: C9_18  and  O3_19 
REMARK    9  A    between atoms: C9_18  and  C10_21 
REMARK   10  A    between atoms: C10_21  and  N3_22 
ROOT
HETATM    1  C1  UNL     1       0.138  -0.976  -0.339  1.00  0.00     0.231 C 
ENDROOT
BRANCH   1   2
HETATM    2  N1  UNL     1       0.145  -1.818   0.815  1.00  0.00    -0.071 N 
ATOM      3  H13 UNL     1       0.412  -1.297   1.650  1.00  0.00     0.274 HD
ATOM      4  H12 UNL     1      -0.803  -2.082   1.085  1.00  0.00     0.274 HD
ATOM      5  H11 UNL     1       0.735  -2.640   0.688  1.00  0.00     0.274 HD
ENDBRANCH   1   2
BRANCH   1   6
HETATM    6  C2  UNL     1      -0.739   0.246  -0.150  1.00  0.00     0.158 C 
BRANCH   6   7
HETATM    7  N2  UNL     1      -2.096  -0.037   0.108  1.00  0.00    -0.382 N 
HETATM    8  C3  UNL     1      -2.460  -0.633   1.322  1.00  0.00     0.059 C 
HETATM    9  C4  UNL     1      -3.730  -0.199   1.962  1.00  0.00     0.047 C 
HETATM   10  C5  UNL     1      -4.798   0.260   1.038  1.00  0.00     0.039 C 
HETATM   11  C6  UNL     1      -4.300   1.033  -0.151  1.00  0.00     0.143 C 
HETATM   12  C7  UNL     1      -3.073   0.435  -0.777  1.00  0.00     0.135 C 
BRANCH  11  13
HETATM   13  O1  UNL     1      -4.123   2.365   0.215  1.00  0.00    -0.393 OA
ATOM     14  H1  UNL     1      -3.808   2.854  -0.536  1.00  0.00     0.210 HD
ENDBRANCH  11  13
BRANCH  12  15
HETATM   15  C8  UNL     1      -3.540  -0.698  -1.687  1.00  0.00     0.191 C 
BRANCH  15  16
HETATM   16  O2  UNL     1      -4.086  -1.730  -0.913  1.00  0.00    -0.399 OA
ATOM     17  H2  UNL     1      -4.377  -2.435  -1.479  1.00  0.00     0.209 HD
ENDBRANCH  15  16
ENDBRANCH  12  15
ENDBRANCH   6   7
ENDBRANCH   1   6
BRANCH   1  18
HETATM   18  C9  UNL     1       1.530  -0.624  -0.743  1.00  0.00     0.168 C 
BRANCH  18  19
HETATM   19  O3  UNL     1       1.479   0.191  -1.875  1.00  0.00    -0.392 OA
ATOM     20  H3  UNL     1       2.366   0.415  -2.132  1.00  0.00     0.210 HD
ENDBRANCH  18  19
BRANCH  18  21
HETATM   21  C10 UNL     1       2.266   0.094   0.340  1.00  0.00     0.155 C 
BRANCH  21  22
HETATM   22  N3  UNL     1       3.599   0.444   0.027  1.00  0.00    -0.391 N 
HETATM   23  C11 UNL     1       4.556  -0.577  -0.111  1.00  0.00     0.058 C 
HETATM   24  C12 UNL     1       5.894   0.051   0.096  1.00  0.00     0.046 C 
HETATM   25  C13 UNL     1       5.638   1.522   0.248  1.00  0.00     0.025 C 
HETATM   26  C14 UNL     1       4.164   1.569   0.689  1.00  0.00     0.122 C 
ENDBRANCH  21  22
ENDBRANCH  18  21
ENDBRANCH   1  18
TORSDOF 10
