REMARK  7 active torsions:
REMARK  status: ('A' for Active; 'I' for Inactive)
REMARK    1  A    between atoms: C2_2  and  N1_3 
REMARK    2  A    between atoms: C3_4  and  C4_5 
REMARK    3  A    between atoms: C4_5  and  C5_6 
REMARK    4  A    between atoms: C5_6  and  N2_8 
REMARK    5  A    between atoms: C8_13  and  O1_14 
REMARK    6  A    between atoms: C9_16  and  O2_17 
REMARK    7  A    between atoms: C10_19  and  C11_20 
ROOT
HETATM    1  N1  UNL     1      -1.024  -0.669   0.091  1.00  0.00    -0.381 N 
HETATM    2  C3  UNL     1       0.224  -0.316  -0.549  1.00  0.00     0.088 C 
HETATM    3  C7  UNL     1       0.212   1.088  -1.041  1.00  0.00     0.059 C 
HETATM    4  C8  UNL     1      -0.315   2.042  -0.035  1.00  0.00     0.150 C 
HETATM    5  C9  UNL     1      -1.735   1.690   0.246  1.00  0.00     0.170 C 
HETATM    6  C10 UNL     1      -2.086   0.236   0.034  1.00  0.00     0.128 C 
ENDROOT
BRANCH   2   7
HETATM    7  C4  UNL     1       1.411  -0.591   0.296  1.00  0.00     0.057 C 
BRANCH   7   8
HETATM    8  C5  UNL     1       2.787  -0.369  -0.145  1.00  0.00     0.181 C 
HETATM    9  C6  UNL     1       3.353   0.922  -0.513  1.00  0.00     0.039 C 
BRANCH   8  10
HETATM   10  N2  UNL     1       3.640  -0.913   0.967  1.00  0.00    -0.075 N 
ATOM     11  H23 UNL     1       3.429  -0.516   1.883  1.00  0.00     0.274 HD
ATOM     12  H22 UNL     1       3.434  -1.882   1.211  1.00  0.00     0.274 HD
ATOM     13  H21 UNL     1       4.600  -0.758   0.659  1.00  0.00     0.274 HD
ENDBRANCH   8  10
ENDBRANCH   7   8
ENDBRANCH   2   7
BRANCH   1  14
HETATM   14  C2  UNL     1      -1.461  -2.004   0.003  1.00  0.00     0.055 C 
HETATM   15  C1  UNL     1      -0.698  -3.081   0.706  1.00  0.00     0.054 C 
ENDBRANCH   1  14
BRANCH   6  16
HETATM   16  C11 UNL     1      -3.069   0.190  -1.095  1.00  0.00     0.142 C 
HETATM   17 CL1  UNL     1      -4.002  -1.302  -1.278  1.00  0.00    -0.128 Cl
ENDBRANCH   6  16
BRANCH   4  18
HETATM   18  O1  UNL     1       0.400   2.203   1.126  1.00  0.00    -0.393 OA
ATOM     19  H1  UNL     1       0.062   2.814   1.770  1.00  0.00     0.210 HD
ENDBRANCH   4  18
BRANCH   5  20
HETATM   20  O2  UNL     1      -1.988   2.113   1.574  1.00  0.00    -0.391 OA
ATOM     21  H2  UNL     1      -2.894   1.889   1.753  1.00  0.00     0.210 HD
ENDBRANCH   5  20
TORSDOF 7
