REMARK  7 active torsions:
REMARK  status: ('A' for Active; 'I' for Inactive)
REMARK    1  A    between atoms: C2_2  and  C3_3 
REMARK    2  A    between atoms: C3_3  and  C4_4 
REMARK    3  A    between atoms: C4_4  and  C5_5 
REMARK    4  A    between atoms: C6_6  and  O1_7 
REMARK    5  A    between atoms: C7_9  and  O2_10 
REMARK    6  A    between atoms: C8_12  and  O3_13 
REMARK    7  A    between atoms: C9_15  and  C10_16 
ROOT
HETATM    1  C5  UNL     1       0.359  -0.376  -0.355  1.00  0.00     0.016 C 
HETATM    2  C6  UNL     1       0.229  -0.098   1.075  1.00  0.00     0.194 C 
HETATM    3  C7  UNL     1      -1.044   0.595   1.523  1.00  0.00     0.183 C 
HETATM    4  C8  UNL     1      -2.204   0.177   0.682  1.00  0.00     0.173 C 
HETATM    5  C9  UNL     1      -1.818   0.662  -0.727  1.00  0.00     0.128 C 
HETATM    6  N1  UNL     1      -0.816  -0.215  -1.174  1.00  0.00    -0.381 N 
HETATM    7  C11 UNL     1      -1.199  -1.374  -1.880  1.00  0.00     0.150 C 
ENDROOT
BRANCH   1   8
HETATM    8  C4  UNL     1       1.589   0.162  -1.014  1.00  0.00     0.059 C 
BRANCH   8   9
HETATM    9  C3  UNL     1       2.917  -0.296  -0.611  1.00  0.00     0.032 C 
BRANCH   9  10
HETATM   10  C2  UNL     1       3.417  -0.103   0.741  1.00  0.00    -0.037 C 
HETATM   11  C1  UNL     1       4.472   0.693   0.982  1.00  0.00     0.007 C 
ENDBRANCH   9  10
ENDBRANCH   8   9
ENDBRANCH   1   8
BRANCH   2  12
HETATM   12  O1  UNL     1       0.299  -1.264   1.879  1.00  0.00    -0.387 OA
ATOM     13  H1  UNL     1       0.215  -1.083   2.808  1.00  0.00     0.210 HD
ENDBRANCH   2  12
BRANCH   3  14
HETATM   14  O2  UNL     1      -1.249   0.297   2.862  1.00  0.00    -0.390 OA
ATOM     15  H2  UNL     1      -2.046   0.731   3.143  1.00  0.00     0.210 HD
ENDBRANCH   3  14
BRANCH   5  16
HETATM   16  C10 UNL     1      -3.047   0.546  -1.566  1.00  0.00     0.142 C 
HETATM   17 CL1  UNL     1      -2.777   1.072  -3.242  1.00  0.00    -0.128 Cl
ENDBRANCH   5  16
BRANCH   4  18
HETATM   18  O3  UNL     1      -3.404   0.691   1.096  1.00  0.00    -0.391 OA
ATOM     19  H3  UNL     1      -4.142   0.425   0.561  1.00  0.00     0.210 HD
ENDBRANCH   4  18
TORSDOF 7
