REMARK  7 active torsions:
REMARK  status: ('A' for Active; 'I' for Inactive)
REMARK    1  A    between atoms: C3_3  and  O1_4 
REMARK    2  A    between atoms: C4_6  and  O2_7 
REMARK    3  A    between atoms: C5_9  and  C6_10 
REMARK    4  A    between atoms: C6_10  and  O3_11 
REMARK    5  A    between atoms: N1_14  and  C8_15 
REMARK    6  A    between atoms: C8_15  and  C9_16 
REMARK    7  A    between atoms: C9_16  and  C10_17 
ROOT
HETATM    1  C1  UNL     1      -0.669  -0.257  -2.088  1.00  0.00     0.045 C 
HETATM    2  C2  UNL     1      -0.825  -1.211  -0.964  1.00  0.00     0.250 C 
HETATM    3  C3  UNL     1      -2.222  -1.328  -0.466  1.00  0.00     0.180 C 
HETATM    4  C4  UNL     1      -2.665   0.025   0.053  1.00  0.00     0.156 C 
HETATM    5  C5  UNL     1      -1.545   0.631   0.869  1.00  0.00     0.069 C 
HETATM    6  C7  UNL     1      -0.524  -0.396   1.267  1.00  0.00     0.282 C 
HETATM    7  N1  UNL     1       0.090  -1.059   0.145  1.00  0.00     0.096 N 
ENDROOT
BRANCH   7   8
HETATM    8  C8  UNL     1       1.326  -0.423  -0.234  1.00  0.00     0.273 C 
BRANCH   8   9
HETATM    9  C9  UNL     1       2.401  -0.512   0.791  1.00  0.00     0.034 C 
BRANCH   9  10
HETATM   10  C10 UNL     1       3.675   0.183   0.380  1.00  0.00    -0.013 A 
HETATM   11  C11 UNL     1       4.397  -0.223  -0.856  1.00  0.00     0.005 A 
HETATM   12  C12 UNL     1       3.786   1.181  -0.671  1.00  0.00     0.005 A 
ENDBRANCH   9  10
ENDBRANCH   8   9
ENDBRANCH   7   8
BRANCH   3  13
HETATM   13  O1  UNL     1      -3.130  -1.822  -1.391  1.00  0.00    -0.391 OA
ATOM     14  H1  UNL     1      -4.022  -1.897  -1.073  1.00  0.00     0.210 HD
ENDBRANCH   3  13
BRANCH   5  15
HETATM   15  C6  UNL     1      -2.134   1.197   2.141  1.00  0.00     0.173 C 
BRANCH  15  16
HETATM   16  O3  UNL     1      -3.083   2.188   1.848  1.00  0.00    -0.400 OA
ATOM     17  H3  UNL     1      -3.453   2.544   2.647  1.00  0.00     0.209 HD
ENDBRANCH  15  16
ENDBRANCH   5  15
BRANCH   4  18
HETATM   18  O2  UNL     1      -3.810  -0.166   0.829  1.00  0.00    -0.392 OA
ATOM     19  H2  UNL     1      -4.088   0.682   1.154  1.00  0.00     0.210 HD
ENDBRANCH   4  18
TORSDOF 7
