REMARK  2 active torsions:
REMARK  status: ('A' for Active; 'I' for Inactive)
REMARK    1  A    between atoms: C4_4  and  C5_5 
REMARK    2  A    between atoms: C5_5  and  C6_6 
ROOT
HETATM    1  C5  UNL     1       0.983   0.502   0.299  1.00  0.00     0.012 C 
ENDROOT
BRANCH   1   2
HETATM    2  C4  UNL     1      -0.356   0.211  -0.328  1.00  0.00    -0.014 C 
HETATM    3  C3  UNL     1      -1.236   1.438  -0.123  1.00  0.00     0.005 C 
HETATM    4  C2  UNL     1      -2.462   1.092   0.701  1.00  0.00     0.000 C 
HETATM    5  C1  UNL     1      -3.265   0.036   0.004  1.00  0.00     0.000 C 
HETATM    6  C10 UNL     1      -2.397  -1.125  -0.365  1.00  0.00     0.000 C 
HETATM    7  C9  UNL     1      -1.007  -1.030   0.215  1.00  0.00     0.005 C 
ENDBRANCH   1   2
BRANCH   1   8
HETATM    8  C6  UNL     1       1.958  -0.620   0.175  1.00  0.00     0.037 C 
HETATM    9  C7  UNL     1       3.272  -0.243   0.829  1.00  0.00     0.238 C 
HETATM   10  N1  UNL     1       3.736   0.216  -0.461  1.00  0.00    -0.074 N 
HETATM   11  C8  UNL     1       2.776  -0.688  -1.067  1.00  0.00     0.238 C 
ATOM     12  H12 UNL     1       3.741   1.209  -0.694  1.00  0.00     0.277 HD
ATOM     13  H11 UNL     1       4.725   0.174  -0.708  1.00  0.00     0.277 HD
ENDBRANCH   1   8
TORSDOF 2
