REMARK  6 active torsions:
REMARK  status: ('A' for Active; 'I' for Inactive)
REMARK       I    between atoms: C1_4  and  N2_5 
REMARK       I    between atoms: C1_4  and  N11_31 
REMARK    1  A    between atoms: N2_5  and  C2_7 
REMARK    2  A    between atoms: C3_10  and  N4_11 
REMARK    3  A    between atoms: C4_19  and  C5_20 
REMARK       I    between atoms: C5_20  and  N7_22 
REMARK    4  A    between atoms: N7_22  and  C6_24 
REMARK    5  A    between atoms: C6_24  and  N8_25 
REMARK    6  A    between atoms: N11_31  and  N12_33 
ROOT
HETATM    1  C2  UNL     1       2.488  -0.310   0.377  1.00  0.00     0.102 C 
HETATM    2  N3  UNL     1       3.280   0.317  -0.449  1.00  0.00    -0.335 N 
ATOM      3  H3  UNL     1       4.252   0.014  -0.511  1.00  0.00     0.164 HD
HETATM    4  C3  UNL     1       2.849   1.423  -1.285  1.00  0.00     0.402 C 
HETATM    5  N5  UNL     1       1.648   1.072  -2.020  1.00  0.00    -0.289 N 
ATOM      6  H5  UNL     1       1.697   1.177  -3.033  1.00  0.00     0.184 HD
HETATM    7  N6  UNL     1       0.433   0.608  -1.511  1.00  0.00    -0.300 N 
ATOM      8  H6  UNL     1      -0.362   0.697  -2.144  1.00  0.00     0.186 HD
HETATM    9  C4  UNL     1       0.165   0.093  -0.383  1.00  0.00     0.100 C 
HETATM   10  C9  UNL     1       1.078  -0.166   0.728  1.00  0.00     0.141 C 
ENDROOT
BRANCH   1  11
HETATM   11  N2  UNL     1       3.181  -1.346   1.063  1.00  0.00    -0.179 N 
HETATM   12  C1  UNL     1       4.321  -1.119   1.872  1.00  0.00     0.696 C 
HETATM   13  N1  UNL     1       4.239  -0.414   2.936  1.00  0.00    -0.233 N 
HETATM   14  N11 UNL     1       5.579  -1.672   1.517  1.00  0.00    -0.072 N 
ATOM     15  H12 UNL     1       3.335  -0.017   3.191  1.00  0.00     0.174 HD
ATOM     16  H11 UNL     1       5.060  -0.251   3.519  1.00  0.00     0.174 HD
ATOM     17  H11 UNL     1       6.127  -2.175   2.215  1.00  0.00     0.212 HD
ATOM     18  H2  UNL     1       2.839  -2.302   0.967  1.00  0.00     0.185 HD
BRANCH  14  19
HETATM   19  N12 UNL     1       6.070  -1.531   0.217  1.00  0.00    -0.024 N 
HETATM   20  O2  UNL     1       5.844  -2.444  -0.600  1.00  0.00    -0.516 OA
HETATM   21  O3  UNL     1       6.783  -0.424  -0.170  1.00  0.00    -0.516 OA
ENDBRANCH  14  19
ENDBRANCH   1  11
BRANCH   4  22
HETATM   22  N4  UNL     1       3.869   1.876  -2.176  1.00  0.00    -0.039 N 
ATOM     23  H43 UNL     1       4.720   2.114  -1.666  1.00  0.00     0.279 HD
ATOM     24  H42 UNL     1       4.226   1.107  -2.744  1.00  0.00     0.279 HD
ATOM     25  H41 UNL     1       3.566   2.653  -2.763  1.00  0.00     0.279 HD
ENDBRANCH   4  22
BRANCH   9  26
HETATM   26  C5  UNL     1      -1.247  -0.314  -0.118  1.00  0.00     0.270 C 
HETATM   27  O1  UNL     1      -1.498  -0.826   1.011  1.00  0.00    -0.266 OA
HETATM   28  N7  UNL     1      -2.160  -0.088  -1.148  1.00  0.00    -0.317 N 
ATOM     29  H7  UNL     1      -1.809   0.327  -2.011  1.00  0.00     0.170 HD
BRANCH  28  30
HETATM   30  C6  UNL     1      -3.547  -0.397  -1.078  1.00  0.00     0.200 C 
BRANCH  30  31
HETATM   31  N8  UNL     1      -4.389   0.291  -0.218  1.00  0.00    -0.274 N 
HETATM   32  C7  UNL     1      -4.316   0.307   1.162  1.00  0.00     0.164 C 
HETATM   33  C8  UNL     1      -5.758   0.746   1.537  1.00  0.00     0.153 C 
HETATM   34  N9  UNL     1      -6.511   0.149   0.422  1.00  0.00    -0.124 NA
HETATM   35  N10 UNL     1      -5.685   0.411  -0.654  1.00  0.00    -0.028 NA
ENDBRANCH  30  31
ENDBRANCH  28  30
ENDBRANCH   9  26
TORSDOF 6
