REMARK  5 active torsions:
REMARK  status: ('A' for Active; 'I' for Inactive)
REMARK    1  A    between atoms: N1_2  and  C2_3 
REMARK    2  A    between atoms: C2_3  and  C3_4 
REMARK    3  A    between atoms: C3_4  and  N2_5 
REMARK    4  A    between atoms: N2_5  and  C4_7 
REMARK    5  A    between atoms: N3_8  and  N4_10 
ROOT
HETATM    1  N2  UNL     1       0.931   0.229   0.820  1.00  0.00    -0.383 N 
ATOM      2  H2  UNL     1       0.816  -0.138   1.765  1.00  0.00     0.160 HD
ENDROOT
BRANCH   1   3
HETATM    3  C3  UNL     1      -0.264   0.426   0.037  1.00  0.00     0.148 C 
BRANCH   3   4
HETATM    4  C2  UNL     1      -1.419  -0.141   0.793  1.00  0.00     0.256 C 
BRANCH   4   5
HETATM    5  N1  UNL     1      -2.697  -0.059   0.181  1.00  0.00    -0.066 N 
HETATM    6  C1  UNL     1      -2.826  -0.116  -1.285  1.00  0.00     0.272 C 
HETATM    7  C6  UNL     1      -3.837   0.534   0.834  1.00  0.00     0.265 A 
HETATM    8  C7  UNL     1      -3.687  -0.933   0.854  1.00  0.00     0.265 A 
ENDBRANCH   4   5
ENDBRANCH   3   4
ENDBRANCH   1   3
BRANCH   1   9
HETATM    9  C4  UNL     1       2.251   0.502   0.387  1.00  0.00     0.192 C 
HETATM   10  N3  UNL     1       2.595   0.237  -0.814  1.00  0.00    -0.296 N 
ATOM     11  H3  UNL     1       1.934  -0.171  -1.475  1.00  0.00     0.187 HD
BRANCH  10  12
HETATM   12  N4  UNL     1       3.924   0.529  -1.196  1.00  0.00    -0.298 N 
HETATM   13  C5  UNL     1       4.883  -0.260  -0.780  1.00  0.00     0.206 C 
HETATM   14  N5  UNL     1       6.239  -0.072  -1.099  1.00  0.00    -0.095 NA
ATOM     15  H4  UNL     1       4.132   1.337  -1.783  1.00  0.00     0.187 HD
ENDBRANCH  10  12
ENDBRANCH   1   9
TORSDOF 5
