REMARK  12 active torsions:
REMARK  status: ('A' for Active; 'I' for Inactive)
REMARK    1  A    between atoms: C2_2  and  C3_3 
REMARK    2  A    between atoms: C4_4  and  C5_5 
REMARK    3  A    between atoms: C6_6  and  C7_7 
REMARK    4  A    between atoms: C14_14  and  S1_15 
REMARK    5  A    between atoms: S1_15  and  N1_18 
REMARK    6  A    between atoms: N3_26  and  C20_27 
REMARK    7  A    between atoms: C20_27  and  C21_28 
REMARK    8  A    between atoms: C21_28  and  C22_29 
REMARK    9  A    between atoms: C22_29  and  C23_30 
REMARK   10  A    between atoms: C23_30  and  C24_31 
REMARK   11  A    between atoms: C24_31  and  N4_32 
REMARK   12  A    between atoms: C27_37  and  N6_38 
ROOT
HETATM    1  C3  UNL     1       0.761  -0.036   1.935  1.00  0.00     0.048 A 
HETATM    2  C4  UNL     1      -0.258   0.316   1.054  1.00  0.00     0.111 A 
HETATM    3  N2  UNL     1       0.192   1.373   0.382  1.00  0.00    -0.344 N 
ATOM      4  H2  UNL     1      -0.315   1.878  -0.345  1.00  0.00     0.167 HD
HETATM    5  C19 UNL     1       1.410   1.659   0.817  1.00  0.00     0.184 A 
HETATM    6  N3  UNL     1       1.816   0.818   1.781  1.00  0.00    -0.344 N 
ENDROOT
BRANCH   2   7
HETATM    7  C5  UNL     1      -1.535  -0.336   0.906  1.00  0.00    -0.041 C 
HETATM    8  C6  UNL     1      -2.622  -0.886   0.801  1.00  0.00    -0.058 C 
BRANCH   8   9
HETATM    9  C7  UNL     1      -3.905  -1.540   0.712  1.00  0.00     0.042 A 
HETATM   10  C8  UNL     1      -4.341  -2.325   1.791  1.00  0.00     0.029 A 
HETATM   11  C9  UNL     1      -5.559  -2.963   1.723  1.00  0.00    -0.060 A 
HETATM   12  C10 UNL     1      -5.974  -3.781   2.887  1.00  0.00     0.048 C 
HETATM   13  C11 UNL     1      -6.338  -2.822   0.595  1.00  0.00     0.015 A 
HETATM   14  C12 UNL     1      -5.940  -2.059  -0.480  1.00  0.00    -0.037 A 
HETATM   15  C13 UNL     1      -6.816  -1.924  -1.667  1.00  0.00     0.050 C 
HETATM   16  C14 UNL     1      -4.697  -1.423  -0.383  1.00  0.00     0.099 A 
BRANCH  16  17
HETATM   17  S1  UNL     1      -4.232  -0.456  -1.738  1.00  0.00     0.245 S 
HETATM   18  O1  UNL     1      -2.751  -0.218  -1.842  1.00  0.00    -0.206 OA
HETATM   19  O2  UNL     1      -4.688  -1.160  -3.006  1.00  0.00    -0.206 OA
BRANCH  17  20
HETATM   20  N1  UNL     1      -4.964   1.084  -1.609  1.00  0.00    -0.206 NA
HETATM   21  C15 UNL     1      -4.577   1.845  -0.446  1.00  0.00     0.107 C 
HETATM   22  C16 UNL     1      -5.051   3.267  -0.755  1.00  0.00     0.017 C 
HETATM   23  C17 UNL     1      -4.993   3.358  -2.265  1.00  0.00     0.017 C 
HETATM   24  C18 UNL     1      -4.720   1.948  -2.745  1.00  0.00     0.107 C 
ENDBRANCH  17  20
ENDBRANCH  16  17
ENDBRANCH   8   9
ENDBRANCH   2   7
BRANCH   1  25
HETATM   25  C2  UNL     1       0.675  -1.161   2.874  1.00  0.00     0.056 C 
HETATM   26  C1  UNL     1       0.851  -2.511   2.209  1.00  0.00     0.011 C 
ENDBRANCH   1  25
BRANCH   6  27
HETATM   27  C20 UNL     1       3.051   0.757   2.535  1.00  0.00     0.130 C 
BRANCH  27  28
HETATM   28  C21 UNL     1       4.087  -0.100   1.900  1.00  0.00     0.020 C 
BRANCH  28  29
HETATM   29  C22 UNL     1       4.548   0.316   0.544  1.00  0.00     0.003 C 
BRANCH  29  30
HETATM   30  C23 UNL     1       5.189   1.672   0.488  1.00  0.00     0.020 C 
BRANCH  30  31
HETATM   31  C24 UNL     1       5.598   1.990  -0.900  1.00  0.00     0.128 C 
BRANCH  31  32
HETATM   32  N4  UNL     1       6.528   1.132  -1.534  1.00  0.00    -0.362 N 
HETATM   33  C25 UNL     1       6.070   0.087  -2.246  1.00  0.00     0.107 A 
HETATM   34  C26 UNL     1       6.978  -0.772  -2.878  1.00  0.00     0.107 A 
HETATM   35  N5  UNL     1       8.302  -0.555  -2.775  1.00  0.00    -0.350 N 
HETATM   36  C27 UNL     1       8.772   0.487  -2.065  1.00  0.00     0.114 A 
ATOM     37  H5  UNL     1       8.955  -1.186  -3.239  1.00  0.00     0.166 HD
HETATM   38  C28 UNL     1       7.861   1.320  -1.451  1.00  0.00     0.138 A 
BRANCH  36  39
HETATM   39  N6  UNL     1      10.027   0.696  -1.965  1.00  0.00    -0.384 N 
ATOM     40  H62 UNL     1      10.701   0.080  -2.419  1.00  0.00     0.157 HD
ATOM     41  H61 UNL     1      10.383   1.486  -1.427  1.00  0.00     0.157 HD
ENDBRANCH  36  39
ENDBRANCH  31  32
ENDBRANCH  30  31
ENDBRANCH  29  30
ENDBRANCH  28  29
ENDBRANCH  27  28
ENDBRANCH   6  27
TORSDOF 12
