REMARK  13 active torsions:
REMARK  status: ('A' for Active; 'I' for Inactive)
REMARK    1  A    between atoms: C4_6  and  O1_7 
REMARK    2  A    between atoms: C5_9  and  C6_10 
REMARK    3  A    between atoms: N2_14  and  C10_15 
REMARK    4  A    between atoms: C10_15  and  C11_16 
REMARK    5  A    between atoms: C12_17  and  C13_18 
REMARK    6  A    between atoms: C16_21  and  C17_22 
REMARK    7  A    between atoms: C20_25  and  C21_26 
REMARK    8  A    between atoms: C21_26  and  C22_27 
REMARK    9  A    between atoms: C22_27  and  C23_28 
REMARK   10  A    between atoms: C23_28  and  N3_29 
REMARK   11  A    between atoms: C26_32  and  C27_33 
REMARK   12  A    between atoms: C27_33  and  N4_34 
REMARK   13  A    between atoms: N4_34  and  O2_36 
ROOT
HETATM    1  C13 UNL     1      -2.196  -0.465  -2.413  1.00  0.00     0.017 A 
HETATM    2  C14 UNL     1      -1.674  -1.735  -2.304  1.00  0.00     0.021 A 
HETATM    3  C15 UNL     1      -0.310  -1.952  -2.330  1.00  0.00     0.013 A 
HETATM    4  C16 UNL     1       0.588  -0.913  -2.465  1.00  0.00    -0.026 A 
HETATM    5  C32 UNL     1       0.052   0.358  -2.573  1.00  0.00     0.013 A 
HETATM    6  C33 UNL     1      -1.312   0.581  -2.548  1.00  0.00     0.021 A 
ENDROOT
BRANCH   4   7
HETATM    7  C17 UNL     1       2.030  -1.128  -2.493  1.00  0.00    -0.026 A 
HETATM    8  C18 UNL     1       2.609  -2.162  -1.779  1.00  0.00     0.013 A 
HETATM    9  C19 UNL     1       3.976  -2.376  -1.798  1.00  0.00     0.008 A 
HETATM   10  C20 UNL     1       4.825  -1.571  -2.528  1.00  0.00    -0.058 A 
HETATM   11  C30 UNL     1       4.238  -0.535  -3.242  1.00  0.00     0.008 A 
HETATM   12  C31 UNL     1       2.875  -0.320  -3.224  1.00  0.00     0.013 A 
BRANCH  10  13
HETATM   13  C21 UNL     1       6.291  -1.767  -2.572  1.00  0.00     0.040 C 
BRANCH  13  14
HETATM   14  C22 UNL     1       7.039  -1.016  -1.521  1.00  0.00     0.025 C 
BRANCH  14  15
HETATM   15  C23 UNL     1       6.660  -1.375  -0.118  1.00  0.00     0.128 C 
BRANCH  15  16
HETATM   16  N3  UNL     1       7.423  -0.609   0.836  1.00  0.00    -0.366 N 
HETATM   17  C24 UNL     1       6.917   0.564   1.237  1.00  0.00     0.091 A 
HETATM   18  C25 UNL     1       7.615   1.335   2.152  1.00  0.00     0.030 A 
HETATM   19  C26 UNL     1       8.817   0.948   2.673  1.00  0.00    -0.016 A 
HETATM   20  C28 UNL     1       9.308  -0.282   2.227  1.00  0.00     0.030 A 
HETATM   21  C29 UNL     1       8.620  -1.044   1.324  1.00  0.00     0.091 A 
BRANCH  19  22
HETATM   22  C27 UNL     1       9.604   1.707   3.638  1.00  0.00     0.125 C 
BRANCH  22  23
HETATM   23  N4  UNL     1       9.346   2.816   4.158  1.00  0.00    -0.280 N 
ATOM     24  H4  UNL     1      10.057   3.147   4.810  1.00  0.00     0.193 HD
BRANCH  23  25
HETATM   25  O2  UNL     1       8.308   3.644   4.014  1.00  0.00    -0.290 OA
ATOM     26  H2  UNL     1       8.112   4.486   4.409  1.00  0.00     0.244 HD
ENDBRANCH  23  25
ENDBRANCH  22  23
ENDBRANCH  19  22
ENDBRANCH  15  16
ENDBRANCH  14  15
ENDBRANCH  13  14
ENDBRANCH  10  13
ENDBRANCH   4   7
BRANCH   1  27
HETATM   27  C12 UNL     1      -3.609  -0.237  -2.387  1.00  0.00    -0.065 C 
HETATM   28  C11 UNL     1      -4.813  -0.060  -2.379  1.00  0.00    -0.079 C 
BRANCH  28  29
HETATM   29  C10 UNL     1      -6.262   0.138  -2.391  1.00  0.00     0.242 C 
BRANCH  29  30
HETATM   30  N2  UNL     1      -6.852  -0.237  -1.117  1.00  0.00    -0.292 N 
HETATM   31  C9  UNL     1      -7.285  -1.478  -0.861  1.00  0.00     0.113 A 
HETATM   32  C8  UNL     1      -7.779  -1.474   0.428  1.00  0.00     0.050 A 
HETATM   33  C7  UNL     1      -7.620  -0.195   0.912  1.00  0.00     0.050 A 
HETATM   34  C6  UNL     1      -7.982   0.316   2.215  1.00  0.00     0.047 C 
HETATM   35  N5  UNL     1      -7.051   0.524  -0.066  1.00  0.00    -0.298 N 
ATOM     36  H5  UNL     1      -6.809   1.513  -0.003  1.00  0.00     0.187 HD
BRANCH  34  37
HETATM   37  C5  UNL     1      -9.214   0.754   2.445  1.00  0.00     0.026 A 
HETATM   38  C2  UNL     1      -9.708   1.269   3.631  1.00  0.00     0.035 A 
HETATM   39  C1  UNL     1      -9.007   1.408   4.752  1.00  0.00     0.044 C 
HETATM   40  N1  UNL     1     -11.001   1.598   3.451  1.00  0.00    -0.363 N 
HETATM   41  C3  UNL     1     -11.361   1.313   2.188  1.00  0.00     0.125 A 
ATOM     42  H1  UNL     1     -11.612   2.001   4.162  1.00  0.00     0.165 HD
HETATM   43  C4  UNL     1     -10.261   0.785   1.539  1.00  0.00     0.093 A 
BRANCH  43  44
HETATM   44  O1  UNL     1     -10.261   0.373   0.212  1.00  0.00    -0.358 OA
ATOM     45  H1  UNL     1      -9.505   0.010  -0.234  1.00  0.00     0.217 HD
ENDBRANCH  43  44
ENDBRANCH  34  37
ENDBRANCH  29  30
ENDBRANCH  28  29
ENDBRANCH   1  27
TORSDOF 13
