REMARK  6 active torsions:
REMARK  status: ('A' for Active; 'I' for Inactive)
REMARK    1  A    between atoms: N1_1  and  N2_4 
REMARK    2  A    between atoms: N3_6  and  N4_8 
REMARK    3  A    between atoms: N5_10  and  O1_12 
REMARK    4  A    between atoms: O1_12  and  C1_13 
REMARK    5  A    between atoms: C1_13  and  C2_14 
REMARK    6  A    between atoms: C2_14  and  N6_15 
ROOT
HETATM    1  N4  UNL     1       3.102   0.441  -0.172  1.00  0.00    -0.207 N 
ATOM      2  H4  UNL     1       3.069  -0.297  -0.875  1.00  0.00     0.212 HD
HETATM    3  N5  UNL     1       2.098   0.716   0.578  1.00  0.00    -0.192 N 
ATOM      4  H5  UNL     1       2.192   1.467   1.262  1.00  0.00     0.217 HD
ENDROOT
BRANCH   3   5
HETATM    5  O1  UNL     1       0.910   0.049   0.501  1.00  0.00    -0.262 OA
BRANCH   5   6
HETATM    6  C1  UNL     1       0.646  -0.725  -0.650  1.00  0.00     0.223 C 
BRANCH   6   7
HETATM    7  C2  UNL     1      -0.706  -1.388  -0.566  1.00  0.00     0.156 C 
BRANCH   7   8
HETATM    8  N6  UNL     1      -1.781  -0.432  -0.445  1.00  0.00    -0.364 N 
HETATM    9  C3  UNL     1      -2.428   0.105  -1.474  1.00  0.00     0.090 A 
HETATM   10  C4  UNL     1      -3.449   1.015  -1.278  1.00  0.00     0.017 A 
HETATM   11  C5  UNL     1      -3.817   1.385  -0.002  1.00  0.00     0.003 A 
HETATM   12  C6  UNL     1      -3.154   0.835   1.060  1.00  0.00     0.017 A 
HETATM   13  C7  UNL     1      -2.147  -0.066   0.796  1.00  0.00     0.090 A 
ENDBRANCH   7   8
ENDBRANCH   6   7
ENDBRANCH   5   6
ENDBRANCH   3   5
BRANCH   1  14
HETATM   14  N3  UNL     1       4.245   1.220   0.037  1.00  0.00    -0.213 N 
HETATM   15  N2  UNL     1       5.266   0.844   0.646  1.00  0.00    -0.234 N 
ATOM     16  H2  UNL     1       6.041   1.501   0.735  1.00  0.00     0.209 HD
ATOM     17  H3  UNL     1       4.243   2.169  -0.338  1.00  0.00     0.211 HD
BRANCH  15  18
HETATM   18  N1  UNL     1       5.410  -0.408   1.206  1.00  0.00    -0.330 N 
ATOM     19  H12 UNL     1       4.626  -1.052   1.107  1.00  0.00     0.178 HD
ATOM     20  H11 UNL     1       6.245  -0.716   1.704  1.00  0.00     0.178 HD
ENDBRANCH  15  18
ENDBRANCH   1  14
TORSDOF 6
