REMARK  6 active torsions:
REMARK  status: ('A' for Active; 'I' for Inactive)
REMARK    1  A    between atoms: N1_2  and  C2_5 
REMARK    2  A    between atoms: C2_5  and  C3_6 
REMARK    3  A    between atoms: C3_6  and  C4_7 
REMARK       I    between atoms: C4_7  and  N2_9 
REMARK    4  A    between atoms: C11_16  and  C12_17 
REMARK       I    between atoms: C12_17  and  N3_19 
REMARK    5  A    between atoms: N3_19  and  C13_21 
REMARK    6  A    between atoms: C24_32  and  O3_33 
ROOT
HETATM    1  C4  UNL     1      -5.293   0.081  -0.563  1.00  0.00     0.222 C 
HETATM    2  O1  UNL     1      -5.323  -0.064  -1.810  1.00  0.00    -0.273 OA
HETATM    3  N2  UNL     1      -4.089   0.245   0.165  1.00  0.00    -0.343 N 
HETATM    4  C5  UNL     1      -3.995   0.415   1.590  1.00  0.00     0.127 C 
HETATM    5  C6  UNL     1      -2.672   1.107   1.865  1.00  0.00     0.027 C 
HETATM    6  C7  UNL     1      -2.160   1.362   0.494  1.00  0.00     0.020 C 
HETATM    7  C8  UNL     1      -0.749   1.679   0.338  1.00  0.00     0.001 C 
HETATM    8  C9  UNL     1      -0.346   2.809   1.252  1.00  0.00     0.007 C 
HETATM    9  C10 UNL     1       1.147   2.760   1.192  1.00  0.00     0.015 C 
HETATM   10  C11 UNL     1       1.517   1.599   0.243  1.00  0.00     0.086 C 
HETATM   11  C21 UNL     1       0.307   0.677   0.522  1.00  0.00    -0.026 C 
HETATM   12  C22 UNL     1       0.518   0.194   1.932  1.00  0.00     0.016 C 
HETATM   13  C23 UNL     1       0.376  -0.430  -0.460  1.00  0.00     0.042 C 
HETATM   14  C24 UNL     1      -0.790  -1.273  -0.704  1.00  0.00     0.121 C 
HETATM   15  C25 UNL     1      -2.077  -1.038  -0.049  1.00  0.00     0.062 C 
HETATM   16  C26 UNL     1      -2.741   0.275  -0.333  1.00  0.00     0.038 C 
HETATM   17  C27 UNL     1      -2.728   0.550  -1.815  1.00  0.00     0.039 C 
ENDROOT
BRANCH  10  18
HETATM   18  C12 UNL     1       2.805   1.034   0.584  1.00  0.00     0.223 C 
HETATM   19  O2  UNL     1       3.358   1.426   1.672  1.00  0.00    -0.273 OA
HETATM   20  N3  UNL     1       3.515   0.084  -0.175  1.00  0.00    -0.356 N 
ATOM     21  H3  UNL     1       3.112  -0.251  -1.050  1.00  0.00     0.162 HD
BRANCH  20  22
HETATM   22  C13 UNL     1       4.820  -0.440   0.256  1.00  0.00     0.088 C 
HETATM   23  C14 UNL     1       4.718  -1.917   0.569  1.00  0.00     0.025 C 
HETATM   24  C15 UNL     1       5.989  -2.344   1.228  1.00  0.00     0.002 C 
HETATM   25  C16 UNL     1       7.194  -1.573   0.770  1.00  0.00     0.005 C 
HETATM   26  C17 UNL     1       7.070  -1.060  -0.644  1.00  0.00    -0.013 C 
HETATM   27  C18 UNL     1       7.034  -2.174  -1.652  1.00  0.00     0.010 C 
HETATM   28  C19 UNL     1       5.886  -0.131  -0.739  1.00  0.00     0.008 C 
HETATM   29  C20 UNL     1       6.290   1.318  -0.696  1.00  0.00     0.012 C 
ENDBRANCH  20  22
ENDBRANCH  10  18
BRANCH  14  30
HETATM   30  O3  UNL     1      -0.469  -2.642  -0.505  1.00  0.00    -0.395 OA
ATOM     31  H3  UNL     1      -1.228  -3.191  -0.664  1.00  0.00     0.210 HD
ENDBRANCH  14  30
BRANCH   1  32
HETATM   32  C3  UNL     1      -6.613   0.069   0.113  1.00  0.00     0.130 C 
BRANCH  32  33
HETATM   33  C2  UNL     1      -7.681  -0.137  -0.914  1.00  0.00     0.241 C 
BRANCH  33  34
HETATM   34  N1  UNL     1      -9.012  -0.166  -0.360  1.00  0.00    -0.079 N 
HETATM   35  C1  UNL     1      -9.937  -0.374  -1.457  1.00  0.00     0.267 C 
ATOM     36  H12 UNL     1      -9.231   0.663   0.193  1.00  0.00     0.276 HD
ATOM     37  H11 UNL     1      -9.118  -0.855   0.385  1.00  0.00     0.276 HD
ENDBRANCH  33  34
ENDBRANCH  32  33
ENDBRANCH   1  32
TORSDOF 6
