REMARK  13 active torsions:
REMARK  status: ('A' for Active; 'I' for Inactive)
REMARK    1  A    between atoms: C1_2  and  O2_3 
REMARK    2  A    between atoms: C1_2  and  C4_7 
REMARK    3  A    between atoms: O2_3  and  C2_4 
REMARK    4  A    between atoms: C2_4  and  C3_5 
REMARK    5  A    between atoms: C4_7  and  N1_8 
REMARK    6  A    between atoms: N1_8  and  C5_10 
REMARK    7  A    between atoms: C5_10  and  C6_12 
REMARK    8  A    between atoms: C6_12  and  C7_13 
REMARK    9  A    between atoms: C7_13  and  S2_14 
REMARK   10  A    between atoms: S2_14  and  C8_15 
REMARK   11  A    between atoms: C8_15  and  C9_16 
REMARK   12  A    between atoms: C11_18  and  C12_19 
REMARK   13  A    between atoms: C14_24  and  C15_25 
ROOT
HETATM    1  C7  UNL     1       1.137  -1.161  -1.310  1.00  0.00     0.081 C 
ENDROOT
BRANCH   1   2
HETATM    2  C6  UNL     1      -0.159  -0.407  -0.948  1.00  0.00     0.079 C 
BRANCH   2   3
HETATM    3  C5  UNL     1      -0.995  -1.199  -0.045  1.00  0.00     0.075 C 
HETATM    4  S1  UNL     1      -0.256  -2.606   0.573  1.00  0.00    -0.066 SA
BRANCH   3   5
HETATM    5  N1  UNL     1      -2.290  -0.974   0.356  1.00  0.00    -0.366 N 
ATOM      6  H1  UNL     1      -2.591  -1.668   1.040  1.00  0.00     0.161 HD
BRANCH   5   7
HETATM    7  C4  UNL     1      -3.318  -0.047   0.082  1.00  0.00     0.119 C 
HETATM    8  C17 UNL     1      -2.967   1.352  -0.253  1.00  0.00     0.041 C 
HETATM    9  C18 UNL     1      -4.055   1.850  -1.174  1.00  0.00     0.003 C 
HETATM   10  C19 UNL     1      -4.619   0.636  -1.849  1.00  0.00     0.003 C 
HETATM   11  C20 UNL     1      -4.124  -0.581  -1.109  1.00  0.00     0.041 C 
BRANCH   7  12
HETATM   12  C1  UNL     1      -4.311   0.010   1.203  1.00  0.00     0.287 C 
HETATM   13  O1  UNL     1      -3.948   0.005   2.397  1.00  0.00    -0.262 OA
BRANCH  12  14
HETATM   14  O2  UNL     1      -5.653   0.059   0.931  1.00  0.00    -0.317 OA
BRANCH  14  15
HETATM   15  C2  UNL     1      -6.588   0.115   2.036  1.00  0.00     0.210 C 
BRANCH  15  16
HETATM   16  C3  UNL     1      -7.987   0.082   1.417  1.00  0.00     0.248 C 
HETATM   17  F1  UNL     1      -8.974   0.141   2.351  1.00  0.00    -0.253 F 
ENDBRANCH  15  16
ENDBRANCH  14  15
ENDBRANCH  12  14
ENDBRANCH   7  12
ENDBRANCH   5   7
ENDBRANCH   3   5
ENDBRANCH   2   3
ENDBRANCH   1   2
BRANCH   1  18
HETATM   18  S2  UNL     1       2.097  -1.620   0.052  1.00  0.00    -0.164 SA
BRANCH  18  19
HETATM   19  C8  UNL     1       3.054  -0.543   0.996  1.00  0.00     0.112 C 
BRANCH  19  20
HETATM   20  C9  UNL     1       4.416  -0.226   0.501  1.00  0.00    -0.047 A 
HETATM   21  C10 UNL     1       5.390  -1.207   0.801  1.00  0.00     0.024 A 
HETATM   22  C11 UNL     1       6.701  -0.963   0.477  1.00  0.00     0.049 A 
HETATM   23  C13 UNL     1       7.047   0.219  -0.130  1.00  0.00     0.032 A 
HETATM   24  C14 UNL     1       6.073   1.190  -0.425  1.00  0.00     0.049 A 
HETATM   25  C16 UNL     1       4.748   0.937  -0.096  1.00  0.00     0.024 A 
BRANCH  22  26
HETATM   26  C12 UNL     1       7.759  -1.996   0.799  1.00  0.00     0.417 C 
HETATM   27  F2  UNL     1       7.524  -3.088   0.020  1.00  0.00    -0.166 F 
HETATM   28  F3  UNL     1       7.682  -2.360   2.143  1.00  0.00    -0.166 F 
HETATM   29  F4  UNL     1       8.995  -1.509   0.496  1.00  0.00    -0.166 F 
ENDBRANCH  22  26
BRANCH  24  30
HETATM   30  C15 UNL     1       6.516   2.462  -1.037  1.00  0.00     0.417 C 
HETATM   31  F5  UNL     1       7.027   2.205  -2.284  1.00  0.00    -0.166 F 
HETATM   32  F6  UNL     1       7.571   2.979  -0.263  1.00  0.00    -0.166 F 
HETATM   33  F7  UNL     1       5.471   3.349  -1.069  1.00  0.00    -0.166 F 
ENDBRANCH  24  30
ENDBRANCH  19  20
ENDBRANCH  18  19
ENDBRANCH   1  18
TORSDOF 13
