REMARK  3 active torsions:
REMARK  status: ('A' for Active; 'I' for Inactive)
REMARK    1  A    between atoms: N1_1  and  C1_5 
REMARK    2  A    between atoms: N2_7  and  C3_8 
REMARK    3  A    between atoms: C3_8  and  C4_9 
ROOT
HETATM    1  C1  UNL     1       4.089  -0.544   0.045  1.00  0.00     0.348 C 
HETATM    2  C2  UNL     1       2.845  -0.772   0.840  1.00  0.00     0.336 C 
HETATM    3  N2  UNL     1       1.722  -0.732  -0.077  1.00  0.00     0.116 N 
HETATM    4  C11 UNL     1       2.326  -0.131  -1.252  1.00  0.00     0.442 C 
HETATM    5  O1  UNL     1       3.650  -0.557  -1.276  1.00  0.00    -0.328 OA
ENDROOT
BRANCH   3   6
HETATM    6  C3  UNL     1       0.753   0.197   0.505  1.00  0.00     0.280 C 
BRANCH   6   7
HETATM    7  C4  UNL     1      -0.478   0.334  -0.358  1.00  0.00     0.014 C 
HETATM    8  C5  UNL     1      -1.139  -0.997  -0.508  1.00  0.00     0.006 C 
HETATM    9  C6  UNL     1      -2.533  -0.939  -1.044  1.00  0.00     0.000 C 
HETATM   10  C7  UNL     1      -3.498  -0.918   0.150  1.00  0.00     0.000 C 
HETATM   11  C8  UNL     1      -3.644   0.525   0.564  1.00  0.00     0.000 C 
HETATM   12  C9  UNL     1      -2.329   0.929   1.228  1.00  0.00     0.000 C 
HETATM   13  C10 UNL     1      -1.341   1.402   0.212  1.00  0.00     0.006 C 
ENDBRANCH   6   7
ENDBRANCH   3   6
BRANCH   1  14
HETATM   14  N1  UNL     1       4.684   0.758   0.322  1.00  0.00    -0.051 N 
ATOM     15  H13 UNL     1       4.010   1.511   0.179  1.00  0.00     0.277 HD
ATOM     16  H12 UNL     1       4.855   0.882   1.320  1.00  0.00     0.277 HD
ATOM     17  H11 UNL     1       5.533   0.914  -0.221  1.00  0.00     0.277 HD
ENDBRANCH   1  14
TORSDOF 3
