REMARK  9 active torsions:
REMARK  status: ('A' for Active; 'I' for Inactive)
REMARK    1  A    between atoms: C3_3  and  C4_4 
REMARK    2  A    between atoms: C4_4  and  C5_5 
REMARK    3  A    between atoms: C6_6  and  C7_7 
REMARK    4  A    between atoms: C7_7  and  C8_8 
REMARK    5  A    between atoms: C8_8  and  C9_9 
REMARK    6  A    between atoms: C9_9  and  C10_10 
REMARK    7  A    between atoms: C10_10  and  N1_11 
REMARK    8  A    between atoms: C11_12  and  N2_13 
REMARK    9  A    between atoms: C12_18  and  N4_19 
ROOT
HETATM    1  C1  UNL     1       7.246  -2.907   0.722  1.00  0.00     0.012 C 
HETATM    2  C2  UNL     1       6.783  -2.324  -0.226  1.00  0.00    -0.117 C 
HETATM    3  C3  UNL     1       6.195  -1.585  -1.385  1.00  0.00     0.097 C 
ENDROOT
BRANCH   3   4
HETATM    4  C4  UNL     1       6.828  -0.235  -1.407  1.00  0.00     0.039 C 
BRANCH   4   5
HETATM    5  C5  UNL     1       6.663   0.609  -0.230  1.00  0.00    -0.030 C 
HETATM    6  C6  UNL     1       5.502   1.325   0.230  1.00  0.00    -0.031 C 
BRANCH   6   7
HETATM    7  C7  UNL     1       4.146   0.858   0.479  1.00  0.00     0.027 C 
BRANCH   7   8
HETATM    8  C8  UNL     1       3.272   0.579  -0.674  1.00  0.00     0.005 C 
BRANCH   8   9
HETATM    9  C9  UNL     1       1.897   0.063  -0.266  1.00  0.00     0.021 C 
BRANCH   9  10
HETATM   10  C10 UNL     1       1.129   1.015   0.588  1.00  0.00     0.149 C 
BRANCH  10  11
HETATM   11  N1  UNL     1      -0.177   0.451   0.929  1.00  0.00    -0.168 N 
HETATM   12  C11 UNL     1      -0.414  -0.310   1.997  1.00  0.00     0.681 A 
HETATM   13  N3  UNL     1      -1.628  -0.781   2.243  1.00  0.00    -0.176 N 
HETATM   14  C12 UNL     1      -2.734  -0.519   1.416  1.00  0.00     0.133 A 
ATOM     15  H3  UNL     1      -1.766  -1.361   3.071  1.00  0.00     0.186 HD
HETATM   16  C17 UNL     1      -2.525   0.249   0.339  1.00  0.00     0.060 A 
HETATM   17  C18 UNL     1      -3.549   0.558  -0.530  1.00  0.00    -0.032 A 
HETATM   18  C26 UNL     1      -1.227   0.737   0.093  1.00  0.00     0.138 A 
HETATM   19  C19 UNL     1      -4.957   0.271  -0.289  1.00  0.00     0.050 C 
HETATM   20  C20 UNL     1      -3.263   1.347  -1.663  1.00  0.00     0.001 A 
HETATM   21  C21 UNL     1      -4.260   1.649  -2.585  1.00  0.00     0.056 A 
HETATM   22  C25 UNL     1      -1.973   1.775  -1.830  1.00  0.00     0.044 A 
HETATM   23  C22 UNL     1      -3.965   2.403  -3.704  1.00  0.00     0.117 A 
HETATM   24  F1  UNL     1      -4.921   2.713  -4.620  1.00  0.00    -0.206 F 
HETATM   25  C23 UNL     1      -2.675   2.843  -3.884  1.00  0.00     0.044 A 
HETATM   26  C24 UNL     1      -1.694   2.540  -2.972  1.00  0.00     0.033 A 
HETATM   27  N5  UNL     1      -0.986   1.485  -0.985  1.00  0.00    -0.340 N 
ATOM     28  H5  UNL     1      -0.044   1.835  -1.162  1.00  0.00     0.167 HD
BRANCH  12  29
HETATM   29  N2  UNL     1       0.558  -0.603   2.803  1.00  0.00    -0.234 N 
ATOM     30  H22 UNL     1       1.492  -0.240   2.614  1.00  0.00     0.174 HD
ATOM     31  H21 UNL     1       0.377  -1.185   3.620  1.00  0.00     0.174 HD
ENDBRANCH  12  29
BRANCH  14  32
HETATM   32  N4  UNL     1      -3.857  -1.234   1.788  1.00  0.00    -0.366 N 
HETATM   33  C13 UNL     1      -4.305  -2.475   1.245  1.00  0.00     0.124 C 
HETATM   34  C14 UNL     1      -5.620  -2.818   1.832  1.00  0.00     0.021 C 
HETATM   35  C15 UNL     1      -5.921  -1.745   2.805  1.00  0.00     0.021 C 
HETATM   36  C16 UNL     1      -4.661  -0.967   2.944  1.00  0.00     0.124 C 
ENDBRANCH  14  32
ENDBRANCH  10  11
ENDBRANCH   9  10
ENDBRANCH   8   9
ENDBRANCH   7   8
ENDBRANCH   6   7
ENDBRANCH   4   5
ENDBRANCH   3   4
TORSDOF 9
