REMARK  8 active torsions:
REMARK  status: ('A' for Active; 'I' for Inactive)
REMARK    1  A    between atoms: C2_2  and  N1_3 
REMARK    2  A    between atoms: C2_2  and  C20_39 
REMARK       I    between atoms: N1_3  and  C3_5 
REMARK    3  A    between atoms: C3_5  and  C4_7 
REMARK       I    between atoms: N2_11  and  C8_12 
REMARK    4  A    between atoms: C8_12  and  C9_14 
REMARK    5  A    between atoms: C11_16  and  O3_17 
REMARK    6  A    between atoms: C13_21  and  C14_22 
REMARK    7  A    between atoms: C16_24  and  N3_25 
REMARK    8  A    between atoms: N3_25  and  N4_27 
ROOT
HETATM    1  C9  UNL     1       0.630   0.822  -0.124  1.00  0.00     0.176 C 
HETATM    2  C10 UNL     1       0.989   1.922   0.835  1.00  0.00     0.068 C 
HETATM    3  C11 UNL     1       1.909   1.391   1.876  1.00  0.00     0.145 C 
HETATM    4  C12 UNL     1       2.916   0.407   1.412  1.00  0.00     0.161 C 
HETATM    5 CL1  UNL     1       4.492   1.323   1.390  1.00  0.00    -0.116 Cl
HETATM    6  C13 UNL     1       2.768  -0.120   0.017  1.00  0.00     0.038 C 
HETATM    7  N6  UNL     1       1.898   0.539  -0.872  1.00  0.00    -0.378 N 
ATOM      8  H6  UNL     1       2.094   0.779  -1.844  1.00  0.00     0.160 HD
ENDROOT
BRANCH   1   9
HETATM    9  C8  UNL     1      -0.394   1.271  -1.106  1.00  0.00     0.243 C 
HETATM   10  N2  UNL     1      -1.718   1.497  -0.673  1.00  0.00    -0.337 N 
HETATM   11  C4  UNL     1      -2.413   1.333   0.558  1.00  0.00     0.179 C 
HETATM   12  C7  UNL     1      -2.724   2.092  -1.587  1.00  0.00     0.127 C 
HETATM   13  C5  UNL     1      -3.155   2.659   0.705  1.00  0.00     0.037 C 
HETATM   14  C6  UNL     1      -3.731   2.796  -0.704  1.00  0.00     0.022 C 
HETATM   15  O2  UNL     1      -0.039   1.437  -2.305  1.00  0.00    -0.271 OA
BRANCH  11  16
HETATM   16  C3  UNL     1      -3.513   0.298   0.505  1.00  0.00     0.241 C 
HETATM   17  N1  UNL     1      -3.663  -0.675  -0.458  1.00  0.00    -0.345 N 
ATOM     18  H1  UNL     1      -2.954  -0.719  -1.190  1.00  0.00     0.163 HD
HETATM   19  O1  UNL     1      -4.324   0.416   1.475  1.00  0.00    -0.271 OA
BRANCH  17  20
HETATM   20  C2  UNL     1      -4.722  -1.624  -0.520  1.00  0.00     0.181 C 
HETATM   21  C1  UNL     1      -4.395  -3.011  -0.078  1.00  0.00     0.043 C 
BRANCH  20  22
HETATM   22  C20 UNL     1      -6.010  -1.208   0.104  1.00  0.00     0.196 C 
HETATM   23  O4  UNL     1      -6.500  -0.061   0.009  1.00  0.00    -0.646 OA
HETATM   24  O5  UNL     1      -6.756  -2.143   0.859  1.00  0.00    -0.646 OA
ENDBRANCH  20  22
ENDBRANCH  17  20
ENDBRANCH  11  16
ENDBRANCH   1   9
BRANCH   3  25
HETATM   25  O3  UNL     1       2.566   2.436   2.569  1.00  0.00    -0.394 OA
ATOM     26  H3  UNL     1       3.154   2.097   3.234  1.00  0.00     0.210 HD
ENDBRANCH   3  25
BRANCH   6  27
HETATM   27  C14 UNL     1       4.045  -0.658  -0.497  1.00  0.00     0.007 A 
HETATM   28  C15 UNL     1       4.871  -1.247   0.485  1.00  0.00     0.047 A 
HETATM   29  C16 UNL     1       6.056  -1.878   0.179  1.00  0.00     0.067 A 
HETATM   30  C17 UNL     1       6.436  -1.927  -1.144  1.00  0.00     0.040 A 
HETATM   31 BR1  UNL     1       8.077  -2.803  -1.575  1.00  0.00    -0.049 Br
HETATM   32  C18 UNL     1       5.639  -1.358  -2.114  1.00  0.00     0.041 A 
HETATM   33  C19 UNL     1       4.438  -0.717  -1.799  1.00  0.00     0.024 A 
HETATM   34 BR2  UNL     1       3.423   0.114  -3.155  1.00  0.00    -0.050 Br
BRANCH  29  35
HETATM   35  N3  UNL     1       6.868  -2.478   1.181  1.00  0.00    -0.286 N 
ATOM     36  H3  UNL     1       7.707  -2.012   1.526  1.00  0.00     0.188 HD
BRANCH  35  37
HETATM   37  N4  UNL     1       6.521  -3.596   1.627  1.00  0.00    -0.249 N 
HETATM   38  N5  UNL     1       6.638  -4.637   2.288  1.00  0.00    -0.331 N 
ATOM     39  H52 UNL     1       7.554  -4.467   2.702  1.00  0.00     0.178 HD
ATOM     40  H51 UNL     1       6.355  -5.547   2.651  1.00  0.00     0.178 HD
ATOM     41  H4  UNL     1       5.608  -3.724   1.190  1.00  0.00     0.207 HD
ENDBRANCH  35  37
ENDBRANCH  29  35
ENDBRANCH   6  27
TORSDOF 8
