REMARK  7 active torsions:
REMARK  status: ('A' for Active; 'I' for Inactive)
REMARK    1  A    between atoms: C2_2  and  N1_4 
REMARK       I    between atoms: N1_4  and  C4_6 
REMARK       I    between atoms: C4_6  and  N2_8 
REMARK    2  A    between atoms: N2_8  and  C5_10 
REMARK    3  A    between atoms: C7_14  and  C8_15 
REMARK    4  A    between atoms: C9_16  and  N4_17 
REMARK    5  A    between atoms: N4_17  and  S1_19 
REMARK    6  A    between atoms: S1_19  and  C10_22 
REMARK    7  A    between atoms: C19_39  and  C20_40 
REMARK       I    between atoms: C20_40  and  N7_42 
ROOT
HETATM    1  C5  UNL     1      -2.187   1.232  -0.492  1.00  0.00     0.125 A 
HETATM    2  N3  UNL     1      -1.008   0.659  -0.784  1.00  0.00    -0.339 N 
ATOM      3  H3  UNL     1      -0.969  -0.355  -0.885  1.00  0.00     0.167 HD
HETATM    4  C6  UNL     1       0.140   1.378  -0.951  1.00  0.00     0.070 A 
HETATM    5  C7  UNL     1       1.440   1.025  -1.245  1.00  0.00     0.012 A 
HETATM    6  C16 UNL     1       2.194   2.180  -1.291  1.00  0.00     0.100 A 
HETATM    7  N6  UNL     1       1.394   3.224  -1.034  1.00  0.00    -0.363 N 
ATOM      8  H6  UNL     1       1.682   4.202  -1.002  1.00  0.00     0.165 HD
HETATM    9  C17 UNL     1       0.149   2.765  -0.826  1.00  0.00     0.060 A 
HETATM   10  C18 UNL     1      -1.050   3.366  -0.528  1.00  0.00     0.052 A 
HETATM   11  C19 UNL     1      -2.209   2.606  -0.362  1.00  0.00     0.078 A 
ENDROOT
BRANCH   5  12
HETATM   12  C8  UNL     1       1.921  -0.356  -1.477  1.00  0.00     0.156 C 
HETATM   13  C9  UNL     1       3.419  -0.441  -1.679  1.00  0.00     0.212 C 
HETATM   14  C14 UNL     1       3.093  -0.126  -3.106  1.00  0.00     0.245 C 
HETATM   15  O4  UNL     1       3.600   0.437  -4.107  1.00  0.00    -0.271 OA
HETATM   16  N5  UNL     1       1.836  -0.790  -2.862  1.00  0.00    -0.343 N 
HETATM   17  C15 UNL     1       0.953  -1.544  -3.718  1.00  0.00     0.153 C 
BRANCH  13  18
HETATM   18  N4  UNL     1       3.957  -1.783  -1.555  1.00  0.00    -0.299 N 
ATOM     19  H4  UNL     1       3.567  -2.623  -1.983  1.00  0.00     0.173 HD
BRANCH  18  20
HETATM   20  S1  UNL     1       5.347  -1.721  -0.577  1.00  0.00     0.268 S 
HETATM   21  O2  UNL     1       5.958  -3.084  -0.419  1.00  0.00    -0.200 OA
HETATM   22  O3  UNL     1       6.344  -0.728  -1.118  1.00  0.00    -0.200 OA
BRANCH  20  23
HETATM   23  C10 UNL     1       4.967  -1.144   1.054  1.00  0.00     0.145 A 
HETATM   24  S2  UNL     1       4.948   0.422   1.702  1.00  0.00    -0.061 SA
HETATM   25  C11 UNL     1       4.484   0.056   3.297  1.00  0.00     0.099 A 
HETATM   26 CL1  UNL     1       4.226   1.160   4.668  1.00  0.00    -0.074 Cl
HETATM   27  C12 UNL     1       4.353  -1.306   3.283  1.00  0.00     0.086 A 
HETATM   28 CL2  UNL     1       3.864  -2.153   4.785  1.00  0.00    -0.080 Cl
HETATM   29  C13 UNL     1       4.606  -1.936   2.108  1.00  0.00     0.088 A 
HETATM   30 CL3  UNL     1       4.472  -3.719   1.948  1.00  0.00    -0.080 Cl
ENDBRANCH  20  23
ENDBRANCH  18  20
ENDBRANCH  13  18
ENDBRANCH   5  12
BRANCH   1  31
HETATM   31  N2  UNL     1      -3.281   0.595  -0.321  1.00  0.00    -0.294 N 
HETATM   32  C4  UNL     1      -3.411  -0.811  -0.414  1.00  0.00     0.322 C 
HETATM   33  N1  UNL     1      -2.717  -1.719   0.414  1.00  0.00    -0.339 N 
HETATM   34  O1  UNL     1      -4.190  -1.273  -1.284  1.00  0.00    -0.247 OA
ATOM     35  H1  UNL     1      -2.081  -1.355   1.123  1.00  0.00     0.164 HD
ATOM     36  H2  UNL     1      -4.117   1.136  -0.103  1.00  0.00     0.172 HD
BRANCH  33  37
HETATM   37  C2  UNL     1      -2.880  -3.139   0.288  1.00  0.00     0.078 C 
HETATM   38  C1  UNL     1      -3.303  -3.679   1.659  1.00  0.00     0.032 C 
HETATM   39  C3  UNL     1      -1.558  -3.823  -0.028  1.00  0.00     0.032 C 
ENDBRANCH  33  37
ENDBRANCH   1  31
BRANCH  11  40
HETATM   40  C20 UNL     1      -3.457   3.299  -0.052  1.00  0.00     0.256 C 
HETATM   41  O5  UNL     1      -4.211   3.696  -0.978  1.00  0.00    -0.267 OA
HETATM   42  N7  UNL     1      -3.859   3.547   1.283  1.00  0.00    -0.357 N 
HETATM   43  C21 UNL     1      -5.098   4.237   1.593  1.00  0.00     0.152 C 
HETATM   44  C22 UNL     1      -3.032   3.114   2.401  1.00  0.00     0.152 C 
ENDBRANCH  11  40
TORSDOF 7
