REMARK  3 active torsions:
REMARK  status: ('A' for Active; 'I' for Inactive)
REMARK    1  A    between atoms: N2_12  and  N3_14 
REMARK    2  A    between atoms: N3_14  and  C11_16 
REMARK    3  A    between atoms: C11_16  and  C12_20 
ROOT
HETATM    1  C12 UNL     1       4.580   0.184   0.584  1.00  0.00     0.267 C 
HETATM    2  C13 UNL     1       5.031   1.479   0.041  1.00  0.00     0.086 C 
HETATM    3  N5  UNL     1       5.396   2.499  -0.369  1.00  0.00    -0.195 NA
HETATM    4  C14 UNL     1       3.731   0.477   1.763  1.00  0.00     0.086 C 
HETATM    5  N6  UNL     1       3.086   0.699   2.691  1.00  0.00    -0.195 NA
ENDROOT
BRANCH   1   6
HETATM    6  C11 UNL     1       3.797  -0.589  -0.413  1.00  0.00     0.121 C 
HETATM    7  N4  UNL     1       4.235  -1.748  -0.765  1.00  0.00    -0.386 N 
ATOM      8  H42 UNL     1       3.697  -2.279  -1.450  1.00  0.00     0.157 HD
ATOM      9  H41 UNL     1       5.096  -2.127  -0.371  1.00  0.00     0.157 HD
BRANCH   6  10
HETATM   10  N3  UNL     1       2.612  -0.067  -0.955  1.00  0.00    -0.287 N 
ATOM     11  H3  UNL     1       2.513  -0.069  -1.970  1.00  0.00     0.188 HD
BRANCH  10  12
HETATM   12  N2  UNL     1       1.560   0.455  -0.200  1.00  0.00    -0.305 N 
HETATM   13  C10 UNL     1       0.329   0.107  -0.472  1.00  0.00     0.042 C 
HETATM   14  C2  UNL     1      -0.061  -0.822  -1.545  1.00  0.00     0.059 C 
HETATM   15  C9  UNL     1      -0.902   0.554   0.212  1.00  0.00     0.270 C 
HETATM   16  C1  UNL     1       0.341  -2.267  -1.231  1.00  0.00     0.018 C 
HETATM   17  C3  UNL     1      -1.544  -0.708  -1.615  1.00  0.00     0.283 C 
HETATM   18  N1  UNL     1      -1.982  -0.183  -0.337  1.00  0.00     0.099 N 
HETATM   19  C4  UNL     1      -3.163   0.661  -0.488  1.00  0.00     0.273 C 
HETATM   20  C5  UNL     1      -3.871   0.647   0.873  1.00  0.00     0.030 C 
HETATM   21  C6  UNL     1      -2.961   1.399   1.823  1.00  0.00     0.002 C 
HETATM   22  C7  UNL     1      -1.957   0.511   2.487  1.00  0.00     0.002 C 
HETATM   23  C8  UNL     1      -0.696   0.328   1.688  1.00  0.00     0.042 C 
ATOM     24  H2  UNL     1       1.751   1.106   0.562  1.00  0.00     0.186 HD
ENDBRANCH  10  12
ENDBRANCH   6  10
ENDBRANCH   1   6
TORSDOF 3
