REMARK  11 active torsions:
REMARK  status: ('A' for Active; 'I' for Inactive)
REMARK    1  A    between atoms: C2_2  and  N1_3 
REMARK    2  A    between atoms: N1_3  and  C3_4 
REMARK    3  A    between atoms: N1_3  and  C5_6 
REMARK    4  A    between atoms: C5_6  and  C6_7 
REMARK    5  A    between atoms: C6_7  and  C7_8 
REMARK    6  A    between atoms: C7_8  and  N2_9 
REMARK    7  A    between atoms: N2_9  and  C8_11 
REMARK    8  A    between atoms: C8_11  and  N3_13 
REMARK    9  A    between atoms: N3_13  and  C10_15 
REMARK   10  A    between atoms: C10_15  and  C11_16 
REMARK   11  A    between atoms: C12_17  and  C13_18 
ROOT
HETATM    1  N3  UNL     1      -0.939  -0.782   2.613  1.00  0.00    -0.358 N 
HETATM    2  C9  UNL     1      -0.790  -0.351   3.998  1.00  0.00     0.152 C 
ENDROOT
BRANCH   1   3
HETATM    3  C8  UNL     1       0.299  -0.980   1.882  1.00  0.00     0.169 C 
HETATM    4  S1  UNL     1       1.721  -0.739   2.637  1.00  0.00    -0.041 SA
BRANCH   3   5
HETATM    5  N2  UNL     1       0.240  -1.402   0.541  1.00  0.00    -0.367 N 
ATOM      6  H2  UNL     1      -0.682  -1.569   0.138  1.00  0.00     0.161 HD
BRANCH   5   7
HETATM    7  C7  UNL     1       1.376  -1.614  -0.298  1.00  0.00     0.123 C 
BRANCH   7   8
HETATM    8  C6  UNL     1       1.987  -0.248  -0.622  1.00  0.00     0.050 C 
BRANCH   8   9
HETATM    9  C5  UNL     1       3.158  -0.480  -1.536  1.00  0.00     0.274 C 
BRANCH   9  10
HETATM   10  N1  UNL     1       3.764   0.802  -1.859  1.00  0.00     0.087 N 
BRANCH  10  11
HETATM   11  C2  UNL     1       4.875   0.630  -2.747  1.00  0.00     0.268 C 
HETATM   12  C1  UNL     1       6.028  -0.165  -2.247  1.00  0.00     0.037 C 
ENDBRANCH  10  11
BRANCH  10  13
HETATM   13  C3  UNL     1       3.974   1.629  -0.732  1.00  0.00     0.268 C 
HETATM   14  C4  UNL     1       4.838   1.184   0.366  1.00  0.00     0.037 C 
ENDBRANCH  10  13
ENDBRANCH   9  10
ENDBRANCH   8   9
ENDBRANCH   7   8
ENDBRANCH   5   7
ENDBRANCH   3   5
ENDBRANCH   1   3
BRANCH   1  15
HETATM   15  C10 UNL     1      -2.195  -0.994   1.989  1.00  0.00     0.169 C 
BRANCH  15  16
HETATM   16  C11 UNL     1      -2.724   0.036   1.107  1.00  0.00     0.035 A 
HETATM   17  C12 UNL     1      -3.931  -0.185   0.423  1.00  0.00    -0.025 A 
HETATM   18  C15 UNL     1      -4.469   0.792  -0.386  1.00  0.00     0.034 A 
HETATM   19  C16 UNL     1      -3.858   2.016  -0.561  1.00  0.00     0.009 A 
HETATM   20  C17 UNL     1      -4.418   3.090  -1.438  1.00  0.00     0.068 C 
HETATM   21  N4  UNL     1      -2.709   2.204   0.103  1.00  0.00    -0.327 N 
HETATM   22  C18 UNL     1      -2.145   1.260   0.914  1.00  0.00     0.254 A 
ATOM     23  H4  UNL     1      -2.231   3.099  -0.003  1.00  0.00     0.169 HD
HETATM   24  O1  UNL     1      -1.073   1.642   1.444  1.00  0.00    -0.268 OA
BRANCH  17  25
HETATM   25  C13 UNL     1      -4.661  -1.471   0.543  1.00  0.00     0.111 C 
HETATM   26  C14 UNL     1      -6.053  -1.385  -0.028  1.00  0.00     0.032 C 
HETATM   27 CL1  UNL     1      -3.811  -2.702  -0.461  1.00  0.00    -0.120 Cl
ENDBRANCH  17  25
ENDBRANCH  15  16
ENDBRANCH   1  15
TORSDOF 11
