REMARK  9 active torsions:
REMARK  status: ('A' for Active; 'I' for Inactive)
REMARK       I    between atoms: C1_2  and  N1_3 
REMARK    1  A    between atoms: C1_2  and  C10_14 
REMARK    2  A    between atoms: N1_3  and  C2_5 
REMARK    3  A    between atoms: C2_5  and  C3_6 
REMARK    4  A    between atoms: C3_6  and  C4_7 
REMARK    5  A    between atoms: C4_7  and  C5_8 
REMARK    6  A    between atoms: C5_8  and  C6_9 
REMARK    7  A    between atoms: C6_9  and  C7_10 
REMARK    8  A    between atoms: C7_10  and  C8_11 
REMARK    9  A    between atoms: C8_11  and  C9_12 
ROOT
HETATM    1  C10 UNL     1      -2.106  -0.711  -1.040  1.00  0.00     0.167 C 
HETATM    2  N2  UNL     1      -2.544  -1.742  -1.655  1.00  0.00    -0.372 N 
ATOM      3  H2  UNL     1      -1.917  -2.359  -2.171  1.00  0.00     0.161 HD
HETATM    4  C11 UNL     1      -3.984  -2.002  -1.588  1.00  0.00     0.123 C 
HETATM    5  C12 UNL     1      -4.363  -1.839  -0.121  1.00  0.00     0.050 C 
HETATM    6  C13 UNL     1      -4.255  -0.375   0.248  1.00  0.00     0.033 C 
HETATM    7  C14 UNL     1      -5.464   0.321  -0.320  1.00  0.00     0.031 C 
HETATM    8  C15 UNL     1      -6.391   0.828   0.760  1.00  0.00     0.002 C 
HETATM    9  C16 UNL     1      -6.638  -0.216   1.826  1.00  0.00     0.000 C 
HETATM   10  C17 UNL     1      -5.378  -0.723   2.455  1.00  0.00     0.002 C 
HETATM   11  C18 UNL     1      -4.170  -0.162   1.740  1.00  0.00     0.031 C 
HETATM   12  N3  UNL     1      -3.020   0.118  -0.333  1.00  0.00    -0.363 N 
ATOM     13  H3  UNL     1      -2.796   1.108  -0.229  1.00  0.00     0.162 HD
ENDROOT
BRANCH   1  14
HETATM   14  C1  UNL     1      -0.667  -0.418  -1.085  1.00  0.00     0.284 C 
HETATM   15  O1  UNL     1       0.042  -1.238  -1.753  1.00  0.00    -0.264 OA
HETATM   16  N1  UNL     1      -0.127   0.705  -0.425  1.00  0.00    -0.354 N 
ATOM     17  H1  UNL     1      -0.752   1.327   0.088  1.00  0.00     0.162 HD
BRANCH  16  18
HETATM   18  C2  UNL     1       1.273   0.996  -0.455  1.00  0.00     0.123 C 
BRANCH  18  19
HETATM   19  C3  UNL     1       2.038  -0.115   0.204  1.00  0.00     0.020 C 
BRANCH  19  20
HETATM   20  C4  UNL     1       3.533   0.190   0.195  1.00  0.00     0.002 C 
BRANCH  20  21
HETATM   21  C5  UNL     1       4.084   0.339  -1.176  1.00  0.00     0.000 C 
BRANCH  21  22
HETATM   22  C6  UNL     1       5.573   0.663  -1.102  1.00  0.00     0.000 C 
BRANCH  22  23
HETATM   23  C7  UNL     1       6.373  -0.388  -0.441  1.00  0.00     0.001 C 
BRANCH  23  24
HETATM   24  C8  UNL     1       7.843  -0.240  -0.389  1.00  0.00     0.011 C 
BRANCH  24  25
HETATM   25  C9  UNL     1       8.454   0.922   0.273  1.00  0.00     0.085 C 
HETATM   26 BR1  UNL     1       8.080   2.608  -0.525  1.00  0.00    -0.097 Br
ENDBRANCH  24  25
ENDBRANCH  23  24
ENDBRANCH  22  23
ENDBRANCH  21  22
ENDBRANCH  20  21
ENDBRANCH  19  20
ENDBRANCH  18  19
ENDBRANCH  16  18
ENDBRANCH   1  14
TORSDOF 9
