REMARK  4 active torsions:
REMARK  status: ('A' for Active; 'I' for Inactive)
REMARK    1  A    between atoms: N1_1  and  C1_5 
REMARK    2  A    between atoms: C1_5  and  C2_6 
REMARK    3  A    between atoms: C2_6  and  S1_7 
REMARK    4  A    between atoms: S1_7  and  C3_8 
ROOT
HETATM    1  C3  UNL     1      -0.968  -0.755  -0.229  1.00  0.00     0.125 A 
HETATM    2  C4  UNL     1      -1.861  -0.431  -1.255  1.00  0.00     0.145 A 
HETATM    3  N2  UNL     1      -2.800   0.399  -0.814  1.00  0.00    -0.196 N 
ATOM      4  H2  UNL     1      -3.574   0.792  -1.350  1.00  0.00     0.183 HD
HETATM    5  C5  UNL     1      -2.521   0.616   0.488  1.00  0.00     0.716 A 
HETATM    6  N3  UNL     1      -2.650   1.105   1.717  1.00  0.00    -0.113 N 
ATOM      7  H3  UNL     1      -3.300   1.733   2.190  1.00  0.00     0.203 HD
HETATM    8  N4  UNL     1      -1.572   0.425   2.061  1.00  0.00     0.016 NA
HETATM    9  N5  UNL     1      -1.415  -0.080   0.845  1.00  0.00    -0.061 N 
ENDROOT
BRANCH   1  10
HETATM   10  S1  UNL     1       0.426  -1.845  -0.293  1.00  0.00    -0.107 SA
BRANCH  10  11
HETATM   11  C2  UNL     1       1.934  -1.125  -0.885  1.00  0.00     0.108 C 
BRANCH  11  12
HETATM   12  C1  UNL     1       2.436  -0.077   0.069  1.00  0.00     0.240 C 
BRANCH  12  13
HETATM   13  N1  UNL     1       1.502   1.008   0.226  1.00  0.00    -0.079 N 
ATOM     14  H13 UNL     1       1.257   1.417  -0.676  1.00  0.00     0.274 HD
ATOM     15  H12 UNL     1       0.582   0.666   0.504  1.00  0.00     0.274 HD
ATOM     16  H11 UNL     1       1.843   1.719   0.873  1.00  0.00     0.274 HD
ENDBRANCH  12  13
ENDBRANCH  11  12
ENDBRANCH  10  11
ENDBRANCH   1  10
TORSDOF 4
