REMARK  9 active torsions:
REMARK  status: ('A' for Active; 'I' for Inactive)
REMARK    1  A    between atoms: C2_2  and  N1_4 
REMARK    2  A    between atoms: N1_4  and  C4_5 
REMARK    3  A    between atoms: C4_5  and  C5_6 
REMARK    4  A    between atoms: C8_11  and  C9_12 
REMARK    5  A    between atoms: C14_21  and  N5_22 
REMARK    6  A    between atoms: C15_24  and  C16_25 
REMARK    7  A    between atoms: C16_25  and  O1_26 
REMARK    8  A    between atoms: C16_25  and  C17_28 
REMARK    9  A    between atoms: C17_28  and  O2_29 
ROOT
HETATM    1  C5  UNL     1      -1.091   0.551  -0.348  1.00  0.00     0.038 A 
HETATM    2  C6  UNL     1       0.140   1.184  -0.262  1.00  0.00     0.051 A 
HETATM    3  C7  UNL     1       1.253   0.394   0.018  1.00  0.00     0.079 A 
HETATM    4  N2  UNL     1       2.556   0.704   0.149  1.00  0.00    -0.342 N 
ATOM      5  H2  UNL     1       2.970   1.633   0.070  1.00  0.00     0.167 HD
HETATM    6  C8  UNL     1       3.219  -0.464   0.408  1.00  0.00     0.091 A 
HETATM    7  N3  UNL     1       2.366  -1.470   0.440  1.00  0.00    -0.330 N 
ATOM      8  H3  UNL     1       2.592  -2.450   0.612  1.00  0.00     0.168 HD
HETATM    9  C13 UNL     1       1.126  -0.956   0.200  1.00  0.00     0.135 A 
HETATM   10  N4  UNL     1      -0.045  -1.540   0.117  1.00  0.00    -0.326 N 
ATOM     11  H4  UNL     1      -0.112  -2.548   0.258  1.00  0.00     0.169 HD
HETATM   12  C14 UNL     1      -1.202  -0.810  -0.161  1.00  0.00     0.119 A 
ENDROOT
BRANCH  12  13
HETATM   13  N5  UNL     1      -2.228  -1.455  -0.233  1.00  0.00    -0.353 N 
HETATM   14  C15 UNL     1      -3.561  -1.643  -0.425  1.00  0.00     0.096 C 
ATOM     15  H5  UNL     1      -1.903  -2.401  -0.036  1.00  0.00     0.166 HD
BRANCH  14  16
HETATM   16  C16 UNL     1      -4.042  -3.098  -0.287  1.00  0.00     0.180 C 
BRANCH  16  17
HETATM   17  O1  UNL     1      -5.431  -3.024  -0.553  1.00  0.00    -0.388 OA
ATOM     18  H1  UNL     1      -5.728  -3.922  -0.468  1.00  0.00     0.210 HD
ENDBRANCH  16  17
BRANCH  16  19
HETATM   19  C17 UNL     1      -3.872  -3.611   1.130  1.00  0.00     0.201 C 
BRANCH  19  20
HETATM   20  O2  UNL     1      -2.538  -3.707   1.450  1.00  0.00    -0.398 OA
ATOM     21  H2  UNL     1      -2.432  -4.028   2.338  1.00  0.00     0.209 HD
ENDBRANCH  19  20
ENDBRANCH  16  19
ENDBRANCH  14  16
ENDBRANCH  12  13
BRANCH   1  22
HETATM   22  C4  UNL     1      -2.293   1.358  -0.683  1.00  0.00     0.190 C 
BRANCH  22  23
HETATM   23  N1  UNL     1      -2.246   2.532  -0.900  1.00  0.00    -0.455 NA
BRANCH  23  24
HETATM   24  C2  UNL     1      -1.893   3.785  -1.087  1.00  0.00     0.154 C 
HETATM   25  C1  UNL     1      -1.685   4.635   0.173  1.00  0.00     0.047 C 
HETATM   26  C3  UNL     1      -2.912   4.513  -1.998  1.00  0.00     0.047 C 
ENDBRANCH  23  24
ENDBRANCH  22  23
ENDBRANCH   1  22
BRANCH   6  27
HETATM   27  C9  UNL     1       4.706  -0.532   0.614  1.00  0.00     0.007 C 
HETATM   28  C10 UNL     1       5.401   0.452  -0.330  1.00  0.00     0.022 C 
HETATM   29  C11 UNL     1       5.128  -0.202   2.003  1.00  0.00     0.022 C 
HETATM   30  C12 UNL     1       5.159  -1.900   0.162  1.00  0.00     0.022 C 
ENDBRANCH   6  27
TORSDOF 9
