REMARK  9 active torsions:
REMARK  status: ('A' for Active; 'I' for Inactive)
REMARK    1  A    between atoms: C4_4  and  C5_5 
REMARK    2  A    between atoms: C5_5  and  N1_7 
REMARK    3  A    between atoms: N1_7  and  C6_9 
REMARK    4  A    between atoms: C6_9  and  C7_10 
REMARK    5  A    between atoms: C8_12  and  C9_13 
REMARK    6  A    between atoms: C8_12  and  C14_18 
REMARK    7  A    between atoms: C9_13  and  C10_14 
REMARK    8  A    between atoms: C15_21  and  O4_22 
REMARK    9  A    between atoms: C16_24  and  O5_25 
ROOT
HETATM    1  C7  UNL     1       0.447   0.115   0.301  1.00  0.00     0.172 C 
HETATM    2  O1  UNL     1      -0.620  -0.636  -0.087  1.00  0.00    -0.357 OA
HETATM    3  C8  UNL     1      -1.619  -0.648   0.828  1.00  0.00     0.178 C 
HETATM    4  C15 UNL     1      -0.956  -0.231   2.146  1.00  0.00     0.195 C 
HETATM    5  C16 UNL     1       0.145   0.654   1.688  1.00  0.00     0.181 C 
ENDROOT
BRANCH   1   6
HETATM    6  C6  UNL     1       0.760   1.251  -0.641  1.00  0.00     0.155 C 
BRANCH   6   7
HETATM    7  N1  UNL     1       1.882   2.048  -0.277  1.00  0.00    -0.379 N 
ATOM      8  H1  UNL     1       1.680   2.986   0.069  1.00  0.00     0.160 HD
BRANCH   7   9
HETATM    9  C5  UNL     1       3.255   1.678  -0.343  1.00  0.00     0.096 C 
HETATM   10  S1  UNL     1       4.327   2.779   0.200  1.00  0.00    -0.061 SA
BRANCH   9  11
HETATM   11  C4  UNL     1       3.670   0.383  -0.844  1.00  0.00     0.043 C 
HETATM   12  C2  UNL     1       4.906  -0.058  -0.907  1.00  0.00    -0.085 C 
HETATM   13  C1  UNL     1       6.121   0.657  -0.489  1.00  0.00     0.043 C 
HETATM   14  C3  UNL     1       5.075  -1.456  -1.477  1.00  0.00     0.043 C 
ENDBRANCH   9  11
ENDBRANCH   7   9
ENDBRANCH   6   7
ENDBRANCH   1   6
BRANCH   5  15
HETATM   15  O5  UNL     1       1.250   0.565   2.535  1.00  0.00    -0.390 OA
ATOM     16  H5  UNL     1       1.061   0.902   3.403  1.00  0.00     0.210 HD
ENDBRANCH   5  15
BRANCH   3  17
HETATM   17  C9  UNL     1      -2.760   0.258   0.606  1.00  0.00     0.061 C 
BRANCH  17  18
HETATM   18  C10 UNL     1      -3.571   0.130  -0.610  1.00  0.00    -0.048 C 
HETATM   19  C11 UNL     1      -2.796   0.319  -1.897  1.00  0.00     0.014 C 
HETATM   20  C12 UNL     1      -4.395  -1.109  -0.746  1.00  0.00     0.014 C 
HETATM   21  C13 UNL     1      -4.583   1.294  -0.608  1.00  0.00     0.014 C 
ENDBRANCH  17  18
ENDBRANCH   3  17
BRANCH   3  22
HETATM   22  C14 UNL     1      -2.141  -2.020   1.118  1.00  0.00     0.212 C 
HETATM   23  O2  UNL     1      -3.081  -2.079   1.967  1.00  0.00    -0.646 OA
HETATM   24  O3  UNL     1      -1.675  -3.168   0.537  1.00  0.00    -0.646 OA
ENDBRANCH   3  22
BRANCH   4  25
HETATM   25  O4  UNL     1      -0.407  -1.357   2.759  1.00  0.00    -0.389 OA
ATOM     26  H4  UNL     1       0.004  -1.099   3.576  1.00  0.00     0.210 HD
ENDBRANCH   4  25
TORSDOF 9
