REMARK  18 active torsions:
REMARK  status: ('A' for Active; 'I' for Inactive)
REMARK    1  A    between atoms: C2_2  and  C4_4 
REMARK    2  A    between atoms: C4_4  and  C5_5 
REMARK    3  A    between atoms: C5_5  and  C6_6 
REMARK    4  A    between atoms: C6_6  and  C7_7 
REMARK    5  A    between atoms: C7_7  and  C9_9 
REMARK    6  A    between atoms: C9_9  and  C11_11 
REMARK    7  A    between atoms: C11_11  and  O1_12 
REMARK    8  A    between atoms: O1_12  and  C12_13 
REMARK    9  A    between atoms: C13_15  and  C14_16 
REMARK   10  A    between atoms: C14_16  and  C15_17 
REMARK   11  A    between atoms: C15_17  and  O3_18 
REMARK   12  A    between atoms: C21_25  and  O4_26 
REMARK   13  A    between atoms: O4_26  and  C22_27 
REMARK   14  A    between atoms: C27_33  and  O6_35 
REMARK   15  A    between atoms: C29_37  and  O7_38 
REMARK   16  A    between atoms: C31_41  and  O8_42 
REMARK   17  A    between atoms: C32_44  and  O9_45 
REMARK   18  A    between atoms: C33_47  and  O10_48 
ROOT
HETATM    1  C12 UNL     1      -3.065  -0.381  -0.802  1.00  0.00     0.413 C 
HETATM    2  O2  UNL     1      -2.220  -1.453  -0.811  1.00  0.00    -0.334 OA
HETATM    3  C13 UNL     1      -1.371  -1.467   0.258  1.00  0.00     0.129 C 
HETATM    4  C16 UNL     1      -0.092  -0.713   0.089  1.00  0.00     0.042 C 
HETATM    5  C17 UNL     1      -0.110   0.337  -0.955  1.00  0.00     0.046 C 
HETATM    6  C18 UNL     1      -1.332   1.203  -0.973  1.00  0.00     0.133 C 
HETATM    7  C19 UNL     1      -1.291   1.868   0.357  1.00  0.00     0.035 C 
HETATM    8  C20 UNL     1       0.171   2.343   0.375  1.00  0.00     0.035 C 
HETATM    9  C21 UNL     1       0.932   1.384  -0.516  1.00  0.00     0.131 C 
HETATM   10  O11 UNL     1      -2.462   0.689  -1.431  1.00  0.00    -0.333 OA
ENDROOT
BRANCH   9  11
HETATM   11  O4  UNL     1       1.918   0.778   0.256  1.00  0.00    -0.353 OA
BRANCH  11  12
HETATM   12  C22 UNL     1       3.193   0.934  -0.287  1.00  0.00     0.291 C 
HETATM   13  O5  UNL     1       3.695  -0.353  -0.470  1.00  0.00    -0.353 OA
HETATM   14  C23 UNL     1       4.945  -0.339  -1.116  1.00  0.00     0.134 C 
HETATM   15  C24 UNL     1       4.782   0.409  -2.385  1.00  0.00     0.040 C 
HETATM   16  C25 UNL     1       6.040   0.208  -0.201  1.00  0.00     0.043 C 
HETATM   17  C26 UNL     1       6.944   1.109  -0.934  1.00  0.00     0.057 C 
HETATM   18  C31 UNL     1       6.754  -1.038   0.342  1.00  0.00     0.134 C 
HETATM   19  C32 UNL     1       5.330   0.814   0.983  1.00  0.00     0.165 C 
HETATM   20  C27 UNL     1       8.351   1.210  -0.525  1.00  0.00     0.081 C 
HETATM   21  C28 UNL     1       8.659   2.439   0.338  1.00  0.00     0.049 C 
HETATM   22  C29 UNL     1       8.928   0.028   0.186  1.00  0.00     0.154 C 
HETATM   23  C30 UNL     1       8.001  -0.706   1.083  1.00  0.00     0.067 C 
HETATM   24  C33 UNL     1       4.141   1.661   0.623  1.00  0.00     0.203 C 
BRANCH  20  25
HETATM   25  O6  UNL     1       9.163   1.379  -1.678  1.00  0.00    -0.388 OA
ATOM     26  H6  UNL     1      10.073   1.444  -1.413  1.00  0.00     0.210 HD
ENDBRANCH  20  25
BRANCH  22  27
HETATM   27  O7  UNL     1      10.049   0.461   0.908  1.00  0.00    -0.392 OA
ATOM     28  H7  UNL     1      10.416  -0.290   1.360  1.00  0.00     0.210 HD
ENDBRANCH  22  27
BRANCH  18  29
HETATM   29  O8  UNL     1       7.062  -1.917  -0.683  1.00  0.00    -0.395 OA
ATOM     30  H8  UNL     1       7.504  -2.688  -0.347  1.00  0.00     0.210 HD
ENDBRANCH  18  29
BRANCH  19  31
HETATM   31  O9  UNL     1       6.120   1.496   1.858  1.00  0.00    -0.392 OA
ATOM     32  H9  UNL     1       5.673   1.878   2.604  1.00  0.00     0.210 HD
ENDBRANCH  19  31
BRANCH  24  33
HETATM   33  O10 UNL     1       4.470   2.931   0.190  1.00  0.00    -0.388 OA
ATOM     34  H10 UNL     1       5.070   3.391   0.766  1.00  0.00     0.210 HD
ENDBRANCH  24  33
ENDBRANCH  11  12
ENDBRANCH   9  11
BRANCH   3  35
HETATM   35  C14 UNL     1      -1.078  -2.947   0.556  1.00  0.00     0.058 C 
BRANCH  35  36
HETATM   36  C15 UNL     1      -0.142  -3.009   1.739  1.00  0.00     0.166 C 
BRANCH  36  37
HETATM   37  O3  UNL     1      -0.785  -2.394   2.818  1.00  0.00    -0.401 OA
ATOM     38  H3  UNL     1      -0.196  -2.433   3.562  1.00  0.00     0.209 HD
ENDBRANCH  36  37
ENDBRANCH  35  36
ENDBRANCH   3  35
BRANCH   1  39
HETATM   39  O1  UNL     1      -3.673  -0.064   0.378  1.00  0.00    -0.339 OA
BRANCH  39  40
HETATM   40  C11 UNL     1      -5.087  -0.181   0.358  1.00  0.00     0.178 C 
BRANCH  40  41
HETATM   41  C9  UNL     1      -5.447  -1.602   0.174  1.00  0.00     0.009 C 
HETATM   42  C10 UNL     1      -4.938  -2.306   1.492  1.00  0.00     0.012 C 
BRANCH  41  43
HETATM   43  C7  UNL     1      -6.867  -2.006   0.101  1.00  0.00    -0.013 C 
HETATM   44  C8  UNL     1      -6.785  -3.583   0.090  1.00  0.00     0.010 C 
BRANCH  43  45
HETATM   45  C6  UNL     1      -7.739  -1.621  -1.004  1.00  0.00     0.005 C 
BRANCH  45  46
HETATM   46  C5  UNL     1      -8.007  -0.175  -1.175  1.00  0.00     0.005 C 
BRANCH  46  47
HETATM   47  C4  UNL     1      -8.641   0.478   0.033  1.00  0.00     0.033 C 
BRANCH  47  48
HETATM   48  C2  UNL     1      -8.847   1.923  -0.276  1.00  0.00    -0.093 C 
HETATM   49  C1  UNL     1     -10.083   2.398  -0.253  1.00  0.00     0.014 C 
HETATM   50  C3  UNL     1      -7.696   2.817  -0.602  1.00  0.00     0.042 C 
ENDBRANCH  47  48
ENDBRANCH  46  47
ENDBRANCH  45  46
ENDBRANCH  43  45
ENDBRANCH  41  43
ENDBRANCH  40  41
ENDBRANCH  39  40
ENDBRANCH   1  39
TORSDOF 18
