REMARK  19 active torsions:
REMARK  status: ('A' for Active; 'I' for Inactive)
REMARK    1  A    between atoms: C2_2  and  C4_4 
REMARK    2  A    between atoms: C4_4  and  O1_5 
REMARK    3  A    between atoms: C4_4  and  C5_7 
REMARK    4  A    between atoms: C6_8  and  C7_9 
REMARK    5  A    between atoms: C8_10  and  C9_11 
REMARK    6  A    between atoms: C10_12  and  C11_13 
REMARK    7  A    between atoms: C12_14  and  C13_15 
REMARK    8  A    between atoms: C12_14  and  C14_20 
REMARK    9  A    between atoms: C13_15  and  O2_16 
REMARK   10  A    between atoms: C13_15  and  O3_18 
REMARK   11  A    between atoms: C14_20  and  O4_21 
REMARK   12  A    between atoms: C14_20  and  C15_23 
REMARK   13  A    between atoms: C15_23  and  O5_25 
REMARK   14  A    between atoms: O5_25  and  C17_26 
REMARK   15  A    between atoms: C25_35  and  O7_36 
REMARK   16  A    between atoms: O7_36  and  C26_37 
REMARK   17  A    between atoms: C29_41  and  O9_42 
REMARK   18  A    between atoms: C30_44  and  O10_45 
REMARK   19  A    between atoms: C32_47  and  O11_48 
ROOT
HETATM    1  C17 UNL     1      -1.384  -0.512   0.479  1.00  0.00     0.154 C 
HETATM    2  C18 UNL     1      -1.478  -1.236   1.775  1.00  0.00     0.200 C 
HETATM    3  O6  UNL     1      -2.248  -2.358   1.817  1.00  0.00    -0.383 OA
HETATM    4  C19 UNL     1      -3.573  -2.356   1.694  1.00  0.00     0.128 C 
HETATM    5  C20 UNL     1      -4.263  -1.484   2.681  1.00  0.00     0.032 C 
HETATM    6  C21 UNL     1      -5.766  -1.512   2.629  1.00  0.00     0.002 C 
HETATM    7  C22 UNL     1      -6.265  -2.452   1.574  1.00  0.00     0.001 C 
HETATM    8  C23 UNL     1      -5.578  -2.407   0.269  1.00  0.00     0.010 C 
HETATM    9  C24 UNL     1      -4.108  -2.110   0.295  1.00  0.00     0.044 C 
HETATM   10  C25 UNL     1      -3.672  -0.825  -0.241  1.00  0.00     0.133 C 
HETATM   11  C33 UNL     1      -2.159  -1.087  -0.679  1.00  0.00     0.067 C 
ENDROOT
BRANCH   1  12
HETATM   12  O5  UNL     1      -0.146   0.064   0.193  1.00  0.00    -0.346 OA
BRANCH  12  13
HETATM   13  C15 UNL     1       0.343   1.090   1.009  1.00  0.00     0.070 C 
HETATM   14  C16 UNL     1      -0.466   1.679   1.828  1.00  0.00     0.049 C 
BRANCH  13  15
HETATM   15  C14 UNL     1       1.759   1.548   0.994  1.00  0.00     0.207 C 
BRANCH  15  16
HETATM   16  C12 UNL     1       2.795   0.574   1.242  1.00  0.00     0.009 C 
HETATM   17  C11 UNL     1       3.928   0.372   0.635  1.00  0.00     0.011 C 
BRANCH  17  18
HETATM   18  C10 UNL     1       4.297   1.030  -0.593  1.00  0.00     0.009 C 
HETATM   19  C9  UNL     1       5.459   0.932  -1.168  1.00  0.00     0.065 C 
BRANCH  19  20
HETATM   20  C8  UNL     1       6.565   0.119  -0.658  1.00  0.00    -0.074 C 
HETATM   21  C7  UNL     1       7.437  -0.491  -0.288  1.00  0.00    -0.074 C 
BRANCH  21  22
HETATM   22  C6  UNL     1       8.559  -1.281   0.193  1.00  0.00     0.063 C 
HETATM   23  C5  UNL     1       9.702  -0.843  -0.345  1.00  0.00     0.018 C 
BRANCH  23  24
HETATM   24  C4  UNL     1      11.045  -1.254  -0.199  1.00  0.00     0.169 C 
BRANCH  24  25
HETATM   25  C2  UNL     1      11.970  -0.560  -1.148  1.00  0.00    -0.061 C 
HETATM   26  C1  UNL     1      12.815  -1.217  -1.885  1.00  0.00     0.017 C 
HETATM   27  C3  UNL     1      11.981   0.951  -1.256  1.00  0.00     0.045 C 
ENDBRANCH  24  25
BRANCH  24  28
HETATM   28  O1  UNL     1      11.193  -2.664  -0.459  1.00  0.00    -0.387 OA
ATOM     29  H1  UNL     1      10.606  -3.105   0.144  1.00  0.00     0.210 HD
ENDBRANCH  24  28
ENDBRANCH  23  24
ENDBRANCH  21  22
ENDBRANCH  19  20
ENDBRANCH  17  18
BRANCH  16  30
HETATM   30  C13 UNL     1       2.599  -0.248   2.514  1.00  0.00     0.287 C 
BRANCH  30  31
HETATM   31  O2  UNL     1       1.907   0.478   3.496  1.00  0.00    -0.367 OA
ATOM     32  H2  UNL     1       1.785  -0.033   4.287  1.00  0.00     0.213 HD
ENDBRANCH  30  31
BRANCH  30  33
HETATM   33  O3  UNL     1       3.834  -0.631   3.016  1.00  0.00    -0.367 OA
ATOM     34  H3  UNL     1       3.712  -1.142   3.807  1.00  0.00     0.213 HD
ENDBRANCH  30  33
ENDBRANCH  16  30
ENDBRANCH  15  16
BRANCH  15  35
HETATM   35  O4  UNL     1       1.856   2.276  -0.191  1.00  0.00    -0.384 OA
ATOM     36  H4  UNL     1       1.174   2.917  -0.354  1.00  0.00     0.211 HD
ENDBRANCH  15  35
ENDBRANCH  13  15
ENDBRANCH  12  13
ENDBRANCH   1  12
BRANCH  10  37
HETATM   37  O7  UNL     1      -4.371  -0.355  -1.274  1.00  0.00    -0.353 OA
BRANCH  37  38
HETATM   38  C26 UNL     1      -4.172   0.971  -1.605  1.00  0.00     0.291 C 
HETATM   39  O8  UNL     1      -4.439   1.098  -2.924  1.00  0.00    -0.351 OA
HETATM   40  C27 UNL     1      -5.726   0.555  -3.177  1.00  0.00     0.152 C 
HETATM   41  C28 UNL     1      -5.823   0.347  -4.674  1.00  0.00     0.042 C 
HETATM   42  C29 UNL     1      -6.810   1.389  -2.588  1.00  0.00     0.178 C 
HETATM   43  C30 UNL     1      -6.507   1.873  -1.223  1.00  0.00     0.185 C 
HETATM   44  C32 UNL     1      -5.069   1.957  -0.879  1.00  0.00     0.204 C 
BRANCH  42  45
HETATM   45  O9  UNL     1      -7.972   0.562  -2.485  1.00  0.00    -0.390 OA
ATOM     46  H9  UNL     1      -8.664   1.094  -2.109  1.00  0.00     0.210 HD
ENDBRANCH  42  45
BRANCH  43  47
HETATM   47  O10 UNL     1      -7.085   3.135  -0.967  1.00  0.00    -0.385 OA
HETATM   48  C31 UNL     1      -7.829   3.122   0.180  1.00  0.00     0.202 C 
ENDBRANCH  43  47
BRANCH  44  49
HETATM   49  O11 UNL     1      -4.864   1.935   0.511  1.00  0.00    -0.388 OA
ATOM     50  H11 UNL     1      -5.425   2.552   0.965  1.00  0.00     0.210 HD
ENDBRANCH  44  49
ENDBRANCH  37  38
ENDBRANCH  10  37
TORSDOF 19
