REMARK  7 active torsions:
REMARK  status: ('A' for Active; 'I' for Inactive)
REMARK    1  A    between atoms: C2_2  and  N1_3 
REMARK    2  A    between atoms: C7_8  and  C8_9 
REMARK    3  A    between atoms: C8_9  and  N2_10 
REMARK    4  A    between atoms: C8_9  and  N4_14 
REMARK    5  A    between atoms: N2_10  and  N3_11 
REMARK    6  A    between atoms: C9_16  and  C10_17 
REMARK    7  A    between atoms: C10_17  and  C11_18 
ROOT
HETATM    1  N4  UNL     1      -0.020   0.913   0.798  1.00  0.00    -0.378 N 
ATOM      2  H4  UNL     1       0.348   1.858   0.911  1.00  0.00     0.160 HD
HETATM    3  C9  UNL     1      -1.267   0.753   0.651  1.00  0.00     0.062 C 
ENDROOT
BRANCH   1   4
HETATM    4  C8  UNL     1       0.908  -0.214   0.811  1.00  0.00     0.246 C 
BRANCH   4   5
HETATM    5  C7  UNL     1       2.277   0.255   1.028  1.00  0.00     0.051 A 
HETATM    6  N1  UNL     1       3.188   0.199   0.081  1.00  0.00    -0.358 N 
HETATM    7  C3  UNL     1       4.450   0.664   0.357  1.00  0.00     0.091 A 
HETATM    8  C4  UNL     1       4.783   1.181   1.587  1.00  0.00     0.017 A 
HETATM    9  C5  UNL     1       3.833   1.246   2.594  1.00  0.00     0.003 A 
HETATM   10  C6  UNL     1       2.577   0.775   2.295  1.00  0.00     0.029 A 
BRANCH   6  11
HETATM   11  C2  UNL     1       2.926  -0.332  -1.233  1.00  0.00     0.124 C 
HETATM   12  C1  UNL     1       2.435   0.844  -2.087  1.00  0.00     0.027 C 
ENDBRANCH   6  11
ENDBRANCH   4   5
BRANCH   4  13
HETATM   13  N2  UNL     1       0.432  -1.061   1.914  1.00  0.00    -0.116 NA
BRANCH  13  14
HETATM   14  N3  UNL     1       1.282  -2.154   2.034  1.00  0.00    -0.346 N 
ATOM     15  H32 UNL     1       2.098  -2.326   1.446  1.00  0.00     0.172 HD
ATOM     16  H31 UNL     1       0.952  -2.742   2.799  1.00  0.00     0.172 HD
ENDBRANCH  13  14
ENDBRANCH   4  13
ENDBRANCH   1   4
BRANCH   3  17
HETATM   17  C10 UNL     1      -1.947  -0.558   0.476  1.00  0.00     0.092 C 
BRANCH  17  18
HETATM   18  C11 UNL     1      -3.239  -0.424  -0.230  1.00  0.00     0.056 A 
HETATM   19  C12 UNL     1      -3.268  -0.226  -1.587  1.00  0.00     0.132 A 
HETATM   20  N5  UNL     1      -2.042  -0.154  -2.294  1.00  0.00    -0.082 NA
HETATM   21  N6  UNL     1      -4.456  -0.103  -2.225  1.00  0.00    -0.296 N 
HETATM   22  C13 UNL     1      -5.620  -0.172  -1.547  1.00  0.00     0.328 A 
ATOM     23  H6  UNL     1      -4.471   0.044  -3.234  1.00  0.00     0.171 HD
HETATM   24  O1  UNL     1      -6.743  -0.062  -2.112  1.00  0.00    -0.247 OA
HETATM   25  N7  UNL     1      -5.597  -0.366  -0.221  1.00  0.00    -0.275 N 
HETATM   26  C14 UNL     1      -4.433  -0.492   0.445  1.00  0.00     0.259 A 
ATOM     27  H7  UNL     1      -6.476  -0.419   0.293  1.00  0.00     0.173 HD
HETATM   28  O2  UNL     1      -4.490  -0.671   1.687  1.00  0.00    -0.267 OA
ENDBRANCH  17  18
ENDBRANCH   3  17
TORSDOF 7
