REMARK  5 active torsions:
REMARK  status: ('A' for Active; 'I' for Inactive)
REMARK    1  A    between atoms: C3_4  and  C4_5 
REMARK    2  A    between atoms: C4_5  and  C5_6 
REMARK    3  A    between atoms: C5_6  and  O1_7 
REMARK    4  A    between atoms: C5_6  and  C6_9 
REMARK    5  A    between atoms: C6_9  and  C7_10 
ROOT
HETATM    1  C4  UNL     1      -0.318  -0.129  -1.260  1.00  0.00     0.094 C 
ENDROOT
BRANCH   1   2
HETATM    2  C3  UNL     1      -1.668   0.214  -0.822  1.00  0.00     0.071 A 
HETATM    3  C2  UNL     1      -2.566  -0.758  -0.575  1.00  0.00     0.137 A 
HETATM    4  N1  UNL     1      -3.888  -0.506  -0.150  1.00  0.00    -0.195 N 
HETATM    5  C1  UNL     1      -4.797  -1.605   0.097  1.00  0.00     0.175 C 
HETATM    6  C11 UNL     1      -4.349   0.840   0.042  1.00  0.00     0.693 A 
HETATM    7  N6  UNL     1      -3.413   1.861  -0.218  1.00  0.00    -0.111 N 
HETATM    8  N7  UNL     1      -5.565   1.038   0.433  1.00  0.00    -0.233 N 
HETATM    9  N4  UNL     1      -2.092   1.534  -0.645  1.00  0.00    -0.192 N 
ATOM     10  H6  UNL     1      -3.681   2.838  -0.100  1.00  0.00     0.207 HD
HETATM   11  N5  UNL     1      -1.349   2.516  -0.893  1.00  0.00    -0.324 N 
ATOM     12  H52 UNL     1      -0.404   2.282  -1.198  1.00  0.00     0.178 HD
ATOM     13  H51 UNL     1      -1.658   3.479  -0.764  1.00  0.00     0.178 HD
ATOM     14  H72 UNL     1      -6.242   0.299   0.621  1.00  0.00     0.174 HD
ATOM     15  H71 UNL     1      -5.893   1.994   0.569  1.00  0.00     0.174 HD
ENDBRANCH   1   2
BRANCH   1  16
HETATM   16  C5  UNL     1       0.780   0.133  -0.265  1.00  0.00     0.129 C 
BRANCH  16  17
HETATM   17  O1  UNL     1       0.455  -0.662   0.866  1.00  0.00    -0.395 OA
ATOM     18  H1  UNL     1       1.148  -0.497   1.494  1.00  0.00     0.210 HD
ENDBRANCH  16  17
BRANCH  16  19
HETATM   19  C6  UNL     1       2.055  -0.478  -0.863  1.00  0.00     0.089 C 
BRANCH  19  20
HETATM   20  C7  UNL     1       3.209  -0.276   0.042  1.00  0.00     0.021 A 
HETATM   21  C8  UNL     1       3.492  -1.226   0.999  1.00  0.00     0.099 A 
HETATM   22  C9  UNL     1       4.569  -1.077   1.870  1.00  0.00     0.251 A 
HETATM   23  O2  UNL     1       4.851  -1.925   2.751  1.00  0.00    -0.268 OA
HETATM   24  N2  UNL     1       5.346   0.015   1.776  1.00  0.00    -0.275 N 
HETATM   25  C10 UNL     1       5.066   0.936   0.843  1.00  0.00     0.327 A 
ATOM     26  H2  UNL     1       6.138   0.142   2.406  1.00  0.00     0.173 HD
HETATM   27  O3  UNL     1       5.825   1.942   0.795  1.00  0.00    -0.247 OA
HETATM   28  N3  UNL     1       4.023   0.793  -0.003  1.00  0.00    -0.312 N 
ATOM     29  H3  UNL     1       3.847   1.519  -0.698  1.00  0.00     0.170 HD
ENDBRANCH  19  20
ENDBRANCH  16  19
ENDBRANCH   1  16
TORSDOF 5
