REMARK  8 active torsions:
REMARK  status: ('A' for Active; 'I' for Inactive)
REMARK    1  A    between atoms: C2_2  and  N1_3 
REMARK    2  A    between atoms: N1_3  and  S1_5 
REMARK    3  A    between atoms: S1_5  and  C3_8 
REMARK    4  A    between atoms: C5_12  and  N3_13 
REMARK    5  A    between atoms: N3_13  and  C6_15 
REMARK    6  A    between atoms: C6_15  and  C7_16 
REMARK    7  A    between atoms: C7_16  and  N4_17 
REMARK    8  A    between atoms: C8_23  and  N6_24 
ROOT
HETATM    1  C3  UNL     1       0.789   1.303  -0.158  1.00  0.00     0.139 A 
HETATM    2  C4  UNL     1      -0.111   1.517   0.866  1.00  0.00     0.135 A 
HETATM    3  N2  UNL     1      -1.268   0.851   0.940  1.00  0.00    -0.200 N 
ATOM      4  H2  UNL     1      -1.914   1.029   1.709  1.00  0.00     0.183 HD
HETATM    5  C5  UNL     1      -1.574  -0.055  -0.006  1.00  0.00     0.679 A 
HETATM    6  N5  UNL     1      -0.715  -0.297  -1.034  1.00  0.00    -0.175 N 
ATOM      7  H5  UNL     1      -0.956  -0.986  -1.747  1.00  0.00     0.186 HD
HETATM    8  C8  UNL     1       0.443   0.365  -1.112  1.00  0.00     0.141 A 
ENDROOT
BRANCH   5   9
HETATM    9  N3  UNL     1      -2.681  -0.720   0.027  1.00  0.00    -0.224 N 
ATOM     10  H3  UNL     1      -2.893  -1.403  -0.701  1.00  0.00     0.177 HD
BRANCH   9  11
HETATM   11  C6  UNL     1      -3.620  -0.488   1.107  1.00  0.00     0.165 C 
BRANCH  11  12
HETATM   12  C7  UNL     1      -4.723  -1.524   1.048  1.00  0.00     0.249 C 
BRANCH  12  13
HETATM   13  N4  UNL     1      -5.451  -1.482  -0.184  1.00  0.00    -0.078 N 
ATOM     14  H43 UNL     1      -5.817  -0.547  -0.362  1.00  0.00     0.274 HD
ATOM     15  H42 UNL     1      -4.824  -1.568  -0.984  1.00  0.00     0.274 HD
ATOM     16  H41 UNL     1      -6.194  -2.180  -0.224  1.00  0.00     0.274 HD
ENDBRANCH  12  13
ENDBRANCH  11  12
ENDBRANCH   9  11
ENDBRANCH   5   9
BRANCH   8  17
HETATM   17  N6  UNL     1       1.270   0.153  -2.074  1.00  0.00    -0.379 N 
HETATM   18  C9  UNL     1       1.034  -0.796  -3.134  1.00  0.00     0.147 C 
ATOM     19  H6  UNL     1       2.140   0.685  -2.088  1.00  0.00     0.160 HD
ENDBRANCH   8  17
BRANCH   1  20
HETATM   20  S1  UNL     1       2.317   2.184  -0.253  1.00  0.00     0.263 S 
HETATM   21  O1  UNL     1       2.334   3.163   0.867  1.00  0.00    -0.200 OA
HETATM   22  O2  UNL     1       2.357   2.907  -1.560  1.00  0.00    -0.200 OA
BRANCH  20  23
HETATM   23  N1  UNL     1       3.590   1.062  -0.204  1.00  0.00    -0.316 N 
ATOM     24  H1  UNL     1       4.261   0.945  -0.963  1.00  0.00     0.172 HD
BRANCH  23  25
HETATM   25  C2  UNL     1       3.631   0.289   1.017  1.00  0.00     0.128 C 
HETATM   26  C1  UNL     1       4.751  -0.695   1.056  1.00  0.00     0.027 C 
ENDBRANCH  23  25
ENDBRANCH  20  23
ENDBRANCH   1  20
TORSDOF 8
