REMARK  6 active torsions:
REMARK  status: ('A' for Active; 'I' for Inactive)
REMARK    1  A    between atoms: N1_3  and  C4_5 
REMARK    2  A    between atoms: C4_5  and  C5_6 
REMARK    3  A    between atoms: C5_6  and  C6_7 
REMARK    4  A    between atoms: C6_7  and  C7_8 
REMARK    5  A    between atoms: C7_8  and  N2_9 
REMARK    6  A    between atoms: N2_9  and  C8_11 
ROOT
HETATM    1  C1  UNL     1       5.495   1.534   1.815  1.00  0.00     0.037 C 
HETATM    2  C2  UNL     1       5.000   0.626   1.207  1.00  0.00    -0.004 C 
HETATM    3  N1  UNL     1       4.453  -0.441   0.515  1.00  0.00    -0.347 N 
HETATM    4  C3  UNL     1       5.152  -1.740   0.492  1.00  0.00     0.160 C 
ENDROOT
BRANCH   3   5
HETATM    5  C4  UNL     1       3.218  -0.402  -0.234  1.00  0.00     0.132 C 
BRANCH   5   6
HETATM    6  C5  UNL     1       2.409   0.817   0.013  1.00  0.00     0.025 C 
BRANCH   6   7
HETATM    7  C6  UNL     1       1.087   0.810  -0.789  1.00  0.00     0.046 C 
BRANCH   7   8
HETATM    8  C7  UNL     1       0.336  -0.427  -0.453  1.00  0.00     0.056 C 
BRANCH   8   9
HETATM    9  N2  UNL     1      -0.900  -0.704  -0.985  1.00  0.00    -0.392 N 
ATOM     10  H2  UNL     1      -0.926  -1.418  -1.713  1.00  0.00     0.159 HD
BRANCH   9  11
HETATM   11  C8  UNL     1      -2.123  -0.124  -0.648  1.00  0.00     0.041 C 
HETATM   12  C9  UNL     1      -2.702   0.670  -1.776  1.00  0.00     0.040 C 
HETATM   13  C10 UNL     1      -3.082  -1.296  -0.333  1.00  0.00     0.034 C 
HETATM   14  C11 UNL     1      -3.896  -1.069   0.887  1.00  0.00     0.022 C 
HETATM   15  C12 UNL     1      -4.512   0.319   0.920  1.00  0.00     0.114 C 
HETATM   16  N3  UNL     1      -3.472   1.290   0.798  1.00  0.00    -0.419 N 
HETATM   17  C13 UNL     1      -2.155   0.778   0.565  1.00  0.00     0.144 C 
ATOM     18  H3  UNL     1      -3.657   2.290   0.873  1.00  0.00     0.153 HD
ENDBRANCH   9  11
ENDBRANCH   8   9
ENDBRANCH   7   8
ENDBRANCH   6   7
ENDBRANCH   5   6
ENDBRANCH   3   5
TORSDOF 6
