REMARK  8 active torsions:
REMARK  status: ('A' for Active; 'I' for Inactive)
REMARK    1  A    between atoms: S1_2  and  C2_3 
REMARK    2  A    between atoms: C2_3  and  C3_4 
REMARK    3  A    between atoms: C3_4  and  N1_5 
REMARK    4  A    between atoms: N1_5  and  C4_7 
REMARK    5  A    between atoms: C4_7  and  C5_8 
REMARK    6  A    between atoms: C5_8  and  C6_9 
REMARK    7  A    between atoms: C11_17  and  C12_18 
REMARK    8  A    between atoms: C12_18  and  O1_19 
ROOT
HETATM    1  C6  UNL     1      -1.022   0.437   0.019  1.00  0.00     0.125 C 
HETATM    2  C7  UNL     1      -1.843   0.654   1.240  1.00  0.00     0.065 C 
HETATM    3  C8  UNL     1      -2.760  -0.446   1.633  1.00  0.00     0.191 C 
HETATM    4  C9  UNL     1      -4.060  -0.180   0.857  1.00  0.00     0.068 C 
HETATM    5  C10 UNL     1      -3.482  -1.158  -0.095  1.00  0.00     0.219 C 
HETATM    6  N2  UNL     1      -2.668  -1.679   0.966  1.00  0.00    -0.064 N 
ATOM      7  H21 UNL     1      -2.937  -2.540   1.442  1.00  0.00     0.278 HD
ATOM      8  H22 UNL     1      -1.754  -2.082   0.759  1.00  0.00     0.278 HD
HETATM    9  C11 UNL     1      -2.716  -0.604  -1.237  1.00  0.00     0.176 C 
HETATM   10  O2  UNL     1      -1.433  -0.260  -1.013  1.00  0.00    -0.376 OA
ENDROOT
BRANCH   1  11
HETATM   11  C5  UNL     1       0.375   0.008   0.435  1.00  0.00     0.051 C 
BRANCH  11  12
HETATM   12  C4  UNL     1       1.291  -0.283  -0.747  1.00  0.00     0.116 C 
BRANCH  12  13
HETATM   13  N1  UNL     1       2.554  -0.668  -0.168  1.00  0.00    -0.420 N 
ATOM     14  H1  UNL     1       2.879  -1.635  -0.174  1.00  0.00     0.153 HD
BRANCH  13  15
HETATM   15  C3  UNL     1       3.317   0.379   0.411  1.00  0.00     0.124 C 
BRANCH  15  16
HETATM   16  C2  UNL     1       4.426  -0.290   1.244  1.00  0.00     0.092 C 
BRANCH  16  17
HETATM   17  S1  UNL     1       5.427  -1.361   0.203  1.00  0.00    -0.172 SA
HETATM   18  C1  UNL     1       6.361  -0.310  -0.968  1.00  0.00     0.089 C 
ENDBRANCH  16  17
ENDBRANCH  15  16
ENDBRANCH  13  15
ENDBRANCH  12  13
ENDBRANCH  11  12
ENDBRANCH   1  11
BRANCH   9  19
HETATM   19  C12 UNL     1      -3.452   0.588  -1.804  1.00  0.00     0.198 C 
BRANCH  19  20
HETATM   20  O1  UNL     1      -4.761   0.370  -2.111  1.00  0.00    -0.398 OA
ATOM     21  H1  UNL     1      -5.224   1.119  -2.467  1.00  0.00     0.209 HD
ENDBRANCH  19  20
ENDBRANCH   9  19
TORSDOF 8
