REMARK  9 active torsions:
REMARK  status: ('A' for Active; 'I' for Inactive)
REMARK    1  A    between atoms: C2_2  and  C3_3 
REMARK    2  A    between atoms: C3_3  and  C4_4 
REMARK    3  A    between atoms: C4_4  and  C5_5 
REMARK    4  A    between atoms: C5_5  and  N1_6 
REMARK    5  A    between atoms: N2_9  and  C8_10 
REMARK    6  A    between atoms: C8_10  and  C9_11 
REMARK    7  A    between atoms: C9_11  and  C10_12 
REMARK    8  A    between atoms: C12_14  and  N4_17 
REMARK    9  A    between atoms: N4_17  and  N5_19 
ROOT
HETATM    1  N1  UNL     1       0.913  -1.100  -0.622  1.00  0.00    -0.387 N 
HETATM    2  C6  UNL     1       0.499   0.216  -0.636  1.00  0.00     0.142 C 
HETATM    3  C7  UNL     1      -0.946   0.260  -1.169  1.00  0.00     0.145 C 
HETATM    4  N2  UNL     1      -1.834  -0.470  -0.365  1.00  0.00    -0.352 N 
HETATM    5  C12 UNL     1      -1.310  -1.604   0.291  1.00  0.00     0.226 C 
HETATM    6  C13 UNL     1      -0.849  -1.147   1.643  1.00  0.00     0.117 C 
HETATM    7  N3  UNL     1      -0.500  -0.808   2.715  1.00  0.00    -0.192 NA
HETATM    8  C14 UNL     1      -0.049  -2.123  -0.416  1.00  0.00     0.193 C 
ENDROOT
BRANCH   5   9
HETATM    9  N4  UNL     1      -2.089  -2.741   0.524  1.00  0.00    -0.300 N 
ATOM     10  H4  UNL     1      -1.899  -3.583  -0.020  1.00  0.00     0.183 HD
BRANCH   9  11
HETATM   11  N5  UNL     1      -3.074  -2.773   1.431  1.00  0.00    -0.346 N 
ATOM     12  H52 UNL     1      -3.250  -1.923   1.966  1.00  0.00     0.176 HD
ATOM     13  H51 UNL     1      -3.642  -3.603   1.601  1.00  0.00     0.176 HD
ENDBRANCH   9  11
ENDBRANCH   5   9
BRANCH   4  14
HETATM   14  C8  UNL     1      -3.174  -0.129  -0.260  1.00  0.00     0.062 C 
BRANCH  14  15
HETATM   15  C9  UNL     1      -3.589   1.068   0.509  1.00  0.00     0.044 C 
BRANCH  15  16
HETATM   16  C10 UNL     1      -3.194   2.420   0.085  1.00  0.00     0.001 C 
HETATM   17  C11 UNL     1      -3.709   2.839  -1.280  1.00  0.00     0.005 C 
ENDBRANCH  15  16
ENDBRANCH  14  15
ENDBRANCH   4  14
BRANCH   1  18
HETATM   18  C5  UNL     1       2.163  -1.494  -1.084  1.00  0.00     0.058 C 
BRANCH  18  19
HETATM   19  C4  UNL     1       3.389  -1.133  -0.359  1.00  0.00     0.044 C 
BRANCH  19  20
HETATM   20  C3  UNL     1       3.625   0.350  -0.212  1.00  0.00     0.005 C 
BRANCH  20  21
HETATM   21  C2  UNL     1       4.931   0.562   0.546  1.00  0.00    -0.004 C 
HETATM   22  C1  UNL     1       5.167   2.047   0.687  1.00  0.00     0.005 C 
ENDBRANCH  20  21
ENDBRANCH  19  20
ENDBRANCH  18  19
ENDBRANCH   1  18
TORSDOF 9
