REMARK  6 active torsions:
REMARK  status: ('A' for Active; 'I' for Inactive)
REMARK    1  A    between atoms: N1_2  and  C2_4 
REMARK    2  A    between atoms: C4_11  and  N4_12 
REMARK    3  A    between atoms: N4_12  and  C5_14 
REMARK    4  A    between atoms: N7_17  and  C6_18 
REMARK    5  A    between atoms: C6_18  and  O1_19 
REMARK    6  A    between atoms: N8_22  and  N9_24 
REMARK       I    between atoms: C8_26  and  N11_28 
ROOT
HETATM    1  N9  UNL     1      -2.980   0.992   0.981  1.00  0.00    -0.272 N 
ATOM      2  H9  UNL     1      -3.234   0.996   1.969  1.00  0.00     0.189 HD
HETATM    3  C8  UNL     1      -3.822   1.398   0.094  1.00  0.00     0.216 C 
HETATM    4  N10 UNL     1      -3.555   1.427  -1.298  1.00  0.00    -0.061 NA
HETATM    5  N11 UNL     1      -5.097   1.844   0.541  1.00  0.00    -0.266 N 
ATOM      6  H11 UNL     1      -5.845   1.156   0.622  1.00  0.00     0.180 HD
HETATM    7  C9  UNL     1      -5.382   3.162   0.874  1.00  0.00     0.184 C 
HETATM    8  N12 UNL     1      -5.632   4.261   1.156  1.00  0.00    -0.172 NA
ENDROOT
BRANCH   1   9
HETATM    9  N8  UNL     1      -1.743   0.555   0.590  1.00  0.00    -0.283 N 
HETATM   10  C7  UNL     1      -1.340  -0.623   0.354  1.00  0.00     0.154 C 
HETATM   11  C5  UNL     1      -0.010  -1.056  -0.063  1.00  0.00     0.281 C 
HETATM   12  N7  UNL     1      -2.114  -1.808   0.443  1.00  0.00    -0.239 N 
HETATM   13  N5  UNL     1      -0.102  -2.520   0.074  1.00  0.00    -0.092 NA
HETATM   14  N6  UNL     1      -1.425  -2.836  -0.275  1.00  0.00    -0.023 NA
ATOM     15  H8  UNL     1      -1.042   1.286   0.471  1.00  0.00     0.188 HD
BRANCH  11  16
HETATM   16  N4  UNL     1       1.053  -0.621   0.789  1.00  0.00    -0.199 N 
ATOM     17  H4  UNL     1       0.953  -0.621   1.804  1.00  0.00     0.180 HD
BRANCH  16  18
HETATM   18  C4  UNL     1       2.155  -0.225   0.216  1.00  0.00     0.696 A 
HETATM   19  N3  UNL     1       2.317  -0.214  -1.115  1.00  0.00    -0.165 N 
HETATM   20  C3  UNL     1       3.447   0.192  -1.724  1.00  0.00     0.208 A 
ATOM     21  H3  UNL     1       1.542  -0.530  -1.698  1.00  0.00     0.186 HD
HETATM   22  N2  UNL     1       4.470   0.608  -0.962  1.00  0.00    -0.165 N 
HETATM   23 CL1  UNL     1       3.604   0.185  -3.478  1.00  0.00    -0.044 Cl
HETATM   24  C2  UNL     1       4.362   0.618   0.377  1.00  0.00     0.694 A 
ATOM     25  H2  UNL     1       5.336   0.919  -1.403  1.00  0.00     0.186 HD
HETATM   26  N13 UNL     1       3.202   0.200   0.956  1.00  0.00    -0.022 N 
ATOM     27  H13 UNL     1       3.122   0.208   1.973  1.00  0.00     0.203 HD
BRANCH  24  28
HETATM   28  N1  UNL     1       5.359   1.022   1.073  1.00  0.00    -0.230 N 
HETATM   29  C1  UNL     1       6.574   1.459   0.442  1.00  0.00     0.165 C 
ATOM     30  H1  UNL     1       5.289   1.034   2.091  1.00  0.00     0.177 HD
ENDBRANCH  24  28
ENDBRANCH  16  18
ENDBRANCH  11  16
BRANCH  12  31
HETATM   31  C6  UNL     1      -3.363  -2.087   1.088  1.00  0.00     0.312 C 
BRANCH  31  32
HETATM   32  O1  UNL     1      -4.328  -2.497   0.141  1.00  0.00    -0.381 OA
ATOM     33  H1  UNL     1      -5.156  -2.682   0.569  1.00  0.00     0.211 HD
ENDBRANCH  31  32
ENDBRANCH  12  31
ENDBRANCH   1   9
TORSDOF 6
