REMARK  4 active torsions:
REMARK  status: ('A' for Active; 'I' for Inactive)
REMARK    1  A    between atoms: O1_2  and  C2_3 
REMARK    2  A    between atoms: C2_3  and  C3_5 
REMARK    3  A    between atoms: C8_12  and  O3_13 
REMARK    4  A    between atoms: C9_15  and  C10_16 
ROOT
HETATM    1  C3  UNL     1       1.525   0.045  -0.012  1.00  0.00     0.049 C 
HETATM    2  C4  UNL     1       1.842  -1.099   0.532  1.00  0.00     0.018 C 
HETATM    3  C5  UNL     1       3.236  -1.596   0.433  1.00  0.00     0.069 C 
HETATM    4  N1  UNL     1       0.910  -1.889   1.276  1.00  0.00    -0.364 N 
ATOM      5  H1  UNL     1       1.223  -2.776   1.671  1.00  0.00     0.165 HD
HETATM    6  C6  UNL     1      -0.295  -1.525   1.463  1.00  0.00     0.021 C 
HETATM    7  C7  UNL     1      -1.185  -2.419   2.243  1.00  0.00     0.066 C 
HETATM    8  C8  UNL     1      -0.778  -0.227   0.958  1.00  0.00     0.139 C 
HETATM    9  C9  UNL     1      -2.066  -0.332   0.178  1.00  0.00     0.231 C 
HETATM   10  O5  UNL     1      -1.893   0.425  -0.972  1.00  0.00    -0.369 OA
HETATM   11  C12 UNL     1      -0.565   0.383  -1.297  1.00  0.00     0.130 C 
HETATM   12  C13 UNL     1      -0.265  -0.912  -1.999  1.00  0.00     0.040 C 
HETATM   13  C14 UNL     1       0.116   0.497   0.045  1.00  0.00     0.099 C 
ENDROOT
BRANCH   1  14
HETATM   14  C2  UNL     1       2.476   0.880  -0.718  1.00  0.00     0.291 C 
HETATM   15  O2  UNL     1       3.689   0.629  -0.897  1.00  0.00    -0.260 OA
BRANCH  14  16
HETATM   16  O1  UNL     1       2.037   2.088  -1.266  1.00  0.00    -0.323 OA
HETATM   17  C1  UNL     1       2.901   2.957  -1.968  1.00  0.00     0.213 C 
ENDBRANCH  14  16
ENDBRANCH   1  14
BRANCH   8  18
HETATM   18  O3  UNL     1      -0.947   0.567   2.109  1.00  0.00    -0.380 OA
ATOM     19  H3  UNL     1      -1.258   1.403   1.784  1.00  0.00     0.211 HD
ENDBRANCH   8  18
BRANCH   9  20
HETATM   20  C10 UNL     1      -3.227   0.204   0.915  1.00  0.00     0.155 C 
HETATM   21  C11 UNL     1      -3.970   1.361   0.374  1.00  0.00     0.094 C 
HETATM   22  O4  UNL     1      -3.599  -0.278   1.965  1.00  0.00    -0.295 OA
ENDBRANCH   9  20
TORSDOF 4
