REMARK  6 active torsions:
REMARK  status: ('A' for Active; 'I' for Inactive)
REMARK    1  A    between atoms: C5_5  and  C6_6 
REMARK    2  A    between atoms: C6_6  and  C7_9 
REMARK    3  A    between atoms: C7_9  and  O1_10 
REMARK    4  A    between atoms: C7_9  and  N1_12 
REMARK       I    between atoms: N1_12  and  C9_14 
REMARK    5  A    between atoms: C9_14  and  O3_16 
REMARK    6  A    between atoms: O3_16  and  C10_17 
ROOT
HETATM    1  C7  UNL     1       0.730   0.539  -0.392  1.00  0.00     0.185 C 
ENDROOT
BRANCH   1   2
HETATM    2  C6  UNL     1       1.289  -0.565   0.385  1.00  0.00     0.281 C 
HETATM    3  F1  UNL     1       0.843  -1.819   0.045  1.00  0.00    -0.209 F 
HETATM    4 CL1  UNL     1       0.954  -0.270   2.108  1.00  0.00    -0.068 Cl
BRANCH   2   5
HETATM    5  C5  UNL     1       2.794  -0.629   0.206  1.00  0.00     0.046 C 
HETATM    6  C4  UNL     1       3.540  -0.824  -1.049  1.00  0.00     0.059 C 
HETATM    7  C3  UNL     1       4.889  -0.222  -0.735  1.00  0.00     0.030 C 
HETATM    8  C2  UNL     1       4.973  -0.607   0.753  1.00  0.00     0.077 C 
HETATM    9  C1  UNL     1       5.823   0.361   1.509  1.00  0.00     0.032 C 
HETATM   10  N2  UNL     1       3.602  -0.514   1.172  1.00  0.00    -0.388 N 
ATOM     11  H2  UNL     1       3.313  -0.371   2.140  1.00  0.00     0.159 HD
ENDBRANCH   2   5
ENDBRANCH   1   2
BRANCH   1  12
HETATM   12  O1  UNL     1       1.531   1.339  -1.035  1.00  0.00    -0.345 OA
ATOM     13  H1  UNL     1       1.168   2.057  -1.540  1.00  0.00     0.219 HD
ENDBRANCH   1  12
BRANCH   1  14
HETATM   14  N1  UNL     1      -0.627   0.826  -0.511  1.00  0.00    -0.278 N 
HETATM   15  C8  UNL     1      -1.000   2.011  -1.344  1.00  0.00     0.163 C 
HETATM   16  C9  UNL     1      -1.701   0.138   0.052  1.00  0.00     0.369 C 
HETATM   17  O2  UNL     1      -1.651  -0.876   0.777  1.00  0.00    -0.238 OA
BRANCH  16  18
HETATM   18  O3  UNL     1      -3.017   0.581  -0.184  1.00  0.00    -0.293 OA
BRANCH  18  19
HETATM   19  C10 UNL     1      -4.136  -0.094   0.373  1.00  0.00     0.061 C 
HETATM   20  C11 UNL     1      -5.366   0.663  -0.093  1.00  0.00     0.046 C 
HETATM   21  C12 UNL     1      -4.122  -0.079   1.872  1.00  0.00     0.046 C 
HETATM   22  C13 UNL     1      -4.253  -1.505  -0.154  1.00  0.00     0.046 C 
ENDBRANCH  18  19
ENDBRANCH  16  18
ENDBRANCH   1  14
TORSDOF 6
