REMARK  7 active torsions:
REMARK  status: ('A' for Active; 'I' for Inactive)
REMARK    1  A    between atoms: N1_1  and  C1_4 
REMARK    2  A    between atoms: N4_10  and  C4_11 
REMARK    3  A    between atoms: C5_14  and  N6_15 
REMARK    4  A    between atoms: N7_18  and  N8_19 
REMARK    5  A    between atoms: N8_19  and  N9_21 
REMARK    6  A    between atoms: N9_21  and  N10_23 
REMARK    7  A    between atoms: C6_26  and  O1_27 
ROOT
HETATM    1  C4  UNL     1      -0.400   0.003  -0.379  1.00  0.00     0.172 A 
HETATM    2  N5  UNL     1       0.467  -0.473  -1.292  1.00  0.00    -0.172 N 
ATOM      3  H5  UNL     1       0.102  -1.049  -2.051  1.00  0.00     0.186 HD
HETATM    4  C5  UNL     1       1.793  -0.228  -1.256  1.00  0.00     0.702 A 
HETATM    5  N7  UNL     1       2.259   0.530  -0.255  1.00  0.00    -0.046 N 
HETATM    6  C6  UNL     1       1.418   1.039   0.698  1.00  0.00     0.209 A 
HETATM    7  C7  UNL     1       0.065   0.794   0.670  1.00  0.00     0.145 A 
HETATM    8  N11 UNL     1      -0.835   1.308   1.646  1.00  0.00    -0.094 NA
ENDROOT
BRANCH   1   9
HETATM    9  N4  UNL     1      -1.798  -0.266  -0.415  1.00  0.00    -0.138 N 
HETATM   10  C1  UNL     1      -2.411  -1.375   0.095  1.00  0.00     0.685 A 
HETATM   11  N2  UNL     1      -3.729  -1.289  -0.127  1.00  0.00    -0.177 N 
HETATM   12  C2  UNL     1      -4.001  -0.137  -0.777  1.00  0.00     0.148 A 
ATOM     13  H2  UNL     1      -4.420  -1.986   0.152  1.00  0.00     0.185 HD
HETATM   14  N3  UNL     1      -5.285   0.324  -1.197  1.00  0.00    -0.081 NA
HETATM   15  C3  UNL     1      -2.776   0.481  -0.943  1.00  0.00     0.162 A 
BRANCH  10  16
HETATM   16  N1  UNL     1      -1.762  -2.320   0.685  1.00  0.00    -0.234 N 
ATOM     17  H12 UNL     1      -2.220  -3.148   1.066  1.00  0.00     0.174 HD
ATOM     18  H11 UNL     1      -0.758  -2.385   0.854  1.00  0.00     0.174 HD
ENDBRANCH  10  16
ENDBRANCH   1   9
BRANCH   4  19
HETATM   19  N6  UNL     1       2.557  -0.714  -2.176  1.00  0.00    -0.233 N 
ATOM     20  H62 UNL     1       2.202  -1.291  -2.938  1.00  0.00     0.174 HD
ATOM     21  H61 UNL     1       3.560  -0.529  -2.149  1.00  0.00     0.174 HD
ENDBRANCH   4  19
BRANCH   6  22
HETATM   22  O1  UNL     1       1.915   1.825   1.734  1.00  0.00    -0.343 OA
ATOM     23  H1  UNL     1       1.331   2.178   2.395  1.00  0.00     0.219 HD
ENDBRANCH   6  22
BRANCH   5  24
HETATM   24  N8  UNL     1       3.622   0.803  -0.144  1.00  0.00    -0.205 N 
ATOM     25  H8  UNL     1       4.022   1.524  -0.745  1.00  0.00     0.211 HD
BRANCH  24  26
HETATM   26  N9  UNL     1       4.463   0.143   0.743  1.00  0.00    -0.234 N 
ATOM     27  H9  UNL     1       4.456   0.342   1.743  1.00  0.00     0.209 HD
BRANCH  26  28
HETATM   28  N10 UNL     1       5.304  -0.792   0.194  1.00  0.00    -0.330 N 
ATOM     29 2H10 UNL     1       5.300  -0.980  -0.809  1.00  0.00     0.178 HD
ATOM     30 1H10 UNL     1       5.922  -1.277   0.845  1.00  0.00     0.178 HD
ENDBRANCH  26  28
ENDBRANCH  24  26
ENDBRANCH   5  24
TORSDOF 7
