REMARK  7 active torsions:
REMARK  status: ('A' for Active; 'I' for Inactive)
REMARK    1  A    between atoms: C9_11  and  C10_12 
REMARK    2  A    between atoms: C10_12  and  O3_13 
REMARK    3  A    between atoms: O3_13  and  C11_14 
REMARK    4  A    between atoms: C13_17  and  O5_18 
REMARK    5  A    between atoms: O5_18  and  C14_19 
REMARK    6  A    between atoms: C16_22  and  O7_23 
REMARK    7  A    between atoms: O7_23  and  C17_24 
ROOT
HETATM    1  C1  UNL     1      -3.747  -1.631   0.127  1.00  0.00     0.025 C 
HETATM    2  C2  UNL     1      -2.936  -0.950  -0.660  1.00  0.00     0.017 C 
HETATM    3  C3  UNL     1      -3.229  -0.248  -1.906  1.00  0.00     0.289 C 
HETATM    4  O1  UNL     1      -4.383  -0.065  -2.374  1.00  0.00    -0.260 OA
HETATM    5  O2  UNL     1      -2.006   0.171  -2.467  1.00  0.00    -0.306 OA
HETATM    6  C4  UNL     1      -1.016  -0.685  -1.872  1.00  0.00     0.078 C 
HETATM    7  C5  UNL     1      -1.340  -2.080  -2.437  1.00  0.00     0.047 C 
HETATM    8  C6  UNL     1       0.361  -0.316  -2.171  1.00  0.00     0.044 C 
HETATM    9  C7  UNL     1       1.378  -0.452  -1.112  1.00  0.00    -0.007 C 
HETATM   10  C8  UNL     1       1.825  -1.894  -1.021  1.00  0.00     0.010 C 
HETATM   11  C9  UNL     1       1.032   0.026   0.239  1.00  0.00     0.046 C 
HETATM   12  C13 UNL     1       0.050   1.120   0.353  1.00  0.00     0.168 C 
HETATM   13  C16 UNL     1      -1.345   0.531   0.315  1.00  0.00     0.173 C 
HETATM   14  C19 UNL     1      -1.460  -0.724  -0.459  1.00  0.00     0.091 C 
ENDROOT
BRANCH  11  15
HETATM   15  C10 UNL     1       2.347   0.342   0.970  1.00  0.00     0.186 C 
BRANCH  15  16
HETATM   16  O3  UNL     1       3.153  -0.819   1.059  1.00  0.00    -0.321 OA
BRANCH  16  17
HETATM   17  C11 UNL     1       4.367  -0.734   1.679  1.00  0.00     0.254 C 
HETATM   18  C12 UNL     1       5.288  -1.905   1.821  1.00  0.00     0.126 C 
HETATM   19  O4  UNL     1       4.746   0.374   2.159  1.00  0.00    -0.266 OA
ENDBRANCH  16  17
ENDBRANCH  15  16
ENDBRANCH  11  15
BRANCH  12  20
HETATM   20  O5  UNL     1       0.103   2.098  -0.646  1.00  0.00    -0.313 OA
BRANCH  20  21
HETATM   21  C14 UNL     1       0.292   3.429  -0.389  1.00  0.00     0.255 C 
HETATM   22  C15 UNL     1       0.339   4.430  -1.504  1.00  0.00     0.126 C 
HETATM   23  O6  UNL     1       0.421   3.757   0.817  1.00  0.00    -0.266 OA
ENDBRANCH  20  21
ENDBRANCH  12  20
BRANCH  13  24
HETATM   24  O7  UNL     1      -1.736   0.247   1.662  1.00  0.00    -0.313 OA
BRANCH  24  25
HETATM   25  C17 UNL     1      -2.807   0.833   2.280  1.00  0.00     0.255 C 
HETATM   26  C18 UNL     1      -3.214   0.537   3.683  1.00  0.00     0.126 C 
HETATM   27  O8  UNL     1      -3.508   1.674   1.654  1.00  0.00    -0.266 OA
ENDBRANCH  24  25
ENDBRANCH  13  24
TORSDOF 7
