REMARK  10 active torsions:
REMARK  status: ('A' for Active; 'I' for Inactive)
REMARK    1  A    between atoms: C2_2  and  C3_3 
REMARK    2  A    between atoms: C4_4  and  C5_5 
REMARK    3  A    between atoms: C5_5  and  O1_6 
REMARK    4  A    between atoms: N1_10  and  C9_11 
REMARK    5  A    between atoms: C9_11  and  C10_12 
REMARK    6  A    between atoms: C10_12  and  C11_13 
REMARK    7  A    between atoms: C11_13  and  C12_14 
REMARK    8  A    between atoms: C12_14  and  O2_15 
REMARK    9  A    between atoms: N2_20  and  C16_21 
REMARK   10  A    between atoms: C17_24  and  C18_25 
ROOT
HETATM    1  C3  UNL     1      -0.261  -0.384   0.286  1.00  0.00     0.027 A 
HETATM    2  C4  UNL     1       1.005  -0.592  -0.215  1.00  0.00     0.002 A 
HETATM    3  C14 UNL     1       0.879  -1.732  -0.993  1.00  0.00     0.030 A 
HETATM    4  C15 UNL     1      -0.420  -2.169  -0.943  1.00  0.00     0.100 A 
HETATM    5  N2  UNL     1      -1.106  -1.349  -0.168  1.00  0.00    -0.306 N 
ENDROOT
BRANCH   2   6
HETATM    6  C5  UNL     1       2.246   0.159  -0.068  1.00  0.00     0.117 C 
HETATM    7  C7  UNL     1       2.854   0.219   1.301  1.00  0.00     0.075 C 
HETATM    8  C8  UNL     1       4.345   0.451   0.987  1.00  0.00     0.276 C 
HETATM    9  N1  UNL     1       4.585  -0.159  -0.267  1.00  0.00     0.091 N 
HETATM   10  C13 UNL     1       3.340  -0.559  -0.826  1.00  0.00     0.315 C 
BRANCH   6  11
HETATM   11  O1  UNL     1       2.170   1.455  -0.528  1.00  0.00    -0.378 OA
HETATM   12  C6  UNL     1       1.824   1.652  -1.825  1.00  0.00     0.203 C 
ENDBRANCH   6  11
BRANCH   9  13
HETATM   13  C9  UNL     1       5.358   0.573  -1.211  1.00  0.00     0.272 C 
BRANCH  13  14
HETATM   14  C10 UNL     1       6.809   0.724  -0.798  1.00  0.00     0.032 C 
BRANCH  14  15
HETATM   15  C11 UNL     1       7.486  -0.611  -0.633  1.00  0.00     0.028 C 
BRANCH  15  16
HETATM   16  C12 UNL     1       8.928  -0.410  -0.217  1.00  0.00     0.164 C 
BRANCH  16  17
HETATM   17  O2  UNL     1       9.521  -1.667  -0.071  1.00  0.00    -0.401 OA
ATOM     18  H2  UNL     1      10.426  -1.541   0.190  1.00  0.00     0.209 HD
ENDBRANCH  16  17
ENDBRANCH  15  16
ENDBRANCH  14  15
ENDBRANCH  13  14
ENDBRANCH   9  13
ENDBRANCH   2   6
BRANCH   1  19
HETATM   19  C2  UNL     1      -0.647   0.692   1.191  1.00  0.00     0.054 C 
HETATM   20  C1  UNL     1      -0.297   0.409   2.652  1.00  0.00     0.011 C 
ENDBRANCH   1  19
BRANCH   5  21
HETATM   21  C16 UNL     1      -2.501  -1.484   0.116  1.00  0.00     0.155 A 
HETATM   22  N3  UNL     1      -3.473  -0.611  -0.079  1.00  0.00    -0.339 N 
HETATM   23  C17 UNL     1      -4.701  -0.909   0.238  1.00  0.00     0.022 A 
ATOM     24  H3  UNL     1      -3.261   0.302  -0.480  1.00  0.00     0.168 HD
HETATM   25  C24 UNL     1      -4.917  -2.159   0.776  1.00  0.00     0.078 A 
HETATM   26  S1  UNL     1      -3.343  -2.812   0.785  1.00  0.00    -0.063 SA
BRANCH  23  27
HETATM   27  C18 UNL     1      -5.825   0.099   0.021  1.00  0.00     0.036 C 
HETATM   28  C19 UNL     1      -6.608   0.198   1.285  1.00  0.00     0.011 C 
HETATM   29  C20 UNL     1      -7.894   0.948   1.128  1.00  0.00     0.001 C 
HETATM   30  C21 UNL     1      -8.676   0.467  -0.052  1.00  0.00     0.000 C 
HETATM   31  C22 UNL     1      -7.795   0.639  -1.293  1.00  0.00     0.001 C 
HETATM   32  C23 UNL     1      -6.683  -0.383  -1.159  1.00  0.00     0.011 C 
ENDBRANCH  23  27
ENDBRANCH   5  21
TORSDOF 10
