REMARK  8 active torsions:
REMARK  status: ('A' for Active; 'I' for Inactive)
REMARK    1  A    between atoms: N1_2  and  O1_3 
REMARK    2  A    between atoms: N1_2  and  N2_5 
REMARK    3  A    between atoms: N2_5  and  N3_7 
REMARK    4  A    between atoms: N3_7  and  C2_9 
REMARK    5  A    between atoms: C4_16  and  N6_17 
REMARK    6  A    between atoms: C4_16  and  C6_25 
REMARK       I    between atoms: N6_17  and  C5_19 
REMARK    7  A    between atoms: C5_19  and  O3_21 
REMARK    8  A    between atoms: O3_21  and  N7_22 
ROOT
HETATM    1  C2  UNL     1      -0.422  -0.719   0.308  1.00  0.00     0.164 C 
HETATM    2  N4  UNL     1      -1.232  -1.749   0.023  1.00  0.00    -0.351 N 
ATOM      3  H4  UNL     1      -1.909  -2.150   0.672  1.00  0.00     0.162 HD
HETATM    4  C3  UNL     1      -1.018  -2.207  -1.311  1.00  0.00     0.360 C 
HETATM    5  N5  UNL     1      -0.522  -0.909  -1.900  1.00  0.00    -0.015 N 
ATOM      6  H51 UNL     1      -1.230  -0.208  -2.118  1.00  0.00     0.283 HD
ATOM      7  H52 UNL     1      -0.167  -0.948  -2.856  1.00  0.00     0.283 HD
HETATM    8  C4  UNL     1       0.427  -0.567  -0.876  1.00  0.00     0.350 C 
ENDROOT
BRANCH   8   9
HETATM    9  N6  UNL     1       1.145   0.644  -0.939  1.00  0.00    -0.287 N 
HETATM   10  C5  UNL     1       2.256   0.899  -0.105  1.00  0.00     0.384 C 
HETATM   11  O2  UNL     1       2.688   0.080   0.787  1.00  0.00    -0.236 OA
ATOM     12  H6  UNL     1       0.854   1.358  -1.607  1.00  0.00     0.168 HD
BRANCH  10  13
HETATM   13  O3  UNL     1       2.985   2.076  -0.160  1.00  0.00    -0.188 OA
BRANCH  13  14
HETATM   14  N7  UNL     1       4.041   2.337   0.656  1.00  0.00    -0.301 N 
ATOM     15  H72 UNL     1       4.296   1.621   1.336  1.00  0.00     0.184 HD
ATOM     16  H71 UNL     1       4.578   3.203   0.616  1.00  0.00     0.184 HD
ENDBRANCH  13  14
ENDBRANCH  10  13
ENDBRANCH   8   9
BRANCH   8  17
HETATM   17  C6  UNL     1       1.401  -1.737  -0.913  1.00  0.00     0.241 C 
HETATM   18  O4  UNL     1       1.473  -2.660  -0.124  1.00  0.00    -0.644 OA
HETATM   19  O5  UNL     1       2.307  -1.670  -2.024  1.00  0.00    -0.644 OA
ENDBRANCH   8  17
BRANCH   1  20
HETATM   20  N3  UNL     1      -0.542  -0.082   1.596  1.00  0.00    -0.269 N 
ATOM     21  H3  UNL     1       0.280   0.244   2.104  1.00  0.00     0.190 HD
BRANCH  20  22
HETATM   22  N2  UNL     1      -1.853   0.075   2.132  1.00  0.00    -0.220 N 
ATOM     23  H2  UNL     1      -2.275  -0.622   2.746  1.00  0.00     0.210 HD
BRANCH  22  24
HETATM   24  N1  UNL     1      -2.508   1.219   1.771  1.00  0.00    -0.192 N 
HETATM   25  C1  UNL     1      -3.563   1.107   0.751  1.00  0.00     0.209 C 
BRANCH  24  26
HETATM   26  O1  UNL     1      -2.212   2.319   2.298  1.00  0.00    -0.272 OA
ATOM     27  H1  UNL     1      -1.531   2.391   2.956  1.00  0.00     0.246 HD
ENDBRANCH  24  26
ENDBRANCH  22  24
ENDBRANCH  20  22
ENDBRANCH   1  20
TORSDOF 8
