REMARK  13 active torsions:
REMARK  status: ('A' for Active; 'I' for Inactive)
REMARK    1  A    between atoms: N1_1  and  C1_5 
REMARK    2  A    between atoms: C1_5  and  C2_6 
REMARK    3  A    between atoms: C2_6  and  C3_7 
REMARK    4  A    between atoms: C3_7  and  C4_8 
REMARK    5  A    between atoms: C4_8  and  N2_9 
REMARK    6  A    between atoms: N2_9  and  C5_11 
REMARK    7  A    between atoms: C6_12  and  O1_13 
REMARK    8  A    between atoms: C7_15  and  C8_16 
REMARK    9  A    between atoms: C8_16  and  O2_17 
REMARK   10  A    between atoms: C9_20  and  N3_21 
REMARK   11  A    between atoms: N3_21  and  C10_24 
REMARK   12  A    between atoms: C14_31  and  O4_32 
REMARK   13  A    between atoms: C15_34  and  O5_35 
ROOT
HETATM    1  C5  UNL     1       1.061  -0.595  -0.237  1.00  0.00     0.141 C 
HETATM    2  C6  UNL     1       1.058  -1.335  -1.541  1.00  0.00     0.174 C 
HETATM    3  C7  UNL     1      -0.029  -0.886  -2.477  1.00  0.00     0.178 C 
HETATM    4  O3  UNL     1      -0.717   0.221  -2.027  1.00  0.00    -0.347 OA
HETATM    5  C9  UNL     1      -1.286   0.088  -0.798  1.00  0.00     0.353 C 
HETATM    6  C15 UNL     1      -0.342  -0.344   0.284  1.00  0.00     0.199 C 
ENDROOT
BRANCH   5   7
HETATM    7  N3  UNL     1      -1.996   1.308  -0.464  1.00  0.00    -0.039 N 
ATOM      8  H32 UNL     1      -1.354   2.090  -0.334  1.00  0.00     0.280 HD
ATOM      9  H31 UNL     1      -2.521   1.665  -1.262  1.00  0.00     0.280 HD
BRANCH   7  10
HETATM   10  C10 UNL     1      -2.848   1.125   0.691  1.00  0.00     0.230 C 
HETATM   11  C11 UNL     1      -3.968   0.116   0.470  1.00  0.00     0.075 C 
HETATM   12  C12 UNL     1      -4.621   0.662  -0.768  1.00  0.00     0.242 C 
HETATM   13  C14 UNL     1      -4.714   0.918   1.540  1.00  0.00     0.158 C 
HETATM   14  N4  UNL     1      -4.655   2.098  -0.417  1.00  0.00    -0.066 N 
HETATM   15  C13 UNL     1      -3.996   2.091   0.843  1.00  0.00     0.245 C 
ATOM     16  H42 UNL     1      -4.258   2.728  -1.114  1.00  0.00     0.277 HD
ATOM     17  H41 UNL     1      -5.580   2.528  -0.424  1.00  0.00     0.277 HD
BRANCH  13  18
HETATM   18  O4  UNL     1      -4.235   0.660   2.808  1.00  0.00    -0.393 OA
ATOM     19  H4  UNL     1      -4.698   1.158   3.472  1.00  0.00     0.210 HD
ENDBRANCH  13  18
ENDBRANCH   7  10
ENDBRANCH   5   7
BRANCH   6  20
HETATM   20  O5  UNL     1      -0.793  -1.478   0.956  1.00  0.00    -0.389 OA
ATOM     21  H5  UNL     1      -1.671  -1.321   1.282  1.00  0.00     0.210 HD
ENDBRANCH   6  20
BRANCH   3  22
HETATM   22  C8  UNL     1      -0.970  -2.037  -2.823  1.00  0.00     0.198 C 
BRANCH  22  23
HETATM   23  O2  UNL     1      -0.246  -3.143  -3.272  1.00  0.00    -0.398 OA
ATOM     24  H2  UNL     1      -0.832  -3.859  -3.487  1.00  0.00     0.209 HD
ENDBRANCH  22  23
ENDBRANCH   3  22
BRANCH   1  25
HETATM   25  N2  UNL     1       1.798  -1.187   0.820  1.00  0.00    -0.412 N 
ATOM     26  H2  UNL     1       1.354  -1.490   1.687  1.00  0.00     0.153 HD
BRANCH  25  27
HETATM   27  C4  UNL     1       3.207  -1.333   0.594  1.00  0.00     0.114 C 
BRANCH  27  28
HETATM   28  C3  UNL     1       3.961  -0.042   0.518  1.00  0.00     0.021 C 
BRANCH  28  29
HETATM   29  C2  UNL     1       3.850   0.776   1.786  1.00  0.00     0.029 C 
BRANCH  29  30
HETATM   30  C1  UNL     1       4.641   2.079   1.629  1.00  0.00     0.229 C 
BRANCH  30  31
HETATM   31  N1  UNL     1       6.047   1.802   1.367  1.00  0.00    -0.079 N 
ATOM     32  H13 UNL     1       6.452   1.198   2.082  1.00  0.00     0.274 HD
ATOM     33  H12 UNL     1       6.167   1.188   0.561  1.00  0.00     0.274 HD
ATOM     34  H11 UNL     1       6.574   2.669   1.262  1.00  0.00     0.274 HD
ENDBRANCH  30  31
ENDBRANCH  29  30
ENDBRANCH  28  29
ENDBRANCH  27  28
ENDBRANCH  25  27
ENDBRANCH   1  25
BRANCH   2  35
HETATM   35  O1  UNL     1       2.299  -1.213  -2.178  1.00  0.00    -0.391 OA
ATOM     36  H1  UNL     1       2.297  -1.682  -3.004  1.00  0.00     0.210 HD
ENDBRANCH   2  35
TORSDOF 13
