REMARK  6 active torsions:
REMARK  status: ('A' for Active; 'I' for Inactive)
REMARK    1  A    between atoms: O1_2  and  N1_3 
REMARK       I    between atoms: C2_5  and  N3_7 
REMARK    2  A    between atoms: N3_7  and  C3_9 
REMARK    3  A    between atoms: C6_12  and  N4_13 
REMARK    4  A    between atoms: N4_13  and  C7_15 
REMARK    5  A    between atoms: C7_15  and  C8_16 
REMARK    6  A    between atoms: C8_16  and  N5_17 
ROOT
HETATM    1  C3  UNL     1       2.263   0.245   0.573  1.00  0.00     0.122 A 
HETATM    2  C4  UNL     1       1.686  -0.780  -0.128  1.00  0.00     0.053 A 
HETATM    3  C5  UNL     1       0.333  -0.644  -0.423  1.00  0.00     0.053 A 
HETATM    4  C6  UNL     1      -0.398   0.445  -0.043  1.00  0.00     0.115 A 
HETATM    5  N6  UNL     1       0.246   1.415   0.647  1.00  0.00    -0.284 N 
ATOM      6  H6  UNL     1      -0.265   2.245   0.949  1.00  0.00     0.188 HD
HETATM    7  N7  UNL     1       1.530   1.296   0.932  1.00  0.00    -0.284 N 
ATOM      8  H7  UNL     1       1.982   2.047   1.453  1.00  0.00     0.188 HD
ENDROOT
BRANCH   1   9
HETATM    9  N3  UNL     1       3.508   0.199   0.893  1.00  0.00    -0.314 N 
HETATM   10  C2  UNL     1       4.307  -0.907   0.529  1.00  0.00     0.213 C 
HETATM   11  N1  UNL     1       5.193  -0.848  -0.425  1.00  0.00    -0.239 N 
HETATM   12  N2  UNL     1       4.129  -2.122   1.240  1.00  0.00    -0.061 NA
ATOM     13  H1  UNL     1       5.761  -1.659  -0.671  1.00  0.00     0.197 HD
ATOM     14  H3  UNL     1       3.923   0.970   1.416  1.00  0.00     0.170 HD
BRANCH  11  15
HETATM   15  O1  UNL     1       5.334   0.355  -1.090  1.00  0.00    -0.283 OA
HETATM   16  C1  UNL     1       6.135   1.380  -0.543  1.00  0.00     0.237 C 
ENDBRANCH  11  15
ENDBRANCH   1   9
BRANCH   4  17
HETATM   17  N4  UNL     1      -1.629   0.507  -0.340  1.00  0.00    -0.374 N 
ATOM     18  H4  UNL     1      -2.168   1.323  -0.052  1.00  0.00     0.161 HD
BRANCH  17  19
HETATM   19  C7  UNL     1      -2.280  -0.533  -1.066  1.00  0.00     0.151 C 
BRANCH  19  20
HETATM   20  C8  UNL     1      -3.780  -0.363  -1.131  1.00  0.00     0.290 C 
BRANCH  20  21
HETATM   21  N5  UNL     1      -4.424  -0.348   0.141  1.00  0.00     0.081 N 
HETATM   22  C9  UNL     1      -4.161   0.776   0.974  1.00  0.00     0.309 C 
HETATM   23  C10 UNL     1      -5.856  -0.432  -0.069  1.00  0.00     0.309 C 
ENDBRANCH  20  21
ENDBRANCH  19  20
ENDBRANCH  17  19
ENDBRANCH   4  17
TORSDOF 6
