REMARK  6 active torsions:
REMARK  status: ('A' for Active; 'I' for Inactive)
REMARK    1  A    between atoms: C2_2  and  C3_3 
REMARK    2  A    between atoms: C3_3  and  N1_4 
REMARK    3  A    between atoms: C4_5  and  N2_6 
REMARK    4  A    between atoms: C8_14  and  C9_15 
REMARK    5  A    between atoms: C9_15  and  N4_16 
REMARK    6  A    between atoms: N4_16  and  N5_18 
ROOT
HETATM    1  N1  UNL     1      -2.081  -0.405  -0.005  1.00  0.00    -0.144 N 
HETATM    2  C4  UNL     1      -1.848  -0.951  -1.183  1.00  0.00     0.681 A 
HETATM    3  N3  UNL     1      -0.548  -1.097  -1.601  1.00  0.00    -0.191 N 
ATOM      4  H3  UNL     1      -0.381  -1.521  -2.514  1.00  0.00     0.184 HD
HETATM    5  C5  UNL     1       0.511  -0.716  -0.881  1.00  0.00     0.065 A 
HETATM    6  C6  UNL     1       1.813  -0.870  -1.318  1.00  0.00     0.032 A 
HETATM    7  C7  UNL     1       2.900  -0.475  -0.570  1.00  0.00     0.015 A 
HETATM    8  C8  UNL     1       2.664   0.096   0.662  1.00  0.00    -0.018 A 
HETATM    9  C10 UNL     1       1.353   0.256   1.111  1.00  0.00     0.032 A 
HETATM   10  C11 UNL     1       0.284  -0.142   0.357  1.00  0.00     0.061 A 
HETATM   11  C12 UNL     1      -1.027  -0.007   0.753  1.00  0.00     0.274 A 
HETATM   12  O1  UNL     1      -1.276   0.511   1.871  1.00  0.00    -0.266 OA
ENDROOT
BRANCH   8  13
HETATM   13  C9  UNL     1       3.801   0.517   1.459  1.00  0.00     0.120 C 
BRANCH  13  14
HETATM   14  N4  UNL     1       5.008   0.370   1.048  1.00  0.00    -0.297 N 
ATOM     15  H4  UNL     1       5.165  -0.055   0.134  1.00  0.00     0.187 HD
BRANCH  14  16
HETATM   16  N5  UNL     1       6.115   0.768   1.800  1.00  0.00    -0.250 N 
HETATM   17  N6  UNL     1       6.861  -0.125   2.342  1.00  0.00    -0.331 N 
ATOM     18  H62 UNL     1       6.634  -1.111   2.215  1.00  0.00     0.178 HD
ATOM     19  H61 UNL     1       7.670   0.166   2.891  1.00  0.00     0.178 HD
ATOM     20  H5  UNL     1       6.329   1.758   1.918  1.00  0.00     0.207 HD
ENDBRANCH  14  16
ENDBRANCH  13  14
ENDBRANCH   8  13
BRANCH   1  21
HETATM   21  C3  UNL     1      -3.440  -0.222   0.468  1.00  0.00     0.177 C 
BRANCH  21  22
HETATM   22  C2  UNL     1      -4.031   1.077   0.118  1.00  0.00    -0.016 C 
HETATM   23  C1  UNL     1      -5.128   1.173  -0.603  1.00  0.00     0.008 C 
ENDBRANCH  21  22
ENDBRANCH   1  21
BRANCH   2  24
HETATM   24  N2  UNL     1      -2.749  -1.390  -2.012  1.00  0.00    -0.234 N 
ATOM     25  H22 UNL     1      -3.715  -1.282  -1.702  1.00  0.00     0.174 HD
ATOM     26  H21 UNL     1      -2.569  -1.812  -2.923  1.00  0.00     0.174 HD
ENDBRANCH   2  24
TORSDOF 6
