REMARK  0 active torsions:
REMARK  status: ('A' for Active; 'I' for Inactive)
REMARK       I    between atoms: C1_4  and  N3_6 
ROOT
HETATM    1  N1  UNL     1      -2.104   0.726  -1.453  1.00  0.00    -0.373 N 
ATOM      2  H11 UNL     1      -1.403   1.065  -2.112  1.00  0.00     0.158 HD
ATOM      3  H12 UNL     1      -3.106   0.803  -1.626  1.00  0.00     0.158 HD
HETATM    4  C1  UNL     1      -1.704   0.181  -0.361  1.00  0.00     0.200 C 
HETATM    5  N2  UNL     1      -2.679  -0.291   0.556  1.00  0.00    -0.063 NA
HETATM    6  N3  UNL     1      -0.306   0.074  -0.120  1.00  0.00    -0.187 N 
HETATM    7  C2  UNL     1       0.465   1.118   0.228  1.00  0.00     0.341 A 
HETATM    8  O1  UNL     1      -0.078   2.244   0.347  1.00  0.00    -0.246 OA
HETATM    9  N4  UNL     1       1.781   1.037   0.459  1.00  0.00    -0.260 N 
ATOM     10  H4  UNL     1       2.318   1.863   0.722  1.00  0.00     0.175 HD
HETATM   11  C3  UNL     1       2.378  -0.163   0.335  1.00  0.00     0.332 A 
HETATM   12  O2  UNL     1       3.626  -0.272   0.548  1.00  0.00    -0.246 OA
HETATM   13  N5  UNL     1       1.644  -1.254  -0.015  1.00  0.00    -0.260 N 
ATOM     14  H5  UNL     1       2.090  -2.167  -0.110  1.00  0.00     0.175 HD
HETATM   15  C4  UNL     1       0.324  -1.116  -0.235  1.00  0.00     0.341 A 
HETATM   16  O3  UNL     1      -0.306  -2.159  -0.557  1.00  0.00    -0.246 OA
ENDROOT
TORSDOF 0
