REMARK  7 active torsions:
REMARK  status: ('A' for Active; 'I' for Inactive)
REMARK    1  A    between atoms: N1_2  and  C2_4 
REMARK       I    between atoms: N2_5  and  C3_7 
REMARK       I    between atoms: C3_7  and  N3_9 
REMARK    2  A    between atoms: N3_9  and  C4_11 
REMARK    3  A    between atoms: C4_11  and  C8_15 
REMARK    4  A    between atoms: C8_15  and  N4_16 
REMARK    5  A    between atoms: C8_15  and  C14_29 
REMARK       I    between atoms: N4_16  and  C9_18 
REMARK    6  A    between atoms: C9_18  and  C10_20 
REMARK    7  A    between atoms: C12_22  and  O3_23 
ROOT
HETATM    1  C8  UNL     1       0.075  -0.685   0.437  1.00  0.00     0.043 C 
ENDROOT
BRANCH   1   2
HETATM    2  C4  UNL     1       1.045   0.020   1.272  1.00  0.00     0.061 C 
HETATM    3  C5  UNL     1       2.243  -0.513   1.883  1.00  0.00    -0.059 C 
HETATM    4  C6  UNL     1       2.278  -1.909   2.407  1.00  0.00     0.045 C 
HETATM    5  C7  UNL     1       3.547  -0.195   1.126  1.00  0.00     0.045 C 
BRANCH   2   6
HETATM    6  N3  UNL     1       1.263   1.402   0.901  1.00  0.00    -0.307 N 
HETATM    7  C3  UNL     1       1.721   1.927  -0.304  1.00  0.00     0.325 C 
HETATM    8  N2  UNL     1       1.881   3.333  -0.537  1.00  0.00    -0.305 N 
HETATM    9  O1  UNL     1       2.026   1.195  -1.273  1.00  0.00    -0.247 OA
HETATM   10  C2  UNL     1       2.922   3.838  -1.068  1.00  0.00     0.183 C 
ATOM     11  H2  UNL     1       1.124   3.959  -0.264  1.00  0.00     0.171 HD
ATOM     12  H3  UNL     1       1.051   2.088   1.625  1.00  0.00     0.170 HD
BRANCH  10  13
HETATM   13  N1  UNL     1       4.058   3.113  -1.502  1.00  0.00    -0.372 N 
HETATM   14  C1  UNL     1       5.187   3.125  -0.896  1.00  0.00     0.118 C 
ATOM     15  H1  UNL     1       3.973   2.548  -2.347  1.00  0.00     0.165 HD
ENDBRANCH  10  13
ENDBRANCH   2   6
ENDBRANCH   1   2
BRANCH   1  16
HETATM   16  N4  UNL     1      -1.279  -0.117   0.535  1.00  0.00    -0.326 N 
HETATM   17  C9  UNL     1      -1.992   0.562  -0.435  1.00  0.00     0.253 C 
HETATM   18  O2  UNL     1      -1.448   0.734  -1.560  1.00  0.00    -0.271 OA
ATOM     19  H4  UNL     1      -1.750  -0.240   1.431  1.00  0.00     0.168 HD
BRANCH  17  20
HETATM   20  C10 UNL     1      -3.343   1.124  -0.314  1.00  0.00     0.279 C 
HETATM   21  C11 UNL     1      -3.414   2.218   0.749  1.00  0.00     0.076 C 
HETATM   22  C12 UNL     1      -4.374   3.259   0.205  1.00  0.00     0.146 C 
HETATM   23  C13 UNL     1      -5.021   2.473  -0.942  1.00  0.00     0.264 C 
HETATM   24  N5  UNL     1      -3.844   1.775  -1.465  1.00  0.00    -0.060 N 
ATOM     25  H52 UNL     1      -3.172   2.370  -1.950  1.00  0.00     0.278 HD
ATOM     26  H51 UNL     1      -4.025   1.163  -2.261  1.00  0.00     0.278 HD
BRANCH  22  27
HETATM   27  O3  UNL     1      -5.293   3.689   1.127  1.00  0.00    -0.394 OA
ATOM     28  H3  UNL     1      -5.894   4.341   0.786  1.00  0.00     0.210 HD
ENDBRANCH  22  27
ENDBRANCH  17  20
ENDBRANCH   1  16
BRANCH   1  29
HETATM   29  C14 UNL     1       0.143  -2.110   0.083  1.00  0.00     0.038 C 
HETATM   30  C15 UNL     1      -1.129  -2.502  -0.750  1.00  0.00     0.011 C 
HETATM   31  C16 UNL     1      -1.218  -4.012  -0.698  1.00  0.00     0.001 C 
HETATM   32  C17 UNL     1       0.143  -4.643  -0.921  1.00  0.00     0.000 C 
HETATM   33  C18 UNL     1       0.906  -3.647  -1.780  1.00  0.00     0.001 C 
HETATM   34  C19 UNL     1       1.228  -2.417  -0.981  1.00  0.00     0.011 C 
ENDBRANCH   1  29
TORSDOF 7
