REMARK  8 active torsions:
REMARK  status: ('A' for Active; 'I' for Inactive)
REMARK    1  A    between atoms: N3_4  and  C2_6 
REMARK    2  A    between atoms: C2_6  and  C3_7 
REMARK    3  A    between atoms: C2_6  and  C5_15 
REMARK    4  A    between atoms: C3_7  and  C4_8 
REMARK    5  A    between atoms: C4_8  and  O1_9 
REMARK    6  A    between atoms: N4_11  and  O2_13 
REMARK       I    between atoms: C5_15  and  N5_17 
REMARK    7  A    between atoms: C8_20  and  N6_21 
REMARK       I    between atoms: N6_21  and  C9_23 
REMARK       I    between atoms: C9_23  and  N7_25 
REMARK    8  A    between atoms: N7_25  and  C10_27 
ROOT
HETATM    1  C5  UNL     1      -2.816  -0.678  -0.971  1.00  0.00     0.243 C 
HETATM    2  O3  UNL     1      -2.618  -0.677  -2.233  1.00  0.00    -0.271 OA
HETATM    3  N5  UNL     1      -1.738  -0.940  -0.119  1.00  0.00    -0.348 N 
HETATM    4  C6  UNL     1      -1.703  -1.042   1.316  1.00  0.00     0.128 C 
HETATM    5  C7  UNL     1      -0.349  -0.453   1.704  1.00  0.00     0.047 C 
HETATM    6  C8  UNL     1       0.351  -0.170   0.405  1.00  0.00     0.105 C 
HETATM    7  C15 UNL     1      -0.340  -1.179  -0.522  1.00  0.00     0.151 C 
ENDROOT
BRANCH   1   8
HETATM    8  C2  UNL     1      -4.167  -0.407  -0.472  1.00  0.00     0.183 C 
BRANCH   8   9
HETATM    9  N3  UNL     1      -5.027  -1.299  -1.332  1.00  0.00    -0.353 N 
HETATM   10  C1  UNL     1      -5.441  -2.416  -0.869  1.00  0.00     0.197 C 
HETATM   11  N1  UNL     1      -6.245  -3.246  -1.677  1.00  0.00    -0.067 NA
HETATM   12  N2  UNL     1      -5.088  -2.799   0.443  1.00  0.00    -0.067 NA
ATOM     13  H3  UNL     1      -5.277  -1.012  -2.278  1.00  0.00     0.162 HD
ENDBRANCH   8   9
BRANCH   8  14
HETATM   14  C3  UNL     1      -4.708   0.949  -0.790  1.00  0.00     0.120 C 
BRANCH  14  15
HETATM   15  C4  UNL     1      -4.141   2.114  -0.149  1.00  0.00     0.137 C 
HETATM   16  N4  UNL     1      -3.226   2.226   0.706  1.00  0.00    -0.251 N 
ATOM     17  H4  UNL     1      -2.761   1.385   1.049  1.00  0.00     0.196 HD
BRANCH  15  18
HETATM   18  O1  UNL     1      -4.726   3.351  -0.564  1.00  0.00    -0.348 OA
ATOM     19  H1  UNL     1      -4.353   4.117  -0.143  1.00  0.00     0.219 HD
ENDBRANCH  15  18
BRANCH  16  20
HETATM   20  O2  UNL     1      -2.839   3.441   1.186  1.00  0.00    -0.288 OA
ATOM     21  H2  UNL     1      -2.148   3.526   1.832  1.00  0.00     0.244 HD
ENDBRANCH  16  20
ENDBRANCH  14  15
ENDBRANCH   8  14
ENDBRANCH   1   8
BRANCH   6  22
HETATM   22  N6  UNL     1       1.779  -0.399   0.464  1.00  0.00    -0.337 N 
HETATM   23  C9  UNL     1       2.711   0.588   0.082  1.00  0.00     0.316 C 
HETATM   24  O4  UNL     1       2.253   1.709  -0.325  1.00  0.00    -0.247 OA
HETATM   25  N7  UNL     1       4.088   0.322   0.156  1.00  0.00    -0.339 N 
ATOM     26  H7  UNL     1       4.415  -0.586   0.487  1.00  0.00     0.164 HD
ATOM     27  H6  UNL     1       2.122  -1.302   0.792  1.00  0.00     0.164 HD
BRANCH  25  28
HETATM   28  C10 UNL     1       5.054   1.349  -0.242  1.00  0.00     0.086 C 
HETATM   29  C11 UNL     1       6.045   1.606   0.856  1.00  0.00     0.025 C 
HETATM   30  C12 UNL     1       7.235   0.709   0.593  1.00  0.00     0.002 C 
HETATM   31  C13 UNL     1       6.846  -0.129  -0.596  1.00  0.00     0.002 C 
HETATM   32  C14 UNL     1       5.911   0.788  -1.350  1.00  0.00     0.025 C 
ENDBRANCH  25  28
ENDBRANCH   6  22
TORSDOF 8
