REMARK  9 active torsions:
REMARK  status: ('A' for Active; 'I' for Inactive)
REMARK    1  A    between atoms: C2_3  and  N2_4 
REMARK    2  A    between atoms: C2_3  and  N3_8 
REMARK    3  A    between atoms: C3_9  and  N4_10 
REMARK    4  A    between atoms: N5_13  and  N6_14 
REMARK    5  A    between atoms: C6_20  and  N7_21 
REMARK    6  A    between atoms: N7_21  and  C7_23 
REMARK    7  A    between atoms: C7_23  and  C8_24 
REMARK    8  A    between atoms: C8_24  and  O2_25 
REMARK    9  A    between atoms: C8_24  and  C9_27 
ROOT
HETATM    1  N1  UNL     1      -4.014   3.133   0.364  1.00  0.00    -0.193 NA
HETATM    2  C1  UNL     1      -4.026   2.033   0.029  1.00  0.00     0.115 C 
HETATM    3  C2  UNL     1      -4.019   0.638  -0.407  1.00  0.00     0.413 C 
ENDROOT
BRANCH   3   4
HETATM    4  N2  UNL     1      -4.104   0.565  -1.857  1.00  0.00    -0.044 N 
ATOM      5  H23 UNL     1      -4.912   1.073  -2.218  1.00  0.00     0.278 HD
ATOM      6  H22 UNL     1      -3.370   1.110  -2.310  1.00  0.00     0.278 HD
ATOM      7  H21 UNL     1      -4.099  -0.409  -2.161  1.00  0.00     0.278 HD
ENDBRANCH   3   4
BRANCH   3   8
HETATM    8  N3  UNL     1      -2.809  -0.020   0.048  1.00  0.00    -0.123 N 
HETATM    9  C3  UNL     1      -2.808  -1.134   0.799  1.00  0.00     0.706 A 
HETATM   10  N5  UNL     1      -1.720  -1.770   1.238  1.00  0.00    -0.053 N 
HETATM   11  C4  UNL     1      -0.507  -1.270   0.912  1.00  0.00     0.299 A 
HETATM   12  O1  UNL     1       0.533  -1.852   1.314  1.00  0.00    -0.264 OA
HETATM   13  C5  UNL     1      -0.435  -0.127   0.142  1.00  0.00     0.123 A 
HETATM   14  C6  UNL     1       0.772   0.432  -0.225  1.00  0.00     0.121 A 
HETATM   15  C11 UNL     1      -1.599   0.493  -0.288  1.00  0.00     0.147 A 
HETATM   16  N8  UNL     1       0.793   1.550  -0.978  1.00  0.00    -0.338 N 
HETATM   17  C10 UNL     1      -0.326   2.159  -1.399  1.00  0.00     0.183 A 
ATOM     18  H8  UNL     1       1.695   1.949  -1.238  1.00  0.00     0.168 HD
HETATM   19  N9  UNL     1      -1.498   1.606  -1.037  1.00  0.00    -0.337 N 
ATOM     20  H9  UNL     1      -2.359   2.056  -1.348  1.00  0.00     0.168 HD
BRANCH   9  21
HETATM   21  N4  UNL     1      -3.957  -1.628   1.122  1.00  0.00    -0.232 N 
ATOM     22  H42 UNL     1      -4.789  -1.142   0.786  1.00  0.00     0.174 HD
ATOM     23  H41 UNL     1      -3.956  -2.474   1.692  1.00  0.00     0.174 HD
ENDBRANCH   9  21
BRANCH  10  24
HETATM   24  N6  UNL     1      -1.766  -2.929   2.019  1.00  0.00    -0.321 N 
ATOM     25  H62 UNL     1      -2.681  -3.306   2.265  1.00  0.00     0.178 HD
ATOM     26  H61 UNL     1      -0.934  -3.415   2.355  1.00  0.00     0.178 HD
ENDBRANCH  10  24
BRANCH  14  27
HETATM   27  N7  UNL     1       1.888  -0.134   0.167  1.00  0.00    -0.372 N 
ATOM     28  H7  UNL     1       1.871  -0.980   0.737  1.00  0.00     0.161 HD
BRANCH  27  29
HETATM   29  C7  UNL     1       3.134   0.462  -0.223  1.00  0.00     0.164 C 
BRANCH  29  30
HETATM   30  C8  UNL     1       4.273  -0.389   0.301  1.00  0.00     0.236 C 
BRANCH  30  31
HETATM   31  O2  UNL     1       4.238  -1.670  -0.189  1.00  0.00    -0.383 OA
ATOM     32  H2  UNL     1       4.952  -2.204   0.140  1.00  0.00     0.210 HD
ENDBRANCH  30  31
BRANCH  30  33
HETATM   33  C9  UNL     1       5.559   0.251  -0.073  1.00  0.00     0.204 C 
HETATM   34  O3  UNL     1       6.411  -0.392  -0.743  1.00  0.00    -0.646 OA
HETATM   35  O4  UNL     1       5.883   1.550   0.282  1.00  0.00    -0.646 OA
ENDBRANCH  30  33
ENDBRANCH  29  30
ENDBRANCH  27  29
ENDBRANCH  14  27
ENDBRANCH   3   8
TORSDOF 9
