REMARK  12 active torsions:
REMARK  status: ('A' for Active; 'I' for Inactive)
REMARK    1  A    between atoms: C3_5  and  C4_6 
REMARK    2  A    between atoms: C4_6  and  N2_7 
REMARK    3  A    between atoms: C7_10  and  C8_11 
REMARK    4  A    between atoms: C8_11  and  N3_12 
REMARK    5  A    between atoms: C16_22  and  C17_23 
REMARK    6  A    between atoms: C17_23  and  C18_24 
REMARK    7  A    between atoms: C18_24  and  N5_25 
REMARK       I    between atoms: N5_25  and  C19_27 
REMARK    8  A    between atoms: C19_27  and  C20_29 
REMARK    9  A    between atoms: C20_29  and  N6_30 
REMARK   10  A    between atoms: N8_37  and  C24_39 
REMARK   11  A    between atoms: C24_39  and  C25_40 
REMARK   12  A    between atoms: C25_40  and  C26_41 
ROOT
HETATM    1  N5  UNL     1       1.485   0.945  -2.737  1.00  0.00    -0.359 N 
ATOM      2  H5  UNL     1       1.006   0.064  -2.920  1.00  0.00     0.162 HD
HETATM    3  C19 UNL     1       2.659   0.907  -1.960  1.00  0.00     0.235 C 
HETATM    4  O1  UNL     1       3.286   1.950  -1.707  1.00  0.00    -0.272 OA
ENDROOT
BRANCH   1   5
HETATM    5  C18 UNL     1       0.912   2.160  -3.295  1.00  0.00     0.128 C 
BRANCH   5   6
HETATM    6  C17 UNL     1       0.518   3.146  -2.222  1.00  0.00     0.078 C 
BRANCH   6   7
HETATM    7  C16 UNL     1      -0.482   2.505  -1.334  1.00  0.00     0.033 A 
HETATM    8  C2  UNL     1      -1.795   2.346  -1.672  1.00  0.00     0.028 A 
HETATM    9  C1  UNL     1      -2.278   2.845  -2.995  1.00  0.00     0.070 C 
HETATM   10  N1  UNL     1      -2.687   1.741  -0.823  1.00  0.00    -0.356 N 
HETATM   11  C3  UNL     1      -2.310   1.280   0.376  1.00  0.00     0.063 A 
ATOM     12  H1  UNL     1      -3.660   1.640  -1.112  1.00  0.00     0.166 HD
HETATM   13  C15 UNL     1      -0.984   1.443   0.713  1.00  0.00     0.119 A 
HETATM   14  N4  UNL     1      -0.097   2.031  -0.105  1.00  0.00    -0.365 N 
ATOM     15  H4  UNL     1       0.875   2.127   0.190  1.00  0.00     0.165 HD
BRANCH  11  16
HETATM   16  C4  UNL     1      -3.237   0.624   1.330  1.00  0.00     0.116 C 
BRANCH  16  17
HETATM   17  N2  UNL     1      -4.591   0.657   0.941  1.00  0.00    -0.388 N 
HETATM   18  C5  UNL     1      -4.964   0.047  -0.278  1.00  0.00     0.122 C 
HETATM   19  C6  UNL     1      -6.163  -0.845  -0.049  1.00  0.00     0.026 C 
HETATM   20  C7  UNL     1      -7.370  -0.057   0.428  1.00  0.00     0.017 C 
HETATM   21  C13 UNL     1      -6.942   1.081   1.345  1.00  0.00     0.026 C 
HETATM   22  C14 UNL     1      -5.577   0.753   1.957  1.00  0.00     0.122 C 
BRANCH  20  23
HETATM   23  C8  UNL     1      -8.343  -0.932   1.157  1.00  0.00     0.277 C 
BRANCH  23  24
HETATM   24  N3  UNL     1      -8.816  -1.990   0.318  1.00  0.00     0.088 N 
HETATM   25  C9  UNL     1      -9.717  -2.875   1.074  1.00  0.00     0.272 C 
HETATM   26  C10 UNL     1     -10.969  -2.007   1.233  1.00  0.00     0.032 C 
HETATM   27  C11 UNL     1     -10.932  -1.141  -0.016  1.00  0.00     0.032 C 
HETATM   28  C12 UNL     1      -9.671  -1.529  -0.753  1.00  0.00     0.272 C 
ENDBRANCH  23  24
ENDBRANCH  20  23
ENDBRANCH  16  17
ENDBRANCH  11  16
ENDBRANCH   6   7
ENDBRANCH   5   6
ENDBRANCH   1   5
BRANCH   3  29
HETATM   29  C20 UNL     1       3.152  -0.388  -1.439  1.00  0.00     0.236 C 
BRANCH  29  30
HETATM   30  N6  UNL     1       4.368  -0.230  -0.675  1.00  0.00    -0.291 N 
HETATM   31  C21 UNL     1       4.339  -0.011   0.655  1.00  0.00     0.124 A 
HETATM   32 CL1  UNL     1       2.773   0.072   1.449  1.00  0.00    -0.063 Cl
HETATM   33  C22 UNL     1       5.494   0.143   1.385  1.00  0.00     0.132 A 
HETATM   34  N7  UNL     1       6.699   0.079   0.800  1.00  0.00    -0.345 N 
HETATM   35  C23 UNL     1       6.768  -0.138  -0.521  1.00  0.00     0.171 A 
ATOM     36  H7  UNL     1       7.549   0.194   1.351  1.00  0.00     0.167 HD
HETATM   37  N8  UNL     1       7.892  -0.213  -1.151  1.00  0.00    -0.371 N 
HETATM   38  C32 UNL     1       5.580  -0.291  -1.248  1.00  0.00     0.293 A 
ATOM     39  H8  UNL     1       7.856  -0.381  -2.156  1.00  0.00     0.161 HD
HETATM   40  O2  UNL     1       5.663  -0.496  -2.497  1.00  0.00    -0.264 OA
BRANCH  37  41
HETATM   41  C24 UNL     1       9.190  -0.079  -0.550  1.00  0.00     0.126 C 
BRANCH  41  42
HETATM   42  C25 UNL     1       9.581  -1.425   0.026  1.00  0.00     0.058 C 
BRANCH  42  43
HETATM   43  C26 UNL     1      10.907  -1.410   0.682  1.00  0.00    -0.055 A 
HETATM   44  C27 UNL     1      11.055  -1.114   2.020  1.00  0.00     0.009 A 
HETATM   45  C28 UNL     1      12.297  -1.100   2.641  1.00  0.00     0.026 A 
HETATM   46  C29 UNL     1      13.435  -1.388   1.915  1.00  0.00     0.055 A 
HETATM   47 CL2  UNL     1      15.000  -1.366   2.717  1.00  0.00    -0.083 Cl
HETATM   48  C30 UNL     1      13.303  -1.686   0.573  1.00  0.00     0.056 A 
HETATM   49 CL3  UNL     1      14.752  -2.050  -0.337  1.00  0.00    -0.083 Cl
HETATM   50  C31 UNL     1      12.062  -1.694  -0.019  1.00  0.00     0.032 A 
ENDBRANCH  42  43
ENDBRANCH  41  42
ENDBRANCH  37  41
ENDBRANCH  29  30
ENDBRANCH   3  29
TORSDOF 12
