REMARK  7 active torsions:
REMARK  status: ('A' for Active; 'I' for Inactive)
REMARK    1  A    between atoms: C2_2  and  C4_4 
REMARK    2  A    between atoms: C15_17  and  C16_18 
REMARK    3  A    between atoms: C19_23  and  C20_24 
REMARK    4  A    between atoms: C21_25  and  O4_26 
REMARK    5  A    between atoms: O4_26  and  C22_27 
REMARK    6  A    between atoms: C22_27  and  C23_29 
REMARK    7  A    between atoms: C25_31  and  O6_32 
ROOT
HETATM    1  C4  UNL     1      -5.392  -2.301   0.021  1.00  0.00     0.022 C 
HETATM    2  C5  UNL     1      -5.642  -2.646  -1.425  1.00  0.00     0.010 C 
HETATM    3  C6  UNL     1      -4.691  -1.740  -2.213  1.00  0.00     0.006 C 
HETATM    4  C7  UNL     1      -4.001  -0.930  -1.191  1.00  0.00    -0.001 C 
HETATM    5  C8  UNL     1      -2.661  -0.398  -1.569  1.00  0.00    -0.005 C 
HETATM    6  C9  UNL     1      -2.927   0.772  -2.501  1.00  0.00     0.008 C 
HETATM    7  C10 UNL     1      -1.704   1.544  -2.834  1.00  0.00     0.036 C 
HETATM    8  C11 UNL     1      -0.804   1.838  -1.681  1.00  0.00     0.171 C 
HETATM    9  O1  UNL     1      -1.248   2.827  -0.850  1.00  0.00    -0.232 OA
HETATM   10  O2  UNL     1      -0.421   3.739  -0.512  1.00  0.00    -0.200 OA
HETATM   11  C12 UNL     1       0.816   3.337  -0.054  1.00  0.00     0.198 C 
HETATM   12  C13 UNL     1       1.841   4.122  -0.911  1.00  0.00     0.072 C 
HETATM   13  C14 UNL     1       1.548   5.538  -0.359  1.00  0.00     0.011 C 
HETATM   14  C15 UNL     1       1.754   5.290   1.100  1.00  0.00     0.009 C 
HETATM   15  C18 UNL     1       1.180   3.890   1.309  1.00  0.00     0.077 C 
HETATM   16  O3  UNL     1       1.124   2.042  -0.213  1.00  0.00    -0.342 OA
HETATM   17  C19 UNL     1       0.310   1.079   0.357  1.00  0.00     0.161 C 
HETATM   18  C28 UNL     1      -0.603   0.610  -0.778  1.00  0.00     0.019 C 
HETATM   19  C29 UNL     1       0.094  -0.502  -1.575  1.00  0.00     0.021 C 
HETATM   20  C30 UNL     1      -1.958   0.165  -0.339  1.00  0.00     0.003 C 
HETATM   21  C31 UNL     1      -1.956  -0.814   0.779  1.00  0.00     0.007 C 
HETATM   22  C32 UNL     1      -3.401  -1.168   1.152  1.00  0.00     0.010 C 
HETATM   23  C33 UNL     1      -3.962  -1.928  -0.012  1.00  0.00    -0.033 C 
HETATM   24  C34 UNL     1      -3.058  -3.096  -0.364  1.00  0.00     0.016 C 
ENDROOT
BRANCH  17  25
HETATM   25  C20 UNL     1       1.260  -0.063   0.661  1.00  0.00     0.030 C 
HETATM   26  C21 UNL     1       2.540   0.219   0.898  1.00  0.00     0.144 C 
BRANCH  26  27
HETATM   27  O4  UNL     1       3.465  -0.784   1.170  1.00  0.00    -0.290 OA
BRANCH  27  28
HETATM   28  C22 UNL     1       4.722  -0.564   0.540  1.00  0.00     0.294 C 
HETATM   29  O5  UNL     1       4.858   0.512  -0.096  1.00  0.00    -0.263 OA
BRANCH  28  30
HETATM   30  C23 UNL     1       5.764  -1.538   0.615  1.00  0.00     0.288 C 
HETATM   31  C24 UNL     1       6.336  -2.080   1.802  1.00  0.00     0.077 C 
HETATM   32  C25 UNL     1       6.853  -3.460   1.281  1.00  0.00     0.150 C 
HETATM   33  C26 UNL     1       6.479  -3.511  -0.151  1.00  0.00     0.211 C 
HETATM   34  C27 UNL     1       7.525  -2.961  -1.107  1.00  0.00     0.043 C 
HETATM   35  N1  UNL     1       5.308  -2.690  -0.264  1.00  0.00    -0.055 N 
ATOM     36  H12 UNL     1       4.420  -3.127  -0.019  1.00  0.00     0.278 HD
ATOM     37  H11 UNL     1       5.008  -2.451  -1.209  1.00  0.00     0.278 HD
BRANCH  32  38
HETATM   38  O6  UNL     1       8.216  -3.590   1.456  1.00  0.00    -0.393 OA
ATOM     39  H6  UNL     1       8.530  -4.429   1.139  1.00  0.00     0.210 HD
ENDBRANCH  32  38
ENDBRANCH  28  30
ENDBRANCH  27  28
ENDBRANCH  26  27
ENDBRANCH  17  25
BRANCH  14  40
HETATM   40  C16 UNL     1       1.066   6.274   1.999  1.00  0.00     0.082 C 
HETATM   41  C17 UNL     1      -0.421   6.301   1.828  1.00  0.00     0.027 C 
HETATM   42 CL1  UNL     1       1.550   6.114   3.666  1.00  0.00    -0.125 Cl
ENDBRANCH  14  40
BRANCH   1  43
HETATM   43  C2  UNL     1      -5.843  -3.296   0.975  1.00  0.00    -0.088 C 
HETATM   44  C1  UNL     1      -6.352  -4.474   0.653  1.00  0.00     0.014 C 
HETATM   45  C3  UNL     1      -5.811  -2.979   2.449  1.00  0.00     0.043 C 
ENDBRANCH   1  43
TORSDOF 7
