REMARK  9 active torsions:
REMARK  status: ('A' for Active; 'I' for Inactive)
REMARK    1  A    between atoms: C4_6  and  N2_7 
REMARK    2  A    between atoms: N2_7  and  C5_9 
REMARK    3  A    between atoms: C5_9  and  C6_10 
REMARK    4  A    between atoms: C6_10  and  N3_11 
REMARK    5  A    between atoms: N3_11  and  C7_13 
REMARK    6  A    between atoms: C7_13  and  N4_15 
REMARK    7  A    between atoms: N4_15  and  C8_17 
REMARK    8  A    between atoms: N8_29  and  C13_30 
REMARK    9  A    between atoms: C13_30  and  S2_31 
ROOT
HETATM    1  S2  UNL     1      -6.543  -0.124   1.408  1.00  0.00    -0.005 SA
HETATM    2  C14 UNL     1      -6.431   1.235   0.295  1.00  0.00     0.139 C 
HETATM    3  N9  UNL     1      -6.361   2.131  -0.460  1.00  0.00    -0.184 NA
ENDROOT
BRANCH   1   4
HETATM    4  C13 UNL     1      -4.961  -0.435   2.188  1.00  0.00     0.160 C 
BRANCH   4   5
HETATM    5  N8  UNL     1      -3.927  -0.883   1.316  1.00  0.00    -0.288 N 
HETATM    6  C2  UNL     1      -3.637  -2.144   0.981  1.00  0.00     0.086 A 
HETATM    7  C1  UNL     1      -4.387  -3.325   1.486  1.00  0.00     0.089 C 
HETATM    8  N1  UNL     1      -2.580  -2.110   0.135  1.00  0.00    -0.340 N 
HETATM    9  C3  UNL     1      -2.202  -0.853  -0.065  1.00  0.00     0.124 A 
ATOM     10  H1  UNL     1      -2.140  -2.928  -0.286  1.00  0.00     0.167 HD
HETATM   11  C4  UNL     1      -1.186  -0.258  -0.830  1.00  0.00     0.147 A 
HETATM   12  C12 UNL     1      -3.047  -0.061   0.677  1.00  0.00     0.160 A 
HETATM   13  N5  UNL     1      -1.068   1.074  -0.815  1.00  0.00    -0.175 N 
HETATM   14  C11 UNL     1      -1.909   1.865  -0.076  1.00  0.00     0.679 A 
ATOM     15  H5  UNL     1      -0.332   1.513  -1.368  1.00  0.00     0.186 HD
HETATM   16  N6  UNL     1      -1.755   3.157  -0.092  1.00  0.00    -0.234 N 
HETATM   17  N7  UNL     1      -2.855   1.270   0.633  1.00  0.00    -0.174 N 
ATOM     18  H62 UNL     1      -1.026   3.616  -0.638  1.00  0.00     0.174 HD
ATOM     19  H61 UNL     1      -2.381   3.746   0.458  1.00  0.00     0.174 HD
ATOM     20  H7  UNL     1      -3.480   1.860   1.183  1.00  0.00     0.186 HD
BRANCH  11  21
HETATM   21  N2  UNL     1      -0.401  -0.989  -1.518  1.00  0.00    -0.372 N 
ATOM     22  H2  UNL     1      -0.539  -1.999  -1.489  1.00  0.00     0.161 HD
BRANCH  21  23
HETATM   23  C5  UNL     1       0.658  -0.481  -2.325  1.00  0.00     0.141 C 
BRANCH  23  24
HETATM   24  C6  UNL     1       1.929  -0.185  -1.484  1.00  0.00     0.141 C 
BRANCH  24  25
HETATM   25  N3  UNL     1       2.937   0.327  -2.371  1.00  0.00    -0.366 N 
ATOM     26  H3  UNL     1       2.671   0.344  -3.355  1.00  0.00     0.161 HD
BRANCH  25  27
HETATM   27  C7  UNL     1       4.213   0.802  -2.107  1.00  0.00     0.167 C 
HETATM   28  S1  UNL     1       5.066   1.314  -3.464  1.00  0.00    -0.041 SA
BRANCH  27  29
HETATM   29  N4  UNL     1       4.915   0.929  -0.910  1.00  0.00    -0.363 N 
ATOM     30  H4  UNL     1       5.850   1.326  -0.997  1.00  0.00     0.162 HD
BRANCH  29  31
HETATM   31  C8  UNL     1       4.521   0.585   0.428  1.00  0.00     0.075 C 
HETATM   32  C9  UNL     1       5.521   1.231   1.424  1.00  0.00     0.032 C 
HETATM   33  C10 UNL     1       4.646  -0.936   0.610  1.00  0.00     0.032 C 
ENDBRANCH  29  31
ENDBRANCH  27  29
ENDBRANCH  25  27
ENDBRANCH  24  25
ENDBRANCH  23  24
ENDBRANCH  21  23
ENDBRANCH  11  21
ENDBRANCH   4   5
ENDBRANCH   1   4
TORSDOF 9
