REMARK  11 active torsions:
REMARK  status: ('A' for Active; 'I' for Inactive)
REMARK    1  A    between atoms: C5_5  and  N1_6 
REMARK    2  A    between atoms: C8_9  and  N2_10 
REMARK    3  A    between atoms: N2_10  and  C10_12 
REMARK    4  A    between atoms: C10_12  and  O1_13 
REMARK    5  A    between atoms: C10_12  and  N3_15 
REMARK    6  A    between atoms: C14_19  and  C15_20 
REMARK    7  A    between atoms: C15_20  and  C16_21 
REMARK    8  A    between atoms: C16_21  and  N4_22 
REMARK       I    between atoms: N4_22  and  C17_24 
REMARK    9  A    between atoms: C17_24  and  C18_26 
REMARK   10  A    between atoms: C21_29  and  C22_30 
REMARK   11  A    between atoms: C22_30  and  N5_31 
ROOT
HETATM    1  N3  UNL     1       0.448  -0.755   0.800  1.00  0.00    -0.347 N 
HETATM    2  C11 UNL     1       1.177   0.351   1.328  1.00  0.00     0.126 C 
HETATM    3  C12 UNL     1       1.027   1.491   0.316  1.00  0.00     0.020 C 
HETATM    4  C13 UNL     1      -0.357   1.328  -0.340  1.00  0.00     0.008 C 
HETATM    5  C14 UNL     1      -1.295   0.861   0.742  1.00  0.00     0.005 C 
HETATM    6  C25 UNL     1      -1.038  -0.606   1.014  1.00  0.00     0.131 C 
ENDROOT
BRANCH   1   7
HETATM    7  C10 UNL     1       0.942  -1.853   0.120  1.00  0.00     0.217 C 
BRANCH   7   8
HETATM    8  N2  UNL     1       2.177  -2.261  -0.355  1.00  0.00    -0.347 N 
HETATM    9  C9  UNL     1       2.207  -3.631  -0.963  1.00  0.00     0.153 C 
BRANCH   8  10
HETATM   10  C8  UNL     1       3.400  -1.532  -0.326  1.00  0.00     0.090 C 
HETATM   11  C7  UNL     1       4.481  -2.286   0.448  1.00  0.00     0.045 C 
HETATM   12  C6  UNL     1       5.662  -1.285   0.502  1.00  0.00     0.119 C 
HETATM   13  N1  UNL     1       6.099  -0.940  -0.751  1.00  0.00    -0.408 N 
HETATM   14  C27 UNL     1       5.403  -1.498  -1.867  1.00  0.00     0.119 C 
HETATM   15  C26 UNL     1       3.915  -1.488  -1.779  1.00  0.00     0.045 C 
BRANCH  13  16
HETATM   16  C5  UNL     1       7.050  -0.012  -1.090  1.00  0.00     0.079 C 
HETATM   17  C4  UNL     1       6.661   1.381  -0.676  1.00  0.00     0.025 C 
HETATM   18  C3  UNL     1       7.164   1.850   0.638  1.00  0.00     0.006 C 
HETATM   19  C2  UNL     1       8.667   1.656   0.699  1.00  0.00    -0.019 C 
HETATM   20  C1  UNL     1       9.283   2.284   1.904  1.00  0.00     0.010 C 
HETATM   21  C29 UNL     1       8.851   0.130   0.680  1.00  0.00     0.006 C 
HETATM   22  C28 UNL     1       8.474  -0.273  -0.725  1.00  0.00     0.025 C 
ENDBRANCH  13  16
ENDBRANCH   8  10
ENDBRANCH   7   8
BRANCH   7  23
HETATM   23  O1  UNL     1      -0.020  -2.737  -0.141  1.00  0.00    -0.333 OA
ATOM     24  H1  UNL     1      -0.867  -2.457   0.185  1.00  0.00     0.220 HD
ENDBRANCH   7  23
ENDBRANCH   1   7
BRANCH   5  25
HETATM   25  C15 UNL     1      -2.754   1.105   0.362  1.00  0.00     0.026 C 
BRANCH  25  26
HETATM   26  C16 UNL     1      -3.617   0.616   1.487  1.00  0.00     0.123 C 
BRANCH  26  27
HETATM   27  N4  UNL     1      -5.023   0.774   1.291  1.00  0.00    -0.361 N 
HETATM   28  C17 UNL     1      -5.770   0.185   0.236  1.00  0.00     0.221 C 
HETATM   29  O2  UNL     1      -5.128  -0.528  -0.578  1.00  0.00    -0.273 OA
ATOM     30  H4  UNL     1      -5.529   1.354   1.960  1.00  0.00     0.162 HD
BRANCH  28  31
HETATM   31  C18 UNL     1      -7.214   0.367   0.060  1.00  0.00     0.078 C 
HETATM   32  C19 UNL     1      -8.008  -0.116   1.258  1.00  0.00     0.014 C 
HETATM   33  C20 UNL     1      -9.473  -0.194   0.965  1.00  0.00     0.007 C 
HETATM   34  C21 UNL     1      -9.760   0.620  -0.276  1.00  0.00     0.011 C 
HETATM   35  C23 UNL     1      -9.067   0.060  -1.498  1.00  0.00     0.007 C 
HETATM   36  C24 UNL     1      -7.684  -0.438  -1.128  1.00  0.00     0.014 C 
BRANCH  34  37
HETATM   37  C22 UNL     1     -11.247   0.678  -0.557  1.00  0.00     0.234 C 
BRANCH  37  38
HETATM   38  N5  UNL     1     -11.991   1.275   0.519  1.00  0.00    -0.079 N 
ATOM     39  H53 UNL     1     -11.803   0.800   1.402  1.00  0.00     0.274 HD
ATOM     40  H52 UNL     1     -11.625   2.199   0.748  1.00  0.00     0.274 HD
ATOM     41  H51 UNL     1     -12.993   1.314   0.330  1.00  0.00     0.274 HD
ENDBRANCH  37  38
ENDBRANCH  34  37
ENDBRANCH  28  31
ENDBRANCH  26  27
ENDBRANCH  25  26
ENDBRANCH   5  25
TORSDOF 11
