REMARK  10 active torsions:
REMARK  status: ('A' for Active; 'I' for Inactive)
REMARK    1  A    between atoms: N1_2  and  O1_3 
REMARK    2  A    between atoms: C2_5  and  C3_6 
REMARK    3  A    between atoms: C3_6  and  C4_7 
REMARK    4  A    between atoms: C5_8  and  C6_9 
REMARK    5  A    between atoms: C7_10  and  C8_11 
REMARK    6  A    between atoms: C8_11  and  N2_12 
REMARK    7  A    between atoms: N2_12  and  O2_13 
REMARK    8  A    between atoms: N2_12  and  C9_15 
REMARK    9  A    between atoms: C10_16  and  C11_17 
REMARK   10  A    between atoms: C11_17  and  C12_18 
ROOT
HETATM    1  N2  UNL     1      -1.343  -2.139   0.186  1.00  0.00    -0.165 NA
ENDROOT
BRANCH   1   2
HETATM    2  C8  UNL     1      -0.801  -0.963   0.845  1.00  0.00     0.220 C 
BRANCH   2   3
HETATM    3  C7  UNL     1       0.617  -0.787   0.452  1.00  0.00    -0.075 C 
HETATM    4  C6  UNL     1       1.773  -0.664   0.128  1.00  0.00    -0.014 C 
BRANCH   4   5
HETATM    5  C5  UNL     1       3.137  -0.544  -0.252  1.00  0.00    -0.015 C 
HETATM    6  C4  UNL     1       4.304  -0.461  -0.571  1.00  0.00    -0.087 C 
BRANCH   6   7
HETATM    7  C3  UNL     1       5.717  -0.386  -0.963  1.00  0.00     0.141 C 
BRANCH   7   8
HETATM    8  C2  UNL     1       6.532  -0.110   0.247  1.00  0.00     0.101 C 
HETATM    9  N1  UNL     1       7.237   0.952   0.370  1.00  0.00    -0.279 N 
HETATM   10  C1  UNL     1       7.218   1.906  -0.732  1.00  0.00     0.184 C 
BRANCH   9  11
HETATM   11  O1  UNL     1       7.961   1.145   1.504  1.00  0.00    -0.289 OA
ATOM     12  H1  UNL     1       7.973   0.523   2.222  1.00  0.00     0.244 HD
ENDBRANCH   9  11
ENDBRANCH   7   8
ENDBRANCH   6   7
ENDBRANCH   4   5
ENDBRANCH   2   3
ENDBRANCH   1   2
BRANCH   1  13
HETATM   13  O2  UNL     1      -0.725  -2.354  -0.995  1.00  0.00    -0.308 OA
ATOM     14  H2  UNL     1      -1.079  -3.123  -1.426  1.00  0.00     0.237 HD
ENDBRANCH   1  13
BRANCH   1  15
HETATM   15  C9  UNL     1      -2.744  -1.956   0.040  1.00  0.00     0.087 C 
HETATM   16  C10 UNL     1      -3.396  -1.228   0.930  1.00  0.00    -0.007 C 
BRANCH  16  17
HETATM   17  C11 UNL     1      -4.841  -1.014   0.816  1.00  0.00     0.086 C 
BRANCH  17  18
HETATM   18  C12 UNL     1      -5.221   0.419   0.688  1.00  0.00     0.032 A 
HETATM   19  C13 UNL     1      -5.522   1.327   1.663  1.00  0.00     0.118 A 
HETATM   20  N3  UNL     1      -5.802   2.495   1.075  1.00  0.00    -0.317 N 
HETATM   21  C14 UNL     1      -5.673   2.303  -0.248  1.00  0.00     0.324 A 
ATOM     22  H3  UNL     1      -6.063   3.364   1.541  1.00  0.00     0.170 HD
HETATM   23  O3  UNL     1      -5.865   3.209  -1.113  1.00  0.00    -0.247 OA
HETATM   24  N4  UNL     1      -5.316   1.034  -0.496  1.00  0.00    -0.311 N 
ATOM     25  H4  UNL     1      -5.149   0.618  -1.412  1.00  0.00     0.170 HD
ENDBRANCH  17  18
ENDBRANCH  16  17
ENDBRANCH   1  15
TORSDOF 10
