REMARK  9 active torsions:
REMARK  status: ('A' for Active; 'I' for Inactive)
REMARK    1  A    between atoms: C2_2  and  C3_3 
REMARK    2  A    between atoms: C3_3  and  N1_4 
REMARK    3  A    between atoms: C5_6  and  C6_7 
REMARK    4  A    between atoms: C7_8  and  C8_9 
REMARK    5  A    between atoms: C8_9  and  N2_10 
REMARK    6  A    between atoms: N2_10  and  C9_11 
REMARK    7  A    between atoms: C9_11  and  C10_12 
REMARK    8  A    between atoms: C10_12  and  N3_13 
REMARK    9  A    between atoms: N3_13  and  C11_15 
ROOT
HETATM    1  N2  UNL     1      -2.235  -0.429   0.504  1.00  0.00     0.020 N 
HETATM    2  C12 UNL     1      -2.057  -0.951  -0.814  1.00  0.00     0.269 C 
HETATM    3  C13 UNL     1      -1.308  -2.254  -0.692  1.00  0.00     0.153 C 
HETATM    4  N4  UNL     1      -0.633  -2.113   0.588  1.00  0.00    -0.335 N 
ATOM      5  H4  UNL     1       0.251  -2.538   0.870  1.00  0.00     0.164 HD
HETATM    6  C14 UNL     1      -1.463  -1.259   1.364  1.00  0.00     0.415 C 
HETATM    7  O2  UNL     1      -1.500  -1.248   2.629  1.00  0.00    -0.239 OA
ENDROOT
BRANCH   1   8
HETATM    8  C8  UNL     1      -1.693   0.919   0.594  1.00  0.00     0.277 C 
BRANCH   8   9
HETATM    9  C7  UNL     1      -0.199   0.904   0.552  1.00  0.00    -0.001 C 
HETATM   10  C6  UNL     1       0.494   1.519  -0.375  1.00  0.00    -0.003 C 
BRANCH  10  11
HETATM   11  C5  UNL     1       1.979   1.490  -0.396  1.00  0.00     0.124 C 
HETATM   12  C4  UNL     1       2.527   0.475  -1.370  1.00  0.00     0.154 C 
HETATM   13  N1  UNL     1       3.818   0.126  -0.772  1.00  0.00    -0.353 N 
HETATM   14  C15 UNL     1       3.592   0.160   0.632  1.00  0.00     0.170 C 
HETATM   15  N5  UNL     1       2.535   1.090   0.891  1.00  0.00    -0.358 N 
HETATM   16  S1  UNL     1       4.429  -0.737   1.738  1.00  0.00    -0.041 SA
ATOM     17  H5  UNL     1       2.227   1.414   1.808  1.00  0.00     0.162 HD
BRANCH  13  18
HETATM   18  C3  UNL     1       5.053  -0.185  -1.461  1.00  0.00     0.151 C 
BRANCH  18  19
HETATM   19  C2  UNL     1       6.127  -0.478  -0.509  1.00  0.00    -0.017 C 
HETATM   20  C1  UNL     1       6.732  -1.660  -0.520  1.00  0.00     0.008 C 
ENDBRANCH  18  19
ENDBRANCH  13  18
ENDBRANCH  10  11
ENDBRANCH   8   9
ENDBRANCH   1   8
BRANCH   1  21
HETATM   21  C9  UNL     1      -3.613  -0.412   0.916  1.00  0.00     0.269 C 
BRANCH  21  22
HETATM   22  C10 UNL     1      -4.272   0.820   0.334  1.00  0.00     0.150 C 
BRANCH  22  23
HETATM   23  N3  UNL     1      -5.663   0.838   0.750  1.00  0.00    -0.367 N 
ATOM     24  H3  UNL     1      -6.042   0.096   1.339  1.00  0.00     0.161 HD
BRANCH  23  25
HETATM   25  C11 UNL     1      -6.479   1.907   0.320  1.00  0.00     0.348 C 
HETATM   26  O1  UNL     1      -6.028   2.819  -0.399  1.00  0.00    -0.284 OA
ENDBRANCH  23  25
ENDBRANCH  22  23
ENDBRANCH  21  22
ENDBRANCH   1  21
TORSDOF 9
