REMARK  2 active torsions:
REMARK  status: ('A' for Active; 'I' for Inactive)
REMARK    1  A    between atoms: C2_2  and  N1_3 
REMARK    2  A    between atoms: C5_9  and  O1_10 
ROOT
HETATM    1  N1  UNL     1       0.105  -0.386  -0.056  1.00  0.00    -0.043 N 
HETATM    2  C3  UNL     1       0.571  -1.366  -0.987  1.00  0.00     0.274 C 
HETATM    3  C4  UNL     1      -0.846  -1.043   0.855  1.00  0.00     0.470 C 
HETATM    4  N2  UNL     1      -1.646   0.104   1.266  1.00  0.00    -0.023 N 
ATOM      5  H21 UNL     1      -1.192   0.744   1.918  1.00  0.00     0.282 HD
ATOM      6  H22 UNL     1      -2.432  -0.107   1.881  1.00  0.00     0.282 HD
HETATM    7  C5  UNL     1      -2.000   0.675  -0.030  1.00  0.00     0.346 C 
HETATM    8  C6  UNL     1      -0.680   0.597  -0.760  1.00  0.00     0.299 C 
ENDROOT
BRANCH   1   9
HETATM    9  C2  UNL     1       1.110   0.223   0.743  1.00  0.00     0.234 C 
HETATM   10  C1  UNL     1       2.455   0.331   0.109  1.00  0.00     0.035 C 
ENDBRANCH   1   9
BRANCH   7  11
HETATM   11  O1  UNL     1      -2.383   2.007   0.097  1.00  0.00    -0.368 OA
ATOM     12  H1  UNL     1      -2.613   2.379  -0.746  1.00  0.00     0.212 HD
ENDBRANCH   7  11
TORSDOF 2
