REMARK  1 active torsions:
REMARK  status: ('A' for Active; 'I' for Inactive)
REMARK    1  A    between atoms: N1_2  and  C2_3 
ROOT
HETATM    1  C1  UNL     1      -0.037   1.850   0.064  1.00  0.00     0.275 C 
HETATM    2  N1  UNL     1      -0.121   0.397   0.186  1.00  0.00    -0.040 N 
HETATM    3  C4  UNL     1      -1.260  -0.037   0.985  1.00  0.00     0.241 A 
HETATM    4  C5  UNL     1      -1.869  -0.660  -0.253  1.00  0.00     0.056 A 
HETATM    5  C6  UNL     1      -0.648  -0.195  -0.988  1.00  0.00     0.241 A 
ENDROOT
BRANCH   2   6
HETATM    6  C2  UNL     1       1.087  -0.156   0.736  1.00  0.00     0.412 A 
HETATM    7  C3  UNL     1       1.655  -1.429   0.374  1.00  0.00     0.297 A 
HETATM    8  N2  UNL     1       2.260  -0.219  -0.124  1.00  0.00    -0.040 N 
ATOM      9  H22 UNL     1       2.502   0.143  -1.046  1.00  0.00     0.279 HD
ATOM     10  H21 UNL     1       3.197   0.184  -0.102  1.00  0.00     0.279 HD
ENDBRANCH   2   6
TORSDOF 1
