REMARK  5 active torsions:
REMARK  status: ('A' for Active; 'I' for Inactive)
REMARK    1  A    between atoms: C2_2  and  C4_4 
REMARK    2  A    between atoms: C4_4  and  N1_5 
REMARK    3  A    between atoms: C4_4  and  C11_14 
REMARK    4  A    between atoms: N1_5  and  C5_7 
REMARK    5  A    between atoms: C5_7  and  C8_10 
ROOT
HETATM    1  C11 UNL     1       0.522  -0.940   0.309  1.00  0.00     0.048 A 
HETATM    2  C12 UNL     1       0.948  -1.174   1.575  1.00  0.00     0.104 A 
HETATM    3  N2  UNL     1       2.210  -0.762   1.919  1.00  0.00    -0.354 N 
ATOM      4  H2  UNL     1       2.547  -0.930   2.867  1.00  0.00     0.166 HD
HETATM    5  C13 UNL     1       3.011  -0.144   1.039  1.00  0.00     0.089 A 
HETATM    6  N3  UNL     1       2.626   0.097  -0.202  1.00  0.00    -0.282 N 
HETATM    7  C14 UNL     1       1.387  -0.303  -0.552  1.00  0.00     0.262 A 
HETATM    8  O1  UNL     1       0.992  -0.090  -1.729  1.00  0.00    -0.267 OA
HETATM    9  C15 UNL     1       3.242   0.680  -1.352  1.00  0.00     0.074 C 
HETATM   10  C16 UNL     1       4.580   1.228  -1.300  1.00  0.00     0.045 C 
HETATM   11  C17 UNL     1       5.527   0.745  -0.259  1.00  0.00     0.006 C 
HETATM   12  C18 UNL     1       5.030   1.318   1.073  1.00  0.00     0.008 C 
HETATM   13  C19 UNL     1       4.276   0.173   1.697  1.00  0.00     0.077 C 
ENDROOT
BRANCH   1  14
HETATM   14  C4  UNL     1      -0.896  -1.266  -0.125  1.00  0.00     0.121 C 
BRANCH  14  15
HETATM   15  C2  UNL     1      -1.335  -2.469   0.620  1.00  0.00     0.004 C 
HETATM   16  C1  UNL     1      -0.407  -3.671   0.285  1.00  0.00     0.012 C 
HETATM   17  C3  UNL     1      -2.727  -2.971   0.527  1.00  0.00     0.012 C 
ENDBRANCH  14  15
BRANCH  14  18
HETATM   18  N1  UNL     1      -1.652  -0.133   0.088  1.00  0.00    -0.403 N 
ATOM     19  H1  UNL     1      -1.338   0.393   0.903  1.00  0.00     0.154 HD
BRANCH  18  20
HETATM   20  C5  UNL     1      -2.718   0.455  -0.527  1.00  0.00     0.039 C 
HETATM   21  C6  UNL     1      -2.326   1.065  -1.917  1.00  0.00     0.039 C 
HETATM   22  C7  UNL     1      -3.965  -0.321  -0.913  1.00  0.00     0.039 C 
BRANCH  20  23
HETATM   23  C8  UNL     1      -3.160   1.660   0.338  1.00  0.00     0.054 C 
HETATM   24  C9  UNL     1      -4.319   2.408  -0.231  1.00  0.00     0.035 C 
HETATM   25  C10 UNL     1      -2.064   2.586   0.683  1.00  0.00     0.035 C 
HETATM   26 CL1  UNL     1      -3.769   0.989   1.911  1.00  0.00    -0.117 Cl
ENDBRANCH  20  23
ENDBRANCH  18  20
ENDBRANCH  14  18
ENDBRANCH   1  14
TORSDOF 5
