REMARK  10 active torsions:
REMARK  status: ('A' for Active; 'I' for Inactive)
REMARK    1  A    between atoms: O1_2  and  C2_3 
REMARK    2  A    between atoms: C3_4  and  O2_5 
REMARK    3  A    between atoms: C9_11  and  C10_12 
REMARK    4  A    between atoms: C10_12  and  O3_13 
REMARK    5  A    between atoms: C10_12  and  O4_15 
REMARK    6  A    between atoms: O4_15  and  C11_16 
REMARK    7  A    between atoms: C15_20  and  O5_21 
REMARK    8  A    between atoms: N1_25  and  O7_26 
REMARK    9  A    between atoms: N2_30  and  O8_31 
REMARK   10  A    between atoms: C19_33  and  O9_34 
ROOT
HETATM    1  C2  UNL     1       4.206   0.298  -0.449  1.00  0.00     0.156 A 
HETATM    2  C3  UNL     1       3.130   1.038  -0.866  1.00  0.00     0.118 A 
HETATM    3  C5  UNL     1       1.889   0.735  -0.380  1.00  0.00     0.032 A 
HETATM    4  C6  UNL     1       0.804   1.480  -0.753  1.00  0.00     0.018 A 
HETATM    5  C7  UNL     1      -0.439   1.226  -0.265  1.00  0.00     0.016 A 
HETATM    6  C8  UNL     1      -0.644   0.198   0.627  1.00  0.00     0.010 A 
HETATM    7  C9  UNL     1      -1.905  -0.060   1.085  1.00  0.00     0.048 A 
HETATM    8  C15 UNL     1      -2.083  -1.125   1.953  1.00  0.00     0.148 A 
HETATM    9  C16 UNL     1      -1.015  -1.881   2.325  1.00  0.00     0.305 A 
HETATM   10  O6  UNL     1      -1.172  -2.851   3.112  1.00  0.00    -0.263 OA
HETATM   11  N1  UNL     1       0.260  -1.629   1.872  1.00  0.00    -0.182 N 
HETATM   12  C17 UNL     1       0.453  -0.613   1.049  1.00  0.00     0.107 A 
HETATM   13  C18 UNL     1       1.726  -0.329   0.538  1.00  0.00     0.108 A 
HETATM   14  N2  UNL     1       2.786  -1.024   0.927  1.00  0.00    -0.196 N 
HETATM   15  C19 UNL     1       4.040  -0.728   0.443  1.00  0.00     0.206 A 
ENDROOT
BRANCH   7  16
HETATM   16  C10 UNL     1      -3.047   0.819   0.737  1.00  0.00     0.296 C 
BRANCH  16  17
HETATM   17  O3  UNL     1      -2.787   2.180   1.018  1.00  0.00    -0.367 OA
ATOM     18  H3  UNL     1      -3.519   2.743   0.795  1.00  0.00     0.213 HD
ENDBRANCH  16  17
BRANCH  16  19
HETATM   19  O4  UNL     1      -3.393   0.671  -0.593  1.00  0.00    -0.347 OA
BRANCH  19  20
HETATM   20  C11 UNL     1      -4.671   0.349  -0.893  1.00  0.00     0.053 C 
HETATM   21  C12 UNL     1      -5.691   1.342  -0.359  1.00  0.00     0.045 C 
HETATM   22  C13 UNL     1      -4.777   0.521  -2.437  1.00  0.00     0.045 C 
HETATM   23  C14 UNL     1      -5.122  -1.047  -0.640  1.00  0.00     0.045 C 
ENDBRANCH  19  20
ENDBRANCH  16  19
ENDBRANCH   7  16
BRANCH   8  24
HETATM   24  O5  UNL     1      -3.367  -1.379   2.418  1.00  0.00    -0.355 OA
ATOM     25  H5  UNL     1      -3.489  -2.109   3.013  1.00  0.00     0.218 HD
ENDBRANCH   8  24
BRANCH  11  26
HETATM   26  O7  UNL     1       1.177  -2.536   2.263  1.00  0.00    -0.279 OA
ATOM     27  H7  UNL     1       2.057  -2.362   1.950  1.00  0.00     0.245 HD
ENDBRANCH  11  26
BRANCH  14  28
HETATM   28  O8  UNL     1       2.807  -1.975   1.855  1.00  0.00    -0.280 OA
ATOM     29  H8  UNL     1       3.566  -2.473   2.134  1.00  0.00     0.245 HD
ENDBRANCH  14  28
BRANCH   2  30
HETATM   30  O2  UNL     1       3.245   2.093  -1.771  1.00  0.00    -0.352 OA
HETATM   31  C4  UNL     1       3.125   1.799  -3.148  1.00  0.00     0.210 C 
ENDBRANCH   2  30
BRANCH  15  32
HETATM   32  O9  UNL     1       5.076  -1.510   0.904  1.00  0.00    -0.337 OA
HETATM   33  C20 UNL     1       5.439  -2.755   0.356  1.00  0.00     0.212 C 
ENDBRANCH  15  32
BRANCH   1  34
HETATM   34  O1  UNL     1       5.467   0.594  -0.935  1.00  0.00    -0.349 OA
HETATM   35  C1  UNL     1       6.239   1.528  -0.214  1.00  0.00     0.210 C 
ENDBRANCH   1  34
TORSDOF 10
