REMARK  16 active torsions:
REMARK  status: ('A' for Active; 'I' for Inactive)
REMARK    1  A    between atoms: C2_2  and  C4_4 
REMARK    2  A    between atoms: C4_4  and  C5_5 
REMARK    3  A    between atoms: C5_5  and  N1_6 
REMARK       I    between atoms: N1_6  and  C6_8 
REMARK       I    between atoms: C6_8  and  N2_10 
REMARK    4  A    between atoms: N2_10  and  C7_12 
REMARK    5  A    between atoms: C7_12  and  C8_13 
REMARK    6  A    between atoms: C7_12  and  C12_21 
REMARK    7  A    between atoms: C8_13  and  C9_14 
REMARK    8  A    between atoms: C9_14  and  C10_15 
REMARK    9  A    between atoms: C10_15  and  C11_16 
REMARK   10  A    between atoms: C11_16  and  N3_17 
REMARK       I    between atoms: C12_21  and  N4_23 
REMARK   11  A    between atoms: N5_26  and  C15_27 
REMARK   12  A    between atoms: C15_27  and  O3_28 
REMARK   13  A    between atoms: C15_27  and  N6_30 
REMARK   14  A    between atoms: C17_33  and  C18_34 
REMARK   15  A    between atoms: C18_34  and  O5_36 
REMARK   16  A    between atoms: O5_36  and  C20_37 
ROOT
HETATM    1  C12 UNL     1       2.375  -0.791  -1.013  1.00  0.00     0.242 C 
HETATM    2  O2  UNL     1       2.775  -2.024  -0.924  1.00  0.00    -0.271 OA
HETATM    3  N4  UNL     1       1.143  -0.630  -1.646  1.00  0.00    -0.347 N 
HETATM    4  C13 UNL     1       0.439   0.646  -1.830  1.00  0.00     0.145 C 
HETATM    5  C14 UNL     1      -1.014   0.398  -2.147  1.00  0.00     0.146 C 
HETATM    6  N5  UNL     1      -1.589  -0.661  -1.226  1.00  0.00    -0.344 N 
HETATM    7  C28 UNL     1      -0.851  -1.865  -1.291  1.00  0.00     0.146 C 
HETATM    8  C29 UNL     1       0.383  -1.753  -2.226  1.00  0.00     0.145 C 
ENDROOT
BRANCH   1   9
HETATM    9  C7  UNL     1       3.230   0.249  -0.458  1.00  0.00     0.178 C 
BRANCH   9  10
HETATM   10  N2  UNL     1       4.430  -0.329   0.164  1.00  0.00    -0.330 N 
HETATM   11  C6  UNL     1       4.814  -0.110   1.504  1.00  0.00     0.316 C 
HETATM   12  N1  UNL     1       5.974  -0.695   2.073  1.00  0.00    -0.343 N 
HETATM   13  O1  UNL     1       4.103   0.630   2.220  1.00  0.00    -0.247 OA
ATOM     14  H1  UNL     1       6.533  -1.316   1.487  1.00  0.00     0.164 HD
ATOM     15  H2  UNL     1       5.024  -0.927  -0.410  1.00  0.00     0.165 HD
BRANCH  12  16
HETATM   16  C5  UNL     1       6.410  -0.470   3.416  1.00  0.00     0.125 C 
BRANCH  16  17
HETATM   17  C4  UNL     1       6.743   0.968   3.672  1.00  0.00     0.023 C 
BRANCH  17  18
HETATM   18  C2  UNL     1       7.811   1.496   2.763  1.00  0.00    -0.021 C 
HETATM   19  C1  UNL     1       8.084   2.951   3.096  1.00  0.00     0.009 C 
HETATM   20  C3  UNL     1       9.100   0.756   2.772  1.00  0.00     0.009 C 
ENDBRANCH  17  18
ENDBRANCH  16  17
ENDBRANCH  12  16
ENDBRANCH   9  10
BRANCH   9  21
HETATM   21  C8  UNL     1       3.591   1.335  -1.399  1.00  0.00     0.035 C 
BRANCH  21  22
HETATM   22  C9  UNL     1       4.465   1.054  -2.544  1.00  0.00     0.004 C 
BRANCH  22  23
HETATM   23  C10 UNL     1       4.047   0.086  -3.578  1.00  0.00     0.027 C 
BRANCH  23  24
HETATM   24  C11 UNL     1       5.168   0.017  -4.625  1.00  0.00     0.229 C 
BRANCH  24  25
HETATM   25  N3  UNL     1       4.870  -0.905  -5.676  1.00  0.00    -0.079 N 
ATOM     26  H33 UNL     1       4.655  -1.830  -5.305  1.00  0.00     0.274 HD
ATOM     27  H32 UNL     1       3.972  -0.691  -6.110  1.00  0.00     0.274 HD
ATOM     28  H31 UNL     1       5.615  -0.951  -6.372  1.00  0.00     0.274 HD
ENDBRANCH  24  25
ENDBRANCH  23  24
ENDBRANCH  22  23
ENDBRANCH  21  22
ENDBRANCH   9  21
ENDBRANCH   1   9
BRANCH   6  29
HETATM   29  C15 UNL     1      -2.646  -0.294  -0.406  1.00  0.00     0.225 C 
BRANCH  29  30
HETATM   30  O3  UNL     1      -2.785   1.062  -0.478  1.00  0.00    -0.332 OA
ATOM     31  H3  UNL     1      -3.509   1.313   0.084  1.00  0.00     0.221 HD
ENDBRANCH  29  30
BRANCH  29  32
HETATM   32  N6  UNL     1      -3.588  -0.890   0.454  1.00  0.00    -0.265 N 
HETATM   33  C16 UNL     1      -4.347   0.016   1.284  1.00  0.00     0.235 C 
HETATM   34  O4  UNL     1      -3.912   1.221   1.338  1.00  0.00    -0.272 OA
HETATM   35  C17 UNL     1      -5.541  -0.236   2.081  1.00  0.00     0.116 C 
HETATM   36  C24 UNL     1      -5.466  -1.592   2.772  1.00  0.00     0.093 C 
HETATM   37  S1  UNL     1      -5.262  -2.813   1.492  1.00  0.00    -0.137 SA
HETATM   38  C25 UNL     1      -3.755  -2.304   0.551  1.00  0.00     0.085 C 
HETATM   39  C26 UNL     1      -2.647  -3.079   1.194  1.00  0.00     0.051 C 
HETATM   40  C27 UNL     1      -4.071  -2.845  -0.857  1.00  0.00     0.051 C 
BRANCH  35  41
HETATM   41  C18 UNL     1      -6.841  -0.007   1.401  1.00  0.00     0.132 C 
HETATM   42  C19 UNL     1      -8.019  -0.328   2.355  1.00  0.00     0.040 C 
BRANCH  41  43
HETATM   43  O5  UNL     1      -6.973   1.192   0.839  1.00  0.00    -0.376 OA
BRANCH  43  44
HETATM   44  C20 UNL     1      -7.315   1.507  -0.379  1.00  0.00     0.050 C 
HETATM   45  C21 UNL     1      -7.290   3.051  -0.474  1.00  0.00     0.045 C 
HETATM   46  C22 UNL     1      -6.307   1.034  -1.401  1.00  0.00     0.045 C 
HETATM   47  C23 UNL     1      -8.655   1.101  -0.911  1.00  0.00     0.045 C 
ENDBRANCH  43  44
ENDBRANCH  41  43
ENDBRANCH  35  41
ENDBRANCH  29  32
ENDBRANCH   6  29
TORSDOF 16
