REMARK  14 active torsions:
REMARK  status: ('A' for Active; 'I' for Inactive)
REMARK    1  A    between atoms: C2_2  and  O2_4 
REMARK    2  A    between atoms: O2_4  and  C3_5 
REMARK    3  A    between atoms: C4_6  and  S1_7 
REMARK    4  A    between atoms: C5_10  and  O4_11 
REMARK    5  A    between atoms: O4_11  and  C6_12 
REMARK    6  A    between atoms: C7_13  and  O5_14 
REMARK    7  A    between atoms: C9_17  and  C10_18 
REMARK    8  A    between atoms: C11_21  and  O8_22 
REMARK    9  A    between atoms: O8_22  and  S3_23 
REMARK   10  A    between atoms: C12_27  and  O12_28 
REMARK   11  A    between atoms: O12_28  and  S4_29 
REMARK   12  A    between atoms: C13_33  and  O16_34 
REMARK   13  A    between atoms: C14_36  and  O17_37 
REMARK   14  A    between atoms: O17_37  and  S5_38 
ROOT
HETATM    1  C6  UNL     1      -1.261   0.570  -0.617  1.00  0.00     0.186 C 
HETATM    2  C7  UNL     1      -1.733   1.958  -0.918  1.00  0.00     0.150 C 
HETATM    3  C8  UNL     1      -2.757   2.407   0.065  1.00  0.00     0.052 C 
HETATM    4  C9  UNL     1      -3.798   1.415   0.423  1.00  0.00     0.122 C 
HETATM    5  C11 UNL     1      -3.329  -0.007   0.482  1.00  0.00     0.192 C 
HETATM    6  C12 UNL     1      -2.489  -0.341  -0.761  1.00  0.00     0.208 C 
ENDROOT
BRANCH   1   7
HETATM    7  O4  UNL     1      -0.197   0.140  -1.348  1.00  0.00    -0.348 OA
BRANCH   7   8
HETATM    8  C5  UNL     1       0.925  -0.214  -0.615  1.00  0.00     0.293 C 
HETATM    9  O3  UNL     1       1.330  -1.483  -0.884  1.00  0.00    -0.340 OA
HETATM   10  C4  UNL     1       2.395  -2.000  -0.212  1.00  0.00     0.230 C 
HETATM   11  C3  UNL     1       3.206  -0.892   0.393  1.00  0.00     0.204 C 
HETATM   12  C14 UNL     1       3.390   0.178  -0.674  1.00  0.00     0.211 C 
HETATM   13  C13 UNL     1       2.040   0.717  -1.111  1.00  0.00     0.206 C 
BRANCH  10  14
HETATM   14  S1  UNL     1       1.819  -3.065   1.169  1.00  0.00    -0.050 SA
HETATM   15  S2  UNL     1       0.465  -1.964   2.384  1.00  0.00    -0.011 SA
ENDBRANCH  10  14
BRANCH  11  16
HETATM   16  O2  UNL     1       4.463  -1.341   0.869  1.00  0.00    -0.310 OA
BRANCH  16  17
HETATM   17  C2  UNL     1       4.838  -1.196   2.202  1.00  0.00     0.255 C 
HETATM   18  C1  UNL     1       6.148  -1.658   2.720  1.00  0.00     0.126 C 
HETATM   19  O1  UNL     1       3.999  -0.644   2.961  1.00  0.00    -0.266 OA
ENDBRANCH  16  17
ENDBRANCH  11  16
BRANCH  12  20
HETATM   20  O17 UNL     1       4.208   1.207  -0.263  1.00  0.00    -0.246 OA
BRANCH  20  21
HETATM   21  S5  UNL     1       5.570   1.317  -1.250  1.00  0.00     0.252 S 
HETATM   22  O18 UNL     1       6.272   2.628  -0.997  1.00  0.00    -0.572 OA
HETATM   23  O19 UNL     1       6.536   0.204  -1.004  1.00  0.00    -0.572 OA
HETATM   24  O20 UNL     1       5.058   1.199  -2.853  1.00  0.00    -0.572 OA
ENDBRANCH  20  21
ENDBRANCH  12  20
BRANCH  13  25
HETATM   25  O16 UNL     1       1.954   0.970  -2.460  1.00  0.00    -0.388 OA
ATOM     26  H16 UNL     1       2.644   1.546  -2.767  1.00  0.00     0.210 HD
ENDBRANCH  13  25
ENDBRANCH   7   8
ENDBRANCH   1   7
BRANCH   2  27
HETATM   27  O5  UNL     1      -0.710   2.906  -0.898  1.00  0.00    -0.393 OA
ATOM     28  H5  UNL     1      -1.010   3.787  -1.089  1.00  0.00     0.210 HD
ENDBRANCH   2  27
BRANCH   6  29
HETATM   29  O12 UNL     1      -3.222   0.085  -1.849  1.00  0.00    -0.246 OA
BRANCH  29  30
HETATM   30  S4  UNL     1      -3.534  -1.107  -2.966  1.00  0.00     0.252 S 
HETATM   31  O13 UNL     1      -4.994  -1.293  -3.236  1.00  0.00    -0.572 OA
HETATM   32  O14 UNL     1      -2.965  -2.429  -2.593  1.00  0.00    -0.572 OA
HETATM   33  O15 UNL     1      -2.813  -0.645  -4.421  1.00  0.00    -0.572 OA
ENDBRANCH  29  30
ENDBRANCH   6  29
BRANCH   5  34
HETATM   34  O8  UNL     1      -4.455  -0.822   0.492  1.00  0.00    -0.248 OA
BRANCH  34  35
HETATM   35  S3  UNL     1      -4.530  -1.866   1.766  1.00  0.00     0.252 S 
HETATM   36  O9  UNL     1      -3.605  -1.569   2.877  1.00  0.00    -0.572 OA
HETATM   37  O10 UNL     1      -4.180  -3.253   1.248  1.00  0.00    -0.572 OA
HETATM   38  O11 UNL     1      -6.148  -1.949   2.272  1.00  0.00    -0.572 OA
ENDBRANCH  34  35
ENDBRANCH   5  34
BRANCH   4  39
HETATM   39  C10 UNL     1      -4.359   1.777   1.742  1.00  0.00     0.179 C 
HETATM   40  O6  UNL     1      -5.571   2.032   1.887  1.00  0.00    -0.648 OA
HETATM   41  O7  UNL     1      -3.515   1.830   2.830  1.00  0.00    -0.648 OA
ENDBRANCH   4  39
TORSDOF 14
