REMARK  12 active torsions:
REMARK  status: ('A' for Active; 'I' for Inactive)
REMARK    1  A    between atoms: C11_11  and  C12_12 
REMARK    2  A    between atoms: C12_12  and  C13_13 
REMARK    3  A    between atoms: C13_13  and  C14_14 
REMARK    4  A    between atoms: C14_14  and  O1_15 
REMARK    5  A    between atoms: C14_14  and  N1_17 
REMARK    6  A    between atoms: N1_17  and  C15_19 
REMARK    7  A    between atoms: C15_19  and  C16_20 
REMARK    8  A    between atoms: C16_20  and  C17_21 
REMARK    9  A    between atoms: C17_21  and  C18_22 
REMARK   10  A    between atoms: C18_22  and  C19_23 
REMARK   11  A    between atoms: C19_23  and  C20_24 
REMARK   12  A    between atoms: C26_33  and  O5_34 
ROOT
HETATM    1  C1  UNL     1      -7.103  -1.609  -0.697  1.00  0.00     0.014 C 
HETATM    2  C2  UNL     1      -5.940  -1.062  -0.471  1.00  0.00    -0.084 C 
HETATM    3  C3  UNL     1      -5.589   0.367  -0.580  1.00  0.00     0.041 C 
HETATM    4  C4  UNL     1      -4.189   0.295  -1.212  1.00  0.00     0.024 C 
HETATM    5  C5  UNL     1      -3.586  -0.997  -0.872  1.00  0.00     0.005 C 
HETATM    6  C6  UNL     1      -4.666  -1.721  -0.049  1.00  0.00     0.019 C 
HETATM    7  C7  UNL     1      -4.401  -1.324   1.376  1.00  0.00     0.010 C 
HETATM    8  C8  UNL     1      -2.865  -1.248   1.406  1.00  0.00     0.006 C 
HETATM    9  C9  UNL     1      -2.396  -0.980   0.038  1.00  0.00    -0.003 C 
HETATM   10  C10 UNL     1      -1.515   0.193  -0.212  1.00  0.00     0.015 C 
HETATM   11  C11 UNL     1      -0.204   0.196   0.506  1.00  0.00     0.083 C 
HETATM   12  C21 UNL     1      -0.258   1.000   1.788  1.00  0.00     0.135 C 
HETATM   13  O4  UNL     1       0.382   0.571   2.732  1.00  0.00    -0.297 OA
HETATM   14  C22 UNL     1      -1.051   2.232   1.865  1.00  0.00     0.080 C 
HETATM   15  C23 UNL     1      -2.362   2.140   1.169  1.00  0.00     0.019 C 
HETATM   16  C24 UNL     1      -2.196   1.516  -0.195  1.00  0.00    -0.012 C 
HETATM   17  C25 UNL     1      -1.229   2.489  -0.908  1.00  0.00     0.018 C 
HETATM   18  C26 UNL     1      -3.451   1.544  -1.000  1.00  0.00     0.131 C 
ENDROOT
BRANCH  11  19
HETATM   19  C12 UNL     1       0.325  -1.138   0.728  1.00  0.00    -0.010 C 
BRANCH  19  20
HETATM   20  C13 UNL     1       1.323  -1.784   0.242  1.00  0.00     0.052 C 
BRANCH  20  21
HETATM   21  C14 UNL     1       2.347  -1.526  -0.704  1.00  0.00     0.135 C 
BRANCH  21  22
HETATM   22  O1  UNL     1       3.192  -2.519  -0.882  1.00  0.00    -0.346 OA
ATOM     23  H1  UNL     1       3.878  -2.346  -1.516  1.00  0.00     0.219 HD
ENDBRANCH  21  22
BRANCH  21  24
HETATM   24  N1  UNL     1       2.660  -0.425  -1.509  1.00  0.00    -0.371 N 
ATOM     25  H1  UNL     1       2.062   0.399  -1.451  1.00  0.00     0.161 HD
BRANCH  24  26
HETATM   26  C15 UNL     1       3.790  -0.390  -2.424  1.00  0.00     0.121 C 
BRANCH  26  27
HETATM   27  C16 UNL     1       5.127  -0.548  -1.763  1.00  0.00     0.020 C 
BRANCH  27  28
HETATM   28  C17 UNL     1       5.414   0.514  -0.754  1.00  0.00     0.002 C 
BRANCH  28  29
HETATM   29  C18 UNL     1       6.770   0.299  -0.153  1.00  0.00     0.010 C 
BRANCH  29  30
HETATM   30  C19 UNL     1       6.963  -0.995   0.561  1.00  0.00     0.113 C 
BRANCH  30  31
HETATM   31  C20 UNL     1       8.353  -1.069   1.127  1.00  0.00     0.172 C 
HETATM   32  O2  UNL     1       9.348  -1.398   0.468  1.00  0.00    -0.648 OA
HETATM   33  O3  UNL     1       8.529  -0.745   2.474  1.00  0.00    -0.648 OA
ENDBRANCH  30  31
ENDBRANCH  29  30
ENDBRANCH  28  29
ENDBRANCH  27  28
ENDBRANCH  26  27
ENDBRANCH  24  26
ENDBRANCH  21  24
ENDBRANCH  20  21
ENDBRANCH  19  20
ENDBRANCH  11  19
BRANCH  18  34
HETATM   34  O5  UNL     1      -4.313   2.448  -0.326  1.00  0.00    -0.394 OA
ATOM     35  H5  UNL     1      -3.835   3.257  -0.189  1.00  0.00     0.210 HD
ENDBRANCH  18  34
TORSDOF 12
