REMARK  8 active torsions:
REMARK  status: ('A' for Active; 'I' for Inactive)
REMARK    1  A    between atoms: C2_2  and  N2_6 
REMARK    2  A    between atoms: N2_6  and  C3_8 
REMARK    3  A    between atoms: C3_8  and  C4_9 
REMARK       I    between atoms: C4_9  and  N3_11 
REMARK    4  A    between atoms: N3_11  and  C5_13 
REMARK    5  A    between atoms: C5_13  and  C6_14 
REMARK    6  A    between atoms: C6_14  and  C7_15 
REMARK    7  A    between atoms: C7_15  and  N4_16 
REMARK    8  A    between atoms: N4_16  and  C8_17 
ROOT
HETATM    1  C3  UNL     1      -2.622  -0.648   0.111  1.00  0.00     0.208 C 
HETATM    2  C11 UNL     1      -2.804  -0.379  -1.348  1.00  0.00     0.189 C 
HETATM    3  N5  UNL     1      -3.589  -1.540  -1.753  1.00  0.00    -0.338 N 
ATOM      4  H5  UNL     1      -4.297  -1.570  -2.487  1.00  0.00     0.164 HD
HETATM    5  C12 UNL     1      -3.173  -2.630  -0.921  1.00  0.00     0.318 C 
HETATM    6  O2  UNL     1      -3.462  -3.843  -1.064  1.00  0.00    -0.247 OA
HETATM    7  N6  UNL     1      -2.360  -2.085   0.113  1.00  0.00    -0.307 N 
ATOM      8  H6  UNL     1      -1.725  -2.593   0.729  1.00  0.00     0.167 HD
ENDROOT
BRANCH   1   9
HETATM    9  N2  UNL     1      -3.809  -0.395   0.893  1.00  0.00    -0.345 N 
ATOM     10  H2  UNL     1      -4.295  -1.207   1.273  1.00  0.00     0.163 HD
BRANCH   9  11
HETATM   11  C2  UNL     1      -4.358   0.871   1.179  1.00  0.00     0.068 C 
HETATM   12  C1  UNL     1      -4.577   1.274   2.602  1.00  0.00     0.088 C 
HETATM   13  N1  UNL     1      -4.666   1.658   0.215  1.00  0.00    -0.389 N 
ATOM     14  H12 UNL     1      -5.063   2.574   0.422  1.00  0.00     0.157 HD
ATOM     15  H11 UNL     1      -4.517   1.383  -0.756  1.00  0.00     0.157 HD
ENDBRANCH   9  11
ENDBRANCH   1   9
BRANCH   1  16
HETATM   16  C4  UNL     1      -1.489   0.087   0.723  1.00  0.00     0.268 C 
HETATM   17  O1  UNL     1      -1.652   0.784   1.757  1.00  0.00    -0.269 OA
HETATM   18  N3  UNL     1      -0.215  -0.020   0.108  1.00  0.00    -0.357 N 
ATOM     19  H3  UNL     1      -0.104  -0.591  -0.730  1.00  0.00     0.162 HD
BRANCH  18  20
HETATM   20  C5  UNL     1       0.949   0.686   0.670  1.00  0.00     0.129 C 
BRANCH  20  21
HETATM   21  C6  UNL     1       2.124   0.382  -0.184  1.00  0.00     0.079 C 
BRANCH  21  22
HETATM   22  C7  UNL     1       3.372   0.989   0.208  1.00  0.00     0.156 C 
BRANCH  22  23
HETATM   23  N4  UNL     1       4.424   0.433  -0.252  1.00  0.00    -0.432 NA
BRANCH  23  24
HETATM   24  C8  UNL     1       5.377  -0.218  -0.764  1.00  0.00     0.053 C 
HETATM   25  C9  UNL     1       5.785   0.255  -2.074  1.00  0.00     0.079 C 
HETATM   26  C10 UNL     1       5.876  -1.310   0.050  1.00  0.00     0.079 C 
ENDBRANCH  23  24
ENDBRANCH  22  23
ENDBRANCH  21  22
ENDBRANCH  20  21
ENDBRANCH  18  20
ENDBRANCH   1  16
TORSDOF 8
