REMARK  8 active torsions:
REMARK  status: ('A' for Active; 'I' for Inactive)
REMARK    1  A    between atoms: O1_1  and  C1_3 
REMARK    2  A    between atoms: C3_5  and  N1_6 
REMARK    3  A    between atoms: C9_12  and  O2_13 
REMARK    4  A    between atoms: N2_15  and  C10_16 
REMARK    5  A    between atoms: C10_16  and  C11_17 
REMARK    6  A    between atoms: C11_17  and  C12_18 
REMARK    7  A    between atoms: C12_18  and  C13_19 
REMARK    8  A    between atoms: C13_19  and  N3_20 
ROOT
HETATM    1  C1  UNL     1      -2.097   1.333  -1.548  1.00  0.00     0.146 A 
HETATM    2  C2  UNL     1      -3.376   0.832  -1.648  1.00  0.00     0.089 A 
HETATM    3  C3  UNL     1      -3.735   0.228  -0.436  1.00  0.00     0.086 A 
HETATM    4  C9  UNL     1      -2.631   0.399   0.351  1.00  0.00     0.171 A 
HETATM    5  N2  UNL     1      -1.651   1.061  -0.317  1.00  0.00    -0.307 N 
ENDROOT
BRANCH   5   6
HETATM    6  C10 UNL     1      -0.381   1.388   0.238  1.00  0.00     0.133 C 
BRANCH   6   7
HETATM    7  C11 UNL     1       0.629   0.292  -0.003  1.00  0.00     0.022 C 
BRANCH   7   8
HETATM    8  C12 UNL     1       1.975   0.670   0.598  1.00  0.00     0.032 C 
BRANCH   8   9
HETATM    9  C13 UNL     1       2.901  -0.469   0.310  1.00  0.00     0.272 C 
BRANCH   9  10
HETATM   10  N3  UNL     1       4.235  -0.296   0.801  1.00  0.00     0.088 N 
HETATM   11  C14 UNL     1       4.977   0.740   0.128  1.00  0.00     0.272 C 
HETATM   12  C15 UNL     1       5.804   0.223  -1.026  1.00  0.00     0.030 C 
HETATM   13  C16 UNL     1       7.199  -0.164  -0.634  1.00  0.00     0.002 C 
HETATM   14  C17 UNL     1       7.295  -1.338   0.275  1.00  0.00     0.002 C 
HETATM   15  C18 UNL     1       6.293  -1.346   1.390  1.00  0.00     0.030 C 
HETATM   16  C19 UNL     1       4.933  -1.568   0.788  1.00  0.00     0.272 C 
ENDBRANCH   9  10
ENDBRANCH   8   9
ENDBRANCH   7   8
ENDBRANCH   6   7
ENDBRANCH   5   6
BRANCH   1  17
HETATM   17  O1  UNL     1      -1.428   2.003  -2.586  1.00  0.00    -0.346 OA
ATOM     18  H1  UNL     1      -0.546   2.349  -2.517  1.00  0.00     0.219 HD
ENDBRANCH   1  17
BRANCH   4  19
HETATM   19  O2  UNL     1      -2.544  -0.060   1.678  1.00  0.00    -0.344 OA
ATOM     20  H2  UNL     1      -1.777   0.059   2.225  1.00  0.00     0.219 HD
ENDBRANCH   4  19
BRANCH   3  21
HETATM   21  N1  UNL     1      -4.990  -0.379  -0.187  1.00  0.00    -0.377 N 
HETATM   22  C4  UNL     1      -5.940  -0.527  -1.305  1.00  0.00     0.123 C 
HETATM   23  C5  UNL     1      -7.072   0.420  -0.970  1.00  0.00     0.020 C 
HETATM   24  C6  UNL     1      -7.755  -0.154   0.267  1.00  0.00     0.003 C 
HETATM   25  C7  UNL     1      -6.823  -0.291   1.421  1.00  0.00     0.020 C 
HETATM   26  C8  UNL     1      -5.468  -0.873   1.063  1.00  0.00     0.123 C 
ENDBRANCH   3  21
TORSDOF 8
