REMARK  9 active torsions:
REMARK  status: ('A' for Active; 'I' for Inactive)
REMARK    1  A    between atoms: C7_12  and  C8_13 
REMARK       I    between atoms: C8_13  and  N3_15 
REMARK    2  A    between atoms: N3_15  and  C9_17 
REMARK    3  A    between atoms: C10_20  and  O4_21 
REMARK    4  A    between atoms: N5_25  and  N6_26 
REMARK    5  A    between atoms: C12_29  and  C13_30 
REMARK    6  A    between atoms: C13_30  and  O6_31 
REMARK    7  A    between atoms: C13_30  and  C14_33 
REMARK    8  A    between atoms: C14_33  and  O7_34 
REMARK    9  A    between atoms: N7_36  and  O8_37 
ROOT
HETATM    1  C9  UNL     1      -1.842  -0.521  -0.739  1.00  0.00     0.209 C 
HETATM    2  N4  UNL     1      -2.566   0.206  -1.725  1.00  0.00    -0.367 N 
ATOM      3  H4  UNL     1      -3.106  -0.272  -2.446  1.00  0.00     0.158 HD
HETATM    4  C10 UNL     1      -2.506   1.616  -1.664  1.00  0.00     0.311 C 
HETATM    5  C11 UNL     1      -2.022   2.167  -0.378  1.00  0.00     0.286 C 
HETATM    6  O5  UNL     1      -1.784   3.397  -0.299  1.00  0.00    -0.267 OA
HETATM    7  N5  UNL     1      -1.818   1.360   0.764  1.00  0.00    -0.253 N 
HETATM    8  C12 UNL     1      -2.071  -0.064   0.670  1.00  0.00     0.183 C 
ENDROOT
BRANCH   1   9
HETATM    9  N3  UNL     1      -0.417  -0.422  -0.997  1.00  0.00    -0.336 N 
HETATM   10  C8  UNL     1       0.361  -1.570  -1.312  1.00  0.00     0.245 C 
HETATM   11  O3  UNL     1      -0.224  -2.687  -1.360  1.00  0.00    -0.271 OA
ATOM     12  H3  UNL     1       0.036   0.491  -0.951  1.00  0.00     0.164 HD
BRANCH  10  13
HETATM   13  C7  UNL     1       1.802  -1.504  -1.579  1.00  0.00     0.212 C 
HETATM   14  C6  UNL     1       2.612  -2.351  -0.624  1.00  0.00     0.086 C 
HETATM   15  C3  UNL     1       3.370  -1.345   0.188  1.00  0.00     0.059 A 
HETATM   16  C2  UNL     1       3.181  -0.106  -0.357  1.00  0.00     0.146 A 
HETATM   17  C4  UNL     1       4.154  -1.524   1.309  1.00  0.00     0.259 A 
HETATM   18  N1  UNL     1       3.804   0.935   0.261  1.00  0.00    -0.287 N 
HETATM   19  N7  UNL     1       2.344  -0.179  -1.494  1.00  0.00    -0.229 N 
HETATM   20  C1  UNL     1       3.635   2.251  -0.276  1.00  0.00     0.163 C 
HETATM   21  C5  UNL     1       4.565   0.738   1.355  1.00  0.00     0.330 A 
HETATM   22  N2  UNL     1       4.752  -0.476   1.891  1.00  0.00    -0.275 N 
HETATM   23  O2  UNL     1       5.132   1.718   1.910  1.00  0.00    -0.246 OA
ATOM     24  H2  UNL     1       5.334  -0.599   2.720  1.00  0.00     0.173 HD
HETATM   25  O1  UNL     1       4.296  -2.678   1.770  1.00  0.00    -0.267 OA
BRANCH  19  26
HETATM   26  O8  UNL     1       2.103   0.827  -2.346  1.00  0.00    -0.285 OA
ATOM     27  H8  UNL     1       1.541   0.778  -3.110  1.00  0.00     0.245 HD
ENDBRANCH  19  26
ENDBRANCH  10  13
ENDBRANCH   1   9
BRANCH   8  28
HETATM   28  C13 UNL     1      -3.419  -0.346   1.208  1.00  0.00     0.170 C 
BRANCH  28  29
HETATM   29  O6  UNL     1      -4.382   0.358   0.461  1.00  0.00    -0.391 OA
ATOM     30  H6  UNL     1      -5.248   0.177   0.807  1.00  0.00     0.210 HD
ENDBRANCH  28  29
BRANCH  28  31
HETATM   31  C14 UNL     1      -3.808  -1.803   1.173  1.00  0.00     0.198 C 
BRANCH  31  32
HETATM   32  O7  UNL     1      -5.075  -1.952   1.735  1.00  0.00    -0.398 OA
ATOM     33  H7  UNL     1      -5.320  -2.870   1.713  1.00  0.00     0.209 HD
ENDBRANCH  31  32
ENDBRANCH  28  31
ENDBRANCH   8  28
BRANCH   4  34
HETATM   34  O4  UNL     1      -1.650   2.103  -2.659  1.00  0.00    -0.368 OA
ATOM     35  H4  UNL     1      -1.610   3.051  -2.618  1.00  0.00     0.212 HD
ENDBRANCH   4  34
BRANCH   7  36
HETATM   36  N6  UNL     1      -1.379   1.923   1.961  1.00  0.00    -0.340 N 
ATOM     37  H62 UNL     1      -1.201   2.925   2.027  1.00  0.00     0.177 HD
ATOM     38  H61 UNL     1      -1.232   1.341   2.785  1.00  0.00     0.177 HD
ENDBRANCH   7  36
TORSDOF 9
