REMARK  7 active torsions:
REMARK  status: ('A' for Active; 'I' for Inactive)
REMARK    1  A    between atoms: C2_2  and  C3_3 
REMARK    2  A    between atoms: C2_2  and  N3_30 
REMARK    3  A    between atoms: C3_3  and  C4_4 
REMARK    4  A    between atoms: C4_4  and  C5_5 
REMARK    5  A    between atoms: C8_8  and  C9_9 
REMARK       I    between atoms: C9_9  and  N1_11 
REMARK    6  A    between atoms: C16_18  and  N2_19 
REMARK    7  A    between atoms: C18_24  and  C19_25 
ROOT
HETATM    1  N3  UNL     1       5.842   0.590  -0.239  1.00  0.00    -0.408 N 
HETATM    2  C21 UNL     1       7.098   0.663  -0.899  1.00  0.00     0.118 C 
HETATM    3  C22 UNL     1       7.753  -0.683  -1.104  1.00  0.00     0.038 C 
HETATM    4  C23 UNL     1       7.825  -1.483   0.169  1.00  0.00     0.096 C 
HETATM    5  C24 UNL     1       9.164  -1.857   0.554  1.00  0.00     0.064 C 
HETATM    6  N4  UNL     1      10.228  -2.173   0.851  1.00  0.00    -0.197 NA
HETATM    7  C25 UNL     1       7.125  -0.722   1.288  1.00  0.00     0.038 C 
HETATM    8  C26 UNL     1       5.732  -0.400   0.781  1.00  0.00     0.118 C 
ENDROOT
BRANCH   1   9
HETATM    9  C2  UNL     1       4.705   0.668  -1.112  1.00  0.00     0.075 C 
HETATM   10  C1  UNL     1       4.725   2.018  -1.796  1.00  0.00     0.032 C 
BRANCH   9  11
HETATM   11  C3  UNL     1       3.399   0.476  -0.421  1.00  0.00     0.029 C 
BRANCH  11  12
HETATM   12  C4  UNL     1       2.288   0.548  -1.478  1.00  0.00     0.040 C 
BRANCH  12  13
HETATM   13  C5  UNL     1       1.019   0.341  -0.691  1.00  0.00    -0.057 A 
HETATM   14  C6  UNL     1       0.337   1.410  -0.155  1.00  0.00     0.008 A 
HETATM   15  C7  UNL     1      -0.816   1.221   0.563  1.00  0.00     0.018 A 
HETATM   16  C8  UNL     1      -1.315  -0.071   0.761  1.00  0.00     0.047 A 
HETATM   17  C18 UNL     1      -0.657  -1.148   0.242  1.00  0.00     0.064 A 
HETATM   18  C20 UNL     1       0.513  -0.918  -0.484  1.00  0.00     0.024 A 
BRANCH  16  19
HETATM   19  C9  UNL     1      -2.547  -0.228   1.488  1.00  0.00     0.254 C 
HETATM   20  O1  UNL     1      -2.532  -0.519   2.699  1.00  0.00    -0.267 OA
HETATM   21  N1  UNL     1      -3.796  -0.037   0.793  1.00  0.00    -0.347 N 
HETATM   22  C10 UNL     1      -3.955   0.328  -0.593  1.00  0.00     0.127 C 
HETATM   23  C17 UNL     1      -5.096  -0.188   1.389  1.00  0.00     0.137 C 
HETATM   24  C11 UNL     1      -5.325  -0.258  -0.972  1.00  0.00     0.033 C 
HETATM   25  C12 UNL     1      -6.100  -0.047   0.318  1.00  0.00     0.005 C 
HETATM   26  C13 UNL     1      -7.119  -1.188   0.414  1.00  0.00     0.013 C 
HETATM   27  C16 UNL     1      -6.874   1.235   0.296  1.00  0.00     0.193 C 
HETATM   28  C14 UNL     1      -8.378  -0.530  -0.098  1.00  0.00     0.003 C 
HETATM   29  C15 UNL     1      -8.308   0.815   0.633  1.00  0.00     0.033 C 
BRANCH  27  30
HETATM   30  N2  UNL     1      -6.353   2.153   1.262  1.00  0.00    -0.074 N 
ATOM     31  H23 UNL     1      -6.324   1.744   2.196  1.00  0.00     0.274 HD
ATOM     32  H22 UNL     1      -5.354   2.312   1.134  1.00  0.00     0.274 HD
ATOM     33  H21 UNL     1      -6.880   3.026   1.247  1.00  0.00     0.274 HD
ENDBRANCH  27  30
ENDBRANCH  16  19
BRANCH  17  34
HETATM   34  C19 UNL     1      -1.111  -2.526   0.450  1.00  0.00     0.418 C 
HETATM   35  F1  UNL     1      -1.172  -2.886   1.791  1.00  0.00    -0.166 F 
HETATM   36  F2  UNL     1      -2.286  -2.778  -0.192  1.00  0.00    -0.166 F 
HETATM   37  F3  UNL     1      -0.108  -3.386  -0.068  1.00  0.00    -0.166 F 
ENDBRANCH  17  34
ENDBRANCH  12  13
ENDBRANCH  11  12
ENDBRANCH   9  11
ENDBRANCH   1   9
TORSDOF 7
