REMARK  6 active torsions:
REMARK  status: ('A' for Active; 'I' for Inactive)
REMARK    1  A    between atoms: C4_4  and  O1_5 
REMARK    2  A    between atoms: N1_19  and  C17_20 
REMARK    3  A    between atoms: C19_23  and  C20_24 
REMARK    4  A    between atoms: C21_25  and  S1_26 
REMARK    5  A    between atoms: S1_26  and  C22_29 
REMARK    6  A    between atoms: C22_29  and  C23_30 
ROOT
HETATM    1  C1  UNL     1       2.006   1.963   2.534  1.00  0.00     0.011 C 
HETATM    2  C2  UNL     1       1.567   0.569   2.316  1.00  0.00    -0.008 C 
HETATM    3  C3  UNL     1       0.115   0.333   2.133  1.00  0.00     0.043 C 
HETATM    4  C4  UNL     1      -0.344   1.085   0.908  1.00  0.00     0.066 C 
HETATM    5  C5  UNL     1       0.393   0.745  -0.321  1.00  0.00     0.021 C 
HETATM    6  C6  UNL     1      -0.344  -0.209  -1.241  1.00  0.00     0.008 C 
HETATM    7  C7  UNL     1      -1.332  -1.094  -0.609  1.00  0.00     0.006 C 
HETATM    8  C8  UNL     1      -2.166  -0.493   0.478  1.00  0.00    -0.001 C 
HETATM    9  C9  UNL     1      -1.828   0.920   0.800  1.00  0.00     0.025 C 
HETATM   10  C10 UNL     1      -2.470   1.945  -0.066  1.00  0.00     0.010 C 
HETATM   11  C11 UNL     1      -3.482   1.464  -1.027  1.00  0.00     0.031 C 
HETATM   12  C12 UNL     1      -4.296   0.295  -0.620  1.00  0.00     0.035 C 
HETATM   13  C13 UNL     1      -5.618   0.798  -0.021  1.00  0.00     0.039 C 
HETATM   14  C14 UNL     1      -3.649  -0.664   0.302  1.00  0.00     0.019 C 
HETATM   15  C15 UNL     1      -4.037  -2.054  -0.104  1.00  0.00     0.027 C 
HETATM   16  C16 UNL     1      -4.961  -1.833  -1.265  1.00  0.00     0.126 C 
HETATM   17  N1  UNL     1      -4.659  -0.514  -1.766  1.00  0.00    -0.350 N 
HETATM   18  C18 UNL     1       1.844   0.372  -0.165  1.00  0.00     0.016 C 
HETATM   19  C19 UNL     1       2.291  -0.129   1.136  1.00  0.00     0.013 C 
ENDROOT
BRANCH  19  20
HETATM   20  C20 UNL     1       3.691  -0.137   1.506  1.00  0.00    -0.010 C 
HETATM   21  C21 UNL     1       4.832  -0.670   0.800  1.00  0.00     0.105 C 
BRANCH  21  22
HETATM   22  S1  UNL     1       5.355  -0.043  -0.740  1.00  0.00     0.173 S 
HETATM   23  O3  UNL     1       4.396  -0.274  -1.881  1.00  0.00    -0.223 OA
HETATM   24  O4  UNL     1       5.698   1.442  -0.664  1.00  0.00    -0.223 OA
BRANCH  22  25
HETATM   25  C22 UNL     1       6.873  -0.826  -1.295  1.00  0.00     0.262 C 
BRANCH  25  26
HETATM   26  C23 UNL     1       6.787  -2.287  -1.480  1.00  0.00     0.400 C 
HETATM   27  F1  UNL     1       8.044  -2.732  -1.938  1.00  0.00    -0.170 F 
HETATM   28  F2  UNL     1       6.689  -2.895  -0.218  1.00  0.00    -0.170 F 
HETATM   29  F3  UNL     1       5.839  -2.717  -2.345  1.00  0.00    -0.170 F 
ENDBRANCH  25  26
ENDBRANCH  22  25
ENDBRANCH  21  22
ENDBRANCH  19  20
BRANCH   4  30
HETATM   30  O1  UNL     1      -0.148   2.457   1.200  1.00  0.00    -0.389 OA
ATOM     31  H1  UNL     1      -0.437   2.930   0.429  1.00  0.00     0.210 HD
ENDBRANCH   4  30
BRANCH  17  32
HETATM   32  C17 UNL     1      -4.715  -0.111  -3.131  1.00  0.00     0.351 C 
HETATM   33  O2  UNL     1      -5.046  -0.912  -4.041  1.00  0.00    -0.284 OA
ENDBRANCH  17  32
TORSDOF 6
