REMARK  5 active torsions:
REMARK  status: ('A' for Active; 'I' for Inactive)
REMARK    1  A    between atoms: C1_2  and  C2_3 
REMARK       I    between atoms: C1_2  and  N2_21 
REMARK    2  A    between atoms: C4_5  and  N1_6 
REMARK    3  A    between atoms: N1_6  and  C5_9 
REMARK    4  A    between atoms: N3_24  and  C17_26 
REMARK    5  A    between atoms: C17_26  and  C18_27 
ROOT
HETATM    1  C2  UNL     1      -0.614   0.043  -0.490  1.00  0.00     0.219 C 
HETATM    2  C3  UNL     1      -1.405  -1.142   0.050  1.00  0.00     0.075 C 
HETATM    3  C4  UNL     1      -2.765  -0.672   0.443  1.00  0.00     0.194 C 
HETATM    4  C9  UNL     1      -2.850   0.684   1.036  1.00  0.00     0.106 C 
HETATM    5  C10 UNL     1      -1.727   1.622   0.679  1.00  0.00     0.185 C 
HETATM    6  C11 UNL     1      -2.143   2.382  -0.513  1.00  0.00     0.037 C 
HETATM    7  C12 UNL     1      -1.984   3.680  -0.597  1.00  0.00    -0.023 C 
HETATM    8  C13 UNL     1      -1.385   4.468   0.482  1.00  0.00     0.053 C 
HETATM    9  C14 UNL     1      -0.706   3.534   1.458  1.00  0.00     0.175 C 
HETATM   10  O2  UNL     1      -1.534   2.463   1.790  1.00  0.00    -0.351 OA
HETATM   11  O3  UNL     1      -0.515   0.949   0.521  1.00  0.00    -0.337 OA
ENDROOT
BRANCH   1  12
HETATM   12  C1  UNL     1       0.652  -0.478  -1.030  1.00  0.00     0.249 C 
HETATM   13  O1  UNL     1       0.512  -1.256  -2.034  1.00  0.00    -0.270 OA
HETATM   14  N2  UNL     1       1.956  -0.222  -0.578  1.00  0.00    -0.347 N 
HETATM   15  C15 UNL     1       3.060  -0.839  -1.316  1.00  0.00     0.155 C 
HETATM   16  C20 UNL     1       2.162   0.605   0.569  1.00  0.00     0.155 C 
HETATM   17  C16 UNL     1       4.226  -1.039  -0.375  1.00  0.00     0.271 C 
HETATM   18  N3  UNL     1       4.579   0.291   0.114  1.00  0.00    -0.007 N 
HETATM   19 BR1  UNL     1       4.605   1.582  -1.244  1.00  0.00     0.164 Br
HETATM   20  C19 UNL     1       3.575   0.658   1.080  1.00  0.00     0.271 C 
BRANCH  18  21
HETATM   21  C17 UNL     1       5.841   0.274   0.805  1.00  0.00     0.262 C 
BRANCH  21  22
HETATM   22  C18 UNL     1       6.988  -0.265   0.016  1.00  0.00     0.114 C 
HETATM   23 BR2  UNL     1       7.374   0.701  -1.588  1.00  0.00    -0.095 Br
ENDBRANCH  21  22
ENDBRANCH  18  21
ENDBRANCH   1  12
BRANCH   3  24
HETATM   24  N1  UNL     1      -3.778  -0.903  -0.594  1.00  0.00    -0.066 N 
ATOM     25  H12 UNL     1      -4.672  -0.461  -0.380  1.00  0.00     0.278 HD
ATOM     26  H11 UNL     1      -3.582  -0.399  -1.459  1.00  0.00     0.278 HD
BRANCH  24  27
HETATM   27  C5  UNL     1      -3.890  -2.316  -0.788  1.00  0.00     0.186 C 
HETATM   28  C6  UNL     1      -4.356  -3.084   0.455  1.00  0.00     0.033 C 
HETATM   29  C7  UNL     1      -5.128  -3.979  -0.489  1.00  0.00     0.004 C 
HETATM   30  C8  UNL     1      -5.215  -2.759  -1.417  1.00  0.00     0.033 C 
ENDBRANCH  24  27
ENDBRANCH   3  24
TORSDOF 5
