REMARK  5 active torsions:
REMARK  status: ('A' for Active; 'I' for Inactive)
REMARK    1  A    between atoms: C2_2  and  C3_3 
REMARK       I    between atoms: C3_3  and  N1_5 
REMARK    2  A    between atoms: N2_8  and  C6_9 
REMARK    3  A    between atoms: C6_9  and  N3_11 
REMARK    4  A    between atoms: C6_9  and  C9_16 
REMARK       I    between atoms: N3_11  and  C8_13 
REMARK       I    between atoms: N4_23  and  C14_24 
REMARK    5  A    between atoms: C14_24  and  C15_26 
ROOT
HETATM    1  C3  UNL     1       0.615  -0.328  -1.091  1.00  0.00     0.248 C 
HETATM    2  O1  UNL     1       0.158  -1.510  -1.305  1.00  0.00    -0.271 OA
HETATM    3  N1  UNL     1       1.957  -0.249  -0.694  1.00  0.00    -0.347 N 
HETATM    4  C4  UNL     1       2.724  -1.509  -0.549  1.00  0.00     0.145 C 
HETATM    5  C5  UNL     1       3.725  -1.182   0.573  1.00  0.00     0.139 C 
HETATM    6  N2  UNL     1       4.681  -0.317  -0.002  1.00  0.00    -0.378 N 
HETATM    7  C10 UNL     1       4.144   0.860  -0.570  1.00  0.00     0.139 C 
HETATM    8  C11 UNL     1       2.637   0.977  -0.421  1.00  0.00     0.145 C 
ENDROOT
BRANCH   1   9
HETATM    9  C2  UNL     1      -0.300   0.787  -1.283  1.00  0.00     0.114 C 
HETATM   10  C1  UNL     1      -0.483   1.620  -0.030  1.00  0.00     0.049 C 
HETATM   11  C12 UNL     1      -0.167   1.604  -2.544  1.00  0.00     0.061 C 
HETATM   12  C13 UNL     1      -0.980   0.486  -3.137  1.00  0.00     0.130 C 
HETATM   13  N4  UNL     1      -1.585   0.315  -1.833  1.00  0.00    -0.334 N 
HETATM   14  C14 UNL     1      -2.854  -0.138  -1.403  1.00  0.00     0.225 C 
HETATM   15  O4  UNL     1      -3.675  -0.460  -2.340  1.00  0.00    -0.273 OA
BRANCH  14  16
HETATM   16  C15 UNL     1      -3.313  -0.271  -0.013  1.00  0.00     0.086 C 
HETATM   17  C16 UNL     1      -4.191  -1.477   0.152  1.00  0.00    -0.000 C 
HETATM   18  C17 UNL     1      -5.589  -1.353  -0.326  1.00  0.00     0.010 C 
HETATM   19  C21 UNL     1      -4.261  -1.731   1.666  1.00  0.00     0.010 C 
HETATM   20  C18 UNL     1      -6.275  -0.155   0.338  1.00  0.00    -0.013 C 
HETATM   21  C19 UNL     1      -6.363  -0.362   1.818  1.00  0.00     0.009 C 
HETATM   22  C24 UNL     1      -5.469   1.045  -0.045  1.00  0.00     0.010 C 
HETATM   23  C20 UNL     1      -4.947  -0.557   2.337  1.00  0.00    -0.013 C 
HETATM   24  C22 UNL     1      -4.199   0.706   2.026  1.00  0.00     0.010 C 
HETATM   25  C23 UNL     1      -4.081   0.922   0.509  1.00  0.00    -0.000 C 
ENDBRANCH  14  16
ENDBRANCH   1   9
BRANCH   6  26
HETATM   26  C6  UNL     1       5.982  -0.257   0.557  1.00  0.00     0.179 C 
HETATM   27  C7  UNL     1       6.733  -1.568   0.467  1.00  0.00     0.073 C 
BRANCH  26  28
HETATM   28  N3  UNL     1       6.762   0.684  -0.265  1.00  0.00    -0.314 N 
HETATM   29  C8  UNL     1       8.116   0.960  -0.016  1.00  0.00     0.316 C 
HETATM   30  O2  UNL     1       8.781   0.434   0.915  1.00  0.00    -0.254 OA
HETATM   31 CL1  UNL     1       8.940   2.115  -1.073  1.00  0.00    -0.020 Cl
ATOM     32  H3  UNL     1       6.301   1.153  -1.045  1.00  0.00     0.166 HD
ENDBRANCH  26  28
BRANCH  26  33
HETATM   33  C9  UNL     1       5.984   0.165   1.990  1.00  0.00     0.267 C 
HETATM   34  O3  UNL     1       6.497   1.158   2.429  1.00  0.00    -0.275 OA
HETATM   35 CL2  UNL     1       5.144  -0.927   3.110  1.00  0.00    -0.039 Cl
ENDBRANCH  26  33
ENDBRANCH   6  26
TORSDOF 5
