REMARK  8 active torsions:
REMARK  status: ('A' for Active; 'I' for Inactive)
REMARK    1  A    between atoms: C2_2  and  C3_3 
REMARK    2  A    between atoms: C3_3  and  C4_4 
REMARK    3  A    between atoms: C4_4  and  C5_5 
REMARK    4  A    between atoms: C9_9  and  N1_10 
REMARK    5  A    between atoms: C12_16  and  O1_17 
REMARK    6  A    between atoms: N2_19  and  C13_20 
REMARK    7  A    between atoms: C13_20  and  N3_21 
REMARK    8  A    between atoms: C20_28  and  O2_29 
ROOT
HETATM    1  C5  UNL     1      -2.623   0.788   0.766  1.00  0.00     0.012 C 
HETATM    2  C6  UNL     1      -2.034   0.044   1.902  1.00  0.00    -0.026 C 
HETATM    3  C7  UNL     1      -1.878  -1.240   2.171  1.00  0.00    -0.028 C 
HETATM    4  C8  UNL     1      -2.160  -2.577   1.579  1.00  0.00     0.064 C 
HETATM    5  C9  UNL     1      -1.013  -2.978   0.678  1.00  0.00     0.224 C 
HETATM    6  C10 UNL     1      -0.501  -1.767  -0.034  1.00  0.00     0.034 A 
HETATM    7  C11 UNL     1      -1.013  -0.578  -0.505  1.00  0.00     0.007 A 
HETATM    8  C12 UNL     1      -0.038   0.173  -1.095  1.00  0.00     0.156 A 
HETATM    9  N2  UNL     1       1.111  -0.554  -0.995  1.00  0.00    -0.272 N 
HETATM   10  C20 UNL     1       0.857  -1.705  -0.371  1.00  0.00     0.158 A 
HETATM   11  C21 UNL     1      -2.364   0.036  -0.504  1.00  0.00     0.052 C 
ENDROOT
BRANCH   9  12
HETATM   12  C13 UNL     1       2.367  -0.133  -1.521  1.00  0.00     0.163 C 
BRANCH  12  13
HETATM   13  N3  UNL     1       3.178   0.698  -0.719  1.00  0.00    -0.279 NA
HETATM   14  C14 UNL     1       4.426   1.059  -1.387  1.00  0.00     0.096 C 
HETATM   15  C15 UNL     1       5.227   1.885  -0.439  1.00  0.00     0.015 C 
HETATM   16  C16 UNL     1       6.277   1.159   0.312  1.00  0.00     0.001 C 
HETATM   17  C17 UNL     1       5.923  -0.124   0.931  1.00  0.00     0.001 C 
HETATM   18  C18 UNL     1       4.639  -0.749   0.528  1.00  0.00     0.015 C 
HETATM   19  C19 UNL     1       3.466   0.207   0.573  1.00  0.00     0.096 C 
ENDBRANCH  12  13
ENDBRANCH   9  12
BRANCH   8  20
HETATM   20  O1  UNL     1      -0.133   1.421  -1.688  1.00  0.00    -0.345 OA
ATOM     21  H1  UNL     1       0.546   1.944  -2.099  1.00  0.00     0.219 HD
ENDBRANCH   8  20
BRANCH  10  22
HETATM   22  O2  UNL     1       1.695  -2.773  -0.036  1.00  0.00    -0.345 OA
ATOM     23  H2  UNL     1       2.616  -2.731  -0.265  1.00  0.00     0.219 HD
ENDBRANCH  10  22
BRANCH   5  24
HETATM   24  N1  UNL     1      -1.348  -4.041  -0.224  1.00  0.00    -0.071 N 
ATOM     25  H13 UNL     1      -1.709  -4.848   0.284  1.00  0.00     0.275 HD
ATOM     26  H12 UNL     1      -2.175  -3.804  -0.773  1.00  0.00     0.275 HD
ATOM     27  H11 UNL     1      -0.575  -4.311  -0.832  1.00  0.00     0.275 HD
ENDBRANCH   5  24
BRANCH   1  28
HETATM   28  C4  UNL     1      -4.099   0.962   1.043  1.00  0.00     0.009 C 
BRANCH  28  29
HETATM   29  C3  UNL     1      -4.781   1.726  -0.090  1.00  0.00     0.000 C 
BRANCH  29  30
HETATM   30  C2  UNL     1      -6.256   1.842   0.294  1.00  0.00    -0.005 C 
HETATM   31  C1  UNL     1      -6.944   2.608  -0.840  1.00  0.00     0.005 C 
ENDBRANCH  29  30
ENDBRANCH  28  29
ENDBRANCH   1  28
TORSDOF 8
