REMARK  12 active torsions:
REMARK  status: ('A' for Active; 'I' for Inactive)
REMARK    1  A    between atoms: N1_2  and  S1_4 
REMARK    2  A    between atoms: S1_4  and  N2_7 
REMARK    3  A    between atoms: N2_7  and  C2_9 
REMARK    4  A    between atoms: C2_9  and  C3_10 
REMARK    5  A    between atoms: C5_13  and  N3_14 
REMARK    6  A    between atoms: N3_14  and  N4_16 
REMARK    7  A    between atoms: C6_21  and  S3_22 
REMARK    8  A    between atoms: S3_22  and  C7_23 
REMARK    9  A    between atoms: C10_27  and  O4_28 
REMARK   10  A    between atoms: C11_30  and  O5_31 
REMARK   11  A    between atoms: C12_33  and  O6_34 
REMARK   12  A    between atoms: C13_36  and  O7_37 
ROOT
HETATM    1  C3  UNL     1       2.505  -1.502  -0.667  1.00  0.00     0.095 C 
HETATM    2  S2  UNL     1       2.266  -3.039   0.283  1.00  0.00    -0.158 SA
HETATM    3  C4  UNL     1       0.744  -2.779   1.241  1.00  0.00     0.102 C 
HETATM    4  C5  UNL     1      -0.367  -2.564   0.247  1.00  0.00     0.126 C 
HETATM    5  C6  UNL     1       0.074  -1.993  -1.056  1.00  0.00     0.104 C 
HETATM    6  C13 UNL     1       1.139  -0.931  -0.926  1.00  0.00     0.149 C 
ENDROOT
BRANCH   5   7
HETATM    7  S3  UNL     1      -1.323  -1.309  -1.987  1.00  0.00    -0.125 SA
BRANCH   7   8
HETATM    8  C7  UNL     1      -2.046   0.127  -1.208  1.00  0.00     0.215 C 
HETATM    9  O3  UNL     1      -2.639  -0.222  -0.008  1.00  0.00    -0.365 OA
HETATM   10  C8  UNL     1      -2.936   0.923   0.766  1.00  0.00     0.150 C 
HETATM   11  C9  UNL     1      -3.465   0.436   2.083  1.00  0.00     0.042 C 
HETATM   12  C10 UNL     1      -3.866   1.804   0.006  1.00  0.00     0.178 C 
HETATM   13  C11 UNL     1      -4.320   1.167  -1.290  1.00  0.00     0.181 C 
HETATM   14  C12 UNL     1      -3.149   0.659  -2.103  1.00  0.00     0.188 C 
BRANCH  12  15
HETATM   15  O4  UNL     1      -5.002   2.055   0.776  1.00  0.00    -0.390 OA
ATOM     16  H4  UNL     1      -5.595   2.617   0.291  1.00  0.00     0.210 HD
ENDBRANCH  12  15
BRANCH  13  17
HETATM   17  O5  UNL     1      -5.019   2.135  -2.000  1.00  0.00    -0.390 OA
ATOM     18  H5  UNL     1      -5.304   1.735  -2.813  1.00  0.00     0.210 HD
ENDBRANCH  13  17
BRANCH  14  19
HETATM   19  O6  UNL     1      -3.620  -0.307  -2.979  1.00  0.00    -0.389 OA
ATOM     20  H6  UNL     1      -4.311   0.026  -3.540  1.00  0.00     0.210 HD
ENDBRANCH  14  19
ENDBRANCH   7   8
ENDBRANCH   5   7
BRANCH   4  21
HETATM   21  N3  UNL     1      -0.888  -3.910  -0.055  1.00  0.00    -0.316 N 
ATOM     22  H3  UNL     1      -0.725  -4.375  -0.948  1.00  0.00     0.182 HD
BRANCH  21  23
HETATM   23  N4  UNL     1      -1.545  -4.438   0.869  1.00  0.00    -0.253 N 
HETATM   24  N5  UNL     1      -2.576  -4.894   1.372  1.00  0.00    -0.331 N 
ATOM     25  H52 UNL     1      -3.237  -4.759   0.607  1.00  0.00     0.178 HD
ATOM     26  H51 UNL     1      -3.112  -5.325   2.126  1.00  0.00     0.178 HD
ATOM     27  H4  UNL     1      -0.853  -4.556   1.609  1.00  0.00     0.207 HD
ENDBRANCH  21  23
ENDBRANCH   4  21
BRANCH   6  28
HETATM   28  O7  UNL     1       1.213  -0.299  -2.191  1.00  0.00    -0.393 OA
ATOM     29  H7  UNL     1       0.350   0.062  -2.355  1.00  0.00     0.210 HD
ENDBRANCH   6  28
BRANCH   1  30
HETATM   30  C2  UNL     1       3.257  -0.544   0.237  1.00  0.00     0.151 C 
BRANCH  30  31
HETATM   31  N2  UNL     1       3.498   0.726  -0.427  1.00  0.00    -0.302 N 
ATOM     32  H2  UNL     1       3.217   0.983  -1.373  1.00  0.00     0.173 HD
BRANCH  31  33
HETATM   33  S1  UNL     1       4.363   1.726   0.713  1.00  0.00     0.314 S 
HETATM   34  O1  UNL     1       4.037   3.160   0.435  1.00  0.00    -0.183 OA
HETATM   35  O2  UNL     1       3.984   1.324   2.107  1.00  0.00    -0.183 OA
BRANCH  33  36
HETATM   36  N1  UNL     1       6.037   1.486   0.420  1.00  0.00    -0.307 N 
HETATM   37  C1  UNL     1       6.439   2.484  -0.583  1.00  0.00     0.161 C 
ATOM     38  H1  UNL     1       6.637   0.786   0.857  1.00  0.00     0.173 HD
ENDBRANCH  33  36
ENDBRANCH  31  33
ENDBRANCH  30  31
ENDBRANCH   1  30
TORSDOF 12
