REMARK  4 active torsions:
REMARK  status: ('A' for Active; 'I' for Inactive)
REMARK    1  A    between atoms: N1_1  and  N2_4 
REMARK    2  A    between atoms: N2_4  and  C1_6 
REMARK    3  A    between atoms: C3_8  and  C4_9 
REMARK       I    between atoms: C4_9  and  N3_11 
REMARK    4  A    between atoms: N3_11  and  N4_13 
ROOT
HETATM    1  C1  UNL     1      -1.582   0.482   0.114  1.00  0.00     0.137 A 
HETATM    2  C2  UNL     1      -0.284   0.027   0.218  1.00  0.00     0.088 A 
HETATM    3  C3  UNL     1       0.643   0.584  -0.657  1.00  0.00     0.122 A 
HETATM    4  N5  UNL     1       0.175   1.506  -1.510  1.00  0.00    -0.281 N 
ATOM      5  H5  UNL     1       0.843   1.924  -2.158  1.00  0.00     0.188 HD
HETATM    6  N6  UNL     1      -1.069   1.917  -1.583  1.00  0.00    -0.241 N 
ATOM      7  H6  UNL     1      -1.334   2.626  -2.267  1.00  0.00     0.208 HD
HETATM    8  N7  UNL     1      -1.979   1.411  -0.768  1.00  0.00    -0.270 N 
ATOM      9  H7  UNL     1      -2.951   1.717  -0.809  1.00  0.00     0.190 HD
ENDROOT
BRANCH   3  10
HETATM   10  C4  UNL     1       2.045   0.179  -0.637  1.00  0.00     0.287 C 
HETATM   11  O1  UNL     1       2.811   0.732  -1.460  1.00  0.00    -0.264 OA
HETATM   12  N3  UNL     1       2.551  -0.792   0.258  1.00  0.00    -0.271 N 
ATOM     13  H3  UNL     1       1.934  -1.246   0.931  1.00  0.00     0.189 HD
BRANCH  12  14
HETATM   14  N4  UNL     1       3.907  -1.120   0.208  1.00  0.00    -0.342 N 
ATOM     15  H42 UNL     1       4.511  -0.656  -0.471  1.00  0.00     0.176 HD
ATOM     16  H41 UNL     1       4.272  -1.820   0.854  1.00  0.00     0.176 HD
ENDBRANCH  12  14
ENDBRANCH   3  10
BRANCH   1  17
HETATM   17  N2  UNL     1      -2.464  -0.017   0.914  1.00  0.00    -0.291 N 
ATOM     18  H2  UNL     1      -2.174  -0.724   1.590  1.00  0.00     0.188 HD
BRANCH  17  19
HETATM   19  N1  UNL     1      -3.794   0.378   0.883  1.00  0.00    -0.344 N 
ATOM     20  H12 UNL     1      -4.067   1.086   0.201  1.00  0.00     0.176 HD
ATOM     21  H11 UNL     1      -4.491  -0.016   1.515  1.00  0.00     0.176 HD
ENDBRANCH  17  19
ENDBRANCH   1  17
TORSDOF 4
