REMARK  11 active torsions:
REMARK  status: ('A' for Active; 'I' for Inactive)
REMARK    1  A    between atoms: C2_2  and  C3_3 
REMARK    2  A    between atoms: C2_2  and  C14_21 
REMARK    3  A    between atoms: C3_3  and  C4_4 
REMARK    4  A    between atoms: C4_4  and  C5_5 
REMARK    5  A    between atoms: C5_5  and  C6_6 
REMARK    6  A    between atoms: C6_6  and  C7_7 
REMARK    7  A    between atoms: C7_7  and  N1_8 
REMARK       I    between atoms: N1_8  and  C8_10 
REMARK    8  A    between atoms: C8_10  and  O2_12 
REMARK    9  A    between atoms: O2_12  and  C9_13 
REMARK   10  A    between atoms: C12_16  and  O3_17 
REMARK   11  A    between atoms: C18_25  and  O5_27 
ROOT
HETATM    1  C4  UNL     1       0.614  -0.896  -0.871  1.00  0.00     0.005 C 
ENDROOT
BRANCH   1   2
HETATM    2  C3  UNL     1      -0.753  -1.347  -0.425  1.00  0.00     0.034 C 
BRANCH   2   3
HETATM    3  C2  UNL     1      -1.768  -0.237  -0.491  1.00  0.00    -0.081 C 
HETATM    4  C1  UNL     1      -1.302   0.921  -0.923  1.00  0.00     0.015 C 
BRANCH   3   5
HETATM    5  C14 UNL     1      -3.100  -0.578  -0.089  1.00  0.00     0.045 C 
HETATM    6  C15 UNL     1      -3.729  -1.759  -0.753  1.00  0.00    -0.020 C 
HETATM    7  C16 UNL     1      -5.034  -1.709  -0.503  1.00  0.00    -0.022 C 
HETATM    8  C17 UNL     1      -5.321  -0.488   0.339  1.00  0.00     0.051 C 
HETATM    9  C18 UNL     1      -6.680   0.045   0.210  1.00  0.00     0.062 C 
HETATM   10  C23 UNL     1      -4.189   0.429  -0.138  1.00  0.00    -0.024 C 
HETATM   11  C19 UNL     1      -7.746  -1.026   0.039  1.00  0.00     0.046 C 
HETATM   12  C20 UNL     1      -6.886   1.073  -0.854  1.00  0.00     0.038 C 
HETATM   13  C21 UNL     1      -5.885   0.856  -1.964  1.00  0.00     0.004 C 
HETATM   14  C22 UNL     1      -4.464   1.002  -1.486  1.00  0.00     0.011 C 
HETATM   15  C24 UNL     1      -3.906   1.508   0.877  1.00  0.00     0.017 C 
BRANCH   9  16
HETATM   16  O5  UNL     1      -7.006   0.680   1.436  1.00  0.00    -0.390 OA
ATOM     17  H5  UNL     1      -7.887   1.026   1.352  1.00  0.00     0.210 HD
ENDBRANCH   9  16
ENDBRANCH   3   5
ENDBRANCH   2   3
ENDBRANCH   1   2
BRANCH   1  18
HETATM   18  C5  UNL     1       1.610  -2.049  -0.788  1.00  0.00     0.005 C 
BRANCH  18  19
HETATM   19  C6  UNL     1       1.784  -2.602   0.560  1.00  0.00     0.044 C 
BRANCH  19  20
HETATM   20  C7  UNL     1       2.300  -1.717   1.607  1.00  0.00     0.066 C 
BRANCH  20  21
HETATM   21  N1  UNL     1       3.589  -1.172   1.610  1.00  0.00    -0.316 N 
HETATM   22  C8  UNL     1       4.227  -0.274   0.787  1.00  0.00     0.366 C 
HETATM   23  O1  UNL     1       3.832   0.344  -0.223  1.00  0.00    -0.238 OA
ATOM     24  H1  UNL     1       4.172  -1.508   2.376  1.00  0.00     0.170 HD
BRANCH  22  25
HETATM   25  O2  UNL     1       5.581   0.033   1.109  1.00  0.00    -0.272 OA
BRANCH  25  26
HETATM   26  C9  UNL     1       6.348   0.944   0.337  1.00  0.00     0.271 C 
HETATM   27  C10 UNL     1       7.514   0.179  -0.223  1.00  0.00     0.064 C 
HETATM   28  C11 UNL     1       8.670   1.029  -0.622  1.00  0.00     0.038 C 
HETATM   29  C12 UNL     1       8.955   2.002   0.524  1.00  0.00     0.142 C 
HETATM   30  C13 UNL     1       7.665   2.822   0.661  1.00  0.00     0.202 C 
HETATM   31  O4  UNL     1       6.723   1.971   1.189  1.00  0.00    -0.358 OA
BRANCH  29  32
HETATM   32  O3  UNL     1       9.131   1.230   1.667  1.00  0.00    -0.393 OA
ATOM     33  H3  UNL     1       9.308   1.834   2.379  1.00  0.00     0.210 HD
ENDBRANCH  29  32
ENDBRANCH  25  26
ENDBRANCH  22  25
ENDBRANCH  20  21
ENDBRANCH  19  20
ENDBRANCH  18  19
ENDBRANCH   1  18
TORSDOF 11
