REMARK  11 active torsions:
REMARK  status: ('A' for Active; 'I' for Inactive)
REMARK    1  A    between atoms: C9_9  and  C10_10 
REMARK    2  A    between atoms: C10_10  and  C11_11 
REMARK    3  A    between atoms: C11_11  and  C12_12 
REMARK    4  A    between atoms: C12_12  and  C13_13 
REMARK    5  A    between atoms: C20_21  and  O2_22 
REMARK    6  A    between atoms: O2_22  and  C21_23 
REMARK    7  A    between atoms: C24_27  and  O4_28 
REMARK    8  A    between atoms: C25_30  and  O5_31 
REMARK    9  A    between atoms: C27_33  and  O6_34 
REMARK   10  A    between atoms: C29_37  and  C30_38 
REMARK   11  A    between atoms: C30_38  and  O8_40 
ROOT
HETATM    1  C1  UNL     1       4.028   3.238   1.197  1.00  0.00     0.012 C 
HETATM    2  C2  UNL     1       3.318   2.666   0.393  1.00  0.00    -0.111 C 
HETATM    3  C3  UNL     1       2.471   1.998  -0.589  1.00  0.00     0.082 A 
HETATM    4  C4  UNL     1       1.070   1.751  -0.075  1.00  0.00     0.014 A 
HETATM    5  C5  UNL     1       0.752   0.290  -0.332  1.00  0.00     0.009 A 
HETATM    6  C6  UNL     1       1.997  -0.356  -0.841  1.00  0.00     0.009 A 
HETATM    7  C7  UNL     1       2.829  -0.896   0.323  1.00  0.00     0.041 C 
HETATM    8  C8  UNL     1       3.941   0.033  -0.005  1.00  0.00    -0.073 C 
HETATM    9  C9  UNL     1       5.186   0.180   0.404  1.00  0.00    -0.023 C 
HETATM   10  C15 UNL     1       3.058   0.690  -0.990  1.00  0.00    -0.002 A 
HETATM   11  C16 UNL     1       3.781   0.686  -2.345  1.00  0.00     0.021 C 
HETATM   12  C17 UNL     1      -0.291   0.668  -1.350  1.00  0.00    -0.015 A 
HETATM   13  C18 UNL     1       0.027   0.271  -2.790  1.00  0.00     0.020 C 
HETATM   14  C19 UNL     1      -1.676   0.257  -1.020  1.00  0.00     0.016 C 
HETATM   15  C20 UNL     1      -2.464   0.902  -0.200  1.00  0.00     0.053 C 
HETATM   16  C28 UNL     1      -1.890   2.126   0.427  1.00  0.00     0.075 C 
HETATM   17  C29 UNL     1      -2.789   2.813   1.379  1.00  0.00     0.170 C 
HETATM   18  C32 UNL     1      -2.028   3.925   2.010  1.00  0.00     0.163 C 
HETATM   19  O9  UNL     1      -2.284   4.221   3.194  1.00  0.00    -0.292 OA
HETATM   20  C33 UNL     1      -1.029   4.604   1.215  1.00  0.00     0.048 C 
HETATM   21  C34 UNL     1      -0.627   4.157   0.032  1.00  0.00    -0.013 C 
HETATM   22  C35 UNL     1      -1.160   2.921  -0.588  1.00  0.00    -0.010 C 
HETATM   23  C36 UNL     1      -1.950   3.255  -1.835  1.00  0.00     0.021 C 
HETATM   24  C37 UNL     1       0.024   2.103  -1.074  1.00  0.00     0.016 A 
ENDROOT
BRANCH   9  25
HETATM   25  C10 UNL     1       5.857  -0.671   1.430  1.00  0.00     0.028 C 
BRANCH  25  26
HETATM   26  C11 UNL     1       7.040  -1.301   0.730  1.00  0.00     0.011 C 
BRANCH  26  27
HETATM   27  C12 UNL     1       7.844  -2.228   1.613  1.00  0.00     0.078 C 
BRANCH  27  28
HETATM   28  C13 UNL     1       8.958  -2.775   0.795  1.00  0.00     0.123 C 
HETATM   29  C14 UNL     1       9.104  -4.251   0.705  1.00  0.00     0.091 C 
HETATM   30  O1  UNL     1       9.742  -2.062   0.201  1.00  0.00    -0.298 OA
ENDBRANCH  27  28
ENDBRANCH  26  27
ENDBRANCH  25  26
ENDBRANCH   9  25
BRANCH  15  31
HETATM   31  O2  UNL     1      -3.716   0.509   0.081  1.00  0.00    -0.322 OA
BRANCH  31  32
HETATM   32  C21 UNL     1      -4.286  -0.745   0.095  1.00  0.00     0.297 C 
HETATM   33  O3  UNL     1      -4.250  -1.431  -1.110  1.00  0.00    -0.351 OA
HETATM   34  C22 UNL     1      -5.364  -2.244  -1.164  1.00  0.00     0.152 C 
HETATM   35  C23 UNL     1      -5.198  -3.118  -2.392  1.00  0.00     0.042 C 
HETATM   36  C24 UNL     1      -5.603  -3.040   0.065  1.00  0.00     0.178 C 
HETATM   37  C25 UNL     1      -4.503  -2.971   1.089  1.00  0.00     0.185 C 
HETATM   38  C27 UNL     1      -3.780  -1.661   1.164  1.00  0.00     0.205 C 
BRANCH  36  39
HETATM   39  O4  UNL     1      -6.800  -2.620   0.644  1.00  0.00    -0.390 OA
ATOM     40  H4  UNL     1      -6.953  -3.130   1.431  1.00  0.00     0.210 HD
ENDBRANCH  36  39
BRANCH  37  41
HETATM   41  O5  UNL     1      -3.630  -4.051   0.965  1.00  0.00    -0.385 OA
HETATM   42  C26 UNL     1      -3.662  -4.901   2.054  1.00  0.00     0.202 C 
ENDBRANCH  37  41
BRANCH  38  43
HETATM   43  O6  UNL     1      -2.396  -1.807   1.173  1.00  0.00    -0.388 OA
ATOM     44  H6  UNL     1      -2.075  -2.389   1.852  1.00  0.00     0.210 HD
ENDBRANCH  38  43
ENDBRANCH  31  32
ENDBRANCH  15  31
BRANCH  17  45
HETATM   45  C30 UNL     1      -4.091   3.255   0.905  1.00  0.00     0.271 C 
HETATM   46  O7  UNL     1      -5.162   2.733   1.328  1.00  0.00    -0.264 OA
BRANCH  45  47
HETATM   47  O8  UNL     1      -4.237   4.259  -0.025  1.00  0.00    -0.326 OA
HETATM   48  C31 UNL     1      -5.529   4.666  -0.465  1.00  0.00     0.213 C 
ENDBRANCH  45  47
ENDBRANCH  17  45
TORSDOF 11
