REMARK  13 active torsions:
REMARK  status: ('A' for Active; 'I' for Inactive)
REMARK    1  A    between atoms: C2_2  and  C3_3 
REMARK    2  A    between atoms: C3_3  and  C4_4 
REMARK    3  A    between atoms: C4_4  and  C5_5 
REMARK    4  A    between atoms: C5_5  and  N1_6 
REMARK    5  A    between atoms: C5_5  and  C17_26 
REMARK       I    between atoms: N1_6  and  C6_8 
REMARK    6  A    between atoms: C6_8  and  C7_10 
REMARK       I    between atoms: N2_14  and  C11_15 
REMARK    7  A    between atoms: C11_15  and  O3_17 
REMARK    8  A    between atoms: O3_17  and  C12_18 
REMARK    9  A    between atoms: C12_18  and  C13_19 
REMARK       I    between atoms: C17_26  and  N4_28 
REMARK   10  A    between atoms: N4_28  and  C18_30 
REMARK   11  A    between atoms: C18_30  and  C19_31 
REMARK   12  A    between atoms: C19_31  and  N5_32 
REMARK   13  A    between atoms: N6_35  and  C22_36 
ROOT
HETATM    1  C5  UNL     1       0.643  -1.604  -0.896  1.00  0.00     0.080 C 
ENDROOT
BRANCH   1   2
HETATM    2  C4  UNL     1       1.246  -1.653  -2.265  1.00  0.00     0.063 C 
BRANCH   2   3
HETATM    3  C3  UNL     1       2.126  -2.899  -2.406  1.00  0.00     0.006 C 
BRANCH   3   4
HETATM    4  C2  UNL     1       1.382  -4.184  -2.239  1.00  0.00    -0.004 C 
HETATM    5  C1  UNL     1       2.351  -5.371  -2.340  1.00  0.00     0.005 C 
ENDBRANCH   3   4
ENDBRANCH   2   3
ENDBRANCH   1   2
BRANCH   1   6
HETATM    6  N1  UNL     1       1.607  -1.584   0.150  1.00  0.00    -0.324 N 
HETATM    7  C6  UNL     1       2.716  -0.663   0.227  1.00  0.00     0.245 C 
HETATM    8  O1  UNL     1       2.737   0.206  -0.678  1.00  0.00    -0.271 OA
ATOM      9  H1  UNL     1       1.508  -2.269   0.899  1.00  0.00     0.169 HD
BRANCH   7  10
HETATM   10  C7  UNL     1       3.712  -0.786   1.299  1.00  0.00     0.181 C 
HETATM   11  C8  UNL     1       4.590  -2.077   0.981  1.00  0.00     0.037 C 
HETATM   12  C9  UNL     1       5.741  -1.551   0.165  1.00  0.00     0.022 C 
HETATM   13  C10 UNL     1       5.406  -0.066  -0.039  1.00  0.00     0.129 C 
HETATM   14  N2  UNL     1       4.745   0.176   1.254  1.00  0.00    -0.315 N 
HETATM   15  C11 UNL     1       5.282   1.083   2.181  1.00  0.00     0.363 C 
HETATM   16  O2  UNL     1       4.881   1.105   3.399  1.00  0.00    -0.238 OA
BRANCH  15  17
HETATM   17  O3  UNL     1       6.229   1.945   1.880  1.00  0.00    -0.299 OA
BRANCH  17  18
HETATM   18  C12 UNL     1       7.111   2.866   2.305  1.00  0.00     0.228 C 
BRANCH  18  19
HETATM   19  C13 UNL     1       7.654   3.454   1.006  1.00  0.00     0.030 A 
HETATM   20  S1  UNL     1       6.943   4.655   0.023  1.00  0.00    -0.085 SA
HETATM   21  C14 UNL     1       8.284   4.975  -0.991  1.00  0.00     0.138 A 
HETATM   22  N3  UNL     1       9.204   4.139  -0.526  1.00  0.00    -0.363 N 
HETATM   23  C15 UNL     1       8.909   3.363   0.472  1.00  0.00     0.020 A 
ATOM     24  H3  UNL     1      10.132   4.107  -0.948  1.00  0.00     0.165 HD
HETATM   25  C16 UNL     1       9.838   2.240   0.935  1.00  0.00     0.069 C 
ENDBRANCH  18  19
ENDBRANCH  17  18
ENDBRANCH  15  17
ENDBRANCH   7  10
ENDBRANCH   1   6
BRANCH   1  26
HETATM   26  C17 UNL     1      -0.521  -0.774  -0.782  1.00  0.00     0.264 C 
HETATM   27  O4  UNL     1      -0.867  -0.321   0.324  1.00  0.00    -0.266 OA
HETATM   28  N4  UNL     1      -1.363  -0.442  -1.915  1.00  0.00    -0.354 N 
ATOM     29  H4  UNL     1      -1.088  -0.713  -2.859  1.00  0.00     0.162 HD
BRANCH  28  30
HETATM   30  C18 UNL     1      -2.638   0.302  -1.683  1.00  0.00     0.153 C 
BRANCH  30  31
HETATM   31  C19 UNL     1      -3.472  -0.625  -0.861  1.00  0.00     0.292 C 
BRANCH  31  32
HETATM   32  N5  UNL     1      -4.778  -0.150  -0.451  1.00  0.00     0.093 N 
HETATM   33  C20 UNL     1      -4.640   1.007   0.428  1.00  0.00     0.302 C 
HETATM   34  C21 UNL     1      -5.433   0.868   1.689  1.00  0.00     0.303 C 
HETATM   35  N6  UNL     1      -6.754   0.315   1.454  1.00  0.00     0.096 N 
HETATM   36  C27 UNL     1      -6.664  -0.997   0.820  1.00  0.00     0.303 C 
HETATM   37  C28 UNL     1      -5.238  -1.239   0.471  1.00  0.00     0.302 C 
BRANCH  35  38
HETATM   38  C22 UNL     1      -7.554   1.205   0.620  1.00  0.00     0.223 C 
HETATM   39  C23 UNL     1      -8.921   0.619   0.469  1.00  0.00     0.036 C 
HETATM   40  C24 UNL     1      -9.748   1.843   0.068  1.00  0.00     0.002 C 
HETATM   41  C25 UNL     1      -9.126   2.984   0.802  1.00  0.00     0.002 C 
HETATM   42  C26 UNL     1      -7.807   2.490   1.369  1.00  0.00     0.036 C 
ENDBRANCH  35  38
ENDBRANCH  31  32
ENDBRANCH  30  31
ENDBRANCH  28  30
ENDBRANCH   1  26
TORSDOF 13
