REMARK  2 active torsions:
REMARK  status: ('A' for Active; 'I' for Inactive)
REMARK    1  A    between atoms: N1_1  and  C1_5 
REMARK    2  A    between atoms: C1_5  and  C2_6 
ROOT
HETATM    1  C2  UNL     1       0.034   0.299  -0.129  1.00  0.00     0.212 C 
HETATM    2  C3  UNL     1      -1.130  -0.324  -0.862  1.00  0.00     0.062 C 
HETATM    3  C4  UNL     1      -1.868   0.247   0.359  1.00  0.00     0.235 C 
HETATM    4  N2  UNL     1      -0.640  -0.111   1.094  1.00  0.00    -0.069 N 
ATOM      5  H21 UNL     1      -0.411   0.284   2.006  1.00  0.00     0.277 HD
ATOM      6  H22 UNL     1      -0.501  -1.029   1.517  1.00  0.00     0.277 HD
ENDROOT
BRANCH   1   7
HETATM    7  C1  UNL     1       1.371  -0.331  -0.366  1.00  0.00     0.262 C 
BRANCH   7   8
HETATM    8  N1  UNL     1       2.357   0.383   0.404  1.00  0.00    -0.077 N 
ATOM      9  H13 UNL     1       2.356   1.384   0.209  1.00  0.00     0.274 HD
ATOM     10  H12 UNL     1       2.118   0.434   1.394  1.00  0.00     0.274 HD
ATOM     11  H11 UNL     1       3.268  -0.046   0.243  1.00  0.00     0.274 HD
ENDBRANCH   7   8
ENDBRANCH   1   7
TORSDOF 2
