REMARK  11 active torsions:
REMARK  status: ('A' for Active; 'I' for Inactive)
REMARK    1  A    between atoms: N1_1  and  N2_4 
REMARK    2  A    between atoms: N2_4  and  C1_6 
REMARK    3  A    between atoms: N6_13  and  C2_14 
REMARK    4  A    between atoms: C2_14  and  O1_15 
REMARK    5  A    between atoms: C2_14  and  C3_17 
REMARK    6  A    between atoms: C3_17  and  O2_18 
REMARK    7  A    between atoms: C3_17  and  C4_20 
REMARK    8  A    between atoms: C4_20  and  O3_21 
REMARK    9  A    between atoms: C4_20  and  C5_23 
REMARK   10  A    between atoms: N8_31  and  O5_32 
REMARK   11  A    between atoms: C10_34  and  O6_35 
ROOT
HETATM    1  C3  UNL     1       0.658  -0.085  -0.787  1.00  0.00     0.198 C 
ENDROOT
BRANCH   1   2
HETATM    2  C2  UNL     1       2.146  -0.316  -1.000  1.00  0.00     0.292 C 
BRANCH   2   3
HETATM    3  N6  UNL     1       2.889  -0.629   0.173  1.00  0.00    -0.073 N 
HETATM    4  C1  UNL     1       3.728   0.195   0.842  1.00  0.00     0.732 A 
HETATM    5  N3  UNL     1       4.241  -0.481   1.894  1.00  0.00    -0.113 N 
HETATM    6  N4  UNL     1       3.725  -1.695   1.868  1.00  0.00    -0.213 N 
ATOM      7  H3  UNL     1       4.904  -0.120   2.580  1.00  0.00     0.207 HD
HETATM    8  N5  UNL     1       2.924  -1.761   0.835  1.00  0.00    -0.208 N 
ATOM      9  H4  UNL     1       3.916  -2.445   2.532  1.00  0.00     0.210 HD
ATOM     10  H5  UNL     1       2.392  -2.592   0.576  1.00  0.00     0.210 HD
BRANCH   4  11
HETATM   11  N2  UNL     1       4.026   1.418   0.567  1.00  0.00    -0.136 N 
ATOM     12  H2  UNL     1       3.607   1.877  -0.242  1.00  0.00     0.205 HD
BRANCH  11  13
HETATM   13  N1  UNL     1       4.918   2.110   1.373  1.00  0.00    -0.331 N 
ATOM     14  H12 UNL     1       5.328   1.637   2.178  1.00  0.00     0.177 HD
ATOM     15  H11 UNL     1       5.154   3.078   1.155  1.00  0.00     0.177 HD
ENDBRANCH  11  13
ENDBRANCH   4  11
ENDBRANCH   2   3
BRANCH   2  16
HETATM   16  O1  UNL     1       2.608   0.893  -1.590  1.00  0.00    -0.371 OA
ATOM     17  H1  UNL     1       2.112   1.102  -2.373  1.00  0.00     0.212 HD
ENDBRANCH   2  16
ENDBRANCH   1   2
BRANCH   1  18
HETATM   18  O2  UNL     1       0.542   1.003   0.066  1.00  0.00    -0.389 OA
ATOM     19  H2  UNL     1      -0.388   1.147   0.199  1.00  0.00     0.210 HD
ENDBRANCH   1  18
BRANCH   1  20
HETATM   20  C4  UNL     1      -0.075  -1.280  -0.372  1.00  0.00     0.161 C 
BRANCH  20  21
HETATM   21  O3  UNL     1       0.167  -2.337  -1.313  1.00  0.00    -0.392 OA
ATOM     22  H3  UNL     1      -0.309  -3.113  -1.043  1.00  0.00     0.210 HD
ENDBRANCH  20  21
BRANCH  20  23
HETATM   23  C5  UNL     1      -1.511  -1.303  -0.144  1.00  0.00     0.087 C 
HETATM   24  C6  UNL     1      -2.222  -0.524   0.810  1.00  0.00     0.115 C 
HETATM   25  N7  UNL     1      -1.735   0.242   1.851  1.00  0.00    -0.354 N 
HETATM   26  C9  UNL     1      -2.903   0.542  -0.054  1.00  0.00     0.121 C 
HETATM   27  C7  UNL     1      -2.753   1.218   2.106  1.00  0.00     0.219 C 
ATOM     28  H7  UNL     1      -0.843   0.136   2.334  1.00  0.00     0.162 HD
HETATM   29  O4  UNL     1      -2.801   2.056   3.071  1.00  0.00    -0.274 OA
HETATM   30  C8  UNL     1      -3.796   1.099   1.019  1.00  0.00     0.127 C 
HETATM   31  N8  UNL     1      -3.492  -0.284  -1.030  1.00  0.00    -0.163 NA
HETATM   32  C10 UNL     1      -2.388  -1.163  -1.386  1.00  0.00     0.227 C 
BRANCH  31  33
HETATM   33  O5  UNL     1      -3.902   0.378  -2.137  1.00  0.00    -0.310 OA
ATOM     34  H5  UNL     1      -4.299  -0.179  -2.796  1.00  0.00     0.237 HD
ENDBRANCH  31  33
BRANCH  32  35
HETATM   35  O6  UNL     1      -1.756  -0.653  -2.481  1.00  0.00    -0.379 OA
ATOM     36  H6  UNL     1      -2.302  -0.566  -3.254  1.00  0.00     0.211 HD
ENDBRANCH  32  35
ENDBRANCH  20  23
ENDBRANCH   1  20
TORSDOF 11
