REMARK  10 active torsions:
REMARK  status: ('A' for Active; 'I' for Inactive)
REMARK    1  A    between atoms: C3_4  and  N1_5 
REMARK    2  A    between atoms: C5_7  and  C6_8 
REMARK    3  A    between atoms: C6_8  and  S1_9 
REMARK    4  A    between atoms: S1_9  and  C7_10 
REMARK    5  A    between atoms: C7_10  and  C8_11 
REMARK    6  A    between atoms: N2_12  and  C9_14 
REMARK    7  A    between atoms: N4_17  and  C10_18 
REMARK    8  A    between atoms: C15_24  and  O3_25 
REMARK    9  A    between atoms: C17_30  and  N6_31 
REMARK   10  A    between atoms: C20_41  and  N9_42 
ROOT
HETATM    1  C9  UNL     1      -1.847   0.721  -0.211  1.00  0.00     0.137 A 
HETATM    2  N3  UNL     1      -3.020   0.899   0.468  1.00  0.00    -0.280 N 
ATOM      3  H3  UNL     1      -3.215   1.672   1.104  1.00  0.00     0.189 HD
HETATM    4  N4  UNL     1      -3.864  -0.074   0.182  1.00  0.00    -0.264 N 
HETATM    5  C16 UNL     1      -3.298  -0.935  -0.692  1.00  0.00     0.156 A 
HETATM    6  N5  UNL     1      -3.737  -2.075  -1.289  1.00  0.00    -0.174 N 
ATOM      7  H5  UNL     1      -4.676  -2.418  -1.086  1.00  0.00     0.186 HD
HETATM    8  C17 UNL     1      -2.954  -2.756  -2.141  1.00  0.00     0.679 A 
HETATM    9  N7  UNL     1      -1.721  -2.284  -2.392  1.00  0.00    -0.176 N 
ATOM     10  H7  UNL     1      -1.120  -2.796  -3.038  1.00  0.00     0.186 HD
HETATM   11  C18 UNL     1      -1.249  -1.155  -1.818  1.00  0.00     0.132 A 
HETATM   12  N8  UNL     1      -0.074  -0.695  -2.055  1.00  0.00    -0.384 N 
ATOM     13  H81 UNL     1       0.282   0.157  -1.622  1.00  0.00     0.157 HD
ATOM     14  H82 UNL     1       0.507  -1.224  -2.705  1.00  0.00     0.157 HD
HETATM   15  C19 UNL     1      -2.036  -0.438  -0.938  1.00  0.00     0.099 A 
ENDROOT
BRANCH   1  16
HETATM   16  N2  UNL     1      -0.701   1.548  -0.176  1.00  0.00    -0.353 N 
HETATM   17  C8  UNL     1       0.059   1.542   0.852  1.00  0.00     0.073 C 
ATOM     18  H2  UNL     1      -0.481   2.149  -0.970  1.00  0.00     0.166 HD
BRANCH  17  19
HETATM   19  C7  UNL     1      -0.200   0.709   2.016  1.00  0.00     0.118 C 
BRANCH  19  20
HETATM   20  S1  UNL     1       1.154  -0.233   2.669  1.00  0.00    -0.159 SA
BRANCH  20  21
HETATM   21  C6  UNL     1       1.758  -1.544   1.633  1.00  0.00     0.118 C 
BRANCH  21  22
HETATM   22  C5  UNL     1       2.631  -1.088   0.559  1.00  0.00     0.016 A 
HETATM   23  C4  UNL     1       3.161   0.153   0.362  1.00  0.00     0.125 A 
HETATM   24  N1  UNL     1       3.967   0.078  -0.716  1.00  0.00    -0.270 N 
HETATM   25  N12 UNL     1       3.963  -1.135  -1.188  1.00  0.00    -0.279 N 
HETATM   26  C20 UNL     1       3.168  -1.885  -0.451  1.00  0.00     0.160 A 
ATOM     27  H12 UNL     1       4.491  -1.455  -2.000  1.00  0.00     0.189 HD
BRANCH  24  28
HETATM   28  C3  UNL     1       4.723   1.183  -1.263  1.00  0.00     0.267 C 
HETATM   29  O1  UNL     1       5.811   0.791  -1.994  1.00  0.00    -0.352 OA
HETATM   30  C2  UNL     1       7.035   1.059  -1.441  1.00  0.00     0.187 C 
HETATM   31  C1  UNL     1       7.458  -0.023  -0.440  1.00  0.00     0.045 C 
HETATM   32  C22 UNL     1       7.195   2.432  -0.881  1.00  0.00     0.227 C 
HETATM   33  O4  UNL     1       6.044   3.007  -0.413  1.00  0.00    -0.345 OA
HETATM   34  C23 UNL     1       8.262   2.440   0.216  1.00  0.00     0.087 C 
HETATM   35  F1  UNL     1       7.699   3.283  -1.875  1.00  0.00    -0.209 F 
HETATM   36  C21 UNL     1       5.018   2.136  -0.149  1.00  0.00     0.227 C 
ENDBRANCH  24  28
BRANCH  26  37
HETATM   37  N9  UNL     1       2.841  -3.277  -0.575  1.00  0.00    -0.180 N 
HETATM   38  N10 UNL     1       2.817  -4.356   0.160  1.00  0.00    -0.219 N 
HETATM   39  N11 UNL     1       2.382  -5.213  -0.765  1.00  0.00    -0.025 NA
ATOM     40  H10 UNL     1       3.057  -4.500   1.141  1.00  0.00     0.206 HD
HETATM   41  S2  UNL     1       2.293  -4.059  -1.966  1.00  0.00     0.106 SA
ENDBRANCH  26  37
ENDBRANCH  21  22
ENDBRANCH  20  21
ENDBRANCH  19  20
ENDBRANCH  17  19
ENDBRANCH   1  16
BRANCH   4  42
HETATM   42  C10 UNL     1      -5.215  -0.264   0.686  1.00  0.00     0.165 C 
HETATM   43  C11 UNL     1      -6.253  -0.263  -0.390  1.00  0.00     0.199 C 
HETATM   44  O2  UNL     1      -7.206   0.694  -0.059  1.00  0.00    -0.376 OA
HETATM   45  C12 UNL     1      -7.157   0.879   1.300  1.00  0.00     0.081 C 
HETATM   46  C13 UNL     1      -7.793   2.194   1.688  1.00  0.00     0.048 C 
HETATM   47  C14 UNL     1      -7.715  -0.287   2.047  1.00  0.00     0.048 C 
HETATM   48  C15 UNL     1      -5.646   0.910   1.549  1.00  0.00     0.178 C 
BRANCH  48  49
HETATM   49  O3  UNL     1      -5.155   2.087   0.999  1.00  0.00    -0.390 OA
ATOM     50  H3  UNL     1      -5.424   2.821   1.539  1.00  0.00     0.210 HD
ENDBRANCH  48  49
ENDBRANCH   4  42
BRANCH   8  51
HETATM   51  N6  UNL     1      -3.373  -3.856  -2.718  1.00  0.00    -0.234 N 
ATOM     52  H62 UNL     1      -4.309  -4.214  -2.527  1.00  0.00     0.174 HD
ATOM     53  H61 UNL     1      -2.778  -4.373  -3.365  1.00  0.00     0.174 HD
ENDBRANCH   8  51
TORSDOF 10
