REMARK  9 active torsions:
REMARK  status: ('A' for Active; 'I' for Inactive)
REMARK    1  A    between atoms: C2_4  and  O1_5 
REMARK    2  A    between atoms: C2_4  and  C3_7 
REMARK    3  A    between atoms: C3_7  and  S1_8 
REMARK    4  A    between atoms: S1_8  and  C4_9 
REMARK    5  A    between atoms: C4_9  and  C5_10 
REMARK    6  A    between atoms: C6_11  and  C7_12 
REMARK    7  A    between atoms: C9_17  and  C10_18 
REMARK    8  A    between atoms: C10_18  and  C11_19 
REMARK    9  A    between atoms: C14_24  and  N4_25 
ROOT
HETATM    1  C7  UNL     1       2.100  -0.894   1.050  1.00  0.00     0.035 C 
HETATM    2  C8  UNL     1       1.442   0.253   0.292  1.00  0.00     0.241 C 
HETATM    3  N2  UNL     1       0.188  -0.300  -0.111  1.00  0.00    -0.070 N 
ATOM      4  H21 UNL     1       0.226  -0.804  -0.997  1.00  0.00     0.277 HD
ATOM      5  H22 UNL     1      -0.496   0.399  -0.401  1.00  0.00     0.277 HD
HETATM    6  C9  UNL     1      -0.242  -1.107   0.996  1.00  0.00     0.193 C 
HETATM    7  C20 UNL     1       0.938  -1.561   1.778  1.00  0.00     0.043 C 
ENDROOT
BRANCH   6   8
HETATM    8  C10 UNL     1      -1.209  -0.249   1.825  1.00  0.00     0.109 C 
BRANCH   8   9
HETATM    9  C11 UNL     1      -2.324   0.095   0.913  1.00  0.00     0.084 A 
HETATM   10  N3  UNL     1      -3.377  -0.735   0.865  1.00  0.00    -0.349 N 
HETATM   11  C12 UNL     1      -4.409  -0.463   0.052  1.00  0.00     0.020 A 
ATOM     12  H3  UNL     1      -3.393  -1.573   1.447  1.00  0.00     0.167 HD
HETATM   13  C13 UNL     1      -4.364   0.700  -0.742  1.00  0.00     0.008 A 
HETATM   14  C19 UNL     1      -5.504  -1.472   0.121  1.00  0.00     0.057 C 
HETATM   15  C14 UNL     1      -3.308   1.545  -0.702  1.00  0.00     0.108 A 
HETATM   16  C15 UNL     1      -5.437   1.080  -1.672  1.00  0.00     0.044 C 
HETATM   17  N5  UNL     1      -2.280   1.199   0.161  1.00  0.00    -0.332 N 
ATOM     18  H5  UNL     1      -1.463   1.807   0.224  1.00  0.00     0.168 HD
HETATM   19  C16 UNL     1      -6.577   1.604  -0.800  1.00  0.00     0.005 C 
HETATM   20  C17 UNL     1      -6.793   0.685   0.390  1.00  0.00     0.001 C 
HETATM   21  C18 UNL     1      -6.824  -0.763   0.034  1.00  0.00     0.006 C 
BRANCH  15  22
HETATM   22  N4  UNL     1      -3.227   2.607  -1.377  1.00  0.00    -0.385 N 
ATOM     23  H42 UNL     1      -3.983   2.862  -2.012  1.00  0.00     0.157 HD
ATOM     24  H41 UNL     1      -2.431   3.244  -1.347  1.00  0.00     0.157 HD
ENDBRANCH  15  22
ENDBRANCH   8   9
ENDBRANCH   6   8
BRANCH   1  25
HETATM   25  C6  UNL     1       2.639  -1.815   0.025  1.00  0.00    -0.024 C 
HETATM   26  C5  UNL     1       3.842  -2.301  -0.068  1.00  0.00    -0.020 C 
BRANCH  26  27
HETATM   27  C4  UNL     1       4.914  -1.990   0.889  1.00  0.00     0.101 C 
BRANCH  27  28
HETATM   28  S1  UNL     1       6.323  -1.196   0.029  1.00  0.00    -0.157 SA
BRANCH  28  29
HETATM   29  C3  UNL     1       5.800   0.438  -0.605  1.00  0.00     0.157 C 
BRANCH  29  30
HETATM   30  C2  UNL     1       6.923   1.096  -1.309  1.00  0.00     0.120 C 
HETATM   31  N1  UNL     1       8.085   0.513  -1.406  1.00  0.00    -0.378 N 
HETATM   32  C1  UNL     1       9.198   1.126  -2.086  1.00  0.00     0.148 C 
ATOM     33  H1  UNL     1       8.211  -0.408  -0.986  1.00  0.00     0.160 HD
BRANCH  30  34
HETATM   34  O1  UNL     1       6.779   2.337  -1.881  1.00  0.00    -0.349 OA
ATOM     35  H1  UNL     1       5.932   2.762  -1.810  1.00  0.00     0.219 HD
ENDBRANCH  30  34
ENDBRANCH  29  30
ENDBRANCH  28  29
ENDBRANCH  27  28
ENDBRANCH  26  27
ENDBRANCH   1  25
TORSDOF 9
