REMARK  3 active torsions:
REMARK  status: ('A' for Active; 'I' for Inactive)
REMARK    1  A    between atoms: N1_2  and  C2_4 
REMARK    2  A    between atoms: C3_7  and  C4_8 
REMARK    3  A    between atoms: C8_20  and  N8_21 
ROOT
HETATM    1  C2  UNL     1       1.782  -0.651  -0.230  1.00  0.00     0.139 A 
HETATM    2  N2  UNL     1       0.519  -0.737   0.192  1.00  0.00    -0.325 N 
ATOM      3  H2  UNL     1       0.238  -1.580   0.693  1.00  0.00     0.169 HD
HETATM    4  C3  UNL     1      -0.423   0.237  -0.006  1.00  0.00     0.138 A 
HETATM    5  N6  UNL     1      -0.043   1.322  -0.654  1.00  0.00    -0.327 N 
ATOM      6  H6  UNL     1      -0.720   2.067  -0.817  1.00  0.00     0.168 HD
HETATM    7  C7  UNL     1       1.247   1.472  -1.115  1.00  0.00     0.155 A 
HETATM    8  N7  UNL     1       1.600   2.647  -1.805  1.00  0.00    -0.080 NA
HETATM    9  C8  UNL     1       2.172   0.488  -0.908  1.00  0.00     0.187 A 
ENDROOT
BRANCH   4  10
HETATM   10  C4  UNL     1      -1.798   0.069   0.503  1.00  0.00     0.110 A 
HETATM   11  N3  UNL     1      -2.107  -1.043   1.138  1.00  0.00    -0.334 N 
HETATM   12  C5  UNL     1      -3.295  -1.247   1.608  1.00  0.00     0.160 A 
ATOM     13  H3  UNL     1      -1.393  -1.760   1.262  1.00  0.00     0.168 HD
HETATM   14  N4  UNL     1      -3.747  -2.403   2.314  1.00  0.00    -0.074 NA
HETATM   15  S1  UNL     1      -4.114   0.174   1.177  1.00  0.00    -0.040 SA
HETATM   16  C6  UNL     1      -2.795   0.984   0.373  1.00  0.00     0.120 A 
HETATM   17  N5  UNL     1      -2.858   2.286  -0.227  1.00  0.00    -0.092 NA
ENDBRANCH   4  10
BRANCH   1  18
HETATM   18  N1  UNL     1       2.669  -1.542  -0.062  1.00  0.00    -0.379 N 
HETATM   19  C1  UNL     1       2.528  -2.795   0.594  1.00  0.00     0.147 C 
ATOM     20  H1  UNL     1       3.592  -1.335  -0.443  1.00  0.00     0.160 HD
ENDBRANCH   1  18
BRANCH   9  21
HETATM   21  N8  UNL     1       3.532   0.625  -1.376  1.00  0.00    -0.108 N 
HETATM   22  O1  UNL     1       3.956   0.013  -2.354  1.00  0.00    -0.532 OA
HETATM   23  O2  UNL     1       4.368   1.473  -0.696  1.00  0.00    -0.532 OA
ENDBRANCH   9  21
TORSDOF 3
