REMARK  4 active torsions:
REMARK  status: ('A' for Active; 'I' for Inactive)
REMARK    1  A    between atoms: N1_1  and  C1_4 
REMARK    2  A    between atoms: C2_7  and  C3_8 
REMARK    3  A    between atoms: C4_9  and  N3_10 
REMARK    4  A    between atoms: C6_19  and  N6_20 
ROOT
HETATM    1  C1  UNL     1       3.117  -0.513  -0.225  1.00  0.00     0.145 A 
HETATM    2  N2  UNL     1       1.817  -0.721  -0.372  1.00  0.00    -0.332 N 
ATOM      3  H2  UNL     1       1.476  -1.438  -1.012  1.00  0.00     0.168 HD
HETATM    4  C2  UNL     1       0.962   0.021   0.329  1.00  0.00     0.113 A 
HETATM    5  C6  UNL     1       1.498   0.959   1.163  1.00  0.00     0.176 A 
HETATM    6  S1  UNL     1       3.197   0.738   0.909  1.00  0.00    -0.028 SA
ENDROOT
BRANCH   4   7
HETATM    7  C3  UNL     1      -0.527  -0.100   0.231  1.00  0.00     0.164 C 
HETATM    8  C4  UNL     1      -1.145  -0.028  -0.912  1.00  0.00     0.209 C 
HETATM    9  C5  UNL     1      -2.619  -0.165  -0.848  1.00  0.00     0.294 C 
HETATM   10  O3  UNL     1      -3.235  -0.098  -1.944  1.00  0.00    -0.264 OA
HETATM   11  N4  UNL     1      -3.315  -0.362   0.365  1.00  0.00    -0.242 N 
HETATM   12  N5  UNL     1      -2.561  -0.556   1.522  1.00  0.00     0.030 NA
ATOM     13  H4  UNL     1      -4.335  -0.362   0.394  1.00  0.00     0.188 HD
HETATM   14  O4  UNL     1      -1.244  -0.297   1.382  1.00  0.00    -0.219 OA
BRANCH   8  15
HETATM   15  N3  UNL     1      -0.465   0.168  -2.114  1.00  0.00    -0.107 N 
HETATM   16  O1  UNL     1       0.082   1.301  -2.298  1.00  0.00    -0.531 OA
HETATM   17  O2  UNL     1      -0.354  -0.765  -3.113  1.00  0.00    -0.531 OA
ENDBRANCH   8  15
ENDBRANCH   4   7
BRANCH   5  18
HETATM   18  N6  UNL     1       0.921   1.941   2.029  1.00  0.00    -0.106 N 
HETATM   19  O5  UNL     1      -0.284   2.155   2.167  1.00  0.00    -0.531 OA
HETATM   20  O6  UNL     1       1.785   2.747   2.776  1.00  0.00    -0.531 OA
ENDBRANCH   5  18
BRANCH   1  21
HETATM   21  N1  UNL     1       4.110  -1.141  -0.826  1.00  0.00    -0.380 N 
ATOM     22  H12 UNL     1       4.062  -1.896  -1.510  1.00  0.00     0.158 HD
ATOM     23  H11 UNL     1       5.111  -0.981  -0.713  1.00  0.00     0.158 HD
ENDBRANCH   1  21
TORSDOF 4
