REMARK  11 active torsions:
REMARK  status: ('A' for Active; 'I' for Inactive)
REMARK    1  A    between atoms: O1_2  and  C2_3 
REMARK    2  A    between atoms: C2_3  and  C3_5 
REMARK    3  A    between atoms: C3_5  and  C4_7 
REMARK    4  A    between atoms: C4_7  and  O4_8 
REMARK    5  A    between atoms: C4_7  and  C13_31 
REMARK    6  A    between atoms: O4_8  and  C5_9 
REMARK    7  A    between atoms: C5_9  and  C6_11 
REMARK    8  A    between atoms: C6_11  and  N1_13 
REMARK    9  A    between atoms: N1_13  and  C8_15 
REMARK   10  A    between atoms: C11_22  and  N4_23 
REMARK   11  A    between atoms: N7_33  and  O6_35 
ROOT
HETATM    1  C6  UNL     1       0.485  -0.217   0.292  1.00  0.00     0.195 C 
HETATM    2  C7  UNL     1       0.716  -0.808  -1.066  1.00  0.00     0.043 C 
ENDROOT
BRANCH   1   3
HETATM    3  C5  UNL     1      -0.778  -0.799   0.844  1.00  0.00     0.283 C 
HETATM    4  O5  UNL     1      -0.816  -1.398   1.955  1.00  0.00    -0.263 OA
BRANCH   3   5
HETATM    5  O4  UNL     1      -1.972  -0.701   0.145  1.00  0.00    -0.300 OA
BRANCH   5   6
HETATM    6  C4  UNL     1      -3.184  -1.218   0.596  1.00  0.00     0.259 C 
BRANCH   6   7
HETATM    7  C3  UNL     1      -4.217  -0.167   0.804  1.00  0.00     0.258 C 
HETATM    8  O3  UNL     1      -5.369  -0.452   1.209  1.00  0.00    -0.283 OA
BRANCH   7   9
HETATM    9  C2  UNL     1      -3.916   1.229   0.542  1.00  0.00     0.332 C 
HETATM   10  O2  UNL     1      -2.784   1.585   0.136  1.00  0.00    -0.256 OA
BRANCH   9  11
HETATM   11  O1  UNL     1      -4.873   2.208   0.735  1.00  0.00    -0.320 OA
HETATM   12  C1  UNL     1      -4.547   3.543   0.472  1.00  0.00     0.213 C 
ENDBRANCH   9  11
ENDBRANCH   7   9
ENDBRANCH   6   7
BRANCH   6  13
HETATM   13  C13 UNL     1      -3.713  -2.294  -0.283  1.00  0.00     0.043 C 
HETATM   14  C14 UNL     1      -4.887  -3.108   0.034  1.00  0.00     0.068 C 
HETATM   15  N7  UNL     1      -3.075  -2.498  -1.391  1.00  0.00    -0.275 N 
ATOM     16  H7  UNL     1      -2.257  -1.931  -1.614  1.00  0.00     0.193 HD
BRANCH  15  17
HETATM   17  O6  UNL     1      -3.487  -3.469  -2.268  1.00  0.00    -0.290 OA
ATOM     18  H6  UNL     1      -3.019  -3.619  -3.081  1.00  0.00     0.244 HD
ENDBRANCH  15  17
ENDBRANCH   6  13
ENDBRANCH   5   6
ENDBRANCH   3   5
ENDBRANCH   1   3
BRANCH   1  19
HETATM   19  N1  UNL     1       1.590  -0.439   1.188  1.00  0.00    -0.212 N 
ATOM     20  H1  UNL     1       1.430  -0.959   2.051  1.00  0.00     0.178 HD
BRANCH  19  21
HETATM   21  C8  UNL     1       2.901   0.045   0.907  1.00  0.00     0.681 A 
HETATM   22  N2  UNL     1       4.015  -0.088   1.642  1.00  0.00    -0.187 N 
HETATM   23  C9  UNL     1       5.046   0.509   1.041  1.00  0.00     0.110 A 
ATOM     24  H2  UNL     1       4.067  -0.577   2.536  1.00  0.00     0.184 HD
HETATM   25  C10 UNL     1       6.393   0.680   1.340  1.00  0.00     0.140 A 
HETATM   26  C12 UNL     1       4.551   1.040  -0.126  1.00  0.00     0.165 A 
HETATM   27  N3  UNL     1       7.143   1.353   0.478  1.00  0.00    -0.200 N 
HETATM   28  C11 UNL     1       6.688   1.883  -0.669  1.00  0.00     0.677 A 
ATOM     29  H3  UNL     1       8.131   1.476   0.701  1.00  0.00     0.183 HD
HETATM   30  N5  UNL     1       5.388   1.724  -0.967  1.00  0.00    -0.174 N 
ATOM     31  H5  UNL     1       5.019   2.118  -1.832  1.00  0.00     0.186 HD
HETATM   32  N6  UNL     1       3.245   0.743  -0.182  1.00  0.00    -0.174 N 
ATOM     33  H6  UNL     1       2.612   1.008  -0.937  1.00  0.00     0.186 HD
BRANCH  28  34
HETATM   34  N4  UNL     1       7.472   2.540  -1.486  1.00  0.00    -0.234 N 
ATOM     35  H42 UNL     1       8.459   2.661  -1.260  1.00  0.00     0.174 HD
ATOM     36  H41 UNL     1       7.126   2.943  -2.357  1.00  0.00     0.174 HD
ENDBRANCH  28  34
ENDBRANCH  19  21
ENDBRANCH   1  19
TORSDOF 11
