REMARK  3 active torsions:
REMARK  status: ('A' for Active; 'I' for Inactive)
REMARK    1  A    between atoms: O1_2  and  C2_3 
REMARK    2  A    between atoms: C4_6  and  C5_7 
REMARK    3  A    between atoms: C5_7  and  N1_9 
ROOT
HETATM    1  C5  UNL     1      -0.516  -1.130  -0.341  1.00  0.00     0.258 C 
HETATM    2  C6  UNL     1      -0.991  -2.533  -0.580  1.00  0.00     0.046 C 
ENDROOT
BRANCH   1   3
HETATM    3  C4  UNL     1       0.635  -1.182   0.623  1.00  0.00     0.219 C 
HETATM    4  S1  UNL     1       1.973  -2.283   0.011  1.00  0.00    -0.130 SA
HETATM    5  C3  UNL     1       3.288  -1.156   0.637  1.00  0.00     0.137 C 
HETATM    6  C2  UNL     1       2.508   0.121   0.705  1.00  0.00     0.270 C 
HETATM    7  O3  UNL     1       1.229  -0.040   0.956  1.00  0.00    -0.343 OA
BRANCH   6   8
HETATM    8  O1  UNL     1       2.809   0.844  -0.450  1.00  0.00    -0.365 OA
HETATM    9  C1  UNL     1       3.544   1.998  -0.189  1.00  0.00     0.204 C 
ENDBRANCH   6   8
ENDBRANCH   1   3
BRANCH   1  10
HETATM   10  N1  UNL     1      -1.558  -0.324   0.194  1.00  0.00     0.100 N 
HETATM   11  C7  UNL     1      -1.236   1.041   0.410  1.00  0.00     0.299 C 
HETATM   12  C8  UNL     1      -2.393   1.994   0.278  1.00  0.00     0.198 C 
HETATM   13  O2  UNL     1      -3.177   1.805  -0.812  1.00  0.00    -0.388 OA
HETATM   14  C9  UNL     1      -3.034   0.580  -1.441  1.00  0.00     0.198 C 
HETATM   15  C10 UNL     1      -2.847  -0.463  -0.383  1.00  0.00     0.299 C 
ENDBRANCH   1  10
TORSDOF 3
