REMARK  7 active torsions:
REMARK  status: ('A' for Active; 'I' for Inactive)
REMARK    1  A    between atoms: C2_2  and  C4_4 
REMARK    2  A    between atoms: C4_4  and  O1_5 
REMARK    3  A    between atoms: C4_4  and  C5_7 
REMARK    4  A    between atoms: C7_12  and  N3_13 
REMARK    5  A    between atoms: N3_13  and  C8_14 
REMARK    6  A    between atoms: N3_13  and  C14_23 
REMARK    7  A    between atoms: C8_14  and  C9_15 
ROOT
HETATM    1  C5  UNL     1       3.348  -0.344   0.895  1.00  0.00     0.060 A 
HETATM    2  C6  UNL     1       2.561   0.098   1.987  1.00  0.00     0.126 A 
HETATM    3  N1  UNL     1       1.375   0.450   1.525  1.00  0.00    -0.301 N 
ATOM      4  H1  UNL     1       0.613   0.806   2.103  1.00  0.00     0.186 HD
HETATM    5  N2  UNL     1       1.304   0.281   0.215  1.00  0.00    -0.223 N 
HETATM    6  C7  UNL     1       0.290   0.534  -0.651  1.00  0.00     0.129 A 
HETATM    7  C20 UNL     1       0.481   0.294  -1.984  1.00  0.00     0.067 A 
HETATM    8  C21 UNL     1       1.692  -0.196  -2.415  1.00  0.00     0.093 A 
HETATM    9  N5  UNL     1       2.638  -0.420  -1.503  1.00  0.00    -0.350 N 
ATOM     10  H5  UNL     1       3.531  -0.784  -1.835  1.00  0.00     0.166 HD
HETATM   11  C22 UNL     1       2.513  -0.206  -0.180  1.00  0.00     0.143 A 
ENDROOT
BRANCH   6  12
HETATM   12  N3  UNL     1      -0.934   1.059  -0.137  1.00  0.00    -0.359 N 
BRANCH  12  13
HETATM   13  C8  UNL     1      -1.900   0.197   0.441  1.00  0.00     0.158 C 
BRANCH  13  14
HETATM   14  C9  UNL     1      -1.613  -1.277   0.386  1.00  0.00     0.203 C 
HETATM   15  C10 UNL     1      -2.774  -2.001   1.088  1.00  0.00     0.035 C 
HETATM   16  C11 UNL     1      -2.519  -3.480   0.973  1.00  0.00     0.004 C 
HETATM   17  C12 UNL     1      -2.470  -3.938  -0.471  1.00  0.00     0.027 C 
HETATM   18  C13 UNL     1      -1.471  -3.073  -1.228  1.00  0.00     0.233 C 
HETATM   19  N4  UNL     1      -1.748  -1.691  -1.006  1.00  0.00    -0.069 N 
ATOM     20  H42 UNL     1      -2.672  -1.448  -1.364  1.00  0.00     0.277 HD
ATOM     21  H41 UNL     1      -1.170  -1.108  -1.611  1.00  0.00     0.277 HD
ENDBRANCH  13  14
ENDBRANCH  12  13
BRANCH  12  22
HETATM   22  C14 UNL     1      -1.132   2.519  -0.222  1.00  0.00     0.086 C 
HETATM   23  C15 UNL     1      -1.277   3.092   1.125  1.00  0.00     0.025 C 
HETATM   24  C16 UNL     1      -2.159   4.311   1.215  1.00  0.00     0.002 C 
HETATM   25  C17 UNL     1      -2.304   5.005  -0.124  1.00  0.00     0.000 C 
HETATM   26  C18 UNL     1      -3.014   4.006  -1.019  1.00  0.00     0.002 C 
HETATM   27  C19 UNL     1      -2.254   2.741  -1.190  1.00  0.00     0.025 C 
ENDBRANCH  12  22
ENDBRANCH   6  12
BRANCH   1  28
HETATM   28  C4  UNL     1       4.695  -0.852   1.012  1.00  0.00     0.086 C 
BRANCH  28  29
HETATM   29  C2  UNL     1       5.323  -1.948   0.351  1.00  0.00    -0.037 C 
HETATM   30  C1  UNL     1       4.845  -2.807  -0.502  1.00  0.00     0.021 C 
HETATM   31  C3  UNL     1       6.816  -2.143   0.662  1.00  0.00     0.050 C 
ENDBRANCH  28  29
BRANCH  28  32
HETATM   32  O1  UNL     1       5.454  -0.202   1.864  1.00  0.00    -0.359 OA
ATOM     33  H1  UNL     1       5.036   0.528   2.304  1.00  0.00     0.217 HD
ENDBRANCH  28  32
ENDBRANCH   1  28
TORSDOF 7
