REMARK  7 active torsions:
REMARK  status: ('A' for Active; 'I' for Inactive)
REMARK       I    between atoms: C1_2  and  N1_3 
REMARK    1  A    between atoms: C1_2  and  C13_27 
REMARK    2  A    between atoms: N1_3  and  C2_5 
REMARK    3  A    between atoms: N2_8  and  C5_9 
REMARK    4  A    between atoms: C7_15  and  C8_16 
REMARK    5  A    between atoms: C13_27  and  C14_28 
REMARK    6  A    between atoms: C13_27  and  C20_34 
REMARK    7  A    between atoms: C14_28  and  C15_29 
ROOT
HETATM    1  C2  UNL     1       0.521  -0.630  -0.255  1.00  0.00     0.087 C 
HETATM    2  C3  UNL     1       1.451   0.551  -0.197  1.00  0.00     0.045 C 
HETATM    3  C4  UNL     1       2.870   0.220  -0.528  1.00  0.00     0.143 C 
HETATM    4  N2  UNL     1       3.254  -1.128  -0.267  1.00  0.00    -0.217 N 
HETATM    5  C11 UNL     1       2.332  -2.250  -0.367  1.00  0.00     0.143 C 
HETATM    6  C12 UNL     1       1.088  -1.859   0.397  1.00  0.00     0.045 C 
ENDROOT
BRANCH   4   7
HETATM    7  C5  UNL     1       4.592  -1.406   0.109  1.00  0.00     0.682 A 
HETATM    8  N3  UNL     1       4.994  -2.649   0.365  1.00  0.00    -0.188 N 
HETATM    9  C6  UNL     1       6.260  -2.889   0.718  1.00  0.00     0.199 A 
ATOM     10  H3  UNL     1       4.332  -3.422   0.291  1.00  0.00     0.185 HD
HETATM   11  N4  UNL     1       7.134  -1.867   0.815  1.00  0.00    -0.337 N 
HETATM   12  C7  UNL     1       6.758  -0.602   0.563  1.00  0.00     0.135 A 
ATOM     13  H4  UNL     1       8.099  -2.058   1.085  1.00  0.00     0.168 HD
HETATM   14  N7  UNL     1       5.481  -0.399   0.212  1.00  0.00    -0.176 N 
ATOM     15  H7  UNL     1       5.171   0.553   0.016  1.00  0.00     0.186 HD
BRANCH  12  16
HETATM   16  C8  UNL     1       7.718   0.489   0.673  1.00  0.00     0.042 A 
HETATM   17  C9  UNL     1       7.519   1.835   0.456  1.00  0.00     0.123 A 
HETATM   18  N5  UNL     1       8.656   2.518   0.662  1.00  0.00    -0.311 N 
HETATM   19  N6  UNL     1       9.588   1.626   1.011  1.00  0.00    -0.311 N 
ATOM     20  H5  UNL     1       8.784   3.526   0.570  1.00  0.00     0.186 HD
HETATM   21  C10 UNL     1       9.052   0.385   1.027  1.00  0.00     0.123 A 
ATOM     22  H6  UNL     1      10.559   1.848   1.232  1.00  0.00     0.186 HD
ENDBRANCH  12  16
ENDBRANCH   4   7
BRANCH   1  23
HETATM   23  N1  UNL     1      -0.741  -0.260   0.311  1.00  0.00    -0.356 N 
HETATM   24  C1  UNL     1      -1.910  -0.242  -0.446  1.00  0.00     0.226 C 
HETATM   25  O1  UNL     1      -1.848  -0.573  -1.684  1.00  0.00    -0.273 OA
ATOM     26  H1  UNL     1      -0.785  -0.002   1.297  1.00  0.00     0.162 HD
BRANCH  24  27
HETATM   27  C13 UNL     1      -3.277   0.131   0.018  1.00  0.00     0.104 C 
BRANCH  27  28
HETATM   28  C14 UNL     1      -4.226  -0.740  -0.679  1.00  0.00    -0.010 C 
BRANCH  28  29
HETATM   29  C15 UNL     1      -5.670  -0.708  -0.513  1.00  0.00    -0.083 C 
HETATM   30  C16 UNL     1      -6.215  -0.943   0.862  1.00  0.00     0.034 C 
HETATM   31  C17 UNL     1      -6.864   0.417   1.185  1.00  0.00     0.005 C 
HETATM   32  C18 UNL     1      -7.299   0.969  -0.133  1.00  0.00     0.005 C 
HETATM   33  C19 UNL     1      -6.456   0.362  -1.192  1.00  0.00     0.034 C 
ENDBRANCH  28  29
ENDBRANCH  27  28
BRANCH  27  34
HETATM   34  C20 UNL     1      -3.414   1.589  -0.097  1.00  0.00     0.002 A 
HETATM   35  C21 UNL     1      -2.470   2.530   0.680  1.00  0.00     0.006 A 
HETATM   36  C22 UNL     1      -2.257   2.352  -0.768  1.00  0.00     0.006 A 
ENDBRANCH  27  34
ENDBRANCH  24  27
ENDBRANCH   1  23
TORSDOF 7
