REMARK  14 active torsions:
REMARK  status: ('A' for Active; 'I' for Inactive)
REMARK    1  A    between atoms: C2_2  and  C3_3 
REMARK    2  A    between atoms: C3_3  and  C4_4 
REMARK    3  A    between atoms: C4_4  and  N1_5 
REMARK       I    between atoms: N1_5  and  C5_7 
REMARK       I    between atoms: C5_7  and  N2_9 
REMARK    4  A    between atoms: N2_9  and  C6_11 
REMARK    5  A    between atoms: C8_13  and  N3_14 
REMARK    6  A    between atoms: N3_14  and  C9_16 
REMARK    7  A    between atoms: C9_16  and  C10_17 
REMARK    8  A    between atoms: C10_17  and  N4_18 
REMARK    9  A    between atoms: C15_25  and  N6_26 
REMARK       I    between atoms: N6_26  and  C16_28 
REMARK   10  A    between atoms: N8_30  and  C17_32 
REMARK   11  A    between atoms: C17_32  and  C18_33 
REMARK   12  A    between atoms: C18_33  and  C19_34 
REMARK   13  A    between atoms: C19_34  and  C20_35 
REMARK   14  A    between atoms: C20_35  and  C21_36 
ROOT
HETATM    1  C6  UNL     1      -2.044   1.042   0.463  1.00  0.00     0.128 A 
HETATM    2  C7  UNL     1      -3.076   0.112   0.481  1.00  0.00     0.098 A 
HETATM    3  C8  UNL     1      -2.739  -1.221   0.554  1.00  0.00     0.120 A 
HETATM    4  N5  UNL     1      -1.446  -1.584   0.605  1.00  0.00    -0.177 N 
ATOM      5  H5  UNL     1      -1.221  -2.577   0.659  1.00  0.00     0.186 HD
HETATM    6  C15 UNL     1      -0.420  -0.682   0.588  1.00  0.00     0.687 A 
HETATM    7  N9  UNL     1      -0.770   0.613   0.517  1.00  0.00    -0.176 N 
ATOM      8  H9  UNL     1      -0.027   1.312   0.503  1.00  0.00     0.186 HD
ENDROOT
BRANCH   6   9
HETATM    9  N6  UNL     1       0.806  -1.097   0.644  1.00  0.00    -0.163 N 
HETATM   10  C16 UNL     1       1.902  -0.216   0.632  1.00  0.00     0.202 C 
HETATM   11  N7  UNL     1       2.114   0.596   1.783  1.00  0.00    -0.063 NA
HETATM   12  N8  UNL     1       2.647  -0.195  -0.412  1.00  0.00    -0.364 N 
ATOM     13  H8  UNL     1       2.454  -0.798  -1.212  1.00  0.00     0.162 HD
ATOM     14  H6  UNL     1       0.983  -2.100   0.699  1.00  0.00     0.187 HD
BRANCH  12  15
HETATM   15  C17 UNL     1       3.783   0.725  -0.413  1.00  0.00     0.122 C 
BRANCH  15  16
HETATM   16  C18 UNL     1       4.891   0.145   0.419  1.00  0.00     0.020 C 
BRANCH  16  17
HETATM   17  C19 UNL     1       6.054   1.097   0.434  1.00  0.00     0.002 C 
BRANCH  17  18
HETATM   18  C20 UNL     1       6.547   1.301  -0.973  1.00  0.00     0.011 C 
BRANCH  18  19
HETATM   19  C21 UNL     1       7.733   2.251  -0.898  1.00  0.00     0.085 C 
HETATM   20 BR1  UNL     1       7.129   3.915  -0.121  1.00  0.00    -0.097 Br
ENDBRANCH  18  19
ENDBRANCH  17  18
ENDBRANCH  16  17
ENDBRANCH  15  16
ENDBRANCH  12  15
ENDBRANCH   6   9
BRANCH   3  21
HETATM   21  N3  UNL     1      -3.779  -2.187   0.570  1.00  0.00    -0.374 N 
ATOM     22  H3  UNL     1      -4.756  -1.897   0.529  1.00  0.00     0.161 HD
BRANCH  21  23
HETATM   23  C9  UNL     1      -3.431  -3.593   0.646  1.00  0.00     0.151 C 
BRANCH  23  24
HETATM   24  C10 UNL     1      -4.698  -4.424   0.645  1.00  0.00     0.292 C 
BRANCH  24  25
HETATM   25  N4  UNL     1      -4.324  -5.834   0.721  1.00  0.00     0.090 N 
HETATM   26  C11 UNL     1      -3.680  -6.169  -0.526  1.00  0.00     0.272 C 
HETATM   27  C12 UNL     1      -4.289  -7.495  -0.967  1.00  0.00     0.032 C 
HETATM   28  C13 UNL     1      -5.726  -7.319  -0.496  1.00  0.00     0.032 C 
HETATM   29  C14 UNL     1      -5.511  -6.623   0.836  1.00  0.00     0.272 C 
ENDBRANCH  24  25
ENDBRANCH  23  24
ENDBRANCH  21  23
ENDBRANCH   3  21
BRANCH   1  30
HETATM   30  N2  UNL     1      -2.378   2.285   0.402  1.00  0.00    -0.294 N 
HETATM   31  C5  UNL     1      -1.290   3.237   0.383  1.00  0.00     0.321 C 
HETATM   32  N1  UNL     1      -0.595   3.459  -0.824  1.00  0.00    -0.343 N 
HETATM   33  O1  UNL     1      -1.033   3.809   1.456  1.00  0.00    -0.247 OA
ATOM     34  H1  UNL     1      -0.876   2.938  -1.655  1.00  0.00     0.164 HD
ATOM     35  H2  UNL     1      -3.354   2.580   0.369  1.00  0.00     0.172 HD
BRANCH  32  36
HETATM   36  C4  UNL     1       0.493   4.390  -0.929  1.00  0.00     0.124 C 
BRANCH  36  37
HETATM   37  C3  UNL     1       0.066   5.785  -0.616  1.00  0.00     0.019 C 
BRANCH  37  38
HETATM   38  C2  UNL     1       1.283   6.690  -0.762  1.00  0.00    -0.003 C 
HETATM   39  C1  UNL     1       0.945   8.132  -0.465  1.00  0.00     0.005 C 
ENDBRANCH  37  38
ENDBRANCH  36  37
ENDBRANCH  32  36
ENDBRANCH   1  30
TORSDOF 14
