REMARK  15 active torsions:
REMARK  status: ('A' for Active; 'I' for Inactive)
REMARK    1  A    between atoms: C2_2  and  O2_4 
REMARK    2  A    between atoms: O2_4  and  C3_5 
REMARK    3  A    between atoms: C3_5  and  C4_6 
REMARK    4  A    between atoms: C4_6  and  O3_7 
REMARK    5  A    between atoms: C4_6  and  C20_33 
REMARK    6  A    between atoms: O3_7  and  C5_8 
REMARK    7  A    between atoms: C6_10  and  C7_11 
REMARK    8  A    between atoms: C7_11  and  C8_12 
REMARK    9  A    between atoms: C9_13  and  C10_14 
REMARK   10  A    between atoms: C9_13  and  C11_17 
REMARK   11  A    between atoms: C10_14  and  O5_15 
REMARK   12  A    between atoms: C16_23  and  O6_24 
REMARK   13  A    between atoms: C17_26  and  O7_27 
REMARK   14  A    between atoms: C18_29  and  O8_31 
REMARK   15  A    between atoms: C20_33  and  O9_35 
ROOT
HETATM    1  C5  UNL     1      -2.427  -0.875   1.103  1.00  0.00     0.297 C 
HETATM    2  O4  UNL     1      -1.186  -0.194   1.153  1.00  0.00    -0.350 OA
HETATM    3  C6  UNL     1      -0.109  -0.690   0.526  1.00  0.00     0.159 C 
HETATM    4  C16 UNL     1      -0.441  -1.724  -0.459  1.00  0.00     0.179 C 
HETATM    5  C17 UNL     1      -1.303  -2.849   0.067  1.00  0.00     0.188 C 
HETATM    6  C18 UNL     1      -2.286  -2.329   1.107  1.00  0.00     0.132 C 
HETATM    7  C19 UNL     1      -3.530  -3.155   0.991  1.00  0.00     0.054 C 
ENDROOT
BRANCH   3   8
HETATM    8  C7  UNL     1       1.089  -0.890   1.416  1.00  0.00     0.062 C 
BRANCH   8   9
HETATM    9  C8  UNL     1       2.294  -1.429   0.823  1.00  0.00    -0.018 C 
HETATM   10  C9  UNL     1       3.487  -0.856   0.696  1.00  0.00    -0.046 C 
BRANCH  10  11
HETATM   11  C10 UNL     1       4.589  -1.625   0.039  1.00  0.00     0.199 C 
BRANCH  11  12
HETATM   12  O5  UNL     1       5.091  -1.021  -1.095  1.00  0.00    -0.397 OA
ATOM     13  H5  UNL     1       5.791  -1.509  -1.512  1.00  0.00     0.209 HD
ENDBRANCH  11  12
ENDBRANCH  10  11
BRANCH  10  14
HETATM   14  C11 UNL     1       3.798   0.503   1.171  1.00  0.00     0.080 C 
HETATM   15  C12 UNL     1       4.180   1.538   0.160  1.00  0.00     0.039 C 
HETATM   16  C13 UNL     1       5.486   2.084   0.752  1.00  0.00     0.003 C 
HETATM   17  C14 UNL     1       5.340   3.409   1.473  1.00  0.00     0.026 C 
HETATM   18  C15 UNL     1       6.634   2.159  -0.224  1.00  0.00     0.026 C 
HETATM   19  S1  UNL     1       5.514   0.645   1.833  1.00  0.00    -0.150 SA
ENDBRANCH  10  14
ENDBRANCH   8   9
ENDBRANCH   3   8
BRANCH   4  20
HETATM   20  O6  UNL     1       0.583  -2.195  -1.263  1.00  0.00    -0.390 OA
ATOM     21  H6  UNL     1       0.368  -2.865  -1.901  1.00  0.00     0.210 HD
ENDBRANCH   4  20
BRANCH   1  22
HETATM   22  O3  UNL     1      -2.988  -0.335  -0.002  1.00  0.00    -0.348 OA
BRANCH  22  23
HETATM   23  C4  UNL     1      -3.854   0.663   0.013  1.00  0.00     0.177 C 
BRANCH  23  24
HETATM   24  C3  UNL     1      -3.311   1.989  -0.557  1.00  0.00     0.213 C 
BRANCH  24  25
HETATM   25  O2  UNL     1      -2.917   1.821  -1.904  1.00  0.00    -0.319 OA
BRANCH  25  26
HETATM   26  C2  UNL     1      -2.397   2.907  -2.595  1.00  0.00     0.254 C 
HETATM   27  C1  UNL     1      -1.958   2.827  -4.008  1.00  0.00     0.126 C 
HETATM   28  O1  UNL     1      -2.287   4.016  -2.010  1.00  0.00    -0.266 OA
ENDBRANCH  25  26
ENDBRANCH  24  25
ENDBRANCH  23  24
BRANCH  23  29
HETATM   29  C20 UNL     1      -5.090   0.412  -0.770  1.00  0.00     0.145 C 
HETATM   30  C21 UNL     1      -5.963  -0.658  -0.205  1.00  0.00     0.042 C 
BRANCH  29  31
HETATM   31  O9  UNL     1      -4.769   0.088  -2.094  1.00  0.00    -0.393 OA
ATOM     32  H9  UNL     1      -5.560  -0.073  -2.595  1.00  0.00     0.210 HD
ENDBRANCH  29  31
ENDBRANCH  23  29
ENDBRANCH  22  23
ENDBRANCH   1  22
BRANCH   5  33
HETATM   33  O7  UNL     1      -0.467  -3.831   0.586  1.00  0.00    -0.390 OA
ATOM     34  H7  UNL     1      -1.009  -4.538   0.917  1.00  0.00     0.210 HD
ENDBRANCH   5  33
BRANCH   6  35
HETATM   35  O8  UNL     1      -1.776  -2.794   2.369  1.00  0.00    -0.382 OA
ATOM     36  H8  UNL     1      -1.684  -3.740   2.372  1.00  0.00     0.210 HD
ENDBRANCH   6  35
TORSDOF 15
