REMARK  7 active torsions:
REMARK  status: ('A' for Active; 'I' for Inactive)
REMARK    1  A    between atoms: C6_6  and  O1_8 
REMARK    2  A    between atoms: C9_11  and  O2_12 
REMARK    3  A    between atoms: C11_15  and  O3_16 
REMARK    4  A    between atoms: O3_16  and  C12_17 
REMARK    5  A    between atoms: C12_17  and  O5_19 
REMARK    6  A    between atoms: O5_19  and  C13_20 
REMARK    7  A    between atoms: C14_22  and  O7_23 
ROOT
HETATM    1  C1  UNL     1       0.839   3.238   0.942  1.00  0.00     0.017 C 
HETATM    2  C2  UNL     1       0.302   2.056   1.219  1.00  0.00    -0.058 C 
HETATM    3  C3  UNL     1      -1.156   2.014   1.226  1.00  0.00     0.036 C 
HETATM    4  C4  UNL     1      -1.844   0.727   1.275  1.00  0.00     0.007 C 
HETATM    5  C5  UNL     1      -2.868   0.595   0.140  1.00  0.00     0.038 C 
HETATM    6  C6  UNL     1      -2.456  -0.583  -0.759  1.00  0.00     0.056 C 
HETATM    7  C7  UNL     1      -3.759  -0.970  -1.480  1.00  0.00     0.045 C 
HETATM    8  C8  UNL     1      -1.412  -0.184  -1.715  1.00  0.00     0.069 C 
HETATM    9  C9  UNL     1      -0.023  -0.690  -1.495  1.00  0.00     0.123 C 
HETATM   10  C10 UNL     1       0.874   0.410  -0.963  1.00  0.00     0.067 C 
HETATM   11  C11 UNL     1       1.577   0.077   0.315  1.00  0.00     0.169 C 
HETATM   12  C14 UNL     1       1.222   0.931   1.489  1.00  0.00     0.176 C 
ENDROOT
BRANCH  11  13
HETATM   13  O3  UNL     1       2.996   0.010   0.107  1.00  0.00    -0.289 OA
BRANCH  13  14
HETATM   14  C12 UNL     1       3.750  -1.121   0.242  1.00  0.00     0.414 C 
HETATM   15  O4  UNL     1       3.161  -2.178   0.573  1.00  0.00    -0.229 OA
BRANCH  14  16
HETATM   16  O5  UNL     1       5.117  -1.182   0.041  1.00  0.00    -0.229 OA
BRANCH  16  17
HETATM   17  C13 UNL     1       5.770  -2.394   0.210  1.00  0.00     0.408 C 
HETATM   18  O6  UNL     1       5.142  -3.448   0.546  1.00  0.00    -0.275 OA
ENDBRANCH  16  17
ENDBRANCH  14  16
ENDBRANCH  13  14
ENDBRANCH  11  13
BRANCH  12  19
HETATM   19  O7  UNL     1       0.786   0.170   2.604  1.00  0.00    -0.389 OA
ATOM     20  H7  UNL     1       1.377  -0.553   2.778  1.00  0.00     0.210 HD
ENDBRANCH  12  19
BRANCH   9  21
HETATM   21  O2  UNL     1       0.039  -1.846  -0.719  1.00  0.00    -0.395 OA
ATOM     22  H2  UNL     1       0.922  -2.168  -0.579  1.00  0.00     0.210 HD
ENDBRANCH   9  21
BRANCH   6  23
HETATM   23  O1  UNL     1      -2.166  -1.618   0.098  1.00  0.00    -0.390 OA
ATOM     24  H1  UNL     1      -1.912  -2.346  -0.457  1.00  0.00     0.210 HD
ENDBRANCH   6  23
TORSDOF 7
