REMARK  4 active torsions:
REMARK  status: ('A' for Active; 'I' for Inactive)
REMARK    1  A    between atoms: C5_8  and  C6_9 
REMARK    2  A    between atoms: C6_9  and  N3_10 
REMARK    3  A    between atoms: N3_10  and  C7_12 
REMARK    4  A    between atoms: C9_18  and  C10_19 
ROOT
HETATM    1  N1  UNL     1      -3.157   1.512  -2.952  1.00  0.00    -0.191 NA
HETATM    2  C1  UNL     1      -3.377   1.333  -1.843  1.00  0.00     0.101 C 
HETATM    3  C2  UNL     1      -3.617   1.119  -0.428  1.00  0.00     0.069 A 
HETATM    4  C3  UNL     1      -4.513   1.804   0.347  1.00  0.00     0.111 A 
HETATM    5  N2  UNL     1      -4.386   1.364   1.586  1.00  0.00    -0.373 N 
ATOM      6  H2  UNL     1      -4.927   1.688   2.388  1.00  0.00     0.164 HD
HETATM    7  C4  UNL     1      -3.412   0.404   1.620  1.00  0.00     0.098 A 
HETATM    8  C5  UNL     1      -2.914   0.234   0.359  1.00  0.00    -0.003 A 
ENDROOT
BRANCH   8   9
HETATM    9  C6  UNL     1      -2.028  -0.833  -0.120  1.00  0.00     0.161 C 
BRANCH   9  10
HETATM   10  N3  UNL     1      -0.619  -0.482   0.021  1.00  0.00    -0.383 N 
ATOM     11  H3  UNL     1      -0.359   0.504   0.046  1.00  0.00     0.160 HD
BRANCH  10  12
HETATM   12  C7  UNL     1       0.403  -1.461   0.125  1.00  0.00     0.074 A 
HETATM   13  C8  UNL     1       0.110  -2.815   0.394  1.00  0.00     0.138 A 
HETATM   14  N4  UNL     1       1.246  -3.479   0.486  1.00  0.00    -0.309 N 
HETATM   15  N5  UNL     1       2.234  -2.641   0.288  1.00  0.00    -0.298 N 
ATOM     16  H4  UNL     1       1.340  -4.476   0.679  1.00  0.00     0.186 HD
HETATM   17  C9  UNL     1       1.723  -1.369   0.062  1.00  0.00     0.086 A 
ATOM     18  H5  UNL     1       3.224  -2.885   0.298  1.00  0.00     0.187 HD
BRANCH  17  19
HETATM   19  C10 UNL     1       2.609  -0.238  -0.241  1.00  0.00    -0.006 A 
HETATM   20  C11 UNL     1       3.067   0.637   0.753  1.00  0.00     0.014 A 
HETATM   21  C12 UNL     1       3.901   1.669   0.528  1.00  0.00     0.001 A 
HETATM   22  C13 UNL     1       4.371   1.940  -0.753  1.00  0.00     0.000 A 
HETATM   23  C14 UNL     1       3.955   1.123  -1.783  1.00  0.00     0.001 A 
HETATM   24  C15 UNL     1       3.068   0.021  -1.514  1.00  0.00     0.014 A 
ENDBRANCH  17  19
ENDBRANCH  10  12
ENDBRANCH   9  10
ENDBRANCH   8   9
TORSDOF 4
