REMARK  5 active torsions:
REMARK  status: ('A' for Active; 'I' for Inactive)
REMARK    1  A    between atoms: N1_1  and  C1_4 
REMARK    2  A    between atoms: C3_6  and  C4_7 
REMARK    3  A    between atoms: C11_16  and  N3_17 
REMARK    4  A    between atoms: N3_17  and  C12_19 
REMARK    5  A    between atoms: C12_19  and  C13_20 
ROOT
HETATM    1  C1  UNL     1       0.226  -1.198  -0.636  1.00  0.00     0.056 A 
HETATM    2  C2  UNL     1      -1.151  -1.237  -0.638  1.00  0.00     0.061 A 
HETATM    3  C3  UNL     1      -1.943  -0.226  -0.089  1.00  0.00     0.044 A 
HETATM    4  N2  UNL     1      -1.272   0.802   0.451  1.00  0.00    -0.363 N 
ATOM      5  H2  UNL     1      -1.806   1.565   0.866  1.00  0.00     0.165 HD
HETATM    6  C10 UNL     1       0.087   0.877   0.473  1.00  0.00     0.119 A 
HETATM    7  C11 UNL     1       0.844  -0.120  -0.068  1.00  0.00     0.070 A 
ENDROOT
BRANCH   7   8
HETATM    8  N3  UNL     1       2.261  -0.022  -0.035  1.00  0.00    -0.381 N 
ATOM      9  H3  UNL     1       2.828  -0.767  -0.441  1.00  0.00     0.160 HD
BRANCH   8  10
HETATM   10  C12 UNL     1       2.909   1.122   0.568  1.00  0.00     0.184 C 
BRANCH  10  11
HETATM   11  C13 UNL     1       4.389   0.977   0.473  1.00  0.00     0.070 A 
HETATM   12  C14 UNL     1       5.151  -0.040  -0.047  1.00  0.00     0.036 A 
HETATM   13  C15 UNL     1       6.503   0.294   0.100  1.00  0.00     0.027 A 
HETATM   14  C16 UNL     1       6.482   1.520   0.716  1.00  0.00     0.142 A 
HETATM   15  O1  UNL     1       5.259   1.891   0.919  1.00  0.00    -0.325 OA
ENDBRANCH  10  11
ENDBRANCH   8  10
ENDBRANCH   7   8
BRANCH   1  16
HETATM   16  N1  UNL     1       0.921  -2.137  -1.146  1.00  0.00    -0.397 N 
ATOM     17  H12 UNL     1       0.460  -2.942  -1.570  1.00  0.00     0.156 HD
ATOM     18  H11 UNL     1       1.941  -2.108  -1.145  1.00  0.00     0.156 HD
ENDBRANCH   1  16
BRANCH   3  19
HETATM   19  C4  UNL     1      -3.390  -0.309  -0.114  1.00  0.00    -0.009 A 
HETATM   20  C5  UNL     1      -4.150   0.702   0.435  1.00  0.00     0.013 A 
HETATM   21  C6  UNL     1      -5.551   0.635   0.417  1.00  0.00     0.001 A 
HETATM   22  C7  UNL     1      -6.203  -0.420  -0.137  1.00  0.00     0.000 A 
HETATM   23  C8  UNL     1      -5.470  -1.436  -0.689  1.00  0.00     0.001 A 
HETATM   24  C9  UNL     1      -4.071  -1.359  -0.666  1.00  0.00     0.013 A 
ENDBRANCH   3  19
TORSDOF 5
