REMARK  16 active torsions:
REMARK  status: ('A' for Active; 'I' for Inactive)
REMARK    1  A    between atoms: C2_2  and  O1_3 
REMARK    2  A    between atoms: O1_3  and  C3_4 
REMARK       I    between atoms: C3_4  and  N1_6 
REMARK    3  A    between atoms: N1_6  and  C4_8 
REMARK    4  A    between atoms: C4_8  and  C5_9 
REMARK    5  A    between atoms: C4_8  and  C6_12 
REMARK    6  A    between atoms: C6_12  and  O5_13 
REMARK    7  A    between atoms: C6_12  and  O6_15 
REMARK    8  A    between atoms: O6_15  and  C7_16 
REMARK    9  A    between atoms: C8_18  and  O8_19 
REMARK   10  A    between atoms: C8_18  and  C9_21 
REMARK   11  A    between atoms: C9_21  and  O9_22 
REMARK   12  A    between atoms: C10_24  and  N2_25 
REMARK   13  A    between atoms: C13_30  and  N4_31 
REMARK   14  A    between atoms: N4_31  and  N5_32 
REMARK       I    between atoms: N4_31  and  C14_35 
REMARK       I    between atoms: C14_35  and  N6_36 
REMARK       I    between atoms: C14_35  and  N7_40 
REMARK   15  A    between atoms: C15_46  and  N9_47 
REMARK   16  A    between atoms: C17_54  and  C18_55 
ROOT
HETATM    1  C7  UNL     1      -1.367   0.467  -0.446  1.00  0.00     0.306 C 
HETATM    2  O7  UNL     1      -0.493   0.717   0.644  1.00  0.00    -0.316 OA
HETATM    3  C8  UNL     1       0.412   1.670   0.102  1.00  0.00     0.233 C 
HETATM    4  C10 UNL     1       1.328   0.888  -0.753  1.00  0.00     0.311 C 
HETATM    5  O10 UNL     1       0.728  -0.263  -1.341  1.00  0.00    -0.338 OA
HETATM    6  C17 UNL     1      -0.622  -0.150  -1.562  1.00  0.00     0.280 C 
ENDROOT
BRANCH   4   7
HETATM    7  N2  UNL     1       2.439   0.248  -0.024  1.00  0.00    -0.240 N 
HETATM    8  N3  UNL     1       2.396  -0.813   0.751  1.00  0.00    -0.304 N 
HETATM    9  C11 UNL     1       3.665  -1.150   1.106  1.00  0.00     0.126 A 
ATOM     10  H3  UNL     1       1.549  -1.303   1.039  1.00  0.00     0.186 HD
HETATM   11  C12 UNL     1       4.500  -0.233   0.513  1.00  0.00     0.073 A 
HETATM   12  C13 UNL     1       5.886  -0.083   0.516  1.00  0.00     0.156 A 
HETATM   13  C16 UNL     1       3.705   0.637  -0.194  1.00  0.00     0.155 A 
HETATM   14  N8  UNL     1       6.402   0.942  -0.182  1.00  0.00    -0.174 N 
HETATM   15  C15 UNL     1       5.616   1.814  -0.880  1.00  0.00     0.679 A 
ATOM     16  H8  UNL     1       7.413   1.073  -0.191  1.00  0.00     0.186 HD
HETATM   17  N10 UNL     1       4.297   1.637  -0.868  1.00  0.00    -0.174 N 
ATOM     18  H10 UNL     1       3.712   2.287  -1.392  1.00  0.00     0.186 HD
BRANCH  12  19
HETATM   19  N4  UNL     1       6.707  -1.066   1.132  1.00  0.00    -0.227 N 
HETATM   20  C14 UNL     1       7.357  -2.043   0.273  1.00  0.00     0.502 C 
HETATM   21  N6  UNL     1       8.079  -1.409  -0.803  1.00  0.00    -0.031 N 
HETATM   22  N7  UNL     1       6.382  -2.920  -0.309  1.00  0.00    -0.031 N 
ATOM     23  H63 UNL     1       7.476  -0.785  -1.339  1.00  0.00     0.279 HD
ATOM     24  H62 UNL     1       8.745  -0.722  -0.450  1.00  0.00     0.279 HD
ATOM     25  H61 UNL     1       8.535  -2.094  -1.405  1.00  0.00     0.279 HD
ATOM     26  H73 UNL     1       5.799  -3.365   0.400  1.00  0.00     0.279 HD
ATOM     27  H72 UNL     1       5.653  -2.405  -0.802  1.00  0.00     0.279 HD
ATOM     28  H71 UNL     1       6.838  -3.605  -0.911  1.00  0.00     0.279 HD
BRANCH  19  29
HETATM   29  N5  UNL     1       6.869  -1.121   2.494  1.00  0.00    -0.338 N 
ATOM     30  H52 UNL     1       6.413  -0.436   3.096  1.00  0.00     0.177 HD
ATOM     31  H51 UNL     1       7.458  -1.827   2.936  1.00  0.00     0.177 HD
ENDBRANCH  19  29
ENDBRANCH  12  19
BRANCH  15  32
HETATM   32  N9  UNL     1       6.069   2.791  -1.572  1.00  0.00    -0.234 N 
ATOM     33  H92 UNL     1       7.080   2.927  -1.581  1.00  0.00     0.174 HD
ATOM     34  H91 UNL     1       5.482   3.442  -2.093  1.00  0.00     0.174 HD
ENDBRANCH  15  32
ENDBRANCH   4   7
BRANCH   3  35
HETATM   35  O8  UNL     1      -0.323   2.520  -0.740  1.00  0.00    -0.360 OA
ATOM     36  H8  UNL     1       0.282   3.157  -1.102  1.00  0.00     0.213 HD
ENDBRANCH   3  35
BRANCH   3  37
HETATM   37  C9  UNL     1       0.991   2.428   1.242  1.00  0.00     0.237 C 
BRANCH  37  38
HETATM   38  O9  UNL     1      -0.092   3.064   1.896  1.00  0.00    -0.395 OA
ATOM     39  H9  UNL     1       0.278   3.548   2.625  1.00  0.00     0.209 HD
ENDBRANCH  37  38
ENDBRANCH   3  37
BRANCH   6  40
HETATM   40  C18 UNL     1      -1.133  -1.539  -1.813  1.00  0.00     0.208 C 
HETATM   41  O11 UNL     1      -0.399  -2.531  -1.597  1.00  0.00    -0.646 OA
HETATM   42  O12 UNL     1      -2.436  -1.732  -2.288  1.00  0.00    -0.646 OA
ENDBRANCH   6  40
BRANCH   1  43
HETATM   43  O6  UNL     1      -2.389  -0.324   0.159  1.00  0.00    -0.326 OA
BRANCH  43  44
HETATM   44  C6  UNL     1      -3.558   0.377   0.499  1.00  0.00     0.293 C 
BRANCH  44  45
HETATM   45  C4  UNL     1      -4.791  -0.101   1.075  1.00  0.00     0.242 C 
BRANCH  45  46
HETATM   46  N1  UNL     1      -5.581  -0.852   0.088  1.00  0.00    -0.318 N 
HETATM   47  C3  UNL     1      -6.888  -1.176   0.341  1.00  0.00     0.361 C 
HETATM   48  O2  UNL     1      -7.440  -0.896   1.466  1.00  0.00    -0.238 OA
ATOM     49  H1  UNL     1      -5.152  -1.134  -0.793  1.00  0.00     0.165 HD
BRANCH  47  50
HETATM   50  O1  UNL     1      -7.707  -1.794  -0.614  1.00  0.00    -0.304 OA
BRANCH  50  51
HETATM   51  C2  UNL     1      -9.088  -1.944  -0.241  1.00  0.00     0.176 C 
HETATM   52  C1  UNL     1      -9.585  -0.508   0.052  1.00  0.00     0.034 C 
ENDBRANCH  50  51
ENDBRANCH  47  50
ENDBRANCH  45  46
BRANCH  45  53
HETATM   53  C5  UNL     1      -5.700   1.245   1.006  1.00  0.00     0.201 C 
HETATM   54  O3  UNL     1      -6.441   1.509   1.838  1.00  0.00    -0.646 OA
HETATM   55  O4  UNL     1      -5.434   1.950  -0.170  1.00  0.00    -0.646 OA
ENDBRANCH  45  53
ENDBRANCH  44  45
BRANCH  44  56
HETATM   56  O5  UNL     1      -3.474   1.663   0.221  1.00  0.00    -0.368 OA
ATOM     57  H5  UNL     1      -2.662   1.978  -0.158  1.00  0.00     0.212 HD
ENDBRANCH  44  56
ENDBRANCH  43  44
ENDBRANCH   1  43
TORSDOF 16
