REMARK  7 active torsions:
REMARK  status: ('A' for Active; 'I' for Inactive)
REMARK    1  A    between atoms: C2_2  and  C4_5 
REMARK    2  A    between atoms: C5_6  and  C6_7 
REMARK    3  A    between atoms: C6_7  and  N1_8 
REMARK       I    between atoms: N1_8  and  C7_10 
REMARK    4  A    between atoms: C7_10  and  C8_12 
REMARK    5  A    between atoms: C8_12  and  O2_13 
REMARK    6  A    between atoms: O2_13  and  C9_14 
REMARK       I    between atoms: C9_14  and  N2_16 
REMARK    7  A    between atoms: N2_16  and  C10_18 
ROOT
HETATM    1  C8  UNL     1       0.886   1.715   0.186  1.00  0.00     0.283 C 
ENDROOT
BRANCH   1   2
HETATM    2  C7  UNL     1      -0.309   1.072   0.785  1.00  0.00     0.242 C 
HETATM    3  N1  UNL     1      -1.315   1.903   1.347  1.00  0.00    -0.349 N 
ATOM      4  H1  UNL     1      -1.198   2.916   1.327  1.00  0.00     0.163 HD
HETATM    5  O1  UNL     1      -0.468  -0.180   0.817  1.00  0.00    -0.271 OA
BRANCH   3   6
HETATM    6  C6  UNL     1      -2.498   1.338   1.944  1.00  0.00     0.217 C 
BRANCH   6   7
HETATM    7  C5  UNL     1      -3.220   0.553   0.923  1.00  0.00    -0.085 C 
HETATM    8  C4  UNL     1      -3.831  -0.084   0.092  1.00  0.00    -0.079 C 
BRANCH   8   9
HETATM    9  C2  UNL     1      -4.589  -0.844  -0.901  1.00  0.00     0.093 C 
HETATM   10  C1  UNL     1      -3.650  -1.582  -1.831  1.00  0.00     0.046 C 
HETATM   11  C3  UNL     1      -5.538   0.062  -1.661  1.00  0.00     0.046 C 
HETATM   12 CL1  UNL     1      -5.600  -2.045  -0.039  1.00  0.00    -0.106 Cl
ENDBRANCH   8   9
ENDBRANCH   6   7
ENDBRANCH   3   6
ENDBRANCH   1   2
BRANCH   1  13
HETATM   13  O2  UNL     1       1.764   0.706  -0.251  1.00  0.00    -0.294 OA
BRANCH  13  14
HETATM   14  C9  UNL     1       2.349  -0.192   0.620  1.00  0.00     0.379 C 
HETATM   15  O3  UNL     1       2.165  -0.190   1.843  1.00  0.00    -0.238 OA
HETATM   16  N2  UNL     1       3.217  -1.175   0.045  1.00  0.00    -0.135 N 
ATOM     17  H2  UNL     1       2.848  -2.025  -0.380  1.00  0.00     0.189 HD
BRANCH  16  18
HETATM   18  C10 UNL     1       4.483  -0.941   0.087  1.00  0.00     0.686 A 
HETATM   19  N3  UNL     1       5.426  -1.760  -0.406  1.00  0.00    -0.200 N 
HETATM   20  C11 UNL     1       6.657  -1.246  -0.213  1.00  0.00     0.123 A 
ATOM     21  H3  UNL     1       5.236  -2.651  -0.865  1.00  0.00     0.183 HD
HETATM   22  C12 UNL     1       6.450  -0.033   0.440  1.00  0.00     0.123 A 
HETATM   23  N4  UNL     1       5.127   0.131   0.611  1.00  0.00    -0.200 N 
ATOM     24  H4  UNL     1       4.681   0.930   1.061  1.00  0.00     0.183 HD
ENDBRANCH  16  18
ENDBRANCH  13  14
ENDBRANCH   1  13
TORSDOF 7
