REMARK  2 active torsions:
REMARK  status: ('A' for Active; 'I' for Inactive)
REMARK    1  A    between atoms: C3_4  and  C4_5 
REMARK    2  A    between atoms: C13_18  and  N3_19 
ROOT
HETATM    1  N1  UNL     1       1.424  -1.650   3.079  1.00  0.00    -0.192 NA
HETATM    2  C1  UNL     1       1.436  -1.109   2.033  1.00  0.00     0.096 C 
HETATM    3  C2  UNL     1       1.423  -0.455   0.755  1.00  0.00     0.042 C 
HETATM    4  C3  UNL     1       2.491   0.170   0.308  1.00  0.00     0.043 C 
HETATM    5  C5  UNL     1       2.174   0.752  -1.009  1.00  0.00     0.045 C 
HETATM    6  C6  UNL     1       1.083  -0.160  -1.513  1.00  0.00     0.020 C 
HETATM    7  C7  UNL     1       0.294  -0.379  -0.239  1.00  0.00     0.007 C 
HETATM    8  C8  UNL     1      -0.436  -1.675  -0.195  1.00  0.00     0.046 C 
HETATM    9  C9  UNL     1      -1.848  -1.641  -0.648  1.00  0.00     0.276 C 
HETATM   10  N2  UNL     1      -2.548  -0.422  -0.383  1.00  0.00     0.119 N 
HETATM   11  C10 UNL     1      -2.654  -0.075   0.996  1.00  0.00     0.275 C 
HETATM   12  C11 UNL     1      -1.373   0.710   1.288  1.00  0.00     0.040 C 
HETATM   13  C12 UNL     1      -0.621   0.757  -0.002  1.00  0.00     0.062 C 
HETATM   14  C13 UNL     1      -1.759   0.657  -1.001  1.00  0.00     0.422 C 
ENDROOT
BRANCH   4  15
HETATM   15  C4  UNL     1       3.826   0.331   0.954  1.00  0.00     0.415 C 
HETATM   16  F1  UNL     1       4.102   1.649   1.159  1.00  0.00    -0.166 F 
HETATM   17  F2  UNL     1       3.984  -0.358   2.110  1.00  0.00    -0.166 F 
HETATM   18  F3  UNL     1       4.763  -0.161   0.041  1.00  0.00    -0.166 F 
ENDBRANCH   4  15
BRANCH  14  19
HETATM   19  N3  UNL     1      -2.550   1.858  -1.042  1.00  0.00    -0.047 N 
ATOM     20  H33 UNL     1      -3.445   1.716  -1.510  1.00  0.00     0.276 HD
ATOM     21  H32 UNL     1      -2.908   2.118  -0.123  1.00  0.00     0.276 HD
ATOM     22  H31 UNL     1      -2.004   2.605  -1.470  1.00  0.00     0.276 HD
ENDBRANCH  14  19
TORSDOF 2
