REMARK  7 active torsions:
REMARK  status: ('A' for Active; 'I' for Inactive)
REMARK    1  A    between atoms: C2_2  and  O1_3 
REMARK    2  A    between atoms: O1_3  and  C3_4 
REMARK    3  A    between atoms: C3_4  and  C4_5 
REMARK    4  A    between atoms: C3_4  and  C12_17 
REMARK    5  A    between atoms: C5_7  and  C6_8 
REMARK    6  A    between atoms: C11_14  and  O4_15 
REMARK    7  A    between atoms: C17_25  and  O5_26 
ROOT
HETATM    1  C3  UNL     1      -1.071  -0.501   0.326  1.00  0.00     0.220 C 
ENDROOT
BRANCH   1   2
HETATM    2  O1  UNL     1      -1.615  -1.767   0.374  1.00  0.00    -0.375 OA
BRANCH   2   3
HETATM    3  C2  UNL     1      -1.596  -2.375   1.607  1.00  0.00     0.164 C 
HETATM    4  C1  UNL     1      -0.232  -2.570   2.193  1.00  0.00     0.033 C 
ENDBRANCH   2   3
ENDBRANCH   1   2
BRANCH   1   5
HETATM    5  C4  UNL     1       0.149  -0.428  -0.518  1.00  0.00     0.124 A 
HETATM    6  O2  UNL     1       1.290  -0.048   0.011  1.00  0.00    -0.313 OA
HETATM    7  C5  UNL     1       2.434   0.068  -0.583  1.00  0.00     0.060 A 
HETATM    8  C9  UNL     1       2.490  -0.237  -1.927  1.00  0.00     0.091 A 
HETATM    9  C10 UNL     1       1.350  -0.646  -2.581  1.00  0.00     0.209 A 
HETATM   10  O3  UNL     1       1.366  -0.931  -3.805  1.00  0.00    -0.285 OA
HETATM   11  C11 UNL     1       0.155  -0.742  -1.859  1.00  0.00     0.149 A 
BRANCH   7  12
HETATM   12  C6  UNL     1       3.672   0.518   0.156  1.00  0.00     0.035 C 
HETATM   13  C7  UNL     1       4.002  -0.368   1.307  1.00  0.00     0.016 C 
HETATM   14  C8  UNL     1       3.488   1.951   0.643  1.00  0.00     0.016 C 
ENDBRANCH   7  12
BRANCH  11  15
HETATM   15  O4  UNL     1      -1.006  -1.153  -2.499  1.00  0.00    -0.355 OA
ATOM     16  H4  UNL     1      -1.002  -1.370  -3.424  1.00  0.00     0.218 HD
ENDBRANCH  11  15
ENDBRANCH   1   5
BRANCH   1  17
HETATM   17  C12 UNL     1      -2.068   0.556   0.037  1.00  0.00     0.052 A 
HETATM   18  C13 UNL     1      -1.713   1.865   0.236  1.00  0.00     0.130 A 
HETATM   19  F1  UNL     1      -0.448   2.198   0.685  1.00  0.00    -0.205 F 
HETATM   20  C14 UNL     1      -2.619   2.867  -0.012  1.00  0.00     0.070 A 
HETATM   21  C15 UNL     1      -3.892   2.620  -0.459  1.00  0.00     0.078 A 
HETATM   22 CL1  UNL     1      -5.046   3.916  -0.773  1.00  0.00    -0.081 Cl
HETATM   23  C16 UNL     1      -4.245   1.287  -0.658  1.00  0.00     0.171 A 
HETATM   24  F2  UNL     1      -5.505   1.058  -1.100  1.00  0.00    -0.201 F 
HETATM   25  C17 UNL     1      -3.333   0.280  -0.408  1.00  0.00     0.118 A 
BRANCH  25  26
HETATM   26  O5  UNL     1      -3.780  -1.028  -0.635  1.00  0.00    -0.357 OA
ATOM     27  H5  UNL     1      -4.658  -1.220  -0.944  1.00  0.00     0.217 HD
ENDBRANCH  25  26
ENDBRANCH   1  17
TORSDOF 7
