REMARK  9 active torsions:
REMARK  status: ('A' for Active; 'I' for Inactive)
REMARK    1  A    between atoms: C2_2  and  N1_3 
REMARK    2  A    between atoms: N1_3  and  C3_5 
REMARK    3  A    between atoms: C4_8  and  N3_9 
REMARK    4  A    between atoms: C5_14  and  N5_15 
REMARK    5  A    between atoms: N5_15  and  C6_17 
REMARK    6  A    between atoms: C6_17  and  C7_18 
REMARK    7  A    between atoms: C7_18  and  C8_19 
REMARK    8  A    between atoms: C8_19  and  C9_20 
REMARK    9  A    between atoms: C9_20  and  N6_21 
ROOT
HETATM    1  N6  UNL     1      -5.904   0.053   0.766  1.00  0.00    -0.329 N 
ATOM      2  H6  UNL     1      -6.599  -0.132   1.489  1.00  0.00     0.171 HD
HETATM    3  C10 UNL     1      -6.153  -0.416  -0.536  1.00  0.00     0.177 C 
HETATM    4  N7  UNL     1      -6.387  -0.796  -1.625  1.00  0.00    -0.172 NA
ENDROOT
BRANCH   1   5
HETATM    5  C9  UNL     1      -4.719   0.780   1.127  1.00  0.00     0.131 C 
BRANCH   5   6
HETATM    6  C8  UNL     1      -3.444   0.014   1.153  1.00  0.00     0.022 C 
BRANCH   6   7
HETATM    7  C7  UNL     1      -3.025  -0.615  -0.118  1.00  0.00     0.022 C 
BRANCH   7   8
HETATM    8  C6  UNL     1      -1.696  -1.346  -0.010  1.00  0.00     0.138 C 
BRANCH   8   9
HETATM    9  N5  UNL     1      -0.605  -0.521   0.369  1.00  0.00    -0.225 N 
ATOM     10  H5  UNL     1      -0.804   0.180   1.083  1.00  0.00     0.177 HD
BRANCH   9  11
HETATM   11  C5  UNL     1       0.587  -0.544  -0.067  1.00  0.00     0.707 A 
HETATM   12  N4  UNL     1       1.058  -1.381  -1.001  1.00  0.00    -0.022 N 
HETATM   13  C4  UNL     1       2.344  -1.362  -1.433  1.00  0.00     0.705 A 
ATOM     14  H4  UNL     1       0.419  -2.065  -1.407  1.00  0.00     0.203 HD
HETATM   15  N2  UNL     1       3.194  -0.476  -0.916  1.00  0.00    -0.022 N 
HETATM   16  C3  UNL     1       2.768   0.378   0.017  1.00  0.00     0.707 A 
ATOM     17  H2  UNL     1       4.164  -0.450  -1.231  1.00  0.00     0.203 HD
HETATM   18  N8  UNL     1       1.474   0.347   0.442  1.00  0.00    -0.022 N 
ATOM     19  H8  UNL     1       1.166   1.006   1.157  1.00  0.00     0.203 HD
BRANCH  13  20
HETATM   20  N3  UNL     1       2.749  -2.187  -2.334  1.00  0.00    -0.234 N 
ATOM     21  H32 UNL     1       3.716  -2.173  -2.659  1.00  0.00     0.174 HD
ATOM     22  H31 UNL     1       2.098  -2.865  -2.730  1.00  0.00     0.174 HD
ENDBRANCH  13  20
BRANCH  16  23
HETATM   23  N1  UNL     1       3.578   1.236   0.521  1.00  0.00    -0.225 N 
ATOM     24  H1  UNL     1       3.261   1.892   1.235  1.00  0.00     0.177 HD
BRANCH  23  25
HETATM   25  C2  UNL     1       4.947   1.256   0.059  1.00  0.00     0.133 C 
HETATM   26  C1  UNL     1       5.671   2.492   0.592  1.00  0.00     0.027 C 
ENDBRANCH  23  25
ENDBRANCH  16  23
ENDBRANCH   9  11
ENDBRANCH   8   9
ENDBRANCH   7   8
ENDBRANCH   6   7
ENDBRANCH   5   6
ENDBRANCH   1   5
TORSDOF 9
