REMARK  7 active torsions:
REMARK  status: ('A' for Active; 'I' for Inactive)
REMARK    1  A    between atoms: C2_2  and  N1_3 
REMARK    2  A    between atoms: C2_2  and  C6_19 
REMARK       I    between atoms: N1_3  and  C3_5 
REMARK    3  A    between atoms: C3_5  and  C4_7 
REMARK    4  A    between atoms: C4_7  and  N2_8 
REMARK    5  A    between atoms: C4_7  and  C5_12 
REMARK    6  A    between atoms: N4_14  and  N5_16 
REMARK       I    between atoms: C6_19  and  N6_21 
REMARK    7  A    between atoms: N6_21  and  C7_23 
ROOT
HETATM    1  N1  UNL     1      -0.692  -0.599   0.476  1.00  0.00    -0.346 N 
ATOM      2  H1  UNL     1      -0.645  -0.441   1.483  1.00  0.00     0.163 HD
HETATM    3  C3  UNL     1      -1.918  -0.364  -0.189  1.00  0.00     0.256 C 
HETATM    4  O1  UNL     1      -1.968  -0.564  -1.438  1.00  0.00    -0.271 OA
ENDROOT
BRANCH   3   5
HETATM    5  C4  UNL     1      -3.138   0.101   0.509  1.00  0.00     0.339 C 
BRANCH   5   6
HETATM    6  N2  UNL     1      -2.833   0.259   1.933  1.00  0.00    -0.060 N 
ATOM      7  H23 UNL     1      -2.447  -0.590   2.346  1.00  0.00     0.275 HD
ATOM      8  H22 UNL     1      -2.033   0.871   2.095  1.00  0.00     0.275 HD
ATOM      9  H21 UNL     1      -3.674   0.579   2.414  1.00  0.00     0.275 HD
ENDBRANCH   5   6
BRANCH   5  10
HETATM   10  C5  UNL     1      -3.638   1.381  -0.005  1.00  0.00     0.147 C 
HETATM   11  N3  UNL     1      -2.871   2.564   0.017  1.00  0.00    -0.083 NA
HETATM   12  N4  UNL     1      -4.822   1.442  -0.500  1.00  0.00    -0.296 N 
ATOM     13  H4  UNL     1      -5.172   2.330  -0.859  1.00  0.00     0.187 HD
BRANCH  12  14
HETATM   14  N5  UNL     1      -5.632   0.315  -0.553  1.00  0.00    -0.344 N 
ATOM     15  H52 UNL     1      -5.267  -0.565  -0.190  1.00  0.00     0.176 HD
ATOM     16  H51 UNL     1      -6.572   0.363  -0.946  1.00  0.00     0.176 HD
ENDBRANCH  12  14
ENDBRANCH   5  10
ENDBRANCH   3   5
BRANCH   1  17
HETATM   17  C2  UNL     1       0.493  -1.052  -0.206  1.00  0.00     0.172 C 
HETATM   18  C1  UNL     1       0.915  -2.432   0.286  1.00  0.00     0.042 C 
BRANCH  17  19
HETATM   19  C6  UNL     1       1.585  -0.080   0.007  1.00  0.00     0.240 C 
HETATM   20  O2  UNL     1       1.348   0.934   0.702  1.00  0.00    -0.271 OA
HETATM   21  N6  UNL     1       2.864  -0.247  -0.535  1.00  0.00    -0.355 N 
ATOM     22  H6  UNL     1       3.025  -1.083  -1.097  1.00  0.00     0.162 HD
BRANCH  21  23
HETATM   23  C7  UNL     1       3.966   0.649  -0.371  1.00  0.00     0.084 A 
HETATM   24  C8  UNL     1       5.116   0.698  -1.268  1.00  0.00     0.027 A 
HETATM   25  C9  UNL     1       5.267  -0.058   0.022  1.00  0.00     0.027 A 
ENDBRANCH  21  23
ENDBRANCH  17  19
ENDBRANCH   1  17
TORSDOF 7
