REMARK  4 active torsions:
REMARK  status: ('A' for Active; 'I' for Inactive)
REMARK    1  A    between atoms: C8_13  and  N3_14 
REMARK    2  A    between atoms: N3_14  and  C9_16 
REMARK    3  A    between atoms: C9_16  and  O1_18 
REMARK    4  A    between atoms: O1_18  and  C10_19 
ROOT
HETATM    1  C1  UNL     1       1.552   2.575   0.040  1.00  0.00     0.050 C 
HETATM    2  C2  UNL     1       2.003   1.162  -0.013  1.00  0.00    -0.032 A 
HETATM    3  C3  UNL     1       3.320   0.857   0.274  1.00  0.00     0.041 A 
HETATM    4  C4  UNL     1       3.783  -0.444   0.237  1.00  0.00     0.061 A 
HETATM    5  N1  UNL     1       4.969  -1.037   0.458  1.00  0.00    -0.300 N 
ATOM      6  H1  UNL     1       5.831  -0.561   0.723  1.00  0.00     0.187 HD
HETATM    7  N2  UNL     1       4.833  -2.338   0.275  1.00  0.00    -0.311 N 
ATOM      8  H2  UNL     1       5.588  -3.015   0.382  1.00  0.00     0.186 HD
HETATM    9  C5  UNL     1       3.579  -2.655  -0.068  1.00  0.00     0.122 A 
HETATM   10  C6  UNL     1       2.881  -1.454  -0.100  1.00  0.00     0.029 A 
HETATM   11  C7  UNL     1       1.574  -1.130  -0.382  1.00  0.00     0.052 A 
HETATM   12 BR1  UNL     1       0.382  -2.560  -0.839  1.00  0.00    -0.048 Br
HETATM   13  C8  UNL     1       1.121   0.166  -0.343  1.00  0.00     0.059 A 
ENDROOT
BRANCH  13  14
HETATM   14  N3  UNL     1      -0.215   0.508  -0.630  1.00  0.00    -0.326 N 
ATOM     15  H3  UNL     1      -0.472   0.728  -1.592  1.00  0.00     0.169 HD
BRANCH  14  16
HETATM   16  C9  UNL     1      -1.218   0.557   0.378  1.00  0.00     0.215 C 
HETATM   17  S1  UNL     1      -0.813   0.208   1.916  1.00  0.00    -0.033 SA
BRANCH  16  18
HETATM   18  O1  UNL     1      -2.499   0.895   0.043  1.00  0.00    -0.322 OA
BRANCH  18  19
HETATM   19  C10 UNL     1      -3.629   0.092   0.325  1.00  0.00     0.123 C 
HETATM   20  C11 UNL     1      -3.571  -1.262  -0.306  1.00  0.00     0.040 C 
HETATM   21  C12 UNL     1      -4.914   0.767  -0.091  1.00  0.00     0.040 C 
ENDBRANCH  18  19
ENDBRANCH  16  18
ENDBRANCH  14  16
ENDBRANCH  13  14
TORSDOF 4
