REMARK  2 active torsions:
REMARK  status: ('A' for Active; 'I' for Inactive)
REMARK    1  A    between atoms: C2_2  and  N1_3 
REMARK    2  A    between atoms: C5_7  and  O2_8 
ROOT
HETATM    1  N1  UNL     1       1.903   0.054  -0.769  1.00  0.00    -0.192 NA
HETATM    2  O1  UNL     1       2.570  -0.961  -0.214  1.00  0.00    -0.303 OA
HETATM    3  C3  UNL     1       2.016  -2.203  -0.410  1.00  0.00     0.197 C 
HETATM    4  C4  UNL     1       0.647  -2.204  -1.003  1.00  0.00     0.067 C 
HETATM    5  C5  UNL     1      -0.386  -1.440  -0.216  1.00  0.00     0.069 C 
HETATM    6  C6  UNL     1      -0.975  -0.343  -1.096  1.00  0.00     0.026 C 
HETATM    7  C7  UNL     1      -2.460  -0.361  -1.156  1.00  0.00     0.008 C 
HETATM    8  C8  UNL     1      -3.158   0.732  -0.415  1.00  0.00     0.005 C 
HETATM    9  C9  UNL     1      -2.322   1.235   0.751  1.00  0.00    -0.014 C 
HETATM   10  C10 UNL     1      -2.035   0.128   1.712  1.00  0.00     0.005 C 
HETATM   11  C11 UNL     1      -0.604  -0.156   1.963  1.00  0.00     0.010 C 
HETATM   12  C12 UNL     1       0.238  -0.659   0.880  1.00  0.00     0.041 C 
HETATM   13  C13 UNL     1       0.868   0.500   0.123  1.00  0.00     0.097 C 
HETATM   14  C14 UNL     1      -0.329   0.936  -0.716  1.00  0.00     0.013 C 
HETATM   15  C15 UNL     1      -1.110   1.864   0.140  1.00  0.00     0.011 C 
ENDROOT
BRANCH   1  16
HETATM   16  C2  UNL     1       2.793   1.171  -0.989  1.00  0.00     0.116 C 
HETATM   17  C1  UNL     1       3.638   1.509   0.213  1.00  0.00     0.023 C 
ENDBRANCH   1  16
BRANCH   5  18
HETATM   18  O2  UNL     1      -1.332  -2.362   0.190  1.00  0.00    -0.389 OA
ATOM     19  H2  UNL     1      -1.983  -1.880   0.686  1.00  0.00     0.210 HD
ENDBRANCH   5  18
TORSDOF 2
