REMARK  1 active torsions:
REMARK  status: ('A' for Active; 'I' for Inactive)
REMARK    1  A    between atoms: C2_2  and  N1_4 
ROOT
HETATM    1  N1  UNL     1      -0.366   0.044   0.157  1.00  0.00     0.106 N 
HETATM    2  C4  UNL     1       0.301  -0.881  -0.735  1.00  0.00     0.224 C 
HETATM    3  C5  UNL     1       0.493  -2.194  -0.194  1.00  0.00     0.042 C 
HETATM    4  C6  UNL     1       1.646  -2.056   0.825  1.00  0.00     0.071 C 
HETATM    5  C7  UNL     1       1.732  -0.782   1.501  1.00  0.00     0.075 C 
HETATM    6  S1  UNL     1       1.694  -0.953   3.141  1.00  0.00    -0.066 SA
HETATM    7  N2  UNL     1       1.847   0.633   1.222  1.00  0.00    -0.349 N 
ATOM      8  H2  UNL     1       2.332   1.128   1.971  1.00  0.00     0.163 HD
HETATM    9  C8  UNL     1       1.453   1.525   0.158  1.00  0.00     0.241 C 
HETATM   10  C9  UNL     1       1.326   2.860   0.831  1.00  0.00     0.109 C 
HETATM   11  N3  UNL     1       1.210   3.895   1.368  1.00  0.00    -0.193 NA
HETATM   12  C10 UNL     1       2.560   1.777  -0.798  1.00  0.00     0.109 C 
HETATM   13  N4  UNL     1       3.424   1.954  -1.558  1.00  0.00    -0.193 NA
HETATM   14  C11 UNL     1       0.151   1.277  -0.472  1.00  0.00     0.281 C 
HETATM   15  C12 UNL     1       0.058   0.992  -1.934  1.00  0.00     0.043 C 
HETATM   16  C13 UNL     1      -0.312  -0.522  -2.026  1.00  0.00     0.038 C 
ENDROOT
BRANCH   1  17
HETATM   17  C2  UNL     1      -1.759   0.077   0.095  1.00  0.00     0.216 C 
HETATM   18  C1  UNL     1      -2.244   0.985   1.244  1.00  0.00     0.042 C 
HETATM   19  C3  UNL     1      -2.512  -1.187   0.297  1.00  0.00     0.042 C 
ENDBRANCH   1  17
TORSDOF 1
