REMARK  13 active torsions:
REMARK  status: ('A' for Active; 'I' for Inactive)
REMARK    1  A    between atoms: C4_4  and  N1_5 
REMARK       I    between atoms: N1_5  and  C5_7 
REMARK    2  A    between atoms: C5_7  and  C6_9 
REMARK    3  A    between atoms: C6_9  and  N2_10 
REMARK    4  A    between atoms: C6_9  and  C12_19 
REMARK       I    between atoms: N2_10  and  C7_12 
REMARK    5  A    between atoms: C7_12  and  O3_14 
REMARK    6  A    between atoms: O3_14  and  C8_15 
REMARK    7  A    between atoms: C15_22  and  N3_23 
REMARK       I    between atoms: N3_23  and  C16_25 
REMARK       I    between atoms: C16_25  and  N4_27 
REMARK    8  A    between atoms: N4_27  and  C17_29 
REMARK    9  A    between atoms: C17_29  and  C18_30 
REMARK   10  A    between atoms: N5_38  and  C24_39 
REMARK   11  A    between atoms: C24_39  and  C25_40 
REMARK   12  A    between atoms: C25_40  and  C26_41 
REMARK   13  A    between atoms: N6_44  and  S1_45 
ROOT
HETATM    1  C6  UNL     1      -2.333  -1.956  -0.160  1.00  0.00     0.183 C 
ENDROOT
BRANCH   1   2
HETATM    2  C5  UNL     1      -1.271  -1.823   0.854  1.00  0.00     0.241 C 
HETATM    3  N1  UNL     1      -0.010  -1.327   0.482  1.00  0.00    -0.355 N 
ATOM      4  H1  UNL     1       0.147  -1.067  -0.492  1.00  0.00     0.162 HD
HETATM    5  O1  UNL     1      -1.501  -2.151   2.031  1.00  0.00    -0.271 OA
BRANCH   3   6
HETATM    6  C4  UNL     1       1.093  -1.168   1.443  1.00  0.00     0.087 C 
HETATM    7  C3  UNL     1       2.174  -2.123   1.014  1.00  0.00     0.049 C 
HETATM    8  C2  UNL     1       3.562  -1.583   1.099  1.00  0.00     0.077 C 
HETATM    9  C1  UNL     1       4.023  -1.546   2.526  1.00  0.00     0.032 C 
HETATM   10  N5  UNL     1       3.678  -0.373   0.393  1.00  0.00    -0.408 N 
HETATM   11  C23 UNL     1       2.511   0.441   0.299  1.00  0.00     0.119 C 
HETATM   12  C22 UNL     1       1.515   0.268   1.395  1.00  0.00     0.044 C 
BRANCH  10  13
HETATM   13  C24 UNL     1       4.817   0.435   0.626  1.00  0.00     0.117 C 
BRANCH  13  14
HETATM   14  C25 UNL     1       6.113  -0.153   0.136  1.00  0.00     0.024 C 
BRANCH  14  15
HETATM   15  C26 UNL     1       7.266   0.766   0.421  1.00  0.00    -0.011 C 
HETATM   16  C27 UNL     1       7.112   2.113  -0.245  1.00  0.00     0.020 C 
HETATM   17  C28 UNL     1       8.434   2.841  -0.274  1.00  0.00     0.107 C 
HETATM   18  N6  UNL     1       9.457   2.040  -0.944  1.00  0.00    -0.211 NA
HETATM   19  C30 UNL     1       9.737   0.928  -0.020  1.00  0.00     0.107 C 
HETATM   20  C31 UNL     1       8.527   0.054  -0.012  1.00  0.00     0.020 C 
BRANCH  18  21
HETATM   21  S1  UNL     1      10.858   3.022  -1.156  1.00  0.00     0.207 S 
HETATM   22  C29 UNL     1      11.503   3.547   0.434  1.00  0.00     0.180 C 
HETATM   23  O5  UNL     1      10.485   4.222  -1.952  1.00  0.00    -0.212 OA
HETATM   24  O6  UNL     1      11.916   2.180  -1.818  1.00  0.00    -0.212 OA
ENDBRANCH  18  21
ENDBRANCH  14  15
ENDBRANCH  13  14
ENDBRANCH  10  13
ENDBRANCH   3   6
ENDBRANCH   1   2
BRANCH   1  25
HETATM   25  N2  UNL     1      -3.518  -2.490   0.440  1.00  0.00    -0.323 N 
HETATM   26  C7  UNL     1      -3.995  -3.755   0.006  1.00  0.00     0.362 C 
HETATM   27  O2  UNL     1      -3.422  -4.438  -0.888  1.00  0.00    -0.238 OA
ATOM     28  H2  UNL     1      -4.011  -1.971   1.167  1.00  0.00     0.165 HD
BRANCH  26  29
HETATM   29  O3  UNL     1      -5.152  -4.339   0.550  1.00  0.00    -0.294 OA
BRANCH  29  30
HETATM   30  C8  UNL     1      -5.613  -5.581   0.119  1.00  0.00     0.061 C 
HETATM   31  C9  UNL     1      -4.632  -6.711   0.313  1.00  0.00     0.046 C 
HETATM   32  C10 UNL     1      -6.860  -5.914   0.923  1.00  0.00     0.046 C 
HETATM   33  C11 UNL     1      -6.002  -5.539  -1.343  1.00  0.00     0.046 C 
ENDBRANCH  29  30
ENDBRANCH  26  29
ENDBRANCH   1  25
BRANCH   1  34
HETATM   34  C12 UNL     1      -2.578  -0.625  -0.842  1.00  0.00     0.018 C 
HETATM   35  C13 UNL     1      -3.007   0.434   0.139  1.00  0.00     0.009 C 
HETATM   36  C14 UNL     1      -3.417   1.655  -0.676  1.00  0.00     0.026 C 
HETATM   37  C15 UNL     1      -4.785   1.352  -1.260  1.00  0.00     0.086 C 
HETATM   38  C20 UNL     1      -4.956  -0.123  -1.531  1.00  0.00     0.026 C 
HETATM   39  C21 UNL     1      -3.615  -0.765  -1.900  1.00  0.00     0.009 C 
BRANCH  37  40
HETATM   40  N3  UNL     1      -5.853   1.809  -0.429  1.00  0.00    -0.338 N 
HETATM   41  C16 UNL     1      -6.748   2.861  -0.848  1.00  0.00     0.320 C 
HETATM   42  O4  UNL     1      -6.586   3.393  -1.970  1.00  0.00    -0.247 OA
HETATM   43  N4  UNL     1      -7.794   3.292  -0.013  1.00  0.00    -0.317 N 
ATOM     44  H4  UNL     1      -7.882   2.783   0.866  1.00  0.00     0.169 HD
ATOM     45  H3  UNL     1      -5.987   1.380   0.487  1.00  0.00     0.164 HD
BRANCH  43  46
HETATM   46  C17 UNL     1      -8.744   4.325  -0.206  1.00  0.00     0.143 C 
BRANCH  46  47
HETATM   47  C18 UNL     1      -8.361   5.735  -0.249  1.00  0.00     0.272 C 
HETATM   48  C19 UNL     1      -7.423   6.227  -1.300  1.00  0.00     0.096 C 
HETATM   49  F1  UNL     1      -7.877   6.152   1.014  1.00  0.00    -0.201 F 
HETATM   50  F2  UNL     1      -9.551   6.489  -0.446  1.00  0.00    -0.201 F 
ENDBRANCH  46  47
ENDBRANCH  43  46
ENDBRANCH  37  40
ENDBRANCH   1  34
TORSDOF 13
