REMARK  9 active torsions:
REMARK  status: ('A' for Active; 'I' for Inactive)
REMARK    1  A    between atoms: C2_2  and  C3_3 
REMARK    2  A    between atoms: C3_3  and  C4_4 
REMARK    3  A    between atoms: C4_4  and  C5_5 
REMARK       I    between atoms: C5_5  and  N1_7 
REMARK    4  A    between atoms: C9_11  and  C10_12 
REMARK    5  A    between atoms: C12_15  and  N2_16 
REMARK    6  A    between atoms: N2_16  and  C13_18 
REMARK    7  A    between atoms: C13_18  and  C14_19 
REMARK    8  A    between atoms: N5_28  and  O2_30 
REMARK    9  A    between atoms: O2_30  and  C19_31 
ROOT
HETATM    1  C5  UNL     1      -1.141  -1.157  -1.957  1.00  0.00     0.220 C 
HETATM    2  O1  UNL     1      -0.621  -2.319  -1.947  1.00  0.00    -0.273 OA
HETATM    3  N1  UNL     1      -0.430  -0.133  -2.605  1.00  0.00    -0.342 N 
HETATM    4  C6  UNL     1      -0.866   1.238  -2.715  1.00  0.00     0.127 C 
HETATM    5  C7  UNL     1      -0.293   1.702  -4.038  1.00  0.00     0.022 C 
HETATM    6  C8  UNL     1       0.661   0.612  -4.497  1.00  0.00     0.033 C 
HETATM    7  C9  UNL     1       0.869  -0.233  -3.289  1.00  0.00     0.137 C 
ENDROOT
BRANCH   7   8
HETATM    8  C10 UNL     1       1.939   0.334  -2.371  1.00  0.00     0.041 A 
HETATM    9  C11 UNL     1       2.934   1.123  -2.874  1.00  0.00     0.080 A 
HETATM   10  S1  UNL     1       3.835   1.500  -1.469  1.00  0.00    -0.064 SA
HETATM   11  C12 UNL     1       2.896   0.635  -0.338  1.00  0.00     0.144 A 
HETATM   12  N4  UNL     1       1.939   0.099  -1.087  1.00  0.00    -0.338 N 
ATOM     13  H4  UNL     1       1.217  -0.486  -0.666  1.00  0.00     0.168 HD
BRANCH  11  14
HETATM   14  N2  UNL     1       3.058   0.512   0.968  1.00  0.00    -0.370 N 
ATOM     15  H2  UNL     1       2.421  -0.039   1.543  1.00  0.00     0.161 HD
BRANCH  14  16
HETATM   16  C13 UNL     1       4.195   1.208   1.531  1.00  0.00     0.126 C 
BRANCH  16  17
HETATM   17  C14 UNL     1       5.099   0.263   2.296  1.00  0.00     0.006 C 
HETATM   18  C15 UNL     1       6.275   0.992   2.877  1.00  0.00     0.025 C 
HETATM   19  C16 UNL     1       7.341   1.275   1.841  1.00  0.00     0.114 C 
HETATM   20  N3  UNL     1       7.742   0.102   1.127  1.00  0.00    -0.421 N 
HETATM   21  C17 UNL     1       6.672  -0.650   0.552  1.00  0.00     0.114 C 
ATOM     22  H3  UNL     1       8.719  -0.177   1.035  1.00  0.00     0.153 HD
HETATM   23  C18 UNL     1       5.538  -0.917   1.489  1.00  0.00     0.025 C 
ENDBRANCH  16  17
ENDBRANCH  14  16
ENDBRANCH  11  14
ENDBRANCH   7   8
BRANCH   1  24
HETATM   24  C4  UNL     1      -2.434  -0.995  -1.290  1.00  0.00     0.108 C 
BRANCH  24  25
HETATM   25  C3  UNL     1      -2.936  -2.266  -0.689  1.00  0.00     0.063 C 
BRANCH  25  26
HETATM   26  C2  UNL     1      -4.236  -2.036  -0.037  1.00  0.00     0.006 C 
HETATM   27  C1  UNL     1      -4.917  -3.165   0.629  1.00  0.00     0.065 C 
HETATM   28  N5  UNL     1      -4.788  -0.883  -0.033  1.00  0.00    -0.275 N 
ATOM     29  H5  UNL     1      -4.319  -0.102  -0.492  1.00  0.00     0.193 HD
BRANCH  28  30
HETATM   30  O2  UNL     1      -5.989  -0.679   0.572  1.00  0.00    -0.271 OA
BRANCH  30  31
HETATM   31  C19 UNL     1      -6.255   0.245   1.584  1.00  0.00     0.078 C 
HETATM   32  C20 UNL     1      -7.715   0.149   1.975  1.00  0.00     0.048 C 
HETATM   33  C21 UNL     1      -5.447  -0.009   2.843  1.00  0.00     0.048 C 
HETATM   34  C22 UNL     1      -5.982   1.643   1.105  1.00  0.00     0.048 C 
ENDBRANCH  30  31
ENDBRANCH  28  30
ENDBRANCH  25  26
ENDBRANCH  24  25
ENDBRANCH   1  24
TORSDOF 9
