REMARK  5 active torsions:
REMARK  status: ('A' for Active; 'I' for Inactive)
REMARK    1  A    between atoms: S1_2  and  C2_3 
REMARK    2  A    between atoms: C2_3  and  C3_4 
REMARK    3  A    between atoms: C4_8  and  C5_9 
REMARK    4  A    between atoms: C5_9  and  N2_10 
REMARK    5  A    between atoms: C8_15  and  N4_16 
ROOT
HETATM    1  C3  UNL     1      -1.265  -0.439  -0.082  1.00  0.00     0.225 C 
HETATM    2  N1  UNL     1      -0.147  -1.203  -0.651  1.00  0.00    -0.062 N 
ATOM      3  H11 UNL     1       0.024  -1.055  -1.646  1.00  0.00     0.278 HD
ATOM      4  H12 UNL     1      -0.301  -2.208  -0.736  1.00  0.00     0.278 HD
HETATM    5  C4  UNL     1       0.933  -0.812   0.230  1.00  0.00     0.206 C 
HETATM    6  C7  UNL     1       0.797   0.696   0.198  1.00  0.00     0.069 C 
HETATM    7  C8  UNL     1      -0.694   0.848   0.404  1.00  0.00     0.216 C 
ENDROOT
BRANCH   5   8
HETATM    8  C5  UNL     1       2.292  -1.221  -0.279  1.00  0.00     0.153 C 
BRANCH   8   9
HETATM    9  N2  UNL     1       3.261  -0.767   0.699  1.00  0.00    -0.386 N 
HETATM   10  C6  UNL     1       4.079   0.202   0.529  1.00  0.00     0.185 C 
HETATM   11  N3  UNL     1       4.161   0.980  -0.646  1.00  0.00    -0.097 NA
ATOM     12  H2  UNL     1       3.293  -1.258   1.592  1.00  0.00     0.159 HD
ENDBRANCH   8   9
ENDBRANCH   5   8
BRANCH   1  13
HETATM   13  C2  UNL     1      -2.328  -0.278  -1.140  1.00  0.00     0.108 C 
BRANCH  13  14
HETATM   14  S1  UNL     1      -3.756   0.639  -0.582  1.00  0.00    -0.171 SA
HETATM   15  C1  UNL     1      -4.690  -0.217   0.696  1.00  0.00     0.089 C 
ENDBRANCH  13  14
ENDBRANCH   1  13
BRANCH   7  16
HETATM   16  N4  UNL     1      -0.933   1.097   1.815  1.00  0.00    -0.073 N 
ATOM     17  H43 UNL     1      -1.929   1.043   2.026  1.00  0.00     0.274 HD
ATOM     18  H42 UNL     1      -0.596   0.318   2.380  1.00  0.00     0.274 HD
ATOM     19  H41 UNL     1      -0.542   1.978   2.148  1.00  0.00     0.274 HD
ENDBRANCH   7  16
TORSDOF 5
