REMARK  5 active torsions:
REMARK  status: ('A' for Active; 'I' for Inactive)
REMARK    1  A    between atoms: C2_2  and  N2_6 
REMARK    2  A    between atoms: N3_8  and  C4_9 
REMARK    3  A    between atoms: C4_9  and  C5_10 
REMARK    4  A    between atoms: C5_10  and  N4_11 
REMARK    5  A    between atoms: C5_10  and  C6_15 
ROOT
HETATM    1  N2  UNL     1      -1.785  -0.050  -0.553  1.00  0.00    -0.343 N 
HETATM    2  C3  UNL     1      -0.413  -0.338  -1.010  1.00  0.00     0.363 C 
HETATM    3  N3  UNL     1       0.440   0.539  -0.286  1.00  0.00    -0.049 N 
HETATM    4  C7  UNL     1      -0.006   0.518   1.115  1.00  0.00     0.241 C 
HETATM    5  C8  UNL     1      -1.237   1.382   1.288  1.00  0.00     0.053 C 
HETATM    6  C9  UNL     1      -1.990   1.287  -0.039  1.00  0.00     0.090 C 
HETATM    7  C10 UNL     1      -1.229   2.215  -0.990  1.00  0.00     0.053 C 
HETATM    8  C11 UNL     1       0.222   1.889  -0.835  1.00  0.00     0.241 C 
ENDROOT
BRANCH   3   9
HETATM    9  C4  UNL     1       1.822   0.252  -0.301  1.00  0.00     0.272 C 
BRANCH   9  10
HETATM   10  C5  UNL     1       2.239  -1.161  -0.437  1.00  0.00     0.219 C 
BRANCH  10  11
HETATM   11  N4  UNL     1       1.746  -1.996   0.643  1.00  0.00    -0.073 N 
ATOM     12  H43 UNL     1       2.019  -1.619   1.551  1.00  0.00     0.274 HD
ATOM     13  H42 UNL     1       0.733  -1.920   0.731  1.00  0.00     0.274 HD
ATOM     14  H41 UNL     1       2.033  -2.970   0.549  1.00  0.00     0.274 HD
ENDBRANCH  10  11
BRANCH  10  15
HETATM   15  C6  UNL     1       3.757  -1.276  -0.405  1.00  0.00     0.120 C 
HETATM   16  S1  UNL     1       4.441  -0.645   1.142  1.00  0.00    -0.096 SA
ENDBRANCH  10  15
ENDBRANCH   9  10
ENDBRANCH   3   9
BRANCH   1  17
HETATM   17  C2  UNL     1      -2.802  -1.040  -0.627  1.00  0.00     0.070 C 
HETATM   18  C1  UNL     1      -4.151  -0.791  -1.183  1.00  0.00     0.088 C 
HETATM   19  N1  UNL     1      -2.554  -2.232  -0.190  1.00  0.00    -0.389 N 
ATOM     20  H12 UNL     1      -3.284  -2.943  -0.243  1.00  0.00     0.157 HD
ATOM     21  H11 UNL     1      -1.624  -2.404   0.193  1.00  0.00     0.157 HD
ENDBRANCH   1  17
TORSDOF 5
