REMARK  8 active torsions:
REMARK  status: ('A' for Active; 'I' for Inactive)
REMARK    1  A    between atoms: C2_2  and  N1_3 
REMARK    2  A    between atoms: C3_4  and  O1_5 
REMARK    3  A    between atoms: C4_7  and  C5_8 
REMARK    4  A    between atoms: C5_8  and  C6_9 
REMARK    5  A    between atoms: C11_22  and  C12_23 
REMARK    6  A    between atoms: C12_23  and  C13_24 
REMARK    7  A    between atoms: C13_24  and  C14_25 
REMARK    8  A    between atoms: C14_25  and  N5_26 
ROOT
HETATM    1  N1  UNL     1       0.346   0.510   1.364  1.00  0.00    -0.347 N 
HETATM    2  C3  UNL     1       1.489   1.158   0.924  1.00  0.00     0.162 C 
HETATM    3  C4  UNL     1       2.557   0.805  -0.004  1.00  0.00     0.071 C 
HETATM    4  N3  UNL     1       2.690  -0.550  -0.433  1.00  0.00    -0.325 N 
ATOM      5  H3  UNL     1       3.663  -0.838  -0.534  1.00  0.00     0.169 HD
HETATM    6  C7  UNL     1       1.796  -1.564  -0.744  1.00  0.00     0.244 C 
HETATM    7  O3  UNL     1       1.839  -2.674  -0.077  1.00  0.00    -0.271 OA
HETATM    8  C8  UNL     1       0.725  -1.631  -1.767  1.00  0.00     0.172 C 
HETATM    9  C9  UNL     1      -0.186  -2.837  -1.596  1.00  0.00     0.042 C 
HETATM   10  N4  UNL     1      -0.039  -0.419  -1.926  1.00  0.00    -0.346 N 
ATOM     11  H4  UNL     1      -0.162  -0.054  -2.871  1.00  0.00     0.163 HD
HETATM   12  C10 UNL     1      -0.628   0.297  -0.861  1.00  0.00     0.241 C 
HETATM   13  O4  UNL     1      -1.159   1.404  -1.150  1.00  0.00    -0.271 OA
HETATM   14  C11 UNL     1      -0.669  -0.143   0.535  1.00  0.00     0.178 C 
ENDROOT
BRANCH  14  15
HETATM   15  C12 UNL     1      -2.083   0.108   1.083  1.00  0.00     0.036 C 
BRANCH  15  16
HETATM   16  C13 UNL     1      -3.010  -0.636   0.108  1.00  0.00     0.030 C 
BRANCH  16  17
HETATM   17  C14 UNL     1      -4.455  -0.436   0.584  1.00  0.00     0.230 C 
BRANCH  17  18
HETATM   18  N5  UNL     1      -5.289  -1.158  -0.371  1.00  0.00    -0.079 N 
ATOM     19  H53 UNL     1      -5.136  -0.879  -1.340  1.00  0.00     0.274 HD
ATOM     20  H52 UNL     1      -5.028  -2.137  -0.483  1.00  0.00     0.274 HD
ATOM     21  H51 UNL     1      -6.250  -1.025  -0.055  1.00  0.00     0.274 HD
ENDBRANCH  17  18
ENDBRANCH  16  17
ENDBRANCH  15  16
ENDBRANCH  14  15
BRANCH   1  22
HETATM   22  C2  UNL     1       0.075   0.463   2.803  1.00  0.00     0.121 C 
HETATM   23  C1  UNL     1      -0.728   1.629   3.280  1.00  0.00     0.026 C 
ENDBRANCH   1  22
BRANCH   2  24
HETATM   24  O1  UNL     1       1.654   2.341   1.448  1.00  0.00    -0.345 OA
ATOM     25  H1  UNL     1       2.438   2.785   1.146  1.00  0.00     0.219 HD
ENDBRANCH   2  24
BRANCH   3  26
HETATM   26  C5  UNL     1       2.731   1.813  -1.151  1.00  0.00     0.161 C 
BRANCH  26  27
HETATM   27  C6  UNL     1       3.848   1.358  -2.034  1.00  0.00     0.236 C 
HETATM   28  N2  UNL     1       5.139   1.941  -1.963  1.00  0.00    -0.062 NA
HETATM   29  O2  UNL     1       3.669   0.428  -2.882  1.00  0.00    -0.277 OA
ENDBRANCH  26  27
ENDBRANCH   3  26
TORSDOF 8
