REMARK  3 active torsions:
REMARK  status: ('A' for Active; 'I' for Inactive)
REMARK    1  A    between atoms: C1_2  and  C2_4 
REMARK    2  A    between atoms: C2_4  and  N2_5 
REMARK    3  A    between atoms: C2_4  and  C3_9 
ROOT
HETATM    1  C2  UNL     1      -0.576  -0.214   0.695  1.00  0.00     0.322 C 
ENDROOT
BRANCH   1   2
HETATM    2  C1  UNL     1      -1.447   0.861   0.199  1.00  0.00     0.267 C 
HETATM    3  N1  UNL     1      -2.643   0.513  -0.483  1.00  0.00    -0.060 NA
HETATM    4  O1  UNL     1      -1.220   2.099   0.327  1.00  0.00    -0.274 OA
ENDBRANCH   1   2
BRANCH   1   5
HETATM    5  N2  UNL     1      -1.208  -1.487   0.440  1.00  0.00    -0.061 N 
ATOM      6  H23 UNL     1      -2.149  -1.538   0.830  1.00  0.00     0.275 HD
ATOM      7  H22 UNL     1      -1.454  -1.609  -0.542  1.00  0.00     0.275 HD
ATOM      8  H21 UNL     1      -0.604  -2.233   0.784  1.00  0.00     0.275 HD
ENDBRANCH   1   5
BRANCH   1   9
HETATM    9  C3  UNL     1       0.784  -0.174   0.061  1.00  0.00     0.065 A 
HETATM   10  C4  UNL     1       1.296   0.859  -0.680  1.00  0.00     0.116 A 
HETATM   11  N3  UNL     1       2.537   0.474  -1.049  1.00  0.00    -0.360 N 
HETATM   12  C5  UNL     1       2.812  -0.747  -0.569  1.00  0.00     0.180 A 
ATOM     13  H3  UNL     1       3.176   1.034  -1.614  1.00  0.00     0.166 HD
HETATM   14  N4  UNL     1       1.727  -1.140   0.114  1.00  0.00    -0.352 N 
ATOM     15  H4  UNL     1       1.629  -2.032   0.599  1.00  0.00     0.166 HD
ENDBRANCH   1   9
TORSDOF 3
