REMARK  4 active torsions:
REMARK  status: ('A' for Active; 'I' for Inactive)
REMARK    1  A    between atoms: N1_1  and  C1_4 
REMARK    2  A    between atoms: C4_12  and  C5_13 
REMARK    3  A    between atoms: C5_13  and  N4_14 
REMARK    4  A    between atoms: N4_14  and  C6_16 
ROOT
HETATM    1  C1  UNL     1      -0.920   0.438  -1.037  1.00  0.00     0.112 A 
HETATM    2  N2  UNL     1      -2.173   0.681  -0.658  1.00  0.00    -0.294 N 
ATOM      3  H2  UNL     1      -2.734   1.261  -1.282  1.00  0.00     0.172 HD
HETATM    4  C2  UNL     1      -2.779   0.241   0.463  1.00  0.00     0.325 A 
HETATM    5  O1  UNL     1      -3.960   0.498   0.763  1.00  0.00    -0.247 OA
HETATM    6  N3  UNL     1      -1.997  -0.537   1.286  1.00  0.00    -0.318 N 
ATOM      7  H3  UNL     1      -2.388  -0.906   2.153  1.00  0.00     0.170 HD
HETATM    8  C3  UNL     1      -0.728  -0.815   0.960  1.00  0.00     0.105 A 
HETATM    9  C4  UNL     1      -0.115  -0.359  -0.190  1.00  0.00     0.019 A 
ENDROOT
BRANCH   9  10
HETATM   10  C5  UNL     1       1.211  -0.759  -0.659  1.00  0.00     0.165 C 
BRANCH  10  11
HETATM   11  N4  UNL     1       2.268   0.047  -0.155  1.00  0.00    -0.364 N 
ATOM     12  H4  UNL     1       2.862   0.356  -0.924  1.00  0.00     0.162 HD
BRANCH  11  13
HETATM   13  C6  UNL     1       2.745   0.541   1.024  1.00  0.00     0.348 C 
HETATM   14  O2  UNL     1       2.409   0.443   2.184  1.00  0.00    -0.284 OA
ENDBRANCH  11  13
ENDBRANCH  10  11
ENDBRANCH   9  10
BRANCH   1  15
HETATM   15  N1  UNL     1      -0.401   1.030  -2.094  1.00  0.00    -0.385 N 
ATOM     16  H12 UNL     1      -0.982   1.605  -2.705  1.00  0.00     0.157 HD
ATOM     17  H11 UNL     1       0.559   0.844  -2.384  1.00  0.00     0.157 HD
ENDBRANCH   1  15
TORSDOF 4
