REMARK  16 active torsions:
REMARK  status: ('A' for Active; 'I' for Inactive)
REMARK    1  A    between atoms: C1_2  and  C2_4 
REMARK    2  A    between atoms: C2_4  and  C3_5 
REMARK    3  A    between atoms: C3_5  and  C4_6 
REMARK    4  A    between atoms: C4_6  and  C5_7 
REMARK    5  A    between atoms: C6_8  and  C7_9 
REMARK    6  A    between atoms: C7_9  and  C8_10 
REMARK    7  A    between atoms: C9_11  and  C10_12 
REMARK    8  A    between atoms: C10_12  and  C11_13 
REMARK    9  A    between atoms: C12_14  and  C13_15 
REMARK   10  A    between atoms: C13_15  and  C14_16 
REMARK   11  A    between atoms: C15_17  and  C16_18 
REMARK   12  A    between atoms: C16_18  and  C17_19 
REMARK   13  A    between atoms: C17_19  and  C18_20 
REMARK   14  A    between atoms: C18_20  and  O3_21 
REMARK   15  A    between atoms: O3_21  and  C19_22 
REMARK   16  A    between atoms: C19_22  and  C20_23 
ROOT
HETATM    1  C11 UNL     1       0.554   1.206   2.085  1.00  0.00    -0.027 C 
HETATM    2  C12 UNL     1      -0.482   0.546   1.634  1.00  0.00    -0.027 C 
ENDROOT
BRANCH   1   3
HETATM    3  C10 UNL     1       0.730   2.669   1.984  1.00  0.00     0.053 C 
BRANCH   3   4
HETATM    4  C9  UNL     1       1.978   2.926   1.194  1.00  0.00    -0.027 C 
HETATM    5  C8  UNL     1       2.718   1.950   0.717  1.00  0.00    -0.027 C 
BRANCH   5   6
HETATM    6  C7  UNL     1       3.952   2.303  -0.065  1.00  0.00     0.053 C 
BRANCH   6   7
HETATM    7  C6  UNL     1       5.084   1.706   0.660  1.00  0.00    -0.027 C 
HETATM    8  C5  UNL     1       5.891   0.825   0.160  1.00  0.00    -0.030 C 
BRANCH   8   9
HETATM    9  C4  UNL     1       5.812   0.279  -1.199  1.00  0.00     0.027 C 
BRANCH   9  10
HETATM   10  C3  UNL     1       5.614  -1.234  -1.181  1.00  0.00     0.014 C 
BRANCH  10  11
HETATM   11  C2  UNL     1       6.764  -1.914  -0.475  1.00  0.00     0.113 C 
BRANCH  11  12
HETATM   12  C1  UNL     1       6.501  -3.384  -0.499  1.00  0.00     0.172 C 
HETATM   13  O1  UNL     1       7.301  -4.205   0.022  1.00  0.00    -0.648 OA
HETATM   14  O2  UNL     1       5.366  -3.916  -1.093  1.00  0.00    -0.648 OA
ENDBRANCH  11  12
ENDBRANCH  10  11
ENDBRANCH   9  10
ENDBRANCH   8   9
ENDBRANCH   6   7
ENDBRANCH   5   6
ENDBRANCH   3   4
ENDBRANCH   1   3
BRANCH   2  15
HETATM   15  C13 UNL     1      -1.665   1.102   0.944  1.00  0.00     0.053 C 
BRANCH  15  16
HETATM   16  C14 UNL     1      -2.921   0.825   1.671  1.00  0.00    -0.027 C 
HETATM   17  C15 UNL     1      -3.943   0.152   1.218  1.00  0.00    -0.030 C 
BRANCH  17  18
HETATM   18  C16 UNL     1      -3.997  -0.444  -0.116  1.00  0.00     0.029 C 
BRANCH  18  19
HETATM   19  C17 UNL     1      -5.137   0.158  -0.903  1.00  0.00     0.030 C 
BRANCH  19  20
HETATM   20  C18 UNL     1      -6.441  -0.099  -0.234  1.00  0.00     0.168 C 
BRANCH  20  21
HETATM   21  O3  UNL     1      -6.643  -1.441  -0.107  1.00  0.00    -0.381 OA
BRANCH  21  22
HETATM   22  C19 UNL     1      -6.677  -2.202  -1.231  1.00  0.00     0.280 C 
BRANCH  22  23
HETATM   23  C20 UNL     1      -7.760  -1.928  -2.188  1.00  0.00     0.197 C 
HETATM   24  O4  UNL     1      -7.806  -2.555  -3.267  1.00  0.00    -0.646 OA
HETATM   25  O5  UNL     1      -8.728  -1.001  -1.929  1.00  0.00    -0.646 OA
ENDBRANCH  22  23
ENDBRANCH  21  22
ENDBRANCH  20  21
ENDBRANCH  19  20
ENDBRANCH  18  19
ENDBRANCH  17  18
ENDBRANCH  15  16
ENDBRANCH   2  15
TORSDOF 16
