REMARK  16 active torsions:
REMARK  status: ('A' for Active; 'I' for Inactive)
REMARK    1  A    between atoms: C2_2  and  C3_3 
REMARK    2  A    between atoms: C5_5  and  N1_6 
REMARK    3  A    between atoms: N1_6  and  C6_9 
REMARK    4  A    between atoms: C6_9  and  C7_10 
REMARK    5  A    between atoms: C7_10  and  C8_11 
REMARK    6  A    between atoms: C8_11  and  N2_12 
REMARK    7  A    between atoms: N2_12  and  C9_14 
REMARK    8  A    between atoms: C9_14  and  C10_15 
REMARK    9  A    between atoms: C10_15  and  C11_16 
REMARK   10  A    between atoms: C11_16  and  C12_17 
REMARK   11  A    between atoms: C12_17  and  C13_18 
REMARK   12  A    between atoms: C13_18  and  C14_19 
REMARK   13  A    between atoms: C14_19  and  C16_21 
REMARK   14  A    between atoms: C16_21  and  C17_22 
REMARK   15  A    between atoms: C17_22  and  O2_24 
REMARK   16  A    between atoms: O2_24  and  C18_25 
ROOT
HETATM    1  C9  UNL     1       1.139  -1.318  -1.470  1.00  0.00     0.055 C 
ENDROOT
BRANCH   1   2
HETATM    2  N2  UNL     1       1.915  -0.214  -1.128  1.00  0.00    -0.402 N 
ATOM      3  H2  UNL     1       1.896   0.618  -1.718  1.00  0.00     0.158 HD
BRANCH   2   4
HETATM    4  C8  UNL     1       2.728  -0.233   0.025  1.00  0.00     0.120 C 
BRANCH   4   5
HETATM    5  C7  UNL     1       3.676   0.977  -0.103  1.00  0.00     0.047 C 
BRANCH   5   6
HETATM    6  C6  UNL     1       4.562   1.117   1.091  1.00  0.00     0.234 C 
BRANCH   6   7
HETATM    7  N1  UNL     1       5.483   2.241   0.847  1.00  0.00    -0.070 N 
ATOM      8  H12 UNL     1       5.938   2.599   1.686  1.00  0.00     0.277 HD
ATOM      9  H11 UNL     1       5.021   3.113   0.591  1.00  0.00     0.277 HD
BRANCH   7  10
HETATM   10  C5  UNL     1       6.410   1.729  -0.170  1.00  0.00     0.190 A 
HETATM   11  C3  UNL     1       7.240   0.503   0.337  1.00  0.00     0.018 A 
HETATM   12  C4  UNL     1       7.871   1.799   0.022  1.00  0.00     0.040 A 
BRANCH  11  13
HETATM   13  C2  UNL     1       7.265  -0.682  -0.561  1.00  0.00     0.002 C 
HETATM   14  C1  UNL     1       8.652  -1.186  -0.863  1.00  0.00     0.005 C 
ENDBRANCH  11  13
ENDBRANCH   7  10
ENDBRANCH   6   7
ENDBRANCH   5   6
ENDBRANCH   4   5
ENDBRANCH   2   4
ENDBRANCH   1   2
BRANCH   1  15
HETATM   15  C10 UNL     1       0.010  -1.774  -0.666  1.00  0.00     0.044 C 
BRANCH  15  16
HETATM   16  C11 UNL     1      -1.170  -0.882  -0.426  1.00  0.00     0.005 C 
BRANCH  16  17
HETATM   17  C12 UNL     1      -0.905   0.319   0.356  1.00  0.00     0.001 C 
BRANCH  17  18
HETATM   18  C13 UNL     1      -1.951   1.307   0.662  1.00  0.00     0.005 C 
BRANCH  18  19
HETATM   19  C14 UNL     1      -3.221   0.878   1.310  1.00  0.00    -0.009 C 
HETATM   20  C15 UNL     1      -3.940   2.272   1.593  1.00  0.00     0.010 C 
BRANCH  19  21
HETATM   21  C16 UNL     1      -4.137   0.298   0.249  1.00  0.00     0.115 C 
BRANCH  21  22
HETATM   22  C17 UNL     1      -5.426  -0.213   0.779  1.00  0.00     0.259 C 
HETATM   23  O1  UNL     1      -5.604  -0.236   2.030  1.00  0.00    -0.265 OA
BRANCH  22  24
HETATM   24  O2  UNL     1      -6.421  -0.659  -0.026  1.00  0.00    -0.316 OA
BRANCH  24  25
HETATM   25  C18 UNL     1      -7.661  -1.171   0.390  1.00  0.00     0.132 A 
HETATM   26  C19 UNL     1      -8.206  -2.349  -0.321  1.00  0.00     0.032 A 
HETATM   27  C20 UNL     1      -9.406  -1.555  -0.746  1.00  0.00     0.005 A 
HETATM   28  C21 UNL     1      -8.852  -0.332  -0.066  1.00  0.00     0.032 A 
ENDBRANCH  24  25
ENDBRANCH  22  24
ENDBRANCH  21  22
ENDBRANCH  19  21
ENDBRANCH  18  19
ENDBRANCH  17  18
ENDBRANCH  16  17
ENDBRANCH  15  16
ENDBRANCH   1  15
TORSDOF 16
