REMARK  3 active torsions:
REMARK  status: ('A' for Active; 'I' for Inactive)
REMARK    1  A    between atoms: N2_8  and  C5_9 
REMARK    2  A    between atoms: C9_13  and  C10_14 
REMARK    3  A    between atoms: C11_15  and  N3_16 
REMARK       I    between atoms: N3_16  and  C12_18 
ROOT
HETATM    1  C1  UNL     1       1.530   3.370  -0.903  1.00  0.00     0.014 C 
HETATM    2  C2  UNL     1       0.507   2.913  -0.441  1.00  0.00    -0.089 C 
HETATM    3  C3  UNL     1      -0.706   2.377   0.125  1.00  0.00     0.189 C 
HETATM    4  N1  UNL     1      -1.690   2.258  -0.935  1.00  0.00    -0.350 N 
ATOM      5  H1  UNL     1      -1.871   2.935  -1.676  1.00  0.00     0.163 HD
HETATM    6  C4  UNL     1      -2.357   1.009  -0.739  1.00  0.00     0.172 C 
HETATM    7  S1  UNL     1      -3.790   0.683  -1.471  1.00  0.00    -0.041 SA
HETATM    8  N2  UNL     1      -1.603   0.188   0.134  1.00  0.00    -0.339 N 
HETATM    9  C9  UNL     1      -0.544   0.968   0.663  1.00  0.00     0.146 C 
ENDROOT
BRANCH   9  10
HETATM   10  C10 UNL     1       0.805   0.518   0.305  1.00  0.00     0.018 C 
HETATM   11  C11 UNL     1       1.168   0.075  -0.890  1.00  0.00     0.089 C 
BRANCH  11  12
HETATM   12  N3  UNL     1       2.451  -0.354  -1.234  1.00  0.00    -0.338 N 
HETATM   13  C12 UNL     1       3.265  -0.752  -0.145  1.00  0.00     0.217 C 
HETATM   14  C13 UNL     1       4.235   0.103   0.552  1.00  0.00     0.117 C 
HETATM   15  O1  UNL     1       3.120  -1.912   0.218  1.00  0.00    -0.274 OA
ATOM     16  H3  UNL     1       2.779  -0.379  -2.200  1.00  0.00     0.168 HD
ENDBRANCH  11  12
ENDBRANCH   9  10
BRANCH   8  17
HETATM   17  C5  UNL     1      -1.884  -1.195   0.417  1.00  0.00     0.025 C 
HETATM   18  C6  UNL     1      -0.900  -1.784   1.408  1.00  0.00     0.037 C 
HETATM   19  C7  UNL     1      -1.850  -2.027  -0.870  1.00  0.00     0.037 C 
HETATM   20  C8  UNL     1      -3.273  -1.380   1.012  1.00  0.00     0.037 C 
ENDBRANCH   8  17
TORSDOF 3
