REMARK  14 active torsions:
REMARK  status: ('A' for Active; 'I' for Inactive)
REMARK    1  A    between atoms: N1_2  and  C2_3 
REMARK       I    between atoms: N1_2  and  C23_37 
REMARK    2  A    between atoms: C2_3  and  C3_4 
REMARK    3  A    between atoms: C3_4  and  C4_5 
REMARK    4  A    between atoms: C4_5  and  C5_6 
REMARK    5  A    between atoms: C5_6  and  C6_7 
REMARK    6  A    between atoms: C6_7  and  C7_8 
REMARK    7  A    between atoms: C7_8  and  C8_9 
REMARK    8  A    between atoms: C8_9  and  C9_10 
REMARK    9  A    between atoms: C9_10  and  N2_11 
REMARK       I    between atoms: N2_11  and  C10_13 
REMARK       I    between atoms: C10_13  and  N3_15 
REMARK       I    between atoms: N4_18  and  C13_19 
REMARK   10  A    between atoms: C15_25  and  C16_26 
REMARK       I    between atoms: C16_26  and  N7_28 
REMARK   11  A    between atoms: N7_28  and  C17_30 
REMARK   12  A    between atoms: C17_30  and  C18_31 
REMARK   13  A    between atoms: C18_31  and  C19_32 
REMARK   14  A    between atoms: C19_32  and  N8_33 
ROOT
HETATM    1  N2  UNL     1      -0.381   2.742  -0.663  1.00  0.00    -0.343 N 
ATOM      2  H2  UNL     1      -0.135   3.492  -1.309  1.00  0.00     0.164 HD
HETATM    3  C10 UNL     1       0.639   2.221   0.156  1.00  0.00     0.319 C 
HETATM    4  O1  UNL     1       0.363   1.269   0.975  1.00  0.00    -0.247 OA
HETATM    5  N3  UNL     1       1.976   2.659   0.159  1.00  0.00    -0.318 N 
HETATM    6  C11 UNL     1       2.419   3.712  -0.706  1.00  0.00     0.148 C 
HETATM    7  C12 UNL     1       3.068   4.826   0.114  1.00  0.00     0.145 C 
HETATM    8  N4  UNL     1       3.756   4.266   1.264  1.00  0.00    -0.352 N 
HETATM    9  C13 UNL     1       4.041   5.000   2.441  1.00  0.00     0.184 C 
HETATM   10  N5  UNL     1       3.074   5.561   3.066  1.00  0.00    -0.374 N 
ATOM     11  H51 UNL     1       3.279   6.090   3.914  1.00  0.00     0.158 HD
ATOM     12  H52 UNL     1       2.123   5.471   2.709  1.00  0.00     0.158 HD
HETATM   13  N6  UNL     1       5.361   5.125   2.936  1.00  0.00    -0.064 NA
HETATM   14  C14 UNL     1       4.155   2.895   1.175  1.00  0.00     0.160 C 
HETATM   15  C15 UNL     1       2.922   2.037   1.050  1.00  0.00     0.199 C 
ENDROOT
BRANCH  15  16
HETATM   16  C16 UNL     1       3.226   0.634   0.649  1.00  0.00     0.242 C 
HETATM   17  O2  UNL     1       2.692   0.104  -0.357  1.00  0.00    -0.271 OA
HETATM   18  N7  UNL     1       4.137  -0.137   1.405  1.00  0.00    -0.359 N 
ATOM     19  H7  UNL     1       4.581   0.271   2.227  1.00  0.00     0.162 HD
BRANCH  18  20
HETATM   20  C17 UNL     1       4.445  -1.486   1.031  1.00  0.00     0.124 C 
BRANCH  20  21
HETATM   21  C18 UNL     1       5.072  -1.654  -0.318  1.00  0.00     0.047 C 
BRANCH  21  22
HETATM   22  C19 UNL     1       5.314  -3.149  -0.494  1.00  0.00     0.237 C 
BRANCH  22  23
HETATM   23  N8  UNL     1       5.917  -3.464  -1.756  1.00  0.00    -0.079 N 
HETATM   24  C20 UNL     1       6.669  -4.708  -1.579  1.00  0.00     0.271 C 
HETATM   25  C21 UNL     1       4.874  -3.639  -2.734  1.00  0.00     0.271 C 
HETATM   26  C22 UNL     1       6.869  -2.459  -2.200  1.00  0.00     0.271 C 
ENDBRANCH  22  23
ENDBRANCH  21  22
ENDBRANCH  20  21
ENDBRANCH  18  20
ENDBRANCH  15  16
BRANCH   1  27
HETATM   27  C9  UNL     1      -1.774   2.279  -0.650  1.00  0.00     0.128 C 
BRANCH  27  28
HETATM   28  C8  UNL     1      -2.426   2.473   0.654  1.00  0.00     0.046 C 
BRANCH  28  29
HETATM   29  C7  UNL     1      -3.850   2.121   0.721  1.00  0.00    -0.029 C 
BRANCH  29  30
HETATM   30  C6  UNL     1      -4.368   0.777   0.499  1.00  0.00    -0.031 C 
BRANCH  30  31
HETATM   31  C5  UNL     1      -4.249   0.075  -0.784  1.00  0.00     0.027 C 
BRANCH  31  32
HETATM   32  C4  UNL     1      -4.938  -1.316  -0.728  1.00  0.00     0.005 C 
BRANCH  32  33
HETATM   33  C3  UNL     1      -6.397  -1.212  -0.415  1.00  0.00     0.020 C 
BRANCH  33  34
HETATM   34  C2  UNL     1      -6.946  -2.635  -0.407  1.00  0.00     0.125 C 
BRANCH  34  35
HETATM   35  N1  UNL     1      -8.365  -2.620  -0.108  1.00  0.00    -0.360 N 
HETATM   36  C1  UNL     1      -8.836  -2.233   1.212  1.00  0.00     0.152 C 
HETATM   37  C23 UNL     1      -9.359  -2.975  -1.064  1.00  0.00     0.183 C 
HETATM   38  N9  UNL     1      -9.686  -4.228  -1.246  1.00  0.00    -0.374 N 
HETATM   39  N10 UNL     1     -10.019  -2.004  -1.842  1.00  0.00    -0.064 NA
ATOM     40  H92 UNL     1      -9.208  -4.931  -0.683  1.00  0.00     0.158 HD
ATOM     41  H91 UNL     1     -10.398  -4.482  -1.931  1.00  0.00     0.158 HD
ENDBRANCH  34  35
ENDBRANCH  33  34
ENDBRANCH  32  33
ENDBRANCH  31  32
ENDBRANCH  30  31
ENDBRANCH  29  30
ENDBRANCH  28  29
ENDBRANCH  27  28
ENDBRANCH   1  27
TORSDOF 14
