REMARK  6 active torsions:
REMARK  status: ('A' for Active; 'I' for Inactive)
REMARK    1  A    between atoms: C2_2  and  C3_3 
REMARK    2  A    between atoms: C3_3  and  C4_4 
REMARK    3  A    between atoms: C8_10  and  N2_11 
REMARK       I    between atoms: N2_11  and  C9_13 
REMARK       I    between atoms: C9_13  and  N3_15 
REMARK    4  A    between atoms: N3_15  and  C10_17 
REMARK    5  A    between atoms: C10_17  and  C11_18 
REMARK    6  A    between atoms: C11_18  and  N4_19 
ROOT
HETATM    1  N2  UNL     1       0.056   0.700  -0.631  1.00  0.00    -0.289 N 
ATOM      2  H2  UNL     1      -0.190   1.640  -0.940  1.00  0.00     0.172 HD
HETATM    3  C9  UNL     1      -0.974  -0.229  -0.520  1.00  0.00     0.322 C 
HETATM    4  O1  UNL     1      -0.718  -1.422  -0.798  1.00  0.00    -0.247 OA
HETATM    5  N3  UNL     1      -2.271   0.213  -0.099  1.00  0.00    -0.332 N 
ATOM      6  H3  UNL     1      -2.411   1.201   0.114  1.00  0.00     0.165 HD
ENDROOT
BRANCH   1   7
HETATM    7  C8  UNL     1       1.310   0.461  -0.370  1.00  0.00     0.153 A 
HETATM    8  N1  UNL     1       1.957  -0.616   0.043  1.00  0.00    -0.339 N 
HETATM    9  C7  UNL     1       3.269  -0.558   0.211  1.00  0.00     0.024 A 
ATOM     10  H1  UNL     1       1.451  -1.482   0.230  1.00  0.00     0.168 HD
HETATM   11  C6  UNL     1       4.153  -1.720   0.682  1.00  0.00     0.058 C 
HETATM   12  C20 UNL     1       3.882   0.632  -0.057  1.00  0.00     0.009 A 
HETATM   13  C5  UNL     1       5.289  -1.079   1.425  1.00  0.00     0.011 C 
HETATM   14  C4  UNL     1       6.109  -0.363   0.315  1.00  0.00    -0.009 C 
HETATM   15  C21 UNL     1       5.357   0.896   0.070  1.00  0.00     0.053 C 
HETATM   16  S1  UNL     1       2.574   1.616  -0.536  1.00  0.00    -0.056 SA
BRANCH  14  17
HETATM   17  C3  UNL     1       7.483  -0.252   0.838  1.00  0.00     0.004 C 
BRANCH  17  18
HETATM   18  C2  UNL     1       8.526   0.368   0.000  1.00  0.00    -0.004 C 
HETATM   19  C1  UNL     1       8.256   1.789  -0.361  1.00  0.00     0.005 C 
ENDBRANCH  17  18
ENDBRANCH  14  17
ENDBRANCH   1   7
BRANCH   5  20
HETATM   20  C10 UNL     1      -3.364  -0.679   0.030  1.00  0.00     0.065 C 
HETATM   21  C16 UNL     1      -3.604  -1.503  -1.251  1.00  0.00     0.059 C 
HETATM   22  C17 UNL     1      -3.705  -2.968  -0.941  1.00  0.00     0.170 C 
HETATM   23  O3  UNL     1      -4.619  -3.229   0.074  1.00  0.00    -0.391 OA
HETATM   24  C18 UNL     1      -4.135  -2.727   1.267  1.00  0.00     0.170 C 
HETATM   25  C19 UNL     1      -3.048  -1.711   1.123  1.00  0.00     0.059 C 
BRANCH  20  26
HETATM   26  C11 UNL     1      -4.683  -0.087   0.430  1.00  0.00     0.303 C 
BRANCH  26  27
HETATM   27  N4  UNL     1      -5.270   0.869  -0.427  1.00  0.00     0.095 N 
HETATM   28  C12 UNL     1      -6.647   1.114   0.067  1.00  0.00     0.298 C 
HETATM   29  C13 UNL     1      -6.664   2.305   0.995  1.00  0.00     0.198 C 
HETATM   30  O2  UNL     1      -6.530   3.482   0.243  1.00  0.00    -0.388 OA
HETATM   31  C14 UNL     1      -5.708   3.239  -0.869  1.00  0.00     0.198 C 
HETATM   32  C15 UNL     1      -4.673   2.163  -0.508  1.00  0.00     0.298 C 
ENDBRANCH  26  27
ENDBRANCH  20  26
ENDBRANCH   5  20
TORSDOF 6
