REMARK  19 active torsions:
REMARK  status: ('A' for Active; 'I' for Inactive)
REMARK    1  A    between atoms: C2_2  and  C3_3 
REMARK    2  A    between atoms: C3_3  and  C4_4 
REMARK    3  A    between atoms: C4_4  and  O1_5 
REMARK    4  A    between atoms: O1_5  and  C5_6 
REMARK    5  A    between atoms: C5_6  and  C6_7 
REMARK    6  A    between atoms: C6_7  and  C7_8 
REMARK    7  A    between atoms: C7_8  and  N1_9 
REMARK    8  A    between atoms: N1_9  and  C8_11 
REMARK    9  A    between atoms: C8_11  and  O2_12 
REMARK   10  A    between atoms: C9_14  and  C10_15 
REMARK   11  A    between atoms: C10_15  and  C11_16 
REMARK   12  A    between atoms: C11_16  and  C12_17 
REMARK   13  A    between atoms: C12_17  and  C13_18 
REMARK   14  A    between atoms: C15_20  and  S1_21 
REMARK   15  A    between atoms: S1_21  and  N2_24 
REMARK   16  A    between atoms: N2_24  and  C16_26 
REMARK   17  A    between atoms: C20_30  and  O5_31 
REMARK   18  A    between atoms: C21_33  and  O6_34 
REMARK   19  A    between atoms: C22_36  and  O7_37 
ROOT
HETATM    1  C13 UNL     1      -2.873  -0.122   2.255  1.00  0.00    -0.029 C 
HETATM    2  C14 UNL     1      -4.103  -0.662   2.123  1.00  0.00     0.007 C 
HETATM    3  C15 UNL     1      -5.334  -0.038   2.579  1.00  0.00     0.183 C 
HETATM    4  C20 UNL     1      -5.180   1.413   2.844  1.00  0.00     0.173 C 
HETATM    5  C21 UNL     1      -3.963   1.573   3.724  1.00  0.00     0.181 C 
HETATM    6  C22 UNL     1      -2.714   1.184   2.904  1.00  0.00     0.182 C 
ENDROOT
BRANCH   1   7
HETATM    7  C12 UNL     1      -1.779  -0.881   1.745  1.00  0.00     0.009 C 
BRANCH   7   8
HETATM    8  C11 UNL     1      -0.514  -0.708   1.688  1.00  0.00     0.001 C 
BRANCH   8   9
HETATM    9  C10 UNL     1       0.391   0.306   2.097  1.00  0.00     0.004 C 
BRANCH   9  10
HETATM   10  C9  UNL     1       1.678   0.436   2.019  1.00  0.00     0.055 C 
HETATM   11  C8  UNL     1       2.750  -0.334   1.512  1.00  0.00     0.135 C 
BRANCH  11  12
HETATM   12  N1  UNL     1       2.786  -1.561   0.890  1.00  0.00    -0.371 N 
ATOM     13  H1  UNL     1       1.885  -2.031   0.798  1.00  0.00     0.161 HD
BRANCH  12  14
HETATM   14  C7  UNL     1       3.892  -2.263   0.361  1.00  0.00     0.123 C 
BRANCH  14  15
HETATM   15  C6  UNL     1       4.550  -1.835  -0.877  1.00  0.00     0.046 C 
BRANCH  15  16
HETATM   16  C5  UNL     1       5.163  -0.518  -0.946  1.00  0.00     0.169 C 
BRANCH  16  17
HETATM   17  O1  UNL     1       5.782  -0.237  -2.193  1.00  0.00    -0.391 OA
BRANCH  17  18
HETATM   18  C4  UNL     1       6.792  -1.082  -2.529  1.00  0.00     0.167 C 
BRANCH  18  19
HETATM   19  C3  UNL     1       7.391  -0.590  -3.865  1.00  0.00     0.026 C 
BRANCH  19  20
HETATM   20  C2  UNL     1       7.912   0.823  -3.647  1.00  0.00    -0.002 C 
HETATM   21  C1  UNL     1       8.513   1.363  -4.920  1.00  0.00     0.005 C 
ENDBRANCH  19  20
ENDBRANCH  18  19
ENDBRANCH  17  18
ENDBRANCH  16  17
ENDBRANCH  15  16
ENDBRANCH  14  15
ENDBRANCH  12  14
ENDBRANCH  11  12
BRANCH  11  22
HETATM   22  O2  UNL     1       3.921   0.274   1.689  1.00  0.00    -0.346 OA
ATOM     23  H2  UNL     1       3.896   1.121   2.118  1.00  0.00     0.219 HD
ENDBRANCH  11  22
ENDBRANCH   9  10
ENDBRANCH   8   9
ENDBRANCH   7   8
ENDBRANCH   1   7
BRANCH   6  24
HETATM   24  O7  UNL     1      -2.496   2.147   1.932  1.00  0.00    -0.388 OA
ATOM     25  H7  UNL     1      -2.393   2.993   2.352  1.00  0.00     0.210 HD
ENDBRANCH   6  24
BRANCH   3  26
HETATM   26  S1  UNL     1      -6.658  -0.367   1.420  1.00  0.00     0.236 S 
HETATM   27  O3  UNL     1      -7.926   0.203   2.025  1.00  0.00    -0.205 OA
HETATM   28  O4  UNL     1      -6.835  -1.859   1.411  1.00  0.00    -0.205 OA
BRANCH  26  29
HETATM   29  N2  UNL     1      -6.454   0.307  -0.104  1.00  0.00    -0.314 N 
ATOM     30  H2  UNL     1      -7.120   0.994  -0.458  1.00  0.00     0.172 HD
BRANCH  29  31
HETATM   31  C16 UNL     1      -5.347  -0.089  -0.891  1.00  0.00     0.092 C 
HETATM   32  C17 UNL     1      -4.559   1.067  -1.528  1.00  0.00     0.026 C 
HETATM   33  C18 UNL     1      -4.440   0.204  -2.766  1.00  0.00     0.004 C 
HETATM   34  C19 UNL     1      -5.689  -0.518  -2.317  1.00  0.00     0.026 C 
ENDBRANCH  29  31
ENDBRANCH  26  29
ENDBRANCH   3  26
BRANCH   5  35
HETATM   35  O6  UNL     1      -4.021   0.686   4.789  1.00  0.00    -0.390 OA
ATOM     36  H6  UNL     1      -3.256   0.787   5.343  1.00  0.00     0.210 HD
ENDBRANCH   5  35
BRANCH   4  37
HETATM   37  O5  UNL     1      -6.277   1.975   3.494  1.00  0.00    -0.391 OA
ATOM     38  H5  UNL     1      -6.178   2.904   3.664  1.00  0.00     0.210 HD
ENDBRANCH   4  37
TORSDOF 19
