REMARK  6 active torsions:
REMARK  status: ('A' for Active; 'I' for Inactive)
REMARK    1  A    between atoms: C1_4  and  N2_5 
REMARK    2  A    between atoms: N2_5  and  C2_7 
REMARK    3  A    between atoms: C2_7  and  C3_8 
REMARK    4  A    between atoms: C3_8  and  N3_9 
REMARK    5  A    between atoms: C4_11  and  N4_12 
REMARK    6  A    between atoms: N4_12  and  N5_14 
ROOT
HETATM    1  N3  UNL     1       0.270   0.075  -1.633  1.00  0.00    -0.384 N 
ATOM      2  H3  UNL     1      -0.070   0.827  -2.233  1.00  0.00     0.160 HD
HETATM    3  C4  UNL     1       1.279  -0.629  -1.954  1.00  0.00     0.195 C 
ENDROOT
BRANCH   1   4
HETATM    4  C3  UNL     1      -0.371  -0.240  -0.380  1.00  0.00     0.140 C 
BRANCH   4   5
HETATM    5  C2  UNL     1      -1.491   0.752  -0.121  1.00  0.00     0.140 C 
BRANCH   5   6
HETATM    6  N2  UNL     1      -2.136   0.441   1.130  1.00  0.00    -0.385 N 
ATOM      7  H2  UNL     1      -1.814  -0.351   1.687  1.00  0.00     0.160 HD
BRANCH   6   8
HETATM    8  C1  UNL     1      -3.214   1.232   1.585  1.00  0.00     0.168 C 
HETATM    9  N1  UNL     1      -4.219   0.655   2.133  1.00  0.00    -0.396 N 
ATOM     10  H12 UNL     1      -4.224  -0.360   2.231  1.00  0.00     0.156 HD
ATOM     11  H11 UNL     1      -4.998   1.226   2.462  1.00  0.00     0.156 HD
ENDBRANCH   6   8
ENDBRANCH   5   6
ENDBRANCH   4   5
ENDBRANCH   1   4
BRANCH   3  12
HETATM   12  N4  UNL     1       1.739  -1.661  -1.120  1.00  0.00    -0.275 N 
ATOM     13  H4  UNL     1       1.353  -2.605  -1.146  1.00  0.00     0.189 HD
BRANCH  12  14
HETATM   14  N5  UNL     1       2.763  -1.291  -0.257  1.00  0.00    -0.189 N 
HETATM   15  C5  UNL     1       3.328  -1.194   0.934  1.00  0.00     0.245 A 
HETATM   16  N6  UNL     1       4.024  -0.687  -0.185  1.00  0.00    -0.271 N 
ATOM     17  H6  UNL     1       4.829  -0.230  -0.613  1.00  0.00     0.190 HD
ENDBRANCH  12  14
ENDBRANCH   3  12
TORSDOF 6
