REMARK  11 active torsions:
REMARK  status: ('A' for Active; 'I' for Inactive)
REMARK    1  A    between atoms: C5_5  and  S1_6 
REMARK    2  A    between atoms: S1_6  and  C6_7 
REMARK    3  A    between atoms: C8_9  and  C9_10 
REMARK    4  A    between atoms: C9_10  and  C10_11 
REMARK       I    between atoms: C10_11  and  N1_13 
REMARK    5  A    between atoms: C13_16  and  C14_17 
REMARK    6  A    between atoms: C16_25  and  C17_26 
REMARK    7  A    between atoms: C17_26  and  N5_27 
REMARK       I    between atoms: N5_27  and  C18_29 
REMARK    8  A    between atoms: C18_29  and  C19_31 
REMARK    9  A    between atoms: C19_31  and  N6_32 
REMARK       I    between atoms: N6_32  and  C21_34 
REMARK   10  A    between atoms: C21_34  and  C22_36 
REMARK   11  A    between atoms: C22_36  and  C23_37 
ROOT
HETATM    1  C1  UNL     1       0.397   0.856  -2.245  1.00  0.00     0.014 C 
HETATM    2  C2  UNL     1       0.039   2.276  -2.062  1.00  0.00     0.034 C 
HETATM    3  C3  UNL     1       1.043   3.193  -1.410  1.00  0.00     0.016 C 
HETATM    4  C4  UNL     1      -0.174   4.008  -0.938  1.00  0.00     0.057 C 
HETATM    5  C5  UNL     1      -0.910   2.685  -0.999  1.00  0.00     0.180 C 
HETATM    6  N4  UNL     1      -0.713   2.016   0.263  1.00  0.00    -0.049 N 
ATOM      7  H41 UNL     1      -1.220   1.131   0.277  1.00  0.00     0.279 HD
ATOM      8  H42 UNL     1      -1.203   2.513   1.007  1.00  0.00     0.279 HD
HETATM    9  C16 UNL     1       0.666   1.807   0.626  1.00  0.00     0.224 C 
HETATM   10  C29 UNL     1       1.637   2.593  -0.169  1.00  0.00     0.119 C 
HETATM   11 CL1  UNL     1       2.382   3.938   0.744  1.00  0.00    -0.122 Cl
ENDROOT
BRANCH   9  12
HETATM   12  C17 UNL     1       0.801   1.911   2.120  1.00  0.00     0.157 C 
BRANCH  12  13
HETATM   13  N5  UNL     1       2.126   1.727   2.645  1.00  0.00    -0.358 N 
HETATM   14  C18 UNL     1       2.912   0.566   2.479  1.00  0.00     0.235 C 
HETATM   15  O3  UNL     1       2.456  -0.389   1.816  1.00  0.00    -0.272 OA
ATOM     16  H5  UNL     1       2.530   2.496   3.180  1.00  0.00     0.162 HD
BRANCH  14  17
HETATM   17  C19 UNL     1       4.273   0.423   3.062  1.00  0.00     0.227 C 
BRANCH  17  18
HETATM   18  N6  UNL     1       4.862  -0.853   2.705  1.00  0.00    -0.347 N 
HETATM   19  C20 UNL     1       4.679  -2.063   3.476  1.00  0.00     0.153 C 
HETATM   20  C21 UNL     1       5.665  -0.918   1.536  1.00  0.00     0.224 C 
HETATM   21  O4  UNL     1       5.858   0.117   0.864  1.00  0.00    -0.273 OA
BRANCH  20  22
HETATM   22  C22 UNL     1       6.285  -2.215   1.103  1.00  0.00     0.141 C 
BRANCH  22  23
HETATM   23  C23 UNL     1       7.132  -1.971  -0.076  1.00  0.00    -0.048 A 
HETATM   24  C24 UNL     1       6.631  -1.998  -1.376  1.00  0.00     0.007 A 
HETATM   25  C25 UNL     1       7.438  -1.765  -2.460  1.00  0.00     0.002 A 
HETATM   26  C26 UNL     1       8.770  -1.500  -2.262  1.00  0.00     0.019 A 
HETATM   27  C27 UNL     1       9.293  -1.469  -0.970  1.00  0.00     0.011 A 
HETATM   28 BR1  UNL     1      11.130  -1.102  -0.703  1.00  0.00    -0.051 Br
HETATM   29  C28 UNL     1       8.474  -1.703   0.102  1.00  0.00     0.026 A 
ENDBRANCH  22  23
ENDBRANCH  20  22
ENDBRANCH  17  18
ENDBRANCH  14  17
ENDBRANCH  12  13
ENDBRANCH   9  12
BRANCH   5  30
HETATM   30  S1  UNL     1      -2.616   2.754  -1.529  1.00  0.00    -0.094 SA
BRANCH  30  31
HETATM   31  C6  UNL     1      -3.209   1.099  -1.870  1.00  0.00     0.287 C 
HETATM   32  C7  UNL     1      -3.238   0.226  -0.620  1.00  0.00     0.054 C 
HETATM   33  C8  UNL     1      -4.026  -0.954  -1.166  1.00  0.00     0.039 C 
HETATM   34  C13 UNL     1      -4.860  -0.346  -2.224  1.00  0.00     0.316 C 
HETATM   35  N3  UNL     1      -4.648   1.082  -2.194  1.00  0.00     0.112 N 
HETATM   36  C15 UNL     1      -4.898   1.814  -3.369  1.00  0.00     0.312 C 
BRANCH  33  37
HETATM   37  C9  UNL     1      -4.641  -1.785  -0.125  1.00  0.00     0.110 C 
BRANCH  37  38
HETATM   38  C10 UNL     1      -5.597  -1.192   0.788  1.00  0.00     0.219 C 
HETATM   39  O1  UNL     1      -5.973  -0.008   0.694  1.00  0.00    -0.273 OA
HETATM   40  N1  UNL     1      -6.145  -1.976   1.852  1.00  0.00    -0.361 N 
HETATM   41  C11 UNL     1      -5.733  -3.358   2.003  1.00  0.00     0.152 C 
HETATM   42  C12 UNL     1      -7.108  -1.398   2.779  1.00  0.00     0.152 C 
ENDBRANCH  37  38
ENDBRANCH  33  37
BRANCH  34  43
HETATM   43  C14 UNL     1      -6.236  -0.771  -2.367  1.00  0.00     0.265 C 
HETATM   44  N2  UNL     1      -7.391   0.047  -2.511  1.00  0.00    -0.060 NA
HETATM   45  O2  UNL     1      -6.490  -2.009  -2.374  1.00  0.00    -0.274 OA
ENDBRANCH  34  43
ENDBRANCH  30  31
ENDBRANCH   5  30
TORSDOF 11
