REMARK  6 active torsions:
REMARK  status: ('A' for Active; 'I' for Inactive)
REMARK    1  A    between atoms: N1_1  and  C1_4 
REMARK    2  A    between atoms: C2_10  and  C3_11 
REMARK    3  A    between atoms: C3_11  and  N4_12 
REMARK    4  A    between atoms: C3_11  and  N5_16 
REMARK    5  A    between atoms: N5_16  and  N6_18 
REMARK    6  A    between atoms: C4_20  and  C5_21 
ROOT
HETATM    1  C3  UNL     1       1.303  -0.339  -0.610  1.00  0.00     0.352 C 
ENDROOT
BRANCH   1   2
HETATM    2  C2  UNL     1       2.665  -0.659  -0.152  1.00  0.00     0.130 A 
HETATM    3  C1  UNL     1       3.818  -0.230  -0.737  1.00  0.00     0.150 A 
HETATM    4  N2  UNL     1       4.837  -0.732  -0.030  1.00  0.00    -0.224 N 
HETATM    5  O1  UNL     1       4.329  -1.431   0.938  1.00  0.00    -0.155 OA
ATOM      6  H2  UNL     1       5.830  -0.591  -0.217  1.00  0.00     0.198 HD
HETATM    7  N3  UNL     1       3.048  -1.417   0.905  1.00  0.00    -0.238 N 
ATOM      8  H3  UNL     1       2.426  -1.892   1.559  1.00  0.00     0.196 HD
BRANCH   3   9
HETATM    9  N1  UNL     1       3.976   0.519  -1.778  1.00  0.00    -0.382 N 
ATOM     10  H12 UNL     1       4.839   0.840  -2.216  1.00  0.00     0.157 HD
ATOM     11  H11 UNL     1       3.199   0.902  -2.317  1.00  0.00     0.157 HD
ENDBRANCH   3   9
ENDBRANCH   1   2
BRANCH   1  12
HETATM   12  N4  UNL     1       1.250   1.070  -0.910  1.00  0.00    -0.051 N 
ATOM     13  H43 UNL     1       1.549   1.651  -0.127  1.00  0.00     0.277 HD
ATOM     14  H42 UNL     1       1.967   1.358  -1.576  1.00  0.00     0.277 HD
ATOM     15  H41 UNL     1       0.306   1.292  -1.227  1.00  0.00     0.277 HD
ENDBRANCH   1  12
BRANCH   1  16
HETATM   16  N5  UNL     1       0.318  -0.765   0.339  1.00  0.00    -0.301 N 
ATOM     17  H5  UNL     1       0.642  -1.223   1.191  1.00  0.00     0.183 HD
BRANCH  16  18
HETATM   18  N6  UNL     1      -1.053  -0.593   0.172  1.00  0.00    -0.311 N 
HETATM   19  C4  UNL     1      -1.617   0.426   0.697  1.00  0.00     0.143 C 
ATOM     20  H6  UNL     1      -1.599  -1.270  -0.361  1.00  0.00     0.185 HD
BRANCH  19  21
HETATM   21  C5  UNL     1      -3.069   0.634   0.537  1.00  0.00     0.091 A 
HETATM   22  C6  UNL     1      -3.846   1.662   1.024  1.00  0.00     0.040 A 
HETATM   23  C7  UNL     1      -5.153   1.449   0.630  1.00  0.00     0.027 A 
HETATM   24  C8  UNL     1      -5.112   0.276  -0.095  1.00  0.00     0.142 A 
HETATM   25  O2  UNL     1      -3.881  -0.164  -0.124  1.00  0.00    -0.321 OA
ENDBRANCH  19  21
ENDBRANCH  16  18
ENDBRANCH   1  16
TORSDOF 6
