REMARK  12 active torsions:
REMARK  status: ('A' for Active; 'I' for Inactive)
REMARK    1  A    between atoms: N1_2  and  C2_3 
REMARK    2  A    between atoms: N1_2  and  C4_9 
REMARK    3  A    between atoms: N1_2  and  C8_17 
REMARK    4  A    between atoms: C2_3  and  C3_4 
REMARK    5  A    between atoms: C3_4  and  N2_5 
REMARK    6  A    between atoms: C4_9  and  C5_10 
REMARK    7  A    between atoms: C5_10  and  C6_11 
REMARK    8  A    between atoms: C6_11  and  N3_12 
REMARK    9  A    between atoms: C10_22  and  C11_23 
REMARK   10  A    between atoms: C10_22  and  C12_26 
REMARK   11  A    between atoms: C11_23  and  O1_24 
REMARK   12  A    between atoms: C12_26  and  O2_27 
ROOT
HETATM    1  C1  UNL     1      -0.086   1.541  -1.313  1.00  0.00     0.273 C 
HETATM    2  N1  UNL     1      -0.045   1.347   0.137  1.00  0.00    -0.063 N 
ENDROOT
BRANCH   2   3
HETATM    3  C2  UNL     1       0.103   2.598   0.793  1.00  0.00     0.264 C 
BRANCH   3   4
HETATM    4  C3  UNL     1      -1.161   3.328   1.092  1.00  0.00     0.257 C 
BRANCH   4   5
HETATM    5  N2  UNL     1      -1.927   3.639  -0.113  1.00  0.00    -0.078 N 
ATOM      6  H23 UNL     1      -1.358   4.151  -0.787  1.00  0.00     0.274 HD
ATOM      7  H22 UNL     1      -2.110   2.797  -0.659  1.00  0.00     0.274 HD
ATOM      8  H21 UNL     1      -2.792   4.139   0.092  1.00  0.00     0.274 HD
ENDBRANCH   4   5
ENDBRANCH   3   4
ENDBRANCH   2   3
BRANCH   2   9
HETATM    9  C4  UNL     1       1.159   0.551   0.376  1.00  0.00     0.239 C 
BRANCH   9  10
HETATM   10  C5  UNL     1       2.405   1.227  -0.123  1.00  0.00     0.048 C 
BRANCH  10  11
HETATM   11  C6  UNL     1       3.567   0.305   0.184  1.00  0.00     0.123 C 
BRANCH  11  12
HETATM   12  N3  UNL     1       3.345  -0.949  -0.498  1.00  0.00    -0.367 N 
HETATM   13  C7  UNL     1       4.173  -1.911  -0.546  1.00  0.00     0.196 C 
HETATM   14  N4  UNL     1       5.433  -1.864   0.077  1.00  0.00    -0.067 NA
HETATM   15  N5  UNL     1       3.808  -3.084  -1.259  1.00  0.00    -0.067 NA
ATOM     16  H3  UNL     1       2.454  -1.071  -0.979  1.00  0.00     0.161 HD
ENDBRANCH  11  12
ENDBRANCH  10  11
ENDBRANCH   9  10
ENDBRANCH   2   9
BRANCH   2  17
HETATM   17  C8  UNL     1      -1.160   0.561   0.531  1.00  0.00     0.218 C 
HETATM   18  C9  UNL     1      -0.863  -0.490   1.562  1.00  0.00     0.266 C 
HETATM   19  N6  UNL     1      -2.105  -1.265   1.541  1.00  0.00    -0.060 N 
HETATM   20  C10 UNL     1      -2.586  -1.270   0.198  1.00  0.00     0.169 C 
ATOM     21  H62 UNL     1      -1.995  -2.203   1.927  1.00  0.00     0.278 HD
ATOM     22  H61 UNL     1      -2.797  -0.926   2.210  1.00  0.00     0.278 HD
HETATM   23  C13 UNL     1      -1.703  -0.318  -0.607  1.00  0.00     0.078 C 
BRANCH  20  24
HETATM   24  C11 UNL     1      -4.021  -0.775   0.214  1.00  0.00     0.205 C 
BRANCH  24  25
HETATM   25  O1  UNL     1      -4.743  -1.655   1.019  1.00  0.00    -0.398 OA
ATOM     26  H1  UNL     1      -5.641  -1.345   1.029  1.00  0.00     0.209 HD
ENDBRANCH  24  25
ENDBRANCH  20  24
BRANCH  20  27
HETATM   27  C12 UNL     1      -2.526  -2.613  -0.451  1.00  0.00     0.205 C 
BRANCH  27  28
HETATM   28  O2  UNL     1      -1.226  -3.092  -0.499  1.00  0.00    -0.398 OA
ATOM     29  H2  UNL     1      -1.188  -3.947  -0.912  1.00  0.00     0.209 HD
ENDBRANCH  27  28
ENDBRANCH  20  27
ENDBRANCH   2  17
TORSDOF 12
