REMARK  13 active torsions:
REMARK  status: ('A' for Active; 'I' for Inactive)
REMARK    1  A    between atoms: C1_2  and  C2_4 
REMARK    2  A    between atoms: C2_4  and  N3_6 
REMARK    3  A    between atoms: N3_6  and  C3_7 
REMARK    4  A    between atoms: C3_7  and  C4_8 
REMARK    5  A    between atoms: C4_8  and  C5_9 
REMARK    6  A    between atoms: C5_9  and  C6_10 
REMARK    7  A    between atoms: C6_10  and  C7_11 
REMARK    8  A    between atoms: C7_11  and  C8_12 
REMARK    9  A    between atoms: C8_12  and  N4_13 
REMARK   10  A    between atoms: C10_20  and  N7_21 
REMARK   11  A    between atoms: N7_21  and  C11_23 
REMARK   12  A    between atoms: C11_23  and  C12_24 
REMARK   13  A    between atoms: C12_24  and  O2_25 
ROOT
HETATM    1  N4  UNL     1       1.300   0.794   0.052  1.00  0.00    -0.224 N 
ATOM      2  H4  UNL     1       1.056   1.733  -0.263  1.00  0.00     0.177 HD
HETATM    3  C9  UNL     1       2.548   0.446   0.033  1.00  0.00     0.707 A 
HETATM    4  N5  UNL     1       3.498   1.289  -0.388  1.00  0.00    -0.117 N 
ATOM      5  H5  UNL     1       3.356   2.242  -0.722  1.00  0.00     0.206 HD
HETATM    6  N6  UNL     1       4.665   0.650  -0.290  1.00  0.00    -0.117 N 
ATOM      7  H6  UNL     1       5.568   1.052  -0.542  1.00  0.00     0.206 HD
HETATM    8  C10 UNL     1       4.492  -0.594   0.185  1.00  0.00     0.711 A 
HETATM    9  N8  UNL     1       3.124  -0.679   0.377  1.00  0.00    -0.020 N 
ATOM     10  H8  UNL     1       2.635  -1.499   0.735  1.00  0.00     0.203 HD
ENDROOT
BRANCH   1  11
HETATM   11  C8  UNL     1       0.237  -0.074   0.494  1.00  0.00     0.138 C 
BRANCH  11  12
HETATM   12  C7  UNL     1      -0.809   0.803   1.145  1.00  0.00     0.020 C 
BRANCH  12  13
HETATM   13  C6  UNL     1      -1.312   1.797   0.134  1.00  0.00     0.002 C 
BRANCH  13  14
HETATM   14  C5  UNL     1      -1.935   1.185  -1.068  1.00  0.00     0.006 C 
BRANCH  14  15
HETATM   15  C4  UNL     1      -3.130   0.309  -0.808  1.00  0.00     0.059 C 
BRANCH  15  16
HETATM   16  C3  UNL     1      -4.191   1.195  -0.125  1.00  0.00     0.157 C 
BRANCH  16  17
HETATM   17  N3  UNL     1      -5.347   0.640   0.205  1.00  0.00    -0.402 NA
BRANCH  17  18
HETATM   18  C2  UNL     1      -6.272  -0.061   0.378  1.00  0.00     0.253 C 
HETATM   19  N2  UNL     1      -7.435   0.469   1.098  1.00  0.00    -0.062 NA
BRANCH  18  20
HETATM   20  C1  UNL     1      -6.415  -1.450  -0.052  1.00  0.00     0.309 C 
HETATM   21  N1  UNL     1      -5.406  -2.155  -0.764  1.00  0.00    -0.054 NA
HETATM   22  O1  UNL     1      -7.500  -2.081   0.219  1.00  0.00    -0.267 OA
ENDBRANCH  18  20
ENDBRANCH  17  18
ENDBRANCH  16  17
ENDBRANCH  15  16
ENDBRANCH  14  15
ENDBRANCH  13  14
ENDBRANCH  12  13
ENDBRANCH  11  12
ENDBRANCH   1  11
BRANCH   8  23
HETATM   23  N7  UNL     1       5.264  -1.556   0.447  1.00  0.00    -0.202 N 
ATOM     24  H7  UNL     1       4.757  -2.366   0.804  1.00  0.00     0.183 HD
BRANCH  23  25
HETATM   25  C11 UNL     1       6.624  -1.790   0.373  1.00  0.00     0.105 C 
BRANCH  25  26
HETATM   26  C12 UNL     1       7.474  -0.658  -0.105  1.00  0.00     0.209 C 
BRANCH  26  27
HETATM   27  O2  UNL     1       8.821  -1.108  -0.104  1.00  0.00    -0.396 OA
ATOM     28  H2  UNL     1       9.361  -0.388  -0.408  1.00  0.00     0.209 HD
ENDBRANCH  26  27
ENDBRANCH  25  26
ENDBRANCH  23  25
ENDBRANCH   8  23
TORSDOF 13
