REMARK  4 active torsions:
REMARK  status: ('A' for Active; 'I' for Inactive)
REMARK    1  A    between atoms: C1_2  and  N1_3 
REMARK    2  A    between atoms: N1_3  and  C2_5 
REMARK    3  A    between atoms: C6_9  and  N2_10 
REMARK       I    between atoms: N2_10  and  C7_12 
REMARK    4  A    between atoms: C7_12  and  C8_14 
ROOT
HETATM    1  C2  UNL     1      -3.948   1.295   0.716  1.00  0.00     0.147 A 
HETATM    2  C3  UNL     1      -2.684   0.590   0.718  1.00  0.00     0.025 A 
HETATM    3  C4  UNL     1      -2.034  -0.478   1.354  1.00  0.00     0.018 A 
HETATM    4  C5  UNL     1      -0.755  -0.780   0.989  1.00  0.00     0.030 A 
HETATM    5  C6  UNL     1      -0.042  -0.077   0.001  1.00  0.00     0.036 A 
HETATM    6  C12 UNL     1      -0.719   0.943  -0.579  1.00  0.00     0.054 A 
HETATM    7  C13 UNL     1      -2.031   1.291  -0.238  1.00  0.00     0.081 A 
HETATM    8  S2  UNL     1      -3.378   2.342  -0.511  1.00  0.00     0.224 S 
HETATM    9  O3  UNL     1      -3.150   3.767  -0.105  1.00  0.00    -0.216 OA
HETATM   10  O4  UNL     1      -3.999   2.178  -1.869  1.00  0.00    -0.216 OA
ENDROOT
BRANCH   5  11
HETATM   11  N2  UNL     1       1.268  -0.497  -0.296  1.00  0.00    -0.322 N 
HETATM   12  C7  UNL     1       2.213   0.230  -1.052  1.00  0.00     0.263 C 
HETATM   13  O2  UNL     1       2.013   1.354  -1.558  1.00  0.00    -0.267 OA
ATOM     14  H2  UNL     1       1.560  -1.405   0.066  1.00  0.00     0.169 HD
BRANCH  12  15
HETATM   15  C8  UNL     1       3.566  -0.365  -1.281  1.00  0.00     0.072 A 
HETATM   16  C9  UNL     1       4.040  -1.570  -0.842  1.00  0.00     0.025 A 
HETATM   17  C10 UNL     1       5.304  -1.892  -1.177  1.00  0.00     0.009 A 
HETATM   18  C11 UNL     1       6.002  -0.987  -1.927  1.00  0.00     0.050 A 
HETATM   19  S1  UNL     1       4.885   0.280  -2.142  1.00  0.00    -0.097 SA
ENDBRANCH  12  15
ENDBRANCH   5  11
BRANCH   1  20
HETATM   20  N1  UNL     1      -5.090   1.236   1.338  1.00  0.00    -0.324 N 
ATOM     21  H1  UNL     1      -5.831   1.899   1.111  1.00  0.00     0.169 HD
BRANCH  20  22
HETATM   22  C1  UNL     1      -5.300   0.245   2.334  1.00  0.00     0.353 C 
HETATM   23  O1  UNL     1      -6.410  -0.374   2.337  1.00  0.00    -0.283 OA
ENDBRANCH  20  22
ENDBRANCH   1  20
TORSDOF 4
