REMARK  14 active torsions:
REMARK  status: ('A' for Active; 'I' for Inactive)
REMARK       I    between atoms: N2_5  and  C4_6 
REMARK    1  A    between atoms: C4_6  and  C5_8 
REMARK    2  A    between atoms: C5_8  and  N3_9 
REMARK    3  A    between atoms: C5_8  and  O4_30 
REMARK    4  A    between atoms: N3_9  and  C6_11 
REMARK    5  A    between atoms: C6_11  and  C13_21 
REMARK    6  A    between atoms: C7_12  and  C8_13 
REMARK    7  A    between atoms: C13_21  and  O3_22 
REMARK    8  A    between atoms: C13_21  and  N5_24 
REMARK    9  A    between atoms: N5_24  and  C14_26 
REMARK   10  A    between atoms: O4_30  and  C18_31 
REMARK   11  A    between atoms: C18_31  and  C19_32 
REMARK   12  A    between atoms: C19_32  and  C20_33 
REMARK   13  A    between atoms: C20_33  and  C21_34 
REMARK   14  A    between atoms: C21_34  and  C22_35 
ROOT
HETATM    1  N3  UNL     1      -1.278   1.267  -0.473  1.00  0.00    -0.329 N 
ATOM      2  H3  UNL     1      -1.561   1.848  -1.262  1.00  0.00     0.168 HD
ENDROOT
BRANCH   1   3
HETATM    3  C5  UNL     1      -0.032   1.557   0.024  1.00  0.00     0.212 C 
BRANCH   3   4
HETATM    4  C4  UNL     1       0.004   2.499   1.173  1.00  0.00     0.294 C 
HETATM    5  N2  UNL     1       0.887   3.635   1.268  1.00  0.00    -0.342 N 
HETATM    6  C3  UNL     1       1.807   4.095   0.278  1.00  0.00     0.156 C 
HETATM    7  C25 UNL     1       0.827   4.386   2.537  1.00  0.00     0.156 C 
HETATM    8  C2  UNL     1       1.881   5.624   0.480  1.00  0.00     0.291 C 
HETATM    9  N1  UNL     1       2.487   5.991   1.713  1.00  0.00     0.087 N 
HETATM   10  C1  UNL     1       2.082   7.376   1.997  1.00  0.00     0.310 C 
HETATM   11  C26 UNL     1       2.115   5.119   2.809  1.00  0.00     0.291 C 
HETATM   12  O1  UNL     1      -0.754   2.396   2.193  1.00  0.00    -0.264 OA
ENDBRANCH   3   4
BRANCH   3  13
HETATM   13  O4  UNL     1       0.963   1.837  -0.863  1.00  0.00    -0.332 OA
BRANCH  13  14
HETATM   14  C18 UNL     1       2.017   0.954  -0.829  1.00  0.00     0.177 C 
BRANCH  14  15
HETATM   15  C19 UNL     1       1.626  -0.400  -1.240  1.00  0.00     0.027 C 
BRANCH  15  16
HETATM   16  C20 UNL     1       2.752  -1.444  -1.219  1.00  0.00     0.003 C 
BRANCH  16  17
HETATM   17  C21 UNL     1       3.801  -1.017  -2.161  1.00  0.00     0.016 C 
BRANCH  17  18
HETATM   18  C22 UNL     1       4.973  -1.956  -2.269  1.00  0.00     0.059 C 
HETATM   19  C23 UNL     1       4.677  -3.313  -2.710  1.00  0.00     0.027 C 
HETATM   20  C24 UNL     1       4.441  -4.300  -1.661  1.00  0.00     0.087 C 
HETATM   21  S1  UNL     1       5.771  -4.116  -0.404  1.00  0.00    -0.097 SA
HETATM   22  S2  UNL     1       6.002  -1.995  -0.770  1.00  0.00    -0.093 SA
ENDBRANCH  17  18
ENDBRANCH  16  17
ENDBRANCH  15  16
ENDBRANCH  14  15
ENDBRANCH  13  14
ENDBRANCH   3  13
ENDBRANCH   1   3
BRANCH   1  23
HETATM   23  C6  UNL     1      -2.248   0.297  -0.082  1.00  0.00     0.082 C 
HETATM   24  C7  UNL     1      -2.748   0.234   1.256  1.00  0.00     0.021 C 
BRANCH  24  25
HETATM   25  C8  UNL     1      -3.810  -0.665   1.777  1.00  0.00     0.103 C 
HETATM   26  C9  UNL     1      -3.618  -2.126   1.788  1.00  0.00     0.020 C 
HETATM   27  C10 UNL     1      -4.280  -2.804   3.012  1.00  0.00     0.021 C 
HETATM   28  C11 UNL     1      -3.463  -2.375   4.238  1.00  0.00     0.122 C 
HETATM   29  N4  UNL     1      -3.626  -0.933   4.301  1.00  0.00    -0.360 N 
HETATM   30  C12 UNL     1      -4.181  -0.266   3.189  1.00  0.00     0.225 C 
ATOM     31  H4  UNL     1      -3.345  -0.413   5.132  1.00  0.00     0.162 HD
HETATM   32  O2  UNL     1      -4.992   0.669   3.341  1.00  0.00    -0.273 OA
ENDBRANCH  24  25
BRANCH  23  33
HETATM   33  C13 UNL     1      -2.201  -0.744  -1.093  1.00  0.00     0.163 C 
BRANCH  33  34
HETATM   34  O3  UNL     1      -2.264  -0.200  -2.327  1.00  0.00    -0.345 OA
ATOM     35  H3  UNL     1      -2.233  -0.881  -2.989  1.00  0.00     0.219 HD
ENDBRANCH  33  34
BRANCH  33  36
HETATM   36  N5  UNL     1      -2.104  -2.108  -1.176  1.00  0.00    -0.361 N 
ATOM     37  H5  UNL     1      -2.028  -2.642  -0.310  1.00  0.00     0.162 HD
BRANCH  36  38
HETATM   38  C14 UNL     1      -2.104  -2.843  -2.457  1.00  0.00     0.021 C 
HETATM   39  C15 UNL     1      -3.383  -2.532  -3.196  1.00  0.00     0.037 C 
HETATM   40  C16 UNL     1      -2.075  -4.331  -2.198  1.00  0.00     0.037 C 
HETATM   41  C17 UNL     1      -0.945  -2.520  -3.329  1.00  0.00     0.037 C 
ENDBRANCH  36  38
ENDBRANCH  33  36
ENDBRANCH  23  33
ENDBRANCH   1  23
TORSDOF 14
