REMARK  13 active torsions:
REMARK  status: ('A' for Active; 'I' for Inactive)
REMARK    1  A    between atoms: C2_2  and  C4_4 
REMARK    2  A    between atoms: C4_4  and  N1_5 
REMARK    3  A    between atoms: C4_4  and  C7_12 
REMARK       I    between atoms: N1_5  and  C5_7 
REMARK    4  A    between atoms: C5_7  and  C6_9 
REMARK    5  A    between atoms: C7_12  and  C8_13 
REMARK    6  A    between atoms: C7_12  and  N4_30 
REMARK    7  A    between atoms: C9_14  and  C10_15 
REMARK    8  A    between atoms: C10_15  and  C11_16 
REMARK    9  A    between atoms: C11_16  and  C13_19 
REMARK   10  A    between atoms: C13_19  and  O2_20 
REMARK   11  A    between atoms: C13_19  and  N3_22 
REMARK       I    between atoms: N4_30  and  C19_32 
REMARK   12  A    between atoms: C19_32  and  O4_34 
REMARK   13  A    between atoms: O4_34  and  C20_35 
ROOT
HETATM    1  C11 UNL     1       3.000   0.094   0.798  1.00  0.00     0.103 C 
HETATM    2  C12 UNL     1       2.366   0.069  -0.467  1.00  0.00     0.104 C 
HETATM    3  N2  UNL     1       1.810   0.041  -1.498  1.00  0.00    -0.191 NA
ENDROOT
BRANCH   1   4
HETATM    4  C10 UNL     1       2.154   0.212   1.850  1.00  0.00     0.091 C 
BRANCH   4   5
HETATM    5  C9  UNL     1       0.762   0.296   1.599  1.00  0.00    -0.075 C 
HETATM    6  C8  UNL     1      -0.414   0.387   1.395  1.00  0.00    -0.074 C 
BRANCH   6   7
HETATM    7  C7  UNL     1      -1.878   0.517   1.163  1.00  0.00     0.190 C 
BRANCH   7   8
HETATM    8  C4  UNL     1      -2.313   1.913   1.434  1.00  0.00     0.122 C 
BRANCH   8   9
HETATM    9  C2  UNL     1      -3.773   2.115   1.232  1.00  0.00     0.003 C 
HETATM   10  C1  UNL     1      -4.214   2.064  -0.183  1.00  0.00     0.011 C 
HETATM   11  C3  UNL     1      -4.243   3.434   1.868  1.00  0.00     0.011 C 
ENDBRANCH   8   9
BRANCH   8  12
HETATM   12  N1  UNL     1      -1.499   2.880   0.734  1.00  0.00    -0.351 N 
HETATM   13  C5  UNL     1      -0.699   3.835   1.414  1.00  0.00     0.251 C 
HETATM   14  O1  UNL     1      -0.679   3.863   2.652  1.00  0.00    -0.271 OA
ATOM     15  H1  UNL     1      -1.499   2.876  -0.286  1.00  0.00     0.163 HD
BRANCH  13  16
HETATM   16  C6  UNL     1       0.106   4.791   0.610  1.00  0.00     0.269 C 
HETATM   17 CL1  UNL     1       1.221   3.854  -0.390  1.00  0.00    -0.098 Cl
HETATM   18 CL2  UNL     1      -0.972   5.803  -0.369  1.00  0.00    -0.098 Cl
ENDBRANCH  13  16
ENDBRANCH   8  12
ENDBRANCH   7   8
BRANCH   7  19
HETATM   19  N4  UNL     1      -2.225  -0.040  -0.109  1.00  0.00    -0.320 N 
HETATM   20  C19 UNL     1      -3.002  -1.249  -0.209  1.00  0.00     0.362 C 
HETATM   21  O3  UNL     1      -3.391  -1.840   0.821  1.00  0.00    -0.238 OA
ATOM     22  H4  UNL     1      -1.916   0.428  -0.961  1.00  0.00     0.166 HD
BRANCH  20  23
HETATM   23  O4  UNL     1      -3.318  -1.760  -1.428  1.00  0.00    -0.294 OA
BRANCH  23  24
HETATM   24  C20 UNL     1      -4.068  -2.929  -1.657  1.00  0.00     0.061 C 
HETATM   25  C21 UNL     1      -5.431  -2.727  -1.028  1.00  0.00     0.046 C 
HETATM   26  C22 UNL     1      -3.408  -4.076  -0.915  1.00  0.00     0.046 C 
HETATM   27  C23 UNL     1      -4.214  -3.276  -3.097  1.00  0.00     0.046 C 
ENDBRANCH  23  24
ENDBRANCH  20  23
ENDBRANCH   7  19
ENDBRANCH   6   7
ENDBRANCH   4   5
ENDBRANCH   1   4
BRANCH   1  28
HETATM   28  C13 UNL     1       4.397  -0.005   1.109  1.00  0.00     0.159 C 
BRANCH  28  29
HETATM   29  O2  UNL     1       4.686   0.016   2.395  1.00  0.00    -0.345 OA
ATOM     30  H2  UNL     1       5.611  -0.050   2.601  1.00  0.00     0.219 HD
ENDBRANCH  28  29
BRANCH  28  31
HETATM   31  N3  UNL     1       5.504  -0.123   0.285  1.00  0.00    -0.360 N 
HETATM   32  C14 UNL     1       5.504  -0.125  -1.135  1.00  0.00     0.131 C 
HETATM   33  C15 UNL     1       5.697  -1.591  -1.536  1.00  0.00     0.099 C 
HETATM   34  C16 UNL     1       6.853  -2.174  -0.796  1.00  0.00     0.246 C 
HETATM   35  F1  UNL     1       6.396  -3.285  -0.073  1.00  0.00    -0.206 F 
HETATM   36  F2  UNL     1       7.718  -2.716  -1.758  1.00  0.00    -0.206 F 
HETATM   37  C17 UNL     1       7.660  -1.241   0.031  1.00  0.00     0.099 C 
HETATM   38  C18 UNL     1       6.847  -0.298   0.891  1.00  0.00     0.131 C 
ENDBRANCH  28  31
ENDBRANCH   1  28
TORSDOF 13
