REMARK  10 active torsions:
REMARK  status: ('A' for Active; 'I' for Inactive)
REMARK    1  A    between atoms: N1_2  and  C2_3 
REMARK    2  A    between atoms: N1_2  and  C22_35 
REMARK    3  A    between atoms: C2_3  and  C3_4 
REMARK    4  A    between atoms: C3_4  and  N2_5 
REMARK    5  A    between atoms: N2_5  and  C4_7 
REMARK    6  A    between atoms: C11_20  and  C12_21 
REMARK    7  A    between atoms: C13_22  and  C14_23 
REMARK    8  A    between atoms: C14_23  and  O1_24 
REMARK    9  A    between atoms: C22_35  and  C23_36 
REMARK   10  A    between atoms: C23_36  and  C24_38 
ROOT
HETATM    1  C4  UNL     1      -1.743   0.361  -2.041  1.00  0.00     0.678 A 
HETATM    2  N3  UNL     1      -0.488   0.218  -1.535  1.00  0.00    -0.191 N 
ATOM      3  H3  UNL     1      -0.095   0.963  -0.959  1.00  0.00     0.184 HD
HETATM    4  C5  UNL     1       0.242  -0.876  -1.775  1.00  0.00     0.069 A 
HETATM    5  C6  UNL     1      -0.247  -1.903  -2.545  1.00  0.00    -0.014 A 
HETATM    6  C7  UNL     1      -1.519  -1.755  -3.056  1.00  0.00     0.115 A 
HETATM    7  N4  UNL     1      -2.246  -0.628  -2.797  1.00  0.00    -0.201 N 
ATOM      8  H4  UNL     1      -3.185  -0.536  -3.184  1.00  0.00     0.183 HD
HETATM    9  C8  UNL     1       0.480  -3.132  -2.858  1.00  0.00     0.048 A 
HETATM   10  C9  UNL     1       1.838  -3.267  -2.293  1.00  0.00     0.062 A 
HETATM   11  C10 UNL     1       2.295  -2.139  -1.487  1.00  0.00     0.023 A 
HETATM   12  N5  UNL     1       3.472  -1.978  -0.855  1.00  0.00    -0.352 N 
ATOM     13  H5  UNL     1       4.233  -2.657  -0.859  1.00  0.00     0.166 HD
HETATM   14  C11 UNL     1       3.501  -0.802  -0.222  1.00  0.00     0.088 A 
HETATM   15  C20 UNL     1       2.300  -0.139  -0.430  1.00  0.00     0.054 A 
HETATM   16  C21 UNL     1       1.565  -1.003  -1.227  1.00  0.00     0.017 A 
ENDROOT
BRANCH   1  17
HETATM   17  N2  UNL     1      -2.393   1.441  -1.771  1.00  0.00    -0.224 N 
ATOM     18  H2  UNL     1      -1.925   2.134  -1.187  1.00  0.00     0.177 HD
BRANCH  17  19
HETATM   19  C3  UNL     1      -3.714   1.748  -2.221  1.00  0.00     0.157 C 
BRANCH  19  20
HETATM   20  C2  UNL     1      -4.783   1.100  -1.374  1.00  0.00     0.137 C 
BRANCH  20  21
HETATM   21  N1  UNL     1      -4.693   1.535  -0.015  1.00  0.00    -0.408 N 
HETATM   22  C1  UNL     1      -5.018   2.908   0.213  1.00  0.00     0.143 C 
BRANCH  21  23
HETATM   23  C22 UNL     1      -5.212   0.618   0.951  1.00  0.00     0.195 C 
BRANCH  23  24
HETATM   24  C23 UNL     1      -6.681   0.511   0.889  1.00  0.00     0.158 C 
HETATM   25  O2  UNL     1      -7.362   1.158   0.082  1.00  0.00    -0.295 OA
BRANCH  24  26
HETATM   26  C24 UNL     1      -7.413  -0.391   1.809  1.00  0.00     0.089 A 
HETATM   27  C25 UNL     1      -6.531  -1.156   2.769  1.00  0.00     0.030 C 
HETATM   28  C26 UNL     1      -8.723   0.079   2.349  1.00  0.00     0.103 A 
HETATM   29  C27 UNL     1      -8.647  -1.019   1.271  1.00  0.00     0.259 A 
HETATM   30  F3  UNL     1      -8.887  -2.308   1.636  1.00  0.00    -0.205 F 
HETATM   31  F4  UNL     1      -9.070  -0.603   0.007  1.00  0.00    -0.205 F 
ENDBRANCH  24  26
ENDBRANCH  23  24
ENDBRANCH  21  23
ENDBRANCH  20  21
ENDBRANCH  19  20
ENDBRANCH  17  19
ENDBRANCH   1  17
BRANCH  14  32
HETATM   32  C12 UNL     1       4.563  -0.230   0.572  1.00  0.00    -0.046 C 
HETATM   33  C13 UNL     1       5.459   0.254   1.217  1.00  0.00    -0.061 C 
BRANCH  33  34
HETATM   34  C14 UNL     1       6.552   0.852   1.999  1.00  0.00     0.121 C 
HETATM   35  C15 UNL     1       7.602  -0.219   2.211  1.00  0.00     0.057 C 
HETATM   36  C16 UNL     1       8.423  -0.259   0.929  1.00  0.00     0.083 C 
HETATM   37  C17 UNL     1       9.354   0.925   0.962  1.00  0.00     0.244 C 
HETATM   38  F1  UNL     1      10.252   0.688   2.012  1.00  0.00    -0.206 F 
HETATM   39  F2  UNL     1      10.063   1.046  -0.216  1.00  0.00    -0.206 F 
HETATM   40  C18 UNL     1       8.583   2.151   1.312  1.00  0.00     0.083 C 
HETATM   41  C19 UNL     1       7.094   2.015   1.202  1.00  0.00     0.057 C 
BRANCH  34  42
HETATM   42  O1  UNL     1       6.069   1.223   3.243  1.00  0.00    -0.378 OA
ATOM     43  H1  UNL     1       6.775   1.609   3.748  1.00  0.00     0.211 HD
ENDBRANCH  34  42
ENDBRANCH  33  34
ENDBRANCH  14  32
TORSDOF 10
