REMARK  6 active torsions:
REMARK  status: ('A' for Active; 'I' for Inactive)
REMARK    1  A    between atoms: C3_4  and  N2_5 
REMARK    2  A    between atoms: N2_5  and  C4_7 
REMARK    3  A    between atoms: C4_7  and  C5_8 
REMARK    4  A    between atoms: C9_13  and  O2_14 
REMARK    5  A    between atoms: C10_16  and  C11_17 
REMARK    6  A    between atoms: N3_18  and  C12_20 
ROOT
HETATM    1  C12 UNL     1      -4.657   1.293  -0.794  1.00  0.00     0.112 C 
HETATM    2  C13 UNL     1      -5.443   1.314   0.509  1.00  0.00     0.055 C 
HETATM    3  C14 UNL     1      -5.392   0.445  -1.813  1.00  0.00     0.055 C 
HETATM    4  C15 UNL     1      -4.517   2.646  -1.337  1.00  0.00     0.090 C 
HETATM    5  N4  UNL     1      -4.426   3.721  -1.768  1.00  0.00    -0.195 NA
ENDROOT
BRANCH   1   6
HETATM    6  N3  UNL     1      -3.349   0.750  -0.485  1.00  0.00    -0.377 N 
HETATM    7  C11 UNL     1      -3.154  -0.487  -0.232  1.00  0.00     0.104 C 
ATOM      8  H3  UNL     1      -2.549   1.383  -0.469  1.00  0.00     0.160 HD
BRANCH   7   9
HETATM    9  C10 UNL     1      -1.811  -0.943   0.068  1.00  0.00     0.083 A 
HETATM   10  C9  UNL     1      -0.758  -0.011   0.073  1.00  0.00     0.110 A 
HETATM   11  C3  UNL     1       0.519  -0.423   0.354  1.00  0.00     0.078 A 
HETATM   12  C2  UNL     1       0.753  -1.774   0.634  1.00  0.00     0.125 A 
HETATM   13  N1  UNL     1      -0.258  -2.658   0.627  1.00  0.00    -0.326 N 
HETATM   14  C1  UNL     1      -0.017  -4.063   0.918  1.00  0.00     0.159 C 
HETATM   15  C16 UNL     1      -1.506  -2.247   0.351  1.00  0.00     0.261 A 
HETATM   16  O3  UNL     1      -2.426  -3.127   0.359  1.00  0.00    -0.267 OA
BRANCH  10  17
HETATM   17  O2  UNL     1      -1.036   1.319  -0.211  1.00  0.00    -0.357 OA
ATOM     18  H2  UNL     1      -1.921   1.605  -0.406  1.00  0.00     0.217 HD
ENDBRANCH  10  17
BRANCH  11  19
HETATM   19  N2  UNL     1       1.618   0.501   0.367  1.00  0.00    -0.384 N 
ATOM     20  H2  UNL     1       1.443   1.485   0.162  1.00  0.00     0.159 HD
BRANCH  19  21
HETATM   21  C4  UNL     1       2.963   0.073   0.663  1.00  0.00     0.151 C 
BRANCH  21  22
HETATM   22  C5  UNL     1       3.883   1.261   0.600  1.00  0.00     0.139 C 
HETATM   23  C6  UNL     1       5.316   0.870   0.840  1.00  0.00     0.035 C 
HETATM   24  C7  UNL     1       5.938   0.879  -0.526  1.00  0.00     0.029 C 
HETATM   25  C8  UNL     1       4.746   1.105  -1.455  1.00  0.00     0.168 C 
HETATM   26  O1  UNL     1       3.814   1.789  -0.684  1.00  0.00    -0.384 OA
ENDBRANCH  21  22
ENDBRANCH  19  21
ENDBRANCH  11  19
ENDBRANCH   7   9
ENDBRANCH   1   6
TORSDOF 6
