REMARK  7 active torsions:
REMARK  status: ('A' for Active; 'I' for Inactive)
REMARK    1  A    between atoms: O1_2  and  C2_3 
REMARK    2  A    between atoms: C3_6  and  N2_7 
REMARK    3  A    between atoms: N2_7  and  C4_9 
REMARK    4  A    between atoms: C8_15  and  C9_16 
REMARK    5  A    between atoms: C10_19  and  N5_20 
REMARK    6  A    between atoms: N7_25  and  C11_26 
REMARK    7  A    between atoms: C14_29  and  N8_31 
ROOT
HETATM    1  C9  UNL     1       0.795   1.885   0.405  1.00  0.00     0.154 A 
HETATM    2  N4  UNL     1       0.884   3.184   0.896  1.00  0.00    -0.172 N 
ATOM      3  H4  UNL     1       1.757   3.676   1.085  1.00  0.00     0.186 HD
HETATM    4  C10 UNL     1      -0.321   3.690   1.082  1.00  0.00     0.709 A 
HETATM    5  N6  UNL     1      -1.174   2.750   0.723  1.00  0.00    -0.127 N 
ATOM      6  H6  UNL     1      -2.189   2.842   0.753  1.00  0.00     0.206 HD
HETATM    7  N7  UNL     1      -0.508   1.644   0.308  1.00  0.00    -0.256 N 
ENDROOT
BRANCH   1   8
HETATM    8  C8  UNL     1       1.993   1.151   0.095  1.00  0.00     0.077 A 
HETATM    9  C2  UNL     1       3.213   1.854  -0.017  1.00  0.00     0.172 A 
HETATM   10  N1  UNL     1       4.337   1.197  -0.343  1.00  0.00    -0.170 N 
HETATM   11  C3  UNL     1       4.402  -0.116  -0.579  1.00  0.00     0.680 A 
ATOM     12  H1  UNL     1       5.200   1.737  -0.415  1.00  0.00     0.186 HD
HETATM   13  N3  UNL     1       3.267  -0.807  -0.480  1.00  0.00    -0.201 N 
HETATM   14  C7  UNL     1       2.076  -0.183  -0.147  1.00  0.00     0.126 A 
ATOM     15  H3  UNL     1       3.275  -1.812  -0.652  1.00  0.00     0.183 HD
BRANCH   9  16
HETATM   16  O1  UNL     1       3.220   3.232   0.216  1.00  0.00    -0.340 OA
HETATM   17  C1  UNL     1       4.462   3.894   0.092  1.00  0.00     0.211 C 
ENDBRANCH   9  16
BRANCH  11  18
HETATM   18  N2  UNL     1       5.513  -0.711  -0.891  1.00  0.00    -0.222 N 
ATOM     19  H2  UNL     1       6.358  -0.143  -0.954  1.00  0.00     0.178 HD
BRANCH  18  20
HETATM   20  C4  UNL     1       5.627  -2.109  -1.151  1.00  0.00     0.091 C 
HETATM   21  C5  UNL     1       6.998  -2.640  -0.754  1.00  0.00     0.032 C 
HETATM   22  C6  UNL     1       5.257  -2.501  -2.546  1.00  0.00     0.032 C 
ENDBRANCH  18  20
ENDBRANCH  11  18
ENDBRANCH   1   8
BRANCH   7  23
HETATM   23  C11 UNL     1      -1.144   0.466  -0.169  1.00  0.00     0.111 C 
HETATM   24  C12 UNL     1      -2.464   0.902  -0.848  1.00  0.00     0.030 C 
HETATM   25  C13 UNL     1      -3.667   0.628   0.003  1.00  0.00     0.044 C 
HETATM   26  C14 UNL     1      -3.875  -0.895   0.025  1.00  0.00     0.158 C 
HETATM   27  C15 UNL     1      -4.206  -1.246  -1.418  1.00  0.00     0.049 C 
HETATM   28  C18 UNL     1      -2.571  -1.501   0.348  1.00  0.00     0.022 C 
HETATM   29  C19 UNL     1      -2.599  -2.712   1.219  1.00  0.00     0.012 C 
HETATM   30  C20 UNL     1      -1.599  -0.482   0.936  1.00  0.00     0.034 C 
BRANCH  26  31
HETATM   31  N8  UNL     1      -4.919  -1.277   0.920  1.00  0.00     0.089 N 
HETATM   32  C16 UNL     1      -6.224  -0.769   0.425  1.00  0.00     0.310 C 
HETATM   33  C17 UNL     1      -4.765  -0.759   2.275  1.00  0.00     0.310 C 
ENDBRANCH  26  31
ENDBRANCH   7  23
BRANCH   4  34
HETATM   34  N5  UNL     1      -0.575   4.869   1.527  1.00  0.00    -0.130 N 
HETATM   35 CL1  UNL     1       0.672   5.999   1.961  1.00  0.00     0.026 Cl
ATOM     36  H5  UNL     1      -1.549   5.153   1.630  1.00  0.00     0.199 HD
ENDBRANCH   4  34
TORSDOF 7
