REMARK  2 active torsions:
REMARK  status: ('A' for Active; 'I' for Inactive)
REMARK    1  A    between atoms: O1_1  and  C1_3 
REMARK    2  A    between atoms: C7_10  and  O2_11 
ROOT
HETATM    1  C1  UNL     1      -1.192  -0.378   0.523  1.00  0.00     0.183 C 
HETATM    2  C2  UNL     1      -0.123  -1.108  -0.262  1.00  0.00     0.047 C 
HETATM    3  C3  UNL     1       1.162  -1.100   0.545  1.00  0.00     0.011 C 
HETATM    4  C4  UNL     1       1.962   0.110   0.091  1.00  0.00     0.031 C 
HETATM    5  C5  UNL     1       1.071   1.321  -0.077  1.00  0.00     0.276 C 
HETATM    6  N1  UNL     1      -0.048   1.081  -0.947  1.00  0.00     0.120 N 
HETATM    7  C6  UNL     1       0.032  -0.270  -1.524  1.00  0.00     0.283 C 
HETATM    8  C7  UNL     1      -1.305   0.939  -0.196  1.00  0.00     0.385 C 
ENDROOT
BRANCH   1   9
HETATM    9  O1  UNL     1      -2.394  -1.091   0.394  1.00  0.00    -0.391 OA
ATOM     10  H1  UNL     1      -3.065  -0.633   0.887  1.00  0.00     0.210 HD
ENDBRANCH   1   9
BRANCH   8  11
HETATM   11  O2  UNL     1      -1.536   2.010   0.637  1.00  0.00    -0.366 OA
ATOM     12  H2  UNL     1      -1.607   2.841   0.183  1.00  0.00     0.212 HD
ENDBRANCH   8  11
TORSDOF 2
