REMARK  1 active torsions:
REMARK  status: ('A' for Active; 'I' for Inactive)
REMARK    1  A    between atoms: N2_4  and  C1_6 
ROOT
HETATM    1  C1  UNL     1       0.456   0.074  -0.015  1.00  0.00     0.044 A 
HETATM    2  C2  UNL     1      -0.418   1.051  -0.049  1.00  0.00     0.045 A 
HETATM    3  C3  UNL     1      -1.767   0.502   0.016  1.00  0.00     0.085 A 
HETATM    4  N3  UNL     1      -1.712  -0.782   0.087  1.00  0.00    -0.393 N 
ATOM      5  H3  UNL     1      -2.513  -1.411   0.142  1.00  0.00     0.159 HD
HETATM    6  C4  UNL     1      -0.339  -1.178   0.076  1.00  0.00     0.177 A 
ENDROOT
BRANCH   1   7
HETATM    7  N2  UNL     1       1.878   0.142  -0.053  1.00  0.00    -0.310 N 
HETATM    8  N1  UNL     1       2.473   1.252  -0.148  1.00  0.00    -0.345 N 
ATOM      9  H12 UNL     1       1.912   2.103  -0.197  1.00  0.00     0.176 HD
ATOM     10  H11 UNL     1       3.491   1.301  -0.175  1.00  0.00     0.176 HD
ATOM     11  H2  UNL     1       2.424  -0.718  -0.003  1.00  0.00     0.186 HD
ENDBRANCH   1   7
TORSDOF 1
