REMARK  3 active torsions:
REMARK  status: ('A' for Active; 'I' for Inactive)
REMARK    1  A    between atoms: C2_2  and  C3_3 
REMARK    2  A    between atoms: C3_3  and  C4_4 
REMARK    3  A    between atoms: C4_4  and  N1_5 
ROOT
HETATM    1  N1  UNL     1       0.414  -0.223  -0.368  1.00  0.00    -0.278 NA
HETATM    2  C5  UNL     1       0.828   1.134  -0.240  1.00  0.00     0.146 C 
HETATM    3  N2  UNL     1       2.093   1.220  -0.174  1.00  0.00    -0.389 N 
ATOM      4  H2  UNL     1       2.614   2.092  -0.081  1.00  0.00     0.159 HD
HETATM    5  C6  UNL     1       2.682  -0.079  -0.249  1.00  0.00     0.135 C 
HETATM    6  C7  UNL     1       1.594  -0.916  -0.863  1.00  0.00     0.115 C 
ENDROOT
BRANCH   1   7
HETATM    7  C4  UNL     1      -0.012  -0.759   0.913  1.00  0.00     0.100 C 
BRANCH   7   8
HETATM    8  C3  UNL     1      -1.248   0.018   1.327  1.00  0.00     0.041 C 
BRANCH   8   9
HETATM    9  C2  UNL     1      -2.343  -0.121   0.352  1.00  0.00    -0.036 C 
HETATM   10  C1  UNL     1      -2.832   0.941  -0.247  1.00  0.00     0.007 C 
ENDBRANCH   8   9
ENDBRANCH   7   8
ENDBRANCH   1   7
TORSDOF 3
