REMARK  2 active torsions:
REMARK  status: ('A' for Active; 'I' for Inactive)
REMARK    1  A    between atoms: N1_3  and  C3_5 
REMARK    2  A    between atoms: C3_5  and  N2_7 
ROOT
HETATM    1  C1  UNL     1       3.065  -0.023   0.005  1.00  0.00     0.037 C 
HETATM    2  C2  UNL     1       1.880   0.157  -0.067  1.00  0.00     0.001 C 
HETATM    3  N1  UNL     1       0.479   0.368  -0.135  1.00  0.00    -0.292 N 
ATOM      4  H1  UNL     1       0.118   1.267  -0.453  1.00  0.00     0.178 HD
ENDROOT
BRANCH   3   5
HETATM    5  C3  UNL     1      -0.412  -0.647   0.231  1.00  0.00     0.192 C 
HETATM    6  S1  UNL     1       0.107  -2.095   0.744  1.00  0.00    -0.039 SA
BRANCH   5   7
HETATM    7  N2  UNL     1      -1.800  -0.414   0.155  1.00  0.00    -0.269 N 
HETATM    8  C4  UNL     1      -2.311   0.832  -0.286  1.00  0.00     0.184 C 
HETATM    9  N3  UNL     1      -2.743   1.844  -0.651  1.00  0.00    -0.172 NA
ATOM     10  H2  UNL     1      -2.448  -1.155   0.422  1.00  0.00     0.180 HD
ENDBRANCH   5   7
ENDBRANCH   3   5
TORSDOF 2
