REMARK  3 active torsions:
REMARK  status: ('A' for Active; 'I' for Inactive)
REMARK    1  A    between atoms: N1_7  and  C7_8 
REMARK    2  A    between atoms: C11_15  and  S1_16 
REMARK    3  A    between atoms: S1_16  and  C12_17 
ROOT
HETATM    1  C7  UNL     1       0.223  -0.525   0.564  1.00  0.00     0.110 C 
HETATM    2  C8  UNL     1       0.809  -1.506  -0.433  1.00  0.00     0.257 C 
HETATM    3  N2  UNL     1       1.664  -0.854  -1.399  1.00  0.00    -0.073 N 
ATOM      4  H21 UNL     1       1.232   0.006  -1.737  1.00  0.00     0.277 HD
ATOM      5  H22 UNL     1       1.692  -1.386  -2.269  1.00  0.00     0.277 HD
HETATM    6  C9  UNL     1       2.982  -0.598  -0.927  1.00  0.00     0.233 C 
HETATM    7  C10 UNL     1       3.103  -0.531   0.571  1.00  0.00     0.043 C 
HETATM    8  C11 UNL     1       2.297   0.563   1.194  1.00  0.00     0.058 C 
HETATM    9  C13 UNL     1       0.970   0.785   0.486  1.00  0.00     0.042 C 
ENDROOT
BRANCH   1  10
HETATM   10  N1  UNL     1      -1.186  -0.389   0.412  1.00  0.00    -0.380 N 
HETATM   11  C2  UNL     1      -1.849   0.067  -0.792  1.00  0.00     0.080 C 
HETATM   12  C1  UNL     1      -2.307   1.495  -0.551  1.00  0.00     0.032 C 
HETATM   13  C3  UNL     1      -3.110  -0.764  -1.046  1.00  0.00     0.029 C 
HETATM   14  C4  UNL     1      -4.057  -0.718   0.109  1.00  0.00     0.030 C 
HETATM   15  C5  UNL     1      -3.350  -0.874   1.403  1.00  0.00    -0.010 C 
HETATM   16  C6  UNL     1      -2.039  -0.716   1.503  1.00  0.00     0.082 C 
ENDBRANCH   1  10
BRANCH   8  17
HETATM   17  S1  UNL     1       3.228   2.083   1.413  1.00  0.00    -0.096 SA
BRANCH  17  18
HETATM   18  C12 UNL     1       3.683   2.824  -0.136  1.00  0.00     0.304 C 
HETATM   19  O1  UNL     1       4.837   3.025  -0.456  1.00  0.00    -0.295 OA
ENDBRANCH  17  18
ENDBRANCH   8  17
TORSDOF 3
