REMARK  3 active torsions:
REMARK  status: ('A' for Active; 'I' for Inactive)
REMARK    1  A    between atoms: C2_2  and  C3_3 
REMARK    2  A    between atoms: N1_7  and  C6_9 
REMARK    3  A    between atoms: C6_9  and  C7_10 
ROOT
HETATM    1  C7  UNL     1       5.925  -0.293   0.847  1.00  0.00     0.143 C 
HETATM    2  C8  UNL     1       7.147  -0.612   0.144  1.00  0.00     0.060 C 
HETATM    3  N2  UNL     1       8.133  -0.861  -0.421  1.00  0.00    -0.197 NA
ENDROOT
BRANCH   1   4
HETATM    4  C6  UNL     1       4.691  -0.615   0.028  1.00  0.00     0.137 C 
BRANCH   4   5
HETATM    5  N1  UNL     1       3.481  -0.285   0.756  1.00  0.00    -0.349 N 
HETATM    6  C5  UNL     1       2.392  -0.090   0.091  1.00  0.00     0.270 A 
HETATM    7  O1  UNL     1       2.145  -0.132  -1.180  1.00  0.00    -0.284 OA
HETATM    8  O2  UNL     1       1.246   0.215   0.692  1.00  0.00    -0.275 OA
HETATM    9  C4  UNL     1       0.879   0.135  -1.424  1.00  0.00     0.180 A 
HETATM   10  C3  UNL     1       0.298   0.360  -0.204  1.00  0.00     0.089 A 
ATOM     11  H1  UNL     1       3.490  -0.209   1.773  1.00  0.00     0.163 HD
BRANCH  10  12
HETATM   12  C2  UNL     1      -1.133   0.708   0.110  1.00  0.00     0.022 C 
HETATM   13  C1  UNL     1      -1.131   2.025   0.813  1.00  0.00     0.024 C 
HETATM   14  C9  UNL     1      -1.960   0.669  -1.134  1.00  0.00     0.040 C 
HETATM   15  C10 UNL     1      -3.427   0.514  -0.782  1.00  0.00     0.096 C 
HETATM   16  C11 UNL     1      -3.850  -0.953  -0.804  1.00  0.00     0.038 C 
HETATM   17  N4  UNL     1      -3.641   0.822   0.639  1.00  0.00    -0.160 NA
HETATM   18  C12 UNL     1      -3.830  -1.372   0.644  1.00  0.00     0.111 C 
HETATM   19  N3  UNL     1      -3.062  -0.301   1.252  1.00  0.00    -0.233 NA
HETATM   20  C13 UNL     1      -1.659  -0.421   1.007  1.00  0.00     0.125 C 
ENDBRANCH  10  12
ENDBRANCH   4   5
ENDBRANCH   1   4
TORSDOF 3
