REMARK  3 active torsions:
REMARK  status: ('A' for Active; 'I' for Inactive)
REMARK    1  A    between atoms: C2_2  and  C3_3 
REMARK    2  A    between atoms: C3_3  and  N1_4 
REMARK    3  A    between atoms: N1_4  and  C4_7 
ROOT
HETATM    1  C4  UNL     1      -0.177   0.367  -0.004  1.00  0.00     0.218 C 
HETATM    2  C5  UNL     1      -0.972   1.494  -0.564  1.00  0.00     0.040 C 
HETATM    3  C6  UNL     1      -2.450   1.378  -0.416  1.00  0.00    -0.010 C 
HETATM    4  C7  UNL     1      -2.922   0.916   0.923  1.00  0.00     0.012 C 
HETATM    5  C8  UNL     1      -3.009  -0.578   0.773  1.00  0.00     0.020 C 
HETATM    6  C9  UNL     1      -1.691  -1.252   1.024  1.00  0.00     0.044 C 
HETATM    7  C10 UNL     1      -0.799  -0.987  -0.156  1.00  0.00     0.191 C 
HETATM    8  O1  UNL     1      -1.411  -1.194  -1.377  1.00  0.00    -0.233 OA
HETATM    9  O2  UNL     1      -2.562  -1.801  -1.168  1.00  0.00    -0.235 OA
HETATM   10  C11 UNL     1      -3.422  -0.816  -0.657  1.00  0.00     0.165 C 
HETATM   11  C12 UNL     1      -3.101   0.465  -1.416  1.00  0.00     0.040 C 
ENDROOT
BRANCH   1  12
HETATM   12  N1  UNL     1       1.132   0.308  -0.657  1.00  0.00    -0.065 N 
ATOM     13  H12 UNL     1       1.324   1.128  -1.233  1.00  0.00     0.277 HD
ATOM     14  H11 UNL     1       1.173  -0.391  -1.399  1.00  0.00     0.277 HD
BRANCH  12  15
HETATM   15  C3  UNL     1       2.127   0.097   0.365  1.00  0.00     0.275 C 
BRANCH  15  16
HETATM   16  C2  UNL     1       3.472  -0.285  -0.181  1.00  0.00     0.140 C 
HETATM   17  C1  UNL     1       4.421   0.826  -0.496  1.00  0.00     0.053 C 
HETATM   18  C13 UNL     1       4.134  -1.317   0.735  1.00  0.00     0.252 C 
HETATM   19  O3  UNL     1       3.922  -2.306  -0.210  1.00  0.00    -0.237 OA
HETATM   20  O4  UNL     1       3.499  -1.370  -1.039  1.00  0.00    -0.226 OA
ENDBRANCH  15  16
ENDBRANCH  12  15
ENDBRANCH   1  12
TORSDOF 3
