REMARK  8 active torsions:
REMARK  status: ('A' for Active; 'I' for Inactive)
REMARK    1  A    between atoms: C2_2  and  N7_24 
REMARK    2  A    between atoms: C3_3  and  N1_4 
REMARK    3  A    between atoms: N1_4  and  N2_6 
REMARK    4  A    between atoms: N2_6  and  C4_8 
REMARK    5  A    between atoms: C5_13  and  C6_14 
REMARK       I    between atoms: C6_14  and  N5_16 
REMARK    6  A    between atoms: C7_18  and  C8_19 
REMARK    7  A    between atoms: N7_24  and  N8_26 
REMARK    8  A    between atoms: N8_26  and  C11_28 
ROOT
HETATM    1  C8  UNL     1       5.953   0.140   0.502  1.00  0.00     0.127 C 
HETATM    2  C9  UNL     1       5.546  -0.104   1.940  1.00  0.00     0.031 C 
HETATM    3  C10 UNL     1       6.781  -0.950  -0.012  1.00  0.00     0.069 C 
HETATM    4  N6  UNL     1       7.443  -1.825  -0.404  1.00  0.00    -0.197 NA
ENDROOT
BRANCH   1   5
HETATM    5  C7  UNL     1       4.708   0.296  -0.293  1.00  0.00     0.083 C 
HETATM    6  N5  UNL     1       4.112  -0.784  -0.663  1.00  0.00    -0.334 N 
HETATM    7  C6  UNL     1       2.917  -0.742  -1.426  1.00  0.00     0.280 C 
ATOM      8  H5  UNL     1       4.507  -1.687  -0.402  1.00  0.00     0.168 HD
HETATM    9  O1  UNL     1       2.906  -1.218  -2.591  1.00  0.00    -0.265 OA
BRANCH   7  10
HETATM   10  C5  UNL     1       1.712  -0.144  -0.843  1.00  0.00     0.161 A 
HETATM   11  N4  UNL     1       1.533   0.398   0.347  1.00  0.00    -0.287 N 
HETATM   12  N3  UNL     1       0.400   0.871   0.676  1.00  0.00    -0.277 N 
ATOM     13  H4  UNL     1       2.309   0.438   1.007  1.00  0.00     0.188 HD
HETATM   14  C4  UNL     1      -0.605   0.811  -0.197  1.00  0.00     0.180 A 
ATOM     15  H3  UNL     1       0.262   1.291   1.595  1.00  0.00     0.189 HD
HETATM   16  S1  UNL     1       0.163   0.032  -1.535  1.00  0.00    -0.027 SA
BRANCH  14  17
HETATM   17  N2  UNL     1      -1.838   1.236  -0.055  1.00  0.00    -0.279 N 
ATOM     18  H2  UNL     1      -2.162   1.685   0.802  1.00  0.00     0.189 HD
BRANCH  17  19
HETATM   19  N1  UNL     1      -2.670   1.037  -1.140  1.00  0.00    -0.308 N 
ATOM     20  H1  UNL     1      -2.301   1.221  -2.073  1.00  0.00     0.186 HD
BRANCH  19  21
HETATM   21  C3  UNL     1      -3.864   0.639  -1.037  1.00  0.00     0.133 C 
HETATM   22  C2  UNL     1      -4.519   0.341   0.206  1.00  0.00     0.038 C 
HETATM   23  C1  UNL     1      -3.888   0.458   1.540  1.00  0.00     0.071 C 
BRANCH  22  24
HETATM   24  N7  UNL     1      -5.760  -0.060   0.139  1.00  0.00    -0.304 N 
ATOM     25  H7  UNL     1      -6.250  -0.278   1.006  1.00  0.00     0.186 HD
BRANCH  24  26
HETATM   26  N8  UNL     1      -6.444  -0.203  -1.069  1.00  0.00    -0.301 N 
ATOM     27  H8  UNL     1      -6.809   0.606  -1.571  1.00  0.00     0.187 HD
BRANCH  26  28
HETATM   28  C11 UNL     1      -6.612  -1.523  -1.571  1.00  0.00     0.188 C 
HETATM   29  S2  UNL     1      -5.337  -2.533  -1.820  1.00  0.00    -0.073 SA
ENDBRANCH  26  28
ENDBRANCH  24  26
ENDBRANCH  22  24
ENDBRANCH  19  21
ENDBRANCH  17  19
ENDBRANCH  14  17
ENDBRANCH   7  10
ENDBRANCH   1   5
TORSDOF 8
