REMARK  7 active torsions:
REMARK  status: ('A' for Active; 'I' for Inactive)
REMARK    1  A    between atoms: N1_2  and  C2_4 
REMARK    2  A    between atoms: N3_8  and  C4_9 
REMARK    3  A    between atoms: C4_9  and  N4_10 
REMARK    4  A    between atoms: N5_13  and  C7_14 
REMARK    5  A    between atoms: C7_14  and  C8_15 
REMARK    6  A    between atoms: N6_17  and  O1_19 
REMARK    7  A    between atoms: C12_23  and  C13_24 
ROOT
HETATM    1  C4  UNL     1       1.112  -1.766  -0.217  1.00  0.00     0.420 C 
ENDROOT
BRANCH   1   2
HETATM    2  N3  UNL     1       1.940  -0.716  -0.782  1.00  0.00    -0.263 N 
HETATM    3  N2  UNL     1       2.182  -0.614  -2.102  1.00  0.00    -0.306 N 
HETATM    4  C3  UNL     1       2.984   0.407  -2.317  1.00  0.00     0.138 A 
ATOM      5  H2  UNL     1       1.804  -1.230  -2.822  1.00  0.00     0.186 HD
HETATM    6  C2  UNL     1       3.274   0.987  -1.104  1.00  0.00     0.072 A 
HETATM    7  C12 UNL     1       2.590   0.246  -0.145  1.00  0.00     0.096 A 
BRANCH   6   8
HETATM    8  N1  UNL     1       4.132   2.118  -0.932  1.00  0.00    -0.391 N 
HETATM    9  C1  UNL     1       4.737   2.760  -2.079  1.00  0.00     0.146 C 
ATOM     10  H1  UNL     1       4.319   2.474   0.005  1.00  0.00     0.159 HD
ENDBRANCH   6   8
BRANCH   7  11
HETATM   11  C13 UNL     1       2.666   0.626   1.280  1.00  0.00     0.155 C 
HETATM   12  C14 UNL     1       4.089   0.591   1.796  1.00  0.00     0.057 C 
HETATM   13 CL1  UNL     1       1.668  -0.269   2.388  1.00  0.00    -0.095 Cl
HETATM   14 CL2  UNL     1       2.155   2.354   1.372  1.00  0.00    -0.095 Cl
ENDBRANCH   7  11
ENDBRANCH   1   2
BRANCH   1  15
HETATM   15  N4  UNL     1      -0.228  -1.263  -0.072  1.00  0.00     0.111 N 
HETATM   16  C5  UNL     1      -1.137  -2.222   0.508  1.00  0.00     0.305 C 
HETATM   17  C6  UNL     1      -2.371  -2.298  -0.345  1.00  0.00     0.303 C 
HETATM   18  N5  UNL     1      -3.100  -1.030  -0.406  1.00  0.00     0.097 N 
HETATM   19  C10 UNL     1      -2.132  -0.043  -0.828  1.00  0.00     0.303 C 
HETATM   20  C11 UNL     1      -0.789  -0.657  -1.233  1.00  0.00     0.305 C 
BRANCH  18  21
HETATM   21  C7  UNL     1      -3.648  -0.796   0.900  1.00  0.00     0.326 C 
BRANCH  21  22
HETATM   22  C8  UNL     1      -4.559   0.330   1.032  1.00  0.00     0.034 C 
HETATM   23  C9  UNL     1      -4.153   1.705   0.693  1.00  0.00     0.067 C 
HETATM   24  N6  UNL     1      -5.760   0.151   1.456  1.00  0.00    -0.276 N 
ATOM     25  H6  UNL     1      -6.397   0.942   1.549  1.00  0.00     0.193 HD
BRANCH  24  26
HETATM   26  O1  UNL     1      -6.174  -1.116   1.782  1.00  0.00    -0.290 OA
ATOM     27  H1  UNL     1      -7.061  -1.248   2.095  1.00  0.00     0.244 HD
ENDBRANCH  24  26
ENDBRANCH  21  22
ENDBRANCH  18  21
ENDBRANCH   1  15
TORSDOF 7
