REMARK  5 active torsions:
REMARK  status: ('A' for Active; 'I' for Inactive)
REMARK    1  A    between atoms: N1_3  and  N2_5 
REMARK    2  A    between atoms: N2_5  and  C3_7 
REMARK    3  A    between atoms: C4_10  and  N4_11 
REMARK    4  A    between atoms: C6_19  and  N7_20 
REMARK    5  A    between atoms: C8_23  and  N8_24 
ROOT
HETATM    1  C3  UNL     1       1.237   0.249  -0.133  1.00  0.00     0.166 A 
HETATM    2  N3  UNL     1       1.634   1.443   0.331  1.00  0.00    -0.173 N 
ATOM      3  H3  UNL     1       2.621   1.700   0.363  1.00  0.00     0.186 HD
HETATM    4  C4  UNL     1       0.676   2.287   0.752  1.00  0.00     0.679 A 
HETATM    5  N5  UNL     1      -0.633   1.988   0.727  1.00  0.00    -0.174 N 
ATOM      6  H5  UNL     1      -1.311   2.672   1.061  1.00  0.00     0.186 HD
HETATM    7  C5  UNL     1      -1.064   0.795   0.266  1.00  0.00     0.153 A 
HETATM    8  N6  UNL     1      -2.350   0.467   0.227  1.00  0.00    -0.323 N 
ATOM      9  H6  UNL     1      -3.044   1.138   0.556  1.00  0.00     0.169 HD
HETATM   10  C6  UNL     1      -2.769  -0.748  -0.243  1.00  0.00     0.147 A 
HETATM   11  C8  UNL     1      -1.816  -1.638  -0.683  1.00  0.00     0.144 A 
HETATM   12  N9  UNL     1      -0.515  -1.291  -0.637  1.00  0.00    -0.334 N 
ATOM     13  H9  UNL     1       0.186  -1.955  -0.964  1.00  0.00     0.168 HD
HETATM   14  C9  UNL     1      -0.117  -0.103  -0.176  1.00  0.00     0.125 A 
ENDROOT
BRANCH   1  15
HETATM   15  N2  UNL     1       2.100  -0.592  -0.546  1.00  0.00    -0.284 N 
ATOM     16  H2  UNL     1       1.776  -1.494  -0.895  1.00  0.00     0.188 HD
BRANCH  15  17
HETATM   17  N1  UNL     1       3.457  -0.331  -0.540  1.00  0.00    -0.315 N 
HETATM   18  C2  UNL     1       4.275  -0.849   0.323  1.00  0.00     0.075 C 
HETATM   19  C1  UNL     1       5.727  -0.556   0.312  1.00  0.00     0.056 C 
ATOM     20  H1  UNL     1       3.833   0.299  -1.248  1.00  0.00     0.185 HD
ENDBRANCH  15  17
ENDBRANCH   1  15
BRANCH   4  21
HETATM   21  N4  UNL     1       1.066   3.442   1.200  1.00  0.00    -0.234 N 
ATOM     22  H42 UNL     1       2.060   3.669   1.219  1.00  0.00     0.174 HD
ATOM     23  H41 UNL     1       0.339   4.082   1.519  1.00  0.00     0.174 HD
ENDBRANCH   4  21
BRANCH  11  24
HETATM   24  N8  UNL     1      -2.119  -2.810  -1.144  1.00  0.00    -0.382 N 
ATOM     25  H82 UNL     1      -3.104  -3.073  -1.179  1.00  0.00     0.157 HD
ATOM     26  H81 UNL     1      -1.413  -3.470  -1.470  1.00  0.00     0.157 HD
ENDBRANCH  11  24
BRANCH  10  27
HETATM   27  N7  UNL     1      -4.143  -1.029  -0.256  1.00  0.00    -0.378 N 
HETATM   28  C7  UNL     1      -5.100  -0.050   0.221  1.00  0.00     0.148 C 
ATOM     29  H7  UNL     1      -4.472  -1.930  -0.604  1.00  0.00     0.160 HD
ENDBRANCH  10  27
TORSDOF 5
