REMARK  7 active torsions:
REMARK  status: ('A' for Active; 'I' for Inactive)
REMARK    1  A    between atoms: C2_2  and  C3_4 
REMARK    2  A    between atoms: C8_9  and  C9_10 
REMARK       I    between atoms: C9_10  and  N1_12 
REMARK    3  A    between atoms: N2_15  and  C12_16 
REMARK    4  A    between atoms: C12_16  and  C13_17 
REMARK    5  A    between atoms: C13_17  and  C14_18 
REMARK    6  A    between atoms: N3_20  and  O3_22 
REMARK    7  A    between atoms: C17_25  and  O4_26 
ROOT
HETATM    1  C3  UNL     1      -4.185  -1.030   0.597  1.00  0.00    -0.002 C 
HETATM    2  C4  UNL     1      -3.475  -1.385   1.687  1.00  0.00    -0.073 C 
HETATM    3  C5  UNL     1      -3.989  -2.011   2.908  1.00  0.00     0.044 C 
HETATM    4  C6  UNL     1      -2.033  -1.044   1.457  1.00  0.00     0.041 C 
HETATM    5  C7  UNL     1      -2.190   0.075   0.493  1.00  0.00     0.018 C 
HETATM    6  C8  UNL     1      -0.975   0.702  -0.046  1.00  0.00     0.112 C 
HETATM    7  C17 UNL     1      -1.426   1.481  -1.269  1.00  0.00     0.131 C 
HETATM    8  C18 UNL     1      -2.881   1.944  -1.085  1.00  0.00     0.034 C 
HETATM    9  C19 UNL     1      -3.848   0.778  -1.108  1.00  0.00     0.017 C 
HETATM   10  C20 UNL     1      -3.248  -0.418  -0.418  1.00  0.00    -0.008 C 
HETATM   11  C21 UNL     1      -2.886  -1.515  -1.359  1.00  0.00     0.021 C 
ENDROOT
BRANCH   6  12
HETATM   12  C9  UNL     1       0.161  -0.129  -0.341  1.00  0.00     0.228 C 
HETATM   13  O2  UNL     1       0.097  -1.393  -0.583  1.00  0.00    -0.273 OA
HETATM   14  N1  UNL     1       1.460   0.360  -0.395  1.00  0.00    -0.324 N 
HETATM   15  C10 UNL     1       1.916   1.701  -0.161  1.00  0.00     0.158 C 
HETATM   16  C16 UNL     1       2.707  -0.385  -0.696  1.00  0.00     0.400 C 
HETATM   17  C11 UNL     1       3.252   1.533   0.551  1.00  0.00     0.294 C 
HETATM   18  N2  UNL     1       3.719   0.272   0.085  1.00  0.00     0.107 N 
BRANCH  18  19
HETATM   19  C12 UNL     1       4.228  -0.530   1.155  1.00  0.00     0.280 C 
BRANCH  19  20
HETATM   20  C13 UNL     1       5.502   0.061   1.690  1.00  0.00     0.084 C 
BRANCH  20  21
HETATM   21  C14 UNL     1       6.564   0.141   0.667  1.00  0.00     0.007 C 
HETATM   22  C15 UNL     1       7.048  -1.078  -0.062  1.00  0.00     0.065 C 
HETATM   23  N3  UNL     1       7.105   1.272   0.394  1.00  0.00    -0.278 N 
ATOM     24  H3  UNL     1       7.837   1.314  -0.315  1.00  0.00     0.193 HD
BRANCH  23  25
HETATM   25  O3  UNL     1       6.728   2.414   1.025  1.00  0.00    -0.290 OA
ATOM     26  H3  UNL     1       7.129   3.251   0.823  1.00  0.00     0.244 HD
ENDBRANCH  23  25
ENDBRANCH  20  21
ENDBRANCH  19  20
ENDBRANCH  18  19
ENDBRANCH   6  12
BRANCH   7  27
HETATM   27  O4  UNL     1      -0.716   2.675  -1.450  1.00  0.00    -0.395 OA
ATOM     28  H4  UNL     1      -0.998   3.162  -2.215  1.00  0.00     0.210 HD
ENDBRANCH   7  27
BRANCH   1  29
HETATM   29  C2  UNL     1      -5.605  -1.230   0.487  1.00  0.00     0.152 C 
HETATM   30  C1  UNL     1      -6.460  -0.875  -0.668  1.00  0.00     0.096 C 
HETATM   31  O1  UNL     1      -6.227  -1.770   1.472  1.00  0.00    -0.293 OA
ENDBRANCH   1  29
TORSDOF 7
