REMARK  5 active torsions:
REMARK  status: ('A' for Active; 'I' for Inactive)
REMARK    1  A    between atoms: C2_2  and  O1_3 
REMARK    2  A    between atoms: O1_3  and  N1_4 
REMARK    3  A    between atoms: C10_18  and  S1_19 
REMARK    4  A    between atoms: S1_19  and  C11_20 
REMARK    5  A    between atoms: C11_20  and  C12_21 
REMARK       I    between atoms: C12_21  and  N4_23 
REMARK       I    between atoms: N5_26  and  C15_27 
ROOT
HETATM    1  N1  UNL     1      -2.555   0.903   0.708  1.00  0.00    -0.254 N 
ATOM      2  H1  UNL     1      -1.928   1.670   0.466  1.00  0.00     0.195 HD
HETATM    3  C3  UNL     1      -2.934   0.109  -0.235  1.00  0.00     0.113 C 
HETATM    4  N2  UNL     1      -3.808  -0.962   0.097  1.00  0.00    -0.377 N 
ATOM      5  H2  UNL     1      -3.802  -1.210   1.086  1.00  0.00     0.160 HD
HETATM    6  C4  UNL     1      -4.696  -1.758  -0.697  1.00  0.00     0.121 C 
HETATM    7  C5  UNL     1      -4.690  -1.422  -2.153  1.00  0.00     0.025 C 
HETATM    8  C6  UNL     1      -4.872   0.042  -2.444  1.00  0.00     0.055 C 
HETATM    9  C7  UNL     1      -3.573   0.778  -2.427  1.00  0.00    -0.003 C 
HETATM   10  N3  UNL     1      -3.525   1.768  -3.203  1.00  0.00    -0.405 N 
ATOM     11  H31 UNL     1      -2.638   2.271  -3.191  1.00  0.00     0.155 HD
ATOM     12  H32 UNL     1      -4.325   2.020  -3.783  1.00  0.00     0.155 HD
HETATM   13  C8  UNL     1      -2.406   0.410  -1.581  1.00  0.00     0.071 A 
HETATM   14  C9  UNL     1      -1.428  -0.495  -2.253  1.00  0.00     0.041 A 
HETATM   15  C10 UNL     1      -1.059   0.922  -1.823  1.00  0.00     0.071 A 
ENDROOT
BRANCH  15  16
HETATM   16  S1  UNL     1       0.156   1.044  -0.516  1.00  0.00    -0.153 SA
BRANCH  16  17
HETATM   17  C11 UNL     1       0.601  -0.612   0.046  1.00  0.00     0.177 C 
BRANCH  17  18
HETATM   18  C12 UNL     1       1.596  -0.600   1.123  1.00  0.00     0.229 C 
HETATM   19  O2  UNL     1       1.206  -0.573   2.317  1.00  0.00    -0.273 OA
HETATM   20  N4  UNL     1       3.002  -0.618   0.892  1.00  0.00    -0.348 N 
HETATM   21  C13 UNL     1       3.495  -0.645  -0.459  1.00  0.00     0.145 C 
HETATM   22  C18 UNL     1       3.959  -0.612   1.978  1.00  0.00     0.145 C 
HETATM   23  C14 UNL     1       4.597   0.396  -0.667  1.00  0.00     0.145 C 
HETATM   24  N5  UNL     1       5.487   0.435   0.462  1.00  0.00    -0.349 N 
HETATM   25  C15 UNL     1       6.888   0.388   0.211  1.00  0.00     0.215 C 
HETATM   26  C17 UNL     1       4.948   0.520   1.793  1.00  0.00     0.145 C 
HETATM   27  C16 UNL     1       7.803   0.429   1.399  1.00  0.00     0.117 C 
HETATM   28  O3  UNL     1       7.361   0.314  -0.950  1.00  0.00    -0.274 OA
ENDBRANCH  17  18
ENDBRANCH  16  17
ENDBRANCH  15  16
BRANCH   1  29
HETATM   29  O1  UNL     1      -2.942   0.778   2.006  1.00  0.00    -0.279 OA
BRANCH  29  30
HETATM   30  C2  UNL     1      -4.202   1.204   2.491  1.00  0.00     0.196 C 
HETATM   31  C1  UNL     1      -4.294   0.913   3.972  1.00  0.00     0.036 C 
ENDBRANCH  29  30
ENDBRANCH   1  29
TORSDOF 5
