REMARK  1 active torsions:
REMARK  status: ('A' for Active; 'I' for Inactive)
REMARK    1  A    between atoms: C2_4  and  C3_5 
ROOT
HETATM    1  C3  UNL     1       0.274   0.102   0.300  1.00  0.00     0.283 C 
HETATM    2  N2  UNL     1      -0.548  -1.010  -0.151  1.00  0.00    -0.058 N 
ATOM      3  H21 UNL     1      -0.084  -1.914  -0.060  1.00  0.00     0.278 HD
ATOM      4  H22 UNL     1      -0.674  -1.030  -1.163  1.00  0.00     0.278 HD
HETATM    5  C4  UNL     1      -1.783  -0.937   0.568  1.00  0.00     0.235 C 
HETATM    6  C5  UNL     1      -2.754   0.061   0.011  1.00  0.00     0.038 C 
HETATM    7  C6  UNL     1      -2.260   1.454  -0.045  1.00  0.00     0.078 C 
HETATM    8  S1  UNL     1      -0.490   1.573  -0.464  1.00  0.00    -0.131 SA
ENDROOT
BRANCH   1   9
HETATM    9  C2  UNL     1       1.687  -0.045  -0.075  1.00  0.00     0.019 A 
HETATM   10  C1  UNL     1       2.572   0.863  -0.611  1.00  0.00     0.160 A 
HETATM   11  N1  UNL     1       3.761   0.259  -0.781  1.00  0.00    -0.130 N 
HETATM   12  F1  UNL     1       4.891   0.798  -1.279  1.00  0.00    -0.077 F 
HETATM   13  N3  UNL     1       3.649  -0.980  -0.375  1.00  0.00    -0.282 N 
HETATM   14  C7  UNL     1       2.395  -1.220   0.069  1.00  0.00     0.121 A 
ATOM     15  H3  UNL     1       4.402  -1.668  -0.391  1.00  0.00     0.188 HD
ENDBRANCH   1   9
TORSDOF 1
