REMARK  5 active torsions:
REMARK  status: ('A' for Active; 'I' for Inactive)
REMARK    1  A    between atoms: N1_1  and  C1_4 
REMARK    2  A    between atoms: N5_18  and  C7_19 
REMARK    3  A    between atoms: C7_19  and  C8_20 
REMARK    4  A    between atoms: C8_20  and  C9_21 
REMARK    5  A    between atoms: C9_21  and  N6_22 
ROOT
HETATM    1  C1  UNL     1      -3.192   0.561   0.130  1.00  0.00     0.118 A 
HETATM    2  N2  UNL     1      -2.887   1.859  -0.029  1.00  0.00    -0.338 N 
ATOM      3  H2  UNL     1      -3.627   2.556   0.054  1.00  0.00     0.168 HD
HETATM    4  C2  UNL     1      -1.616   2.272  -0.298  1.00  0.00     0.183 A 
HETATM    5  N3  UNL     1      -0.647   1.334  -0.405  1.00  0.00    -0.336 N 
ATOM      6  H3  UNL     1       0.304   1.642  -0.607  1.00  0.00     0.168 HD
HETATM    7  C3  UNL     1      -0.871   0.025  -0.260  1.00  0.00     0.141 A 
HETATM    8  C4  UNL     1      -2.168  -0.367   0.012  1.00  0.00     0.109 A 
HETATM    9  C5  UNL     1      -2.389  -1.718   0.160  1.00  0.00     0.258 A 
HETATM   10  O1  UNL     1      -3.573  -2.081   0.409  1.00  0.00    -0.281 OA
HETATM   11  C6  UNL     1      -1.353  -2.625   0.039  1.00  0.00     0.311 A 
HETATM   12  O2  UNL     1      -1.566  -3.857   0.175  1.00  0.00    -0.262 OA
HETATM   13  N4  UNL     1      -0.104  -2.193  -0.228  1.00  0.00    -0.259 N 
ATOM     14  H4  UNL     1       0.662  -2.861  -0.318  1.00  0.00     0.190 HD
HETATM   15  N5  UNL     1       0.122  -0.898  -0.372  1.00  0.00    -0.273 N 
ENDROOT
BRANCH  15  16
HETATM   16  C7  UNL     1       1.464  -0.445  -0.657  1.00  0.00     0.152 C 
BRANCH  16  17
HETATM   17  C8  UNL     1       2.217  -0.168   0.650  1.00  0.00     0.049 C 
BRANCH  17  18
HETATM   18  C9  UNL     1       3.623   0.307   0.356  1.00  0.00     0.231 C 
BRANCH  18  19
HETATM   19  N6  UNL     1       3.551   1.517  -0.419  1.00  0.00    -0.079 N 
ATOM     20  H63 UNL     1       2.993   1.405  -1.265  1.00  0.00     0.274 HD
ATOM     21  H62 UNL     1       2.983   2.235   0.031  1.00  0.00     0.274 HD
ATOM     22  H61 UNL     1       4.499   1.837  -0.617  1.00  0.00     0.274 HD
ENDBRANCH  18  19
ENDBRANCH  17  18
ENDBRANCH  16  17
ENDBRANCH  15  16
BRANCH   1  23
HETATM   23  N1  UNL     1      -4.391   0.159   0.384  1.00  0.00    -0.385 N 
ATOM     24  H12 UNL     1      -5.144   0.841   0.471  1.00  0.00     0.157 HD
ATOM     25  H11 UNL     1      -4.623  -0.827   0.505  1.00  0.00     0.157 HD
ENDBRANCH   1  23
TORSDOF 5
