REMARK  4 active torsions:
REMARK  status: ('A' for Active; 'I' for Inactive)
REMARK    1  A    between atoms: N1_1  and  N2_4 
REMARK       I    between atoms: N3_6  and  C1_8 
REMARK    2  A    between atoms: N5_10  and  N6_12 
REMARK    3  A    between atoms: C2_14  and  C3_15 
REMARK    4  A    between atoms: C7_20  and  N8_21 
ROOT
HETATM    1  N6  UNL     1       1.331  -0.277   1.045  1.00  0.00    -0.309 N 
ATOM      2  H6  UNL     1       0.910  -0.723   1.860  1.00  0.00     0.186 HD
HETATM    3  C2  UNL     1       0.529   0.213   0.164  1.00  0.00     0.118 C 
ENDROOT
BRANCH   1   4
HETATM    4  N5  UNL     1       2.706  -0.251   0.983  1.00  0.00    -0.273 N 
HETATM    5  C1  UNL     1       3.354  -0.580  -0.082  1.00  0.00     0.223 C 
HETATM    6  N3  UNL     1       4.789  -0.498   0.018  1.00  0.00    -0.258 N 
HETATM    7  N4  UNL     1       2.737  -0.998  -1.285  1.00  0.00    -0.061 NA
HETATM    8  N2  UNL     1       5.386   0.431  -0.583  1.00  0.00    -0.247 N 
ATOM      9  H3  UNL     1       5.311  -1.181   0.566  1.00  0.00     0.191 HD
ATOM     10  H2  UNL     1       4.879   1.122  -1.136  1.00  0.00     0.207 HD
ATOM     11  H5  UNL     1       3.230   0.039   1.808  1.00  0.00     0.189 HD
BRANCH   8  12
HETATM   12  N1  UNL     1       6.782   0.473  -0.458  1.00  0.00    -0.331 N 
ATOM     13  H12 UNL     1       7.275  -0.225   0.098  1.00  0.00     0.178 HD
ATOM     14  H11 UNL     1       7.266   1.227  -0.946  1.00  0.00     0.178 HD
ENDBRANCH   8  12
ENDBRANCH   1   4
BRANCH   3  15
HETATM   15  C3  UNL     1      -0.896   0.086   0.408  1.00  0.00    -0.017 A 
HETATM   16  C4  UNL     1      -1.406  -0.528   1.526  1.00  0.00     0.015 A 
HETATM   17  C5  UNL     1      -2.766  -0.616   1.698  1.00  0.00     0.030 A 
HETATM   18  C6  UNL     1      -3.622  -0.093   0.757  1.00  0.00     0.079 A 
HETATM   19  N7  UNL     1      -5.014  -0.201   0.964  1.00  0.00    -0.100 NA
HETATM   20  C7  UNL     1      -3.133   0.525  -0.370  1.00  0.00     0.127 A 
HETATM   21  C8  UNL     1      -1.770   0.600  -0.517  1.00  0.00     0.051 A 
BRANCH  20  22
HETATM   22  N8  UNL     1      -4.064   1.046  -1.307  1.00  0.00    -0.114 N 
HETATM   23  O1  UNL     1      -3.700   1.119  -2.496  1.00  0.00    -0.532 OA
HETATM   24  O2  UNL     1      -5.316   1.456  -0.938  1.00  0.00    -0.532 OA
ENDBRANCH  20  22
ENDBRANCH   3  15
TORSDOF 4
