REMARK  5 active torsions:
REMARK  status: ('A' for Active; 'I' for Inactive)
REMARK    1  A    between atoms: C2_2  and  O3_27 
REMARK    2  A    between atoms: N1_3  and  N2_5 
REMARK    3  A    between atoms: N2_5  and  C3_7 
REMARK    4  A    between atoms: C6_14  and  N5_15 
REMARK    5  A    between atoms: O3_27  and  N8_28 
ROOT
HETATM    1  C3  UNL     1       0.766  -0.439   0.289  1.00  0.00     0.138 C 
HETATM    2  C4  UNL     1       0.162  -1.621  -0.078  1.00  0.00     0.139 C 
HETATM    3  N3  UNL     1      -1.125  -1.862  -0.463  1.00  0.00    -0.347 N 
ATOM      4  H3  UNL     1      -1.314  -2.753  -0.922  1.00  0.00     0.167 HD
HETATM    5  C5  UNL     1      -2.173  -1.021  -0.289  1.00  0.00     0.142 A 
HETATM    6  N4  UNL     1      -3.340  -1.581  -0.653  1.00  0.00    -0.176 N 
ATOM      7  H4  UNL     1      -3.323  -2.537  -1.008  1.00  0.00     0.186 HD
HETATM    8  C6  UNL     1      -4.529  -0.955  -0.577  1.00  0.00     0.680 A 
HETATM    9  N6  UNL     1      -4.569   0.301  -0.115  1.00  0.00    -0.155 N 
ATOM     10  H6  UNL     1      -5.459   0.796  -0.049  1.00  0.00     0.187 HD
HETATM   11  C7  UNL     1      -3.413   0.914   0.266  1.00  0.00     0.279 A 
HETATM   12  O1  UNL     1      -3.422   2.092   0.703  1.00  0.00    -0.266 OA
HETATM   13  C8  UNL     1      -2.200   0.272   0.188  1.00  0.00     0.145 A 
HETATM   14  C9  UNL     1      -1.141   1.029   0.611  1.00  0.00     0.266 C 
HETATM   15  O2  UNL     1      -1.437   2.193   1.015  1.00  0.00    -0.267 OA
HETATM   16  N7  UNL     1       0.187   0.713   0.659  1.00  0.00    -0.306 N 
ATOM     17  H7  UNL     1       0.810   1.436   1.018  1.00  0.00     0.170 HD
ENDROOT
BRANCH   1  18
HETATM   18  N2  UNL     1       2.056  -0.390   0.292  1.00  0.00    -0.282 N 
ATOM     19  H2  UNL     1       2.582  -1.222   0.024  1.00  0.00     0.188 HD
BRANCH  18  20
HETATM   20  N1  UNL     1       2.752   0.760   0.648  1.00  0.00    -0.280 N 
HETATM   21  C2  UNL     1       4.011   0.849   0.425  1.00  0.00     0.159 C 
HETATM   22  C1  UNL     1       4.731   2.095   0.817  1.00  0.00     0.101 C 
ATOM     23  H1  UNL     1       2.258   1.536   1.089  1.00  0.00     0.189 HD
BRANCH  21  24
HETATM   24  O3  UNL     1       4.649  -0.223  -0.175  1.00  0.00    -0.208 OA
BRANCH  24  25
HETATM   25  N8  UNL     1       3.968  -1.389  -0.467  1.00  0.00    -0.207 N 
HETATM   26  N9  UNL     1       4.042  -1.988  -1.561  1.00  0.00    -0.325 N 
ATOM     27  H92 UNL     1       4.647  -1.577  -2.272  1.00  0.00     0.178 HD
ATOM     28  H91 UNL     1       3.539  -2.849  -1.777  1.00  0.00     0.178 HD
ATOM     29  H8  UNL     1       3.367  -1.786   0.256  1.00  0.00     0.216 HD
ENDBRANCH  24  25
ENDBRANCH  21  24
ENDBRANCH  18  20
ENDBRANCH   1  18
BRANCH   8  30
HETATM   30  N5  UNL     1      -5.619  -1.524  -0.934  1.00  0.00    -0.234 N 
ATOM     31  H52 UNL     1      -5.589  -2.481  -1.286  1.00  0.00     0.174 HD
ATOM     32  H51 UNL     1      -6.520  -1.050  -0.876  1.00  0.00     0.174 HD
ENDBRANCH   8  30
TORSDOF 5
