REMARK  18 active torsions:
REMARK  status: ('A' for Active; 'I' for Inactive)
REMARK    1  A    between atoms: C2_2  and  C3_3 
REMARK    2  A    between atoms: C3_3  and  N1_4 
REMARK    3  A    between atoms: C3_3  and  C4_8 
REMARK    4  A    between atoms: C4_8  and  C5_10 
REMARK    5  A    between atoms: C5_10  and  C6_11 
REMARK    6  A    between atoms: C5_10  and  N5_40 
REMARK    7  A    between atoms: C6_11  and  C7_12 
REMARK       I    between atoms: N2_14  and  C9_15 
REMARK    8  A    between atoms: C9_15  and  O3_17 
REMARK    9  A    between atoms: O3_17  and  C10_18 
REMARK   10  A    between atoms: N3_24  and  C16_25 
REMARK   11  A    between atoms: C16_25  and  O4_26 
REMARK   12  A    between atoms: C16_25  and  C17_28 
REMARK   13  A    between atoms: C17_28  and  C18_29 
REMARK   14  A    between atoms: C17_28  and  N4_32 
REMARK   15  A    between atoms: C18_29  and  S1_30 
REMARK   16  A    between atoms: N4_32  and  C20_34 
REMARK       I    between atoms: N5_40  and  C26_42 
REMARK   17  A    between atoms: C26_42  and  O6_44 
REMARK   18  A    between atoms: O6_44  and  C27_45 
ROOT
HETATM    1  C7  UNL     1      -0.130   0.952   0.122  1.00  0.00     0.111 C 
HETATM    2  C8  UNL     1      -0.153   2.325   0.815  1.00  0.00     0.154 C 
HETATM    3  N2  UNL     1      -0.010   3.376  -0.129  1.00  0.00    -0.321 N 
HETATM    4  C9  UNL     1      -0.537   4.665   0.215  1.00  0.00     0.363 C 
HETATM    5  O2  UNL     1      -0.369   5.637  -0.593  1.00  0.00    -0.238 OA
HETATM    6  C14 UNL     1       0.603   3.173  -1.393  1.00  0.00     0.172 C 
HETATM    7  C15 UNL     1       1.382   1.894  -1.566  1.00  0.00     0.086 C 
HETATM    8  N3  UNL     1       1.098   0.841  -0.674  1.00  0.00    -0.332 N 
ENDROOT
BRANCH   1   9
HETATM    9  C6  UNL     1      -1.380   0.815  -0.638  1.00  0.00     0.060 C 
BRANCH   9  10
HETATM   10  C5  UNL     1      -1.643  -0.407  -1.421  1.00  0.00     0.161 C 
BRANCH  10  11
HETATM   11  C4  UNL     1      -2.905  -0.366  -2.218  1.00  0.00     0.183 C 
HETATM   12  O1  UNL     1      -3.716  -1.262  -2.139  1.00  0.00    -0.293 OA
BRANCH  11  13
HETATM   13  C3  UNL     1      -3.196   0.757  -3.130  1.00  0.00     0.276 C 
BRANCH  13  14
HETATM   14  C2  UNL     1      -4.018   1.769  -2.394  1.00  0.00     0.003 C 
HETATM   15  C1  UNL     1      -4.952   2.485  -2.994  1.00  0.00     0.009 C 
ENDBRANCH  13  14
BRANCH  13  16
HETATM   16  N1  UNL     1      -4.099   0.301  -4.208  1.00  0.00    -0.065 N 
ATOM     17  H13 UNL     1      -5.004  -0.042  -3.885  1.00  0.00     0.275 HD
ATOM     18  H12 UNL     1      -4.472   1.049  -4.792  1.00  0.00     0.275 HD
ATOM     19  H11 UNL     1      -3.539  -0.388  -4.709  1.00  0.00     0.275 HD
ENDBRANCH  13  16
ENDBRANCH  11  13
ENDBRANCH  10  11
BRANCH  10  20
HETATM   20  N5  UNL     1      -1.687  -1.654  -0.712  1.00  0.00    -0.325 N 
HETATM   21  C26 UNL     1      -2.040  -1.889   0.620  1.00  0.00     0.361 C 
HETATM   22  O5  UNL     1      -2.394  -0.959   1.426  1.00  0.00    -0.238 OA
ATOM     23  H5  UNL     1      -1.426  -2.479  -1.252  1.00  0.00     0.165 HD
BRANCH  21  24
HETATM   24  O6  UNL     1      -2.035  -3.143   1.158  1.00  0.00    -0.299 OA
BRANCH  24  25
HETATM   25  C27 UNL     1      -2.310  -3.611   2.360  1.00  0.00     0.133 C 
HETATM   26  C28 UNL     1      -4.027  -3.208   2.234  1.00  0.00     0.032 C 
HETATM   27  C29 UNL     1      -4.512  -4.305   3.093  1.00  0.00     0.002 C 
HETATM   28  C30 UNL     1      -3.769  -5.543   2.715  1.00  0.00     0.002 C 
HETATM   29  C31 UNL     1      -2.673  -5.177   1.803  1.00  0.00     0.032 C 
ENDBRANCH  24  25
ENDBRANCH  21  24
ENDBRANCH  10  20
ENDBRANCH   9  10
ENDBRANCH   1   9
BRANCH   8  30
HETATM   30  C16 UNL     1       1.915  -0.267  -0.460  1.00  0.00     0.166 C 
BRANCH  30  31
HETATM   31  O4  UNL     1       1.511  -1.030   0.558  1.00  0.00    -0.344 OA
ATOM     32  H4  UNL     1       2.068  -1.786   0.704  1.00  0.00     0.219 HD
ENDBRANCH  30  31
BRANCH  30  33
HETATM   33  C17 UNL     1       3.108  -0.820  -1.071  1.00  0.00     0.066 C 
BRANCH  33  34
HETATM   34  C18 UNL     1       3.756  -0.037  -2.191  1.00  0.00     0.134 C 
BRANCH  34  35
HETATM   35  S1  UNL     1       5.184  -0.962  -2.860  1.00  0.00    -0.167 SA
HETATM   36  C19 UNL     1       5.887  -0.085  -4.266  1.00  0.00     0.090 C 
ENDBRANCH  34  35
ENDBRANCH  33  34
BRANCH  33  37
HETATM   37  N4  UNL     1       4.109  -1.341  -0.201  1.00  0.00    -0.384 N 
ATOM     38  H4  UNL     1       5.031  -0.906  -0.208  1.00  0.00     0.160 HD
BRANCH  37  39
HETATM   39  C20 UNL     1       3.889  -2.421   0.663  1.00  0.00     0.081 C 
HETATM   40  C21 UNL     1       3.509  -3.730   0.064  1.00  0.00     0.025 C 
HETATM   41  C22 UNL     1       4.647  -4.719   0.132  1.00  0.00     0.002 C 
HETATM   42  C23 UNL     1       4.877  -5.064   1.596  1.00  0.00     0.000 C 
HETATM   43  C24 UNL     1       4.940  -3.817   2.421  1.00  0.00     0.002 C 
HETATM   44  C25 UNL     1       5.201  -2.670   1.476  1.00  0.00     0.025 C 
ENDBRANCH  37  39
ENDBRANCH  33  37
ENDBRANCH  30  33
ENDBRANCH   8  30
BRANCH   4  45
HETATM   45  O3  UNL     1      -1.217   4.906   1.378  1.00  0.00    -0.294 OA
BRANCH  45  46
HETATM   46  C10 UNL     1      -1.735   6.167   1.735  1.00  0.00     0.061 C 
HETATM   47  C11 UNL     1      -0.576   7.168   1.855  1.00  0.00     0.046 C 
HETATM   48  C12 UNL     1      -2.477   6.095   3.047  1.00  0.00     0.046 C 
HETATM   49  C13 UNL     1      -2.701   6.669   0.687  1.00  0.00     0.046 C 
ENDBRANCH  45  46
ENDBRANCH   4  45
TORSDOF 18
