REMARK  10 active torsions:
REMARK  status: ('A' for Active; 'I' for Inactive)
REMARK    1  A    between atoms: C4_4  and  O1_5 
REMARK    2  A    between atoms: C10_13  and  O3_14 
REMARK    3  A    between atoms: O3_14  and  C11_15 
REMARK    4  A    between atoms: C11_15  and  C12_16 
REMARK    5  A    between atoms: C11_15  and  C21_31 
REMARK    6  A    between atoms: C12_16  and  C13_17 
REMARK    7  A    between atoms: C13_17  and  O4_18 
REMARK    8  A    between atoms: O4_18  and  C14_19 
REMARK    9  A    between atoms: C19_24  and  C20_25 
REMARK   10  A    between atoms: N2_27  and  O5_29 
ROOT
HETATM    1  C11 UNL     1       0.223  -0.987   1.405  1.00  0.00     0.227 C 
ENDROOT
BRANCH   1   2
HETATM    2  O3  UNL     1      -0.503   0.165   1.247  1.00  0.00    -0.345 OA
BRANCH   2   3
HETATM    3  C10 UNL     1      -1.796  -0.031   0.818  1.00  0.00     0.265 C 
HETATM    4  C2  UNL     1      -2.846   0.518   1.719  1.00  0.00     0.040 C 
HETATM    5  C1  UNL     1      -3.658  -0.575   2.401  1.00  0.00     0.015 C 
HETATM    6  C3  UNL     1      -3.808   1.455   1.065  1.00  0.00     0.049 C 
HETATM    7  C4  UNL     1      -4.121   1.143  -0.355  1.00  0.00     0.084 C 
HETATM    8  C5  UNL     1      -5.489   0.547  -0.568  1.00  0.00     0.040 C 
HETATM    9  C9  UNL     1      -3.126   0.161  -0.971  1.00  0.00     0.159 C 
HETATM   10  C6  UNL     1      -5.745   0.480  -2.041  1.00  0.00     0.003 C 
HETATM   11  C7  UNL     1      -4.659  -0.163  -2.831  1.00  0.00     0.003 C 
HETATM   12  C8  UNL     1      -3.274   0.308  -2.463  1.00  0.00     0.035 C 
HETATM   13  O2  UNL     1      -1.881   0.468  -0.495  1.00  0.00    -0.353 OA
BRANCH   7  14
HETATM   14  O1  UNL     1      -4.066   2.309  -1.147  1.00  0.00    -0.387 OA
ATOM     15  H1  UNL     1      -4.266   2.110  -2.054  1.00  0.00     0.210 HD
ENDBRANCH   7  14
ENDBRANCH   2   3
ENDBRANCH   1   2
BRANCH   1  16
HETATM   16  C12 UNL     1       1.478  -1.012   0.558  1.00  0.00     0.070 C 
BRANCH  16  17
HETATM   17  C13 UNL     1       2.410   0.104   0.873  1.00  0.00     0.178 C 
BRANCH  17  18
HETATM   18  O4  UNL     1       3.591   0.169   0.165  1.00  0.00    -0.350 OA
BRANCH  18  19
HETATM   19  C14 UNL     1       4.665  -0.669   0.089  1.00  0.00     0.082 A 
HETATM   20  C15 UNL     1       4.810  -1.857   0.788  1.00  0.00     0.038 A 
HETATM   21  C16 UNL     1       5.960  -2.608   0.612  1.00  0.00     0.003 A 
HETATM   22  C17 UNL     1       6.955  -2.189  -0.245  1.00  0.00     0.001 A 
HETATM   23  C18 UNL     1       6.808  -1.005  -0.939  1.00  0.00     0.018 A 
HETATM   24  C19 UNL     1       5.680  -0.242  -0.785  1.00  0.00     0.040 A 
BRANCH  24  25
HETATM   25  C20 UNL     1       5.522   1.009  -1.517  1.00  0.00     0.148 C 
HETATM   26  N1  UNL     1       6.547   1.429  -2.390  1.00  0.00    -0.080 NA
HETATM   27  N2  UNL     1       4.478   1.733  -1.385  1.00  0.00    -0.255 N 
ATOM     28  H2  UNL     1       3.735   1.433  -0.754  1.00  0.00     0.195 HD
BRANCH  27  29
HETATM   29  O5  UNL     1       4.342   2.907  -2.079  1.00  0.00    -0.288 OA
ATOM     30  H5  UNL     1       3.566   3.445  -1.981  1.00  0.00     0.244 HD
ENDBRANCH  27  29
ENDBRANCH  24  25
ENDBRANCH  18  19
ENDBRANCH  17  18
ENDBRANCH  16  17
ENDBRANCH   1  16
BRANCH   1  31
HETATM   31  C21 UNL     1       0.611  -1.109   2.834  1.00  0.00     0.203 C 
HETATM   32  O6  UNL     1       1.294  -2.092   3.254  1.00  0.00    -0.646 OA
HETATM   33  O7  UNL     1       0.240  -0.152   3.760  1.00  0.00    -0.646 OA
ENDBRANCH   1  31
TORSDOF 10
