REMARK  5 active torsions:
REMARK  status: ('A' for Active; 'I' for Inactive)
REMARK    1  A    between atoms: C14_16  and  O3_17 
REMARK    2  A    between atoms: C14_16  and  C15_19 
REMARK    3  A    between atoms: C15_19  and  N1_21 
REMARK       I    between atoms: N1_21  and  C16_23 
REMARK    4  A    between atoms: C16_23  and  C17_25 
REMARK    5  A    between atoms: C18_26  and  C19_27 
ROOT
HETATM    1  C1  UNL     1      -2.598  -0.105  -4.164  1.00  0.00     0.078 C 
HETATM    2  C2  UNL     1      -3.136   0.245  -2.765  1.00  0.00     0.161 C 
HETATM    3  C3  UNL     1      -4.097   1.420  -2.994  1.00  0.00     0.078 C 
HETATM    4  O1  UNL     1      -3.896  -0.838  -2.362  1.00  0.00    -0.326 OA
HETATM    5  C4  UNL     1      -3.122  -1.959  -2.210  1.00  0.00     0.270 A 
HETATM    6  O2  UNL     1      -1.784  -1.848  -2.489  1.00  0.00    -0.352 OA
HETATM    7  C5  UNL     1      -1.422  -2.272  -1.189  1.00  0.00     0.172 A 
HETATM    8  C6  UNL     1      -2.795  -2.321  -0.790  1.00  0.00     0.074 A 
HETATM    9  C7  UNL     1      -3.378  -1.453   0.234  1.00  0.00     0.020 C 
HETATM   10  C8  UNL     1      -3.300   0.016   0.055  1.00  0.00     0.021 C 
HETATM   11  C9  UNL     1      -3.118   0.624   1.455  1.00  0.00     0.008 C 
HETATM   12  C10 UNL     1      -2.187   1.772   1.315  1.00  0.00     0.004 C 
HETATM   13  C11 UNL     1      -2.090   1.993  -0.175  1.00  0.00     0.038 C 
HETATM   14  C12 UNL     1      -2.114   0.531  -0.668  1.00  0.00     0.071 C 
HETATM   15  C13 UNL     1      -0.897  -0.108   0.001  1.00  0.00     0.084 C 
HETATM   16  C14 UNL     1      -0.433  -1.342  -0.627  1.00  0.00     0.135 C 
HETATM   17  O5  UNL     1      -2.085   0.547  -1.988  1.00  0.00    -0.344 OA
ENDROOT
BRANCH  16  18
HETATM   18  O3  UNL     1       0.431  -0.987  -1.696  1.00  0.00    -0.382 OA
ATOM     19  H3  UNL     1       1.070  -0.386  -1.333  1.00  0.00     0.210 HD
ENDBRANCH  16  18
BRANCH  16  20
HETATM   20  C15 UNL     1       0.465  -2.110   0.331  1.00  0.00     0.309 C 
HETATM   21  F1  UNL     1      -0.200  -2.510   1.470  1.00  0.00    -0.224 F 
BRANCH  20  22
HETATM   22  N1  UNL     1       1.584  -1.289   0.802  1.00  0.00    -0.325 N 
HETATM   23  C16 UNL     1       2.924  -1.708   0.628  1.00  0.00     0.243 C 
HETATM   24  O4  UNL     1       3.072  -2.836   0.037  1.00  0.00    -0.269 OA
ATOM     25  H1  UNL     1       1.393  -0.400   1.264  1.00  0.00     0.165 HD
BRANCH  23  26
HETATM   26  C17 UNL     1       4.109  -1.005   1.043  1.00  0.00     0.075 C 
HETATM   27  C18 UNL     1       4.019   0.149   1.654  1.00  0.00     0.017 C 
BRANCH  27  28
HETATM   28  C19 UNL     1       5.183   0.880   2.082  1.00  0.00    -0.036 A 
HETATM   29  C20 UNL     1       6.445   0.396   1.856  1.00  0.00     0.011 A 
HETATM   30  C21 UNL     1       7.547   1.139   2.291  1.00  0.00     0.001 A 
HETATM   31  C22 UNL     1       7.368   2.338   2.937  1.00  0.00     0.000 A 
HETATM   32  C23 UNL     1       6.103   2.833   3.168  1.00  0.00     0.001 A 
HETATM   33  C24 UNL     1       5.016   2.103   2.741  1.00  0.00     0.011 A 
ENDBRANCH  27  28
ENDBRANCH  23  26
ENDBRANCH  20  22
ENDBRANCH  16  20
TORSDOF 5
