REMARK  7 active torsions:
REMARK  status: ('A' for Active; 'I' for Inactive)
REMARK    1  A    between atoms: C11_12  and  C12_13 
REMARK    2  A    between atoms: C13_15  and  C14_16 
REMARK    3  A    between atoms: C14_16  and  C15_17 
REMARK    4  A    between atoms: C15_17  and  C16_18 
REMARK    5  A    between atoms: C16_18  and  O3_19 
REMARK    6  A    between atoms: C17_21  and  O4_22 
REMARK    7  A    between atoms: C18_24  and  O5_25 
ROOT
HETATM    1  C12 UNL     1       0.899  -0.522   0.634  1.00  0.00     0.158 C 
HETATM    2  O2  UNL     1       1.204   0.091  -0.589  1.00  0.00    -0.375 OA
HETATM    3  C13 UNL     1       2.463   0.645  -0.394  1.00  0.00     0.153 C 
HETATM    4  C17 UNL     1       2.422   1.206   0.951  1.00  0.00     0.178 C 
HETATM    5  C18 UNL     1       1.313   0.476   1.661  1.00  0.00     0.178 C 
ENDROOT
BRANCH   1   6
HETATM    6  C11 UNL     1      -0.562  -0.918   0.726  1.00  0.00     0.026 C 
HETATM    7  C10 UNL     1      -0.796  -1.881  -0.450  1.00  0.00     0.009 C 
HETATM    8  C9  UNL     1      -1.715  -1.086  -1.394  1.00  0.00     0.013 C 
HETATM    9  C7  UNL     1      -2.589  -0.427  -0.389  1.00  0.00    -0.003 C 
HETATM   10  C5  UNL     1      -3.473   0.673  -0.886  1.00  0.00     0.092 A 
HETATM   11  C8  UNL     1      -3.473  -1.434   0.291  1.00  0.00     0.019 C 
HETATM   12  C19 UNL     1      -1.533   0.139   0.553  1.00  0.00     0.031 C 
HETATM   13  C4  UNL     1      -3.864   1.643   0.045  1.00  0.00     0.161 A 
HETATM   14  O1  UNL     1      -2.950   1.946  -1.083  1.00  0.00    -0.368 OA
HETATM   15  C6  UNL     1      -4.516   0.173  -1.880  1.00  0.00     0.049 C 
HETATM   16  C3  UNL     1      -3.207   1.784   1.384  1.00  0.00     0.069 C 
HETATM   17  C2  UNL     1      -2.299   0.639   1.699  1.00  0.00    -0.081 C 
HETATM   18  C1  UNL     1      -2.264   0.178   2.927  1.00  0.00     0.015 C 
ENDBRANCH   1   6
BRANCH   5  19
HETATM   19  O5  UNL     1       1.715  -0.092   2.858  1.00  0.00    -0.390 OA
ATOM     20  H5  UNL     1       1.979   0.544   3.512  1.00  0.00     0.210 HD
ENDBRANCH   5  19
BRANCH   3  21
HETATM   21  C14 UNL     1       3.518  -0.338  -0.724  1.00  0.00     0.036 C 
BRANCH  21  22
HETATM   22  C15 UNL     1       4.928   0.111  -0.565  1.00  0.00     0.029 C 
BRANCH  22  23
HETATM   23  C16 UNL     1       5.897  -0.994  -0.938  1.00  0.00     0.164 C 
BRANCH  23  24
HETATM   24  O3  UNL     1       5.723  -1.391  -2.265  1.00  0.00    -0.401 OA
ATOM     25  H3  UNL     1       6.330  -2.083  -2.499  1.00  0.00     0.209 HD
ENDBRANCH  23  24
ENDBRANCH  22  23
ENDBRANCH  21  22
ENDBRANCH   3  21
BRANCH   4  26
HETATM   26  O4  UNL     1       2.053   2.558   0.878  1.00  0.00    -0.390 OA
ATOM     27  H4  UNL     1       2.026   2.924   1.754  1.00  0.00     0.210 HD
ENDBRANCH   4  26
TORSDOF 7
