REMARK  12 active torsions:
REMARK  status: ('A' for Active; 'I' for Inactive)
REMARK    1  A    between atoms: C2_8  and  S1_9 
REMARK    2  A    between atoms: S1_9  and  C3_10 
REMARK    3  A    between atoms: C3_10  and  C4_11 
REMARK    4  A    between atoms: C4_11  and  C5_12 
REMARK    5  A    between atoms: C5_12  and  C6_13 
REMARK    6  A    between atoms: C5_12  and  C9_24 
REMARK       I    between atoms: C6_13  and  N5_15 
REMARK    7  A    between atoms: N5_15  and  C7_17 
REMARK    8  A    between atoms: C7_17  and  N6_18 
REMARK    9  A    between atoms: C7_17  and  C8_22 
REMARK   10  A    between atoms: C9_24  and  C10_26 
REMARK   11  A    between atoms: C10_26  and  O4_27 
REMARK   12  A    between atoms: C10_26  and  C11_29 
ROOT
HETATM    1  C5  UNL     1      -0.651   1.168   0.539  1.00  0.00     0.151 C 
ENDROOT
BRANCH   1   2
HETATM    2  C4  UNL     1      -1.836   0.287   0.299  1.00  0.00     0.032 C 
BRANCH   2   3
HETATM    3  C3  UNL     1      -2.952   0.891  -0.492  1.00  0.00     0.084 C 
BRANCH   3   4
HETATM    4  S1  UNL     1      -4.215  -0.444  -0.638  1.00  0.00    -0.091 SA
BRANCH   4   5
HETATM    5  C2  UNL     1      -3.572  -1.777  -1.635  1.00  0.00     0.175 A 
HETATM    6  N1  UNL     1      -4.270  -2.884  -1.911  1.00  0.00    -0.257 N 
HETATM    7  C1  UNL     1      -5.609  -3.231  -1.493  1.00  0.00     0.177 C 
HETATM    8  N2  UNL     1      -3.500  -3.657  -2.669  1.00  0.00    -0.003 NA
HETATM    9  N3  UNL     1      -2.350  -3.033  -2.854  1.00  0.00    -0.224 N 
HETATM   10  N4  UNL     1      -2.378  -1.885  -2.230  1.00  0.00    -0.266 N 
ATOM     11  H3  UNL     1      -1.565  -3.391  -3.398  1.00  0.00     0.205 HD
ATOM     12  H4  UNL     1      -1.626  -1.196  -2.202  1.00  0.00     0.190 HD
ENDBRANCH   4   5
ENDBRANCH   3   4
ENDBRANCH   2   3
ENDBRANCH   1   2
BRANCH   1  13
HETATM   13  C6  UNL     1      -1.082   2.371   1.283  1.00  0.00     0.231 C 
HETATM   14  O1  UNL     1      -0.851   2.467   2.497  1.00  0.00    -0.273 OA
HETATM   15  N5  UNL     1      -1.770   3.450   0.641  1.00  0.00    -0.327 N 
ATOM     16  H5  UNL     1      -1.978   3.412  -0.357  1.00  0.00     0.164 HD
BRANCH  15  17
HETATM   17  C7  UNL     1      -2.165   4.594   1.431  1.00  0.00     0.346 C 
BRANCH  17  18
HETATM   18  N6  UNL     1      -3.628   4.669   1.429  1.00  0.00    -0.052 N 
ATOM     19  H63 UNL     1      -4.019   4.687   0.487  1.00  0.00     0.277 HD
ATOM     20  H62 UNL     1      -4.066   3.804   1.744  1.00  0.00     0.277 HD
ATOM     21  H61 UNL     1      -3.907   5.476   1.987  1.00  0.00     0.277 HD
ENDBRANCH  17  18
BRANCH  17  22
HETATM   22  C8  UNL     1      -1.678   5.865   0.822  1.00  0.00     0.285 C 
HETATM   23  O2  UNL     1      -1.029   5.896  -0.217  1.00  0.00    -0.303 OA
ENDBRANCH  17  22
ENDBRANCH  15  17
ENDBRANCH   1  13
BRANCH   1  24
HETATM   24  C9  UNL     1       0.358   0.419   1.318  1.00  0.00     0.169 C 
HETATM   25  O3  UNL     1       0.617   0.795   2.455  1.00  0.00    -0.294 OA
BRANCH  24  26
HETATM   26  C10 UNL     1       1.084  -0.792   0.776  1.00  0.00     0.207 C 
BRANCH  26  27
HETATM   27  O4  UNL     1       0.820  -1.041  -0.539  1.00  0.00    -0.387 OA
ATOM     28  H4  UNL     1       1.276  -1.802  -0.879  1.00  0.00     0.210 HD
ENDBRANCH  26  27
BRANCH  26  29
HETATM   29  C11 UNL     1       2.519  -0.628   1.134  1.00  0.00     0.162 C 
HETATM   30  C12 UNL     1       3.170   0.575   0.589  1.00  0.00     0.231 C 
HETATM   31  O5  UNL     1       2.672   1.676   0.244  1.00  0.00    -0.273 OA
HETATM   32  N7  UNL     1       4.576   0.252   0.515  1.00  0.00    -0.349 N 
HETATM   33  C13 UNL     1       4.755  -1.157   0.800  1.00  0.00     0.150 C 
ATOM     34  H7  UNL     1       5.323   0.911   0.297  1.00  0.00     0.163 HD
HETATM   35  C14 UNL     1       5.811  -1.763  -0.048  1.00  0.00     0.169 C 
HETATM   36  C16 UNL     1       3.377  -1.700   0.509  1.00  0.00     0.044 C 
HETATM   37  N8  UNL     1       5.525  -3.157  -0.370  1.00  0.00    -0.224 N 
HETATM   38  C15 UNL     1       4.198  -3.601  -0.587  1.00  0.00     0.671 C 
ATOM     39  H8  UNL     1       6.294  -3.823  -0.440  1.00  0.00     0.177 HD
HETATM   40  N9  UNL     1       3.958  -4.722  -1.213  1.00  0.00    -0.235 N 
HETATM   41  N10 UNL     1       3.145  -2.785  -0.100  1.00  0.00    -0.197 N 
ATOM     42  H92 UNL     1       4.715  -5.309  -1.563  1.00  0.00     0.174 HD
ATOM     43  H91 UNL     1       3.002  -5.042  -1.369  1.00  0.00     0.174 HD
ATOM     44  H10 UNL     1       2.179  -3.079  -0.244  1.00  0.00     0.183 HD
ENDBRANCH  26  29
ENDBRANCH  24  26
ENDBRANCH   1  24
TORSDOF 12
