REMARK  11 active torsions:
REMARK  status: ('A' for Active; 'I' for Inactive)
REMARK    1  A    between atoms: N3_4  and  C2_6 
REMARK    2  A    between atoms: C2_6  and  C3_7 
REMARK    3  A    between atoms: C3_7  and  C4_8 
REMARK    4  A    between atoms: C4_8  and  C5_9 
REMARK    5  A    between atoms: C5_9  and  N4_10 
REMARK    6  A    between atoms: C5_9  and  C6_14 
REMARK       I    between atoms: C6_14  and  N5_16 
REMARK    7  A    between atoms: N5_16  and  C7_18 
REMARK    8  A    between atoms: C7_18  and  C8_19 
REMARK    9  A    between atoms: C8_19  and  N6_20 
REMARK   10  A    between atoms: N8_27  and  C12_28 
REMARK   11  A    between atoms: C12_28  and  C13_29 
ROOT
HETATM    1  N6  UNL     1       1.072   2.196  -0.368  1.00  0.00    -0.333 N 
HETATM    2  C9  UNL     1       1.001   2.835  -1.539  1.00  0.00     0.184 A 
HETATM    3  N7  UNL     1       2.228   2.940  -2.083  1.00  0.00    -0.345 N 
ATOM      4  H7  UNL     1       2.446   3.385  -2.975  1.00  0.00     0.167 HD
HETATM    5  C10 UNL     1       3.141   2.348  -1.238  1.00  0.00     0.138 A 
HETATM    6  C11 UNL     1       4.466   2.122  -1.194  1.00  0.00     0.283 A 
HETATM    7  O2  UNL     1       5.293   2.493  -2.121  1.00  0.00    -0.265 OA
HETATM    8  N8  UNL     1       4.952   1.480  -0.133  1.00  0.00    -0.275 N 
HETATM    9  S1  UNL     1       3.587   1.182   0.809  1.00  0.00     0.012 SA
HETATM   10  C17 UNL     1       2.396   1.896  -0.184  1.00  0.00     0.126 A 
ENDROOT
BRANCH   1  11
HETATM   11  C8  UNL     1       0.027   1.868   0.543  1.00  0.00     0.150 C 
BRANCH  11  12
HETATM   12  C7  UNL     1      -0.580   0.518   0.248  1.00  0.00     0.143 C 
BRANCH  12  13
HETATM   13  N5  UNL     1      -1.627   0.266   1.212  1.00  0.00    -0.358 N 
HETATM   14  C6  UNL     1      -2.367  -0.927   1.172  1.00  0.00     0.248 C 
HETATM   15  O1  UNL     1      -2.115  -1.784   0.291  1.00  0.00    -0.271 OA
ATOM     16  H5  UNL     1      -1.831   0.962   1.929  1.00  0.00     0.162 HD
BRANCH  14  17
HETATM   17  C5  UNL     1      -3.453  -1.227   2.145  1.00  0.00     0.274 C 
BRANCH  17  18
HETATM   18  C4  UNL     1      -4.410  -0.105   2.300  1.00  0.00     0.044 C 
BRANCH  18  19
HETATM   19  C3  UNL     1      -5.281   0.239   1.159  1.00  0.00     0.022 C 
BRANCH  19  20
HETATM   20  C2  UNL     1      -6.209  -0.826   0.672  1.00  0.00     0.122 C 
BRANCH  20  21
HETATM   21  N3  UNL     1      -7.030  -0.314  -0.446  1.00  0.00    -0.367 N 
HETATM   22  C1  UNL     1      -6.524  -0.285  -1.621  1.00  0.00     0.196 C 
HETATM   23  N1  UNL     1      -7.295   0.202  -2.705  1.00  0.00    -0.067 NA
HETATM   24  N2  UNL     1      -5.202  -0.732  -1.857  1.00  0.00    -0.067 NA
ATOM     25  H3  UNL     1      -7.983   0.010  -0.283  1.00  0.00     0.161 HD
ENDBRANCH  20  21
ENDBRANCH  19  20
ENDBRANCH  18  19
ENDBRANCH  17  18
BRANCH  17  26
HETATM   26  N4  UNL     1      -4.002  -2.511   1.871  1.00  0.00    -0.067 N 
ATOM     27  H43 UNL     1      -4.690  -2.747   2.586  1.00  0.00     0.275 HD
ATOM     28  H42 UNL     1      -4.599  -2.457   1.046  1.00  0.00     0.275 HD
ATOM     29  H41 UNL     1      -3.344  -3.283   1.764  1.00  0.00     0.275 HD
ENDBRANCH  17  26
ENDBRANCH  14  17
ENDBRANCH  12  13
ENDBRANCH  11  12
ENDBRANCH   1  11
BRANCH   8  30
HETATM   30  C12 UNL     1       6.362   1.123   0.132  1.00  0.00     0.198 C 
BRANCH  30  31
HETATM   31  C13 UNL     1       6.713  -0.200  -0.401  1.00  0.00     0.038 A 
HETATM   32  C14 UNL     1       7.221  -0.342  -1.678  1.00  0.00     0.101 A 
HETATM   33  C15 UNL     1       7.549  -1.586  -2.173  1.00  0.00     0.251 A 
HETATM   34  O3  UNL     1       8.006  -1.694  -3.329  1.00  0.00    -0.268 OA
HETATM   35  N9  UNL     1       7.364  -2.656  -1.386  1.00  0.00    -0.275 N 
HETATM   36  C16 UNL     1       6.867  -2.525  -0.132  1.00  0.00     0.327 A 
ATOM     37  H9  UNL     1       7.601  -3.584  -1.737  1.00  0.00     0.173 HD
HETATM   38  O4  UNL     1       6.724  -3.574   0.543  1.00  0.00    -0.247 OA
HETATM   39  N10 UNL     1       6.544  -1.298   0.354  1.00  0.00    -0.310 N 
ATOM     40  H10 UNL     1       6.170  -1.210   1.299  1.00  0.00     0.170 HD
ENDBRANCH  30  31
ENDBRANCH   8  30
TORSDOF 11
