REMARK  8 active torsions:
REMARK  status: ('A' for Active; 'I' for Inactive)
REMARK    1  A    between atoms: C4_4  and  C5_5 
REMARK    2  A    between atoms: C5_5  and  N1_6 
REMARK       I    between atoms: N1_6  and  C6_8 
REMARK       I    between atoms: C6_8  and  N3_13 
REMARK    3  A    between atoms: N2_9  and  O1_11 
REMARK    4  A    between atoms: N3_13  and  C7_14 
REMARK    5  A    between atoms: N3_13  and  C13_25 
REMARK    6  A    between atoms: C7_14  and  C8_15 
REMARK    7  A    between atoms: C8_15  and  N4_16 
REMARK    8  A    between atoms: N4_16  and  C9_18 
ROOT
HETATM    1  N1  UNL     1      -1.496  -0.684  -0.255  1.00  0.00    -0.221 N 
ATOM      2  H1  UNL     1      -1.184  -1.304  -1.002  1.00  0.00     0.178 HD
HETATM    3  C6  UNL     1      -0.515  -0.143   0.594  1.00  0.00     0.696 C 
HETATM    4  N2  UNL     1      -0.202  -0.896   1.630  1.00  0.00    -0.099 N 
ATOM      5  H2  UNL     1       0.501  -0.572   2.294  1.00  0.00     0.213 HD
HETATM    6  N3  UNL     1       0.168   1.067   0.522  1.00  0.00    -0.207 N 
ENDROOT
BRANCH   6   7
HETATM    7  C7  UNL     1       1.575   1.228   0.543  1.00  0.00     0.186 C 
BRANCH   7   8
HETATM    8  C8  UNL     1       2.455   0.046   0.470  1.00  0.00     0.078 C 
BRANCH   8   9
HETATM    9  N4  UNL     1       2.383  -0.744  -0.691  1.00  0.00    -0.374 N 
ATOM     10  H4  UNL     1       1.708  -0.544  -1.429  1.00  0.00     0.161 HD
BRANCH   9  11
HETATM   11  C9  UNL     1       3.298  -1.841  -0.794  1.00  0.00     0.237 C 
HETATM   12  C10 UNL     1       4.690  -1.355  -0.938  1.00  0.00     0.167 C 
HETATM   13  N5  UNL     1       5.725  -2.193  -0.400  1.00  0.00    -0.415 N 
HETATM   14  C11 UNL     1       5.332  -3.541  -0.111  1.00  0.00     0.140 C 
ATOM     15  H5  UNL     1       6.672  -1.853  -0.235  1.00  0.00     0.153 HD
HETATM   16  C12 UNL     1       3.976  -3.654   0.514  1.00  0.00     0.189 C 
HETATM   17  O2  UNL     1       3.179  -2.561   0.391  1.00  0.00    -0.364 OA
ENDBRANCH   9  11
ENDBRANCH   8   9
ENDBRANCH   7   8
ENDBRANCH   6   7
BRANCH   6  18
HETATM   18  C13 UNL     1      -0.594   2.323   0.435  1.00  0.00     0.102 C 
HETATM   19  C14 UNL     1      -0.908   2.709  -0.966  1.00  0.00     0.026 C 
HETATM   20  C15 UNL     1      -1.759   3.969  -0.962  1.00  0.00     0.002 C 
HETATM   21  C16 UNL     1      -0.931   5.094  -0.319  1.00  0.00     0.000 C 
HETATM   22  C17 UNL     1      -0.733   4.672   1.120  1.00  0.00     0.002 C 
HETATM   23  C18 UNL     1       0.112   3.429   1.173  1.00  0.00     0.026 C 
ENDBRANCH   6  18
BRANCH   1  24
HETATM   24  C5  UNL     1      -2.921  -0.426  -0.148  1.00  0.00     0.165 C 
BRANCH  24  25
HETATM   25  C4  UNL     1      -3.697  -1.264  -1.106  1.00  0.00    -0.005 C 
HETATM   26  C2  UNL     1      -4.606  -2.091  -0.644  1.00  0.00    -0.090 C 
HETATM   27  C1  UNL     1      -5.390  -2.938  -1.572  1.00  0.00     0.042 C 
HETATM   28  C3  UNL     1      -4.884  -2.194   0.821  1.00  0.00     0.042 C 
ENDBRANCH  24  25
ENDBRANCH   1  24
BRANCH   4  29
HETATM   29  O1  UNL     1      -0.796  -2.081   1.821  1.00  0.00    -0.276 OA
ATOM     30  H1  UNL     1      -0.570  -2.624   2.567  1.00  0.00     0.245 HD
ENDBRANCH   4  29
TORSDOF 8
