REMARK  6 active torsions:
REMARK  status: ('A' for Active; 'I' for Inactive)
REMARK    1  A    between atoms: C3_3  and  O1_4 
REMARK    2  A    between atoms: C7_9  and  O2_10 
REMARK    3  A    between atoms: C7_9  and  C8_12 
REMARK    4  A    between atoms: C8_12  and  N1_13 
REMARK    5  A    between atoms: N1_13  and  C9_15 
REMARK    6  A    between atoms: C9_15  and  C10_16 
ROOT
HETATM    1  C1  UNL     1       6.653  -0.753   0.867  1.00  0.00     0.017 C 
HETATM    2  C2  UNL     1       5.438  -0.262   0.847  1.00  0.00    -0.056 C 
HETATM    3  C3  UNL     1       4.843   1.076   1.092  1.00  0.00     0.151 C 
HETATM    4  C4  UNL     1       3.776   0.677   0.096  1.00  0.00     0.027 C 
HETATM    5  C5  UNL     1       2.376   0.967   0.364  1.00  0.00     0.011 C 
HETATM    6  C6  UNL     1       1.460  -0.178   0.699  1.00  0.00     0.044 C 
HETATM    7  C7  UNL     1       1.379  -1.285  -0.252  1.00  0.00     0.089 C 
HETATM    8  C19 UNL     1       2.533  -1.260  -1.294  1.00  0.00     0.044 C 
HETATM    9  C20 UNL     1       3.834  -1.619  -0.610  1.00  0.00     0.013 C 
HETATM   10  C21 UNL     1       4.089  -0.748   0.584  1.00  0.00     0.023 C 
ENDROOT
BRANCH   7  11
HETATM   11  O2  UNL     1       1.647  -2.502   0.432  1.00  0.00    -0.384 OA
ATOM     12  H2  UNL     1       1.594  -3.221  -0.186  1.00  0.00     0.211 HD
ENDBRANCH   7  11
BRANCH   7  13
HETATM   13  C8  UNL     1       0.087  -1.356  -0.992  1.00  0.00     0.097 C 
BRANCH  13  14
HETATM   14  N1  UNL     1      -1.097  -1.636  -0.373  1.00  0.00    -0.379 N 
ATOM     15  H1  UNL     1      -1.472  -2.554  -0.611  1.00  0.00     0.164 HD
BRANCH  14  16
HETATM   16  C9  UNL     1      -1.879  -0.940   0.497  1.00  0.00     0.070 C 
BRANCH  16  17
HETATM   17  C10 UNL     1      -2.666   0.256   0.140  1.00  0.00    -0.004 C 
HETATM   18  C11 UNL     1      -3.444   0.798   1.361  1.00  0.00     0.020 C 
HETATM   19  C12 UNL     1      -4.726   1.379   0.877  1.00  0.00    -0.013 C 
HETATM   20  C13 UNL     1      -5.609   0.252   0.402  1.00  0.00     0.005 C 
HETATM   21  C17 UNL     1      -4.415   2.290  -0.287  1.00  0.00     0.010 C 
HETATM   22  C14 UNL     1      -4.933  -0.381  -0.779  1.00  0.00     0.006 C 
HETATM   23  C15 UNL     1      -3.577   0.124  -1.062  1.00  0.00     0.003 C 
HETATM   24  C16 UNL     1      -3.454   1.615  -1.226  1.00  0.00    -0.008 C 
HETATM   25  C18 UNL     1      -2.070   1.432  -0.559  1.00  0.00     0.020 C 
ENDBRANCH  16  17
ENDBRANCH  14  16
ENDBRANCH  13  14
ENDBRANCH   7  13
BRANCH   3  26
HETATM   26  O1  UNL     1       5.624   2.126   0.634  1.00  0.00    -0.391 OA
ATOM     27  H1  UNL     1       5.243   2.982   0.791  1.00  0.00     0.210 HD
ENDBRANCH   3  26
TORSDOF 6
