REMARK  7 active torsions:
REMARK  status: ('A' for Active; 'I' for Inactive)
REMARK    1  A    between atoms: N1_2  and  C2_4 
REMARK    2  A    between atoms: C3_7  and  N3_8 
REMARK    3  A    between atoms: N5_15  and  C5_16 
REMARK    4  A    between atoms: C5_16  and  C6_17 
REMARK    5  A    between atoms: C6_17  and  C7_18 
REMARK    6  A    between atoms: C7_18  and  S1_19 
REMARK    7  A    between atoms: S1_19  and  C8_20 
ROOT
HETATM    1  C2  UNL     1       3.471  -0.301   0.241  1.00  0.00     0.698 A 
HETATM    2  N2  UNL     1       4.827  -0.225   0.184  1.00  0.00    -0.022 N 
ATOM      3  H2  UNL     1       5.350  -0.856  -0.423  1.00  0.00     0.203 HD
HETATM    4  C3  UNL     1       5.476   0.686   0.932  1.00  0.00     0.694 A 
HETATM    5  N4  UNL     1       4.754   1.500   1.721  1.00  0.00    -0.140 N 
ATOM      6  H4  UNL     1       5.243   2.191   2.290  1.00  0.00     0.189 HD
HETATM    7  C4  UNL     1       3.398   1.438   1.791  1.00  0.00     0.355 A 
HETATM    8  O1  UNL     1       2.740   2.209   2.536  1.00  0.00    -0.245 OA
HETATM    9  N5  UNL     1       2.773   0.521   1.034  1.00  0.00    -0.132 N 
ENDROOT
BRANCH   9  10
HETATM   10  C5  UNL     1       1.333   0.395   1.055  1.00  0.00     0.153 C 
BRANCH  10  11
HETATM   11  C6  UNL     1       0.778   1.303  -0.005  1.00  0.00     0.031 C 
BRANCH  11  12
HETATM   12  C7  UNL     1      -0.717   1.274  -0.097  1.00  0.00     0.081 C 
BRANCH  12  13
HETATM   13  S1  UNL     1      -1.363  -0.368  -0.481  1.00  0.00    -0.128 SA
BRANCH  13  14
HETATM   14  C8  UNL     1      -3.141  -0.308  -0.570  1.00  0.00     0.024 A 
HETATM   15  C9  UNL     1      -3.953   0.792  -0.385  1.00  0.00     0.045 A 
HETATM   16  C10 UNL     1      -5.261   0.402  -0.543  1.00  0.00     0.006 A 
HETATM   17  C11 UNL     1      -6.456   1.286  -0.425  1.00  0.00     0.068 C 
HETATM   18  N6  UNL     1      -5.247  -0.926  -0.822  1.00  0.00    -0.362 N 
HETATM   19  C12 UNL     1      -3.978  -1.381  -0.845  1.00  0.00     0.022 A 
ATOM     20  H6  UNL     1      -6.076  -1.497  -0.990  1.00  0.00     0.165 HD
HETATM   21  C13 UNL     1      -3.587  -2.786  -1.118  1.00  0.00     0.069 C 
ENDBRANCH  13  14
ENDBRANCH  12  13
ENDBRANCH  11  12
ENDBRANCH  10  11
ENDBRANCH   9  10
BRANCH   1  22
HETATM   22  N1  UNL     1       2.817  -1.159  -0.460  1.00  0.00    -0.230 N 
HETATM   23  C1  UNL     1       3.550  -2.049  -1.318  1.00  0.00     0.165 C 
ATOM     24  H1  UNL     1       1.799  -1.207  -0.408  1.00  0.00     0.177 HD
ENDBRANCH   1  22
BRANCH   4  25
HETATM   25  N3  UNL     1       6.783   0.771   0.888  1.00  0.00    -0.234 N 
ATOM     26  H32 UNL     1       7.331   0.153   0.289  1.00  0.00     0.174 HD
ATOM     27  H31 UNL     1       7.275   1.462   1.455  1.00  0.00     0.174 HD
ENDBRANCH   4  25
TORSDOF 7
