REMARK  7 active torsions:
REMARK  status: ('A' for Active; 'I' for Inactive)
REMARK    1  A    between atoms: C1_2  and  C2_4 
REMARK    2  A    between atoms: C7_9  and  C8_10 
REMARK    3  A    between atoms: C8_10  and  C9_11 
REMARK    4  A    between atoms: C9_11  and  C10_12 
REMARK    5  A    between atoms: N2_15  and  C11_16 
REMARK    6  A    between atoms: C15_20  and  C16_21 
REMARK    7  A    between atoms: C20_30  and  O3_31 
ROOT
HETATM    1  C10 UNL     1       0.121  -0.103  -0.832  1.00  0.00     0.054 A 
HETATM    2  N1  UNL     1       0.890   0.941  -0.535  1.00  0.00    -0.295 N 
ATOM      3  H1  UNL     1       0.553   1.899  -0.442  1.00  0.00     0.187 HD
HETATM    4  N2  UNL     1       2.174   0.563  -0.374  1.00  0.00    -0.258 N 
HETATM    5  C18 UNL     1       2.247  -0.758  -0.571  1.00  0.00     0.063 A 
HETATM    6  C19 UNL     1       0.950  -1.181  -0.860  1.00  0.00     0.079 A 
HETATM    7  N3  UNL     1       0.514  -2.484  -1.139  1.00  0.00    -0.361 N 
ATOM      8  H3  UNL     1      -0.476  -2.552  -1.376  1.00  0.00     0.162 HD
HETATM    9  C20 UNL     1       1.210  -3.742  -1.151  1.00  0.00     0.218 C 
HETATM   10  C21 UNL     1       2.569  -3.439  -1.806  1.00  0.00     0.054 C 
HETATM   11  C22 UNL     1       3.454  -2.955  -0.717  1.00  0.00     0.010 C 
HETATM   12  C23 UNL     1       3.501  -1.493  -0.475  1.00  0.00     0.062 C 
ENDROOT
BRANCH   1  13
HETATM   13  C9  UNL     1      -1.353   0.034  -1.034  1.00  0.00     0.061 C 
BRANCH  13  14
HETATM   14  C8  UNL     1      -1.994  -0.374   0.268  1.00  0.00     0.011 C 
BRANCH  14  15
HETATM   15  C7  UNL     1      -3.500  -0.242   0.269  1.00  0.00     0.000 C 
HETATM   16  C2  UNL     1      -3.890   1.206   0.017  1.00  0.00     0.091 C 
HETATM   17  C3  UNL     1      -4.875   1.681   1.073  1.00  0.00     0.015 C 
HETATM   18  C4  UNL     1      -5.975   0.716   1.354  1.00  0.00     0.001 C 
HETATM   19  C5  UNL     1      -5.479  -0.693   1.592  1.00  0.00     0.000 C 
HETATM   20  C6  UNL     1      -3.961  -0.633   1.654  1.00  0.00     0.005 C 
BRANCH  16  21
HETATM   21  C1  UNL     1      -4.430   1.429  -1.341  1.00  0.00     0.177 C 
HETATM   22  O1  UNL     1      -3.967   2.283  -2.131  1.00  0.00    -0.648 OA
HETATM   23  O2  UNL     1      -5.512   0.686  -1.835  1.00  0.00    -0.648 OA
ENDBRANCH  16  21
ENDBRANCH  14  15
ENDBRANCH  13  14
ENDBRANCH   1  13
BRANCH   4  24
HETATM   24  C11 UNL     1       3.132   1.562  -0.041  1.00  0.00     0.057 A 
HETATM   25  C12 UNL     1       3.177   2.721  -0.837  1.00  0.00     0.031 A 
HETATM   26  C13 UNL     1       4.049   3.746  -0.535  1.00  0.00     0.003 A 
HETATM   27  C14 UNL     1       4.900   3.676   0.548  1.00  0.00     0.016 A 
HETATM   28  C15 UNL     1       4.864   2.555   1.327  1.00  0.00     0.050 A 
HETATM   29  C17 UNL     1       3.983   1.514   1.024  1.00  0.00     0.047 A 
BRANCH  28  30
HETATM   30  C16 UNL     1       5.773   2.465   2.503  1.00  0.00     0.417 C 
HETATM   31  F1  UNL     1       5.736   1.220   3.087  1.00  0.00    -0.166 F 
HETATM   32  F2  UNL     1       7.023   2.832   2.091  1.00  0.00    -0.166 F 
HETATM   33  F3  UNL     1       5.283   3.383   3.424  1.00  0.00    -0.166 F 
ENDBRANCH  28  30
ENDBRANCH   4  24
BRANCH   9  34
HETATM   34  O3  UNL     1       0.558  -4.751  -1.799  1.00  0.00    -0.377 OA
ATOM     35  H3  UNL     1       1.018  -5.582  -1.807  1.00  0.00     0.212 HD
ENDBRANCH   9  34
TORSDOF 7
