REMARK  7 active torsions:
REMARK  status: ('A' for Active; 'I' for Inactive)
REMARK    1  A    between atoms: C5_9  and  N3_10 
REMARK    2  A    between atoms: C6_15  and  N5_16 
REMARK    3  A    between atoms: N6_21  and  C9_22 
REMARK    4  A    between atoms: C9_22  and  C10_23 
REMARK    5  A    between atoms: C10_23  and  N7_24 
REMARK    6  A    between atoms: N7_24  and  C11_25 
REMARK    7  A    between atoms: N7_24  and  C14_28 
ROOT
HETATM    1  C1  UNL     1       1.672   0.021  -2.224  1.00  0.00     0.034 C 
HETATM    2  C2  UNL     1       1.211  -0.869  -1.062  1.00  0.00     0.097 C 
HETATM    3  C3  UNL     1       2.179  -2.061  -0.895  1.00  0.00     0.146 C 
HETATM    4  N1  UNL     1       3.522  -1.492  -0.912  1.00  0.00    -0.373 N 
ATOM      5  H1  UNL     1       4.201  -1.861  -1.578  1.00  0.00     0.161 HD
HETATM    6  C4  UNL     1       3.926  -0.442  -0.036  1.00  0.00     0.132 A 
HETATM    7  N2  UNL     1       5.243  -0.125  -0.216  1.00  0.00    -0.176 N 
ATOM      8  H2  UNL     1       5.804  -0.619  -0.910  1.00  0.00     0.186 HD
HETATM    9  C5  UNL     1       5.788   0.846   0.535  1.00  0.00     0.679 A 
HETATM   10  N4  UNL     1       5.060   1.511   1.462  1.00  0.00    -0.176 N 
ATOM     11  H4  UNL     1       5.502   2.243   2.018  1.00  0.00     0.186 HD
HETATM   12  C6  UNL     1       3.757   1.220   1.662  1.00  0.00     0.130 A 
HETATM   13  C7  UNL     1       3.171   0.235   0.911  1.00  0.00     0.068 A 
HETATM   14  C8  UNL     1       1.750  -0.016   1.181  1.00  0.00     0.105 C 
HETATM   15  N6  UNL     1       0.904  -0.188   0.103  1.00  0.00    -0.381 N 
ENDROOT
BRANCH  15  16
HETATM   16  C9  UNL     1      -0.348   0.529   0.059  1.00  0.00     0.153 C 
BRANCH  16  17
HETATM   17  C10 UNL     1      -1.467  -0.416   0.074  1.00  0.00     0.293 C 
BRANCH  17  18
HETATM   18  N7  UNL     1      -2.824  -0.006  -0.037  1.00  0.00     0.097 N 
BRANCH  18  19
HETATM   19  C11 UNL     1      -3.583  -1.202  -0.351  1.00  0.00     0.215 C 
HETATM   20  C12 UNL     1      -4.522  -0.990  -1.507  1.00  0.00     0.042 C 
HETATM   21  C13 UNL     1      -4.140  -1.952   0.820  1.00  0.00     0.042 C 
ENDBRANCH  18  19
BRANCH  18  22
HETATM   22  C14 UNL     1      -3.335   0.857   0.879  1.00  0.00     0.215 C 
HETATM   23  C15 UNL     1      -2.713   2.222   0.863  1.00  0.00     0.042 C 
HETATM   24  C16 UNL     1      -4.828   1.124   0.829  1.00  0.00     0.042 C 
ENDBRANCH  18  22
ENDBRANCH  17  18
ENDBRANCH  16  17
ENDBRANCH  15  16
BRANCH  12  25
HETATM   25  N5  UNL     1       3.042   1.827   2.530  1.00  0.00    -0.384 N 
ATOM     26  H52 UNL     1       3.478   2.560   3.089  1.00  0.00     0.157 HD
ATOM     27  H51 UNL     1       2.058   1.607   2.681  1.00  0.00     0.157 HD
ENDBRANCH  12  25
BRANCH   9  28
HETATM   28  N3  UNL     1       7.024   1.190   0.401  1.00  0.00    -0.234 N 
ATOM     29  H32 UNL     1       7.573   0.689  -0.298  1.00  0.00     0.174 HD
ATOM     30  H31 UNL     1       7.438   1.927   0.971  1.00  0.00     0.174 HD
ENDBRANCH   9  28
TORSDOF 7
