REMARK  10 active torsions:
REMARK  status: ('A' for Active; 'I' for Inactive)
REMARK    1  A    between atoms: C2_2  and  N1_5 
REMARK    2  A    between atoms: N1_5  and  C5_7 
REMARK    3  A    between atoms: C5_7  and  O1_8 
REMARK    4  A    between atoms: C5_7  and  C6_10 
REMARK    5  A    between atoms: C6_10  and  C7_11 
REMARK    6  A    between atoms: C6_10  and  C8_16 
REMARK    7  A    between atoms: C6_10  and  N5_23 
REMARK    8  A    between atoms: C7_11  and  N2_12 
REMARK    9  A    between atoms: C8_16  and  N3_17 
REMARK   10  A    between atoms: N5_23  and  N6_24 
ROOT
HETATM    1  C6  UNL     1       1.070  -0.633  -0.141  1.00  0.00     0.134 C 
ENDROOT
BRANCH   1   2
HETATM    2  C5  UNL     1      -0.059   0.370  -0.023  1.00  0.00     0.243 C 
BRANCH   2   3
HETATM    3  N1  UNL     1      -1.219  -0.279   0.446  1.00  0.00    -0.387 N 
ATOM      4  H1  UNL     1      -1.132  -0.989   1.173  1.00  0.00     0.156 HD
BRANCH   3   5
HETATM    5  C2  UNL     1      -2.495   0.029  -0.064  1.00  0.00     0.017 C 
HETATM    6  C1  UNL     1      -2.798  -0.233  -1.493  1.00  0.00     0.037 C 
HETATM    7  C3  UNL     1      -2.953   1.433   0.336  1.00  0.00     0.037 C 
HETATM    8  C4  UNL     1      -3.472  -0.894   0.721  1.00  0.00     0.037 C 
ENDBRANCH   3   5
ENDBRANCH   2   3
BRANCH   2   9
HETATM    9  O1  UNL     1      -0.179   0.953  -1.286  1.00  0.00    -0.375 OA
ATOM     10  H1  UNL     1       0.603   1.390  -1.602  1.00  0.00     0.212 HD
ENDBRANCH   2   9
ENDBRANCH   1   2
BRANCH   1  11
HETATM   11  C7  UNL     1       0.605  -1.660  -1.186  1.00  0.00     0.264 C 
BRANCH  11  12
HETATM   12  N2  UNL     1       1.583  -2.689  -1.420  1.00  0.00    -0.077 N 
ATOM     13  H23 UNL     1       2.485  -2.287  -1.676  1.00  0.00     0.274 HD
ATOM     14  H22 UNL     1       1.850  -3.147  -0.549  1.00  0.00     0.274 HD
ATOM     15  H21 UNL     1       1.274  -3.370  -2.113  1.00  0.00     0.274 HD
ENDBRANCH  11  12
ENDBRANCH   1  11
BRANCH   1  16
HETATM   16  C8  UNL     1       2.300   0.006  -0.721  1.00  0.00     0.183 C 
BRANCH  16  17
HETATM   17  N3  UNL     1       2.823   1.096   0.054  1.00  0.00    -0.301 N 
HETATM   18  C9  UNL     1       2.547   2.395  -0.045  1.00  0.00     0.111 A 
HETATM   19  C10 UNL     1       3.256   3.130   0.900  1.00  0.00     0.037 A 
HETATM   20  C11 UNL     1       3.979   2.169   1.575  1.00  0.00     0.108 A 
HETATM   21  N4  UNL     1       3.708   0.986   1.059  1.00  0.00    -0.310 N 
ATOM     22  H4  UNL     1       4.115   0.107   1.379  1.00  0.00     0.186 HD
ENDBRANCH  16  17
ENDBRANCH   1  16
BRANCH   1  23
HETATM   23  N5  UNL     1       1.359  -1.323   1.089  1.00  0.00    -0.130 NA
BRANCH  23  24
HETATM   24  N6  UNL     1       0.325  -2.135   1.508  1.00  0.00    -0.347 N 
ATOM     25  H62 UNL     1      -0.548  -2.226   0.988  1.00  0.00     0.172 HD
ATOM     26  H61 UNL     1       0.530  -2.624   2.379  1.00  0.00     0.172 HD
ENDBRANCH  23  24
ENDBRANCH   1  23
TORSDOF 10
