REMARK  8 active torsions:
REMARK  status: ('A' for Active; 'I' for Inactive)
REMARK    1  A    between atoms: C5_5  and  C6_6 
REMARK    2  A    between atoms: C6_6  and  O1_9 
REMARK    3  A    between atoms: C14_16  and  C15_17 
REMARK    4  A    between atoms: C15_17  and  C16_19 
REMARK    5  A    between atoms: C16_19  and  N1_20 
REMARK    6  A    between atoms: N1_20  and  C17_22 
REMARK    7  A    between atoms: C17_22  and  C18_23 
REMARK    8  A    between atoms: C18_23  and  C19_24 
ROOT
HETATM    1  C1  UNL     1      -0.423   1.766  -2.270  1.00  0.00     0.019 C 
HETATM    2  C2  UNL     1      -1.312   1.474  -1.372  1.00  0.00    -0.064 C 
HETATM    3  C3  UNL     1      -2.742   1.722  -1.701  1.00  0.00     0.038 C 
HETATM    4  C4  UNL     1      -3.571   1.648  -0.469  1.00  0.00     0.013 C 
HETATM    5  C5  UNL     1      -3.347   0.412   0.363  1.00  0.00     0.032 C 
HETATM    6  C9  UNL     1      -1.940   0.059   0.648  1.00  0.00    -0.013 C 
HETATM    7  C10 UNL     1      -1.660  -1.424   0.605  1.00  0.00     0.021 C 
HETATM    8  C11 UNL     1      -1.675   0.358   2.156  1.00  0.00     0.014 C 
HETATM    9  C12 UNL     1      -0.390   1.013   2.427  1.00  0.00     0.002 C 
HETATM   10  C13 UNL     1       0.774   0.562   1.652  1.00  0.00     0.017 C 
HETATM   11  C14 UNL     1       0.482   0.727   0.149  1.00  0.00     0.087 C 
HETATM   12  C21 UNL     1      -0.961   0.942  -0.056  1.00  0.00    -0.054 C 
ENDROOT
BRANCH  11  13
HETATM   13  C15 UNL     1       1.221  -0.309  -0.558  1.00  0.00     0.152 C 
HETATM   14  O2  UNL     1       0.937  -1.125  -1.368  1.00  0.00    -0.295 OA
BRANCH  13  15
HETATM   15  C16 UNL     1       2.712  -0.355  -0.162  1.00  0.00     0.197 C 
BRANCH  15  16
HETATM   16  N1  UNL     1       3.179  -1.676  -0.168  1.00  0.00    -0.395 N 
ATOM     17  H1  UNL     1       2.635  -2.424  -0.597  1.00  0.00     0.159 HD
BRANCH  16  18
HETATM   18  C17 UNL     1       4.415  -1.936   0.433  1.00  0.00     0.056 C 
BRANCH  18  19
HETATM   19  C18 UNL     1       5.704  -1.517  -0.115  1.00  0.00     0.044 C 
BRANCH  19  20
HETATM   20  C19 UNL     1       5.987  -0.064  -0.306  1.00  0.00     0.001 C 
HETATM   21  C20 UNL     1       7.429   0.049  -0.827  1.00  0.00     0.005 C 
ENDBRANCH  19  20
ENDBRANCH  18  19
ENDBRANCH  16  18
ENDBRANCH  15  16
ENDBRANCH  13  15
ENDBRANCH  11  13
BRANCH   5  22
HETATM   22  C6  UNL     1      -4.330  -0.622  -0.067  1.00  0.00     0.055 C 
HETATM   23  C7  UNL     1      -5.732  -0.001   0.189  1.00  0.00     0.045 C 
HETATM   24  C8  UNL     1      -4.361  -0.955  -1.520  1.00  0.00     0.045 C 
BRANCH  22  25
HETATM   25  O1  UNL     1      -4.359  -1.790   0.647  1.00  0.00    -0.390 OA
ATOM     26  H1  UNL     1      -4.986  -2.449   0.373  1.00  0.00     0.210 HD
ENDBRANCH  22  25
ENDBRANCH   5  22
TORSDOF 8
