REMARK  15 active torsions:
REMARK  status: ('A' for Active; 'I' for Inactive)
REMARK    1  A    between atoms: C2_2  and  O2_4 
REMARK    2  A    between atoms: O2_4  and  C3_5 
REMARK    3  A    between atoms: C3_5  and  C4_6 
REMARK    4  A    between atoms: C5_8  and  C6_9 
REMARK    5  A    between atoms: C6_9  and  C7_10 
REMARK    6  A    between atoms: C8_11  and  C10_13 
REMARK    7  A    between atoms: C10_13  and  C12_15 
REMARK    8  A    between atoms: C12_15  and  O4_16 
REMARK    9  A    between atoms: C12_15  and  C13_18 
REMARK   10  A    between atoms: C14_21  and  O7_22 
REMARK   11  A    between atoms: O7_22  and  C15_23 
REMARK   12  A    between atoms: C17_26  and  O9_27 
REMARK   13  A    between atoms: O9_27  and  C18_28 
REMARK   14  A    between atoms: C20_31  and  O11_32 
REMARK   15  A    between atoms: O11_32  and  C21_33 
ROOT
HETATM    1  C4  UNL     1      -1.086   0.949   0.417  1.00  0.00     0.178 C 
HETATM    2  O3  UNL     1       0.086   0.326  -0.088  1.00  0.00    -0.373 OA
HETATM    3  C5  UNL     1       0.178  -1.004   0.208  1.00  0.00     0.158 C 
HETATM    4  C14 UNL     1      -0.863  -1.712  -0.649  1.00  0.00     0.193 C 
HETATM    5  C17 UNL     1      -2.223  -1.078  -0.525  1.00  0.00     0.196 C 
HETATM    6  C20 UNL     1      -2.219   0.048   0.497  1.00  0.00     0.195 C 
ENDROOT
BRANCH   3   7
HETATM    7  C6  UNL     1       1.529  -1.486  -0.334  1.00  0.00     0.062 C 
BRANCH   7   8
HETATM    8  C7  UNL     1       2.626  -0.718   0.321  1.00  0.00    -0.021 C 
HETATM    9  C8  UNL     1       3.482   0.024  -0.329  1.00  0.00    -0.081 C 
HETATM   10  C9  UNL     1       3.320   0.081  -1.830  1.00  0.00     0.043 C 
BRANCH   9  11
HETATM   11  C10 UNL     1       4.585   0.814   0.245  1.00  0.00     0.049 C 
HETATM   12  C11 UNL     1       4.543   2.265  -0.189  1.00  0.00     0.018 C 
BRANCH  11  13
HETATM   13  C12 UNL     1       4.710   0.755   1.728  1.00  0.00     0.226 C 
BRANCH  13  14
HETATM   14  O4  UNL     1       3.576   1.228   2.381  1.00  0.00    -0.384 OA
ATOM     15  H4  UNL     1       3.656   1.190   3.327  1.00  0.00     0.210 HD
ENDBRANCH  13  14
BRANCH  13  16
HETATM   16  C13 UNL     1       5.916   1.525   2.164  1.00  0.00     0.203 C 
HETATM   17  O5  UNL     1       7.040   1.250   1.689  1.00  0.00    -0.646 OA
HETATM   18  O6  UNL     1       5.801   2.540   3.090  1.00  0.00    -0.646 OA
ENDBRANCH  13  16
ENDBRANCH  11  13
ENDBRANCH   9  11
ENDBRANCH   7   8
ENDBRANCH   3   7
BRANCH   4  19
HETATM   19  O7  UNL     1      -0.952  -3.084  -0.312  1.00  0.00    -0.311 OA
BRANCH  19  20
HETATM   20  C15 UNL     1      -0.623  -4.046  -1.253  1.00  0.00     0.255 C 
HETATM   21  C16 UNL     1      -0.692  -5.504  -0.971  1.00  0.00     0.126 C 
HETATM   22  O8  UNL     1      -0.246  -3.700  -2.403  1.00  0.00    -0.266 OA
ENDBRANCH  19  20
ENDBRANCH   4  19
BRANCH   1  23
HETATM   23  C3  UNL     1      -1.199   2.198  -0.380  1.00  0.00     0.213 C 
BRANCH  23  24
HETATM   24  O2  UNL     1      -2.152   3.116  -0.247  1.00  0.00    -0.319 OA
BRANCH  24  25
HETATM   25  C2  UNL     1      -3.431   3.229  -0.566  1.00  0.00     0.254 C 
HETATM   26  C1  UNL     1      -4.290   4.434  -0.240  1.00  0.00     0.126 C 
HETATM   27  O1  UNL     1      -4.025   2.324  -1.172  1.00  0.00    -0.266 OA
ENDBRANCH  24  25
ENDBRANCH  23  24
ENDBRANCH   1  23
BRANCH   5  28
HETATM   28  O9  UNL     1      -2.579  -0.620  -1.805  1.00  0.00    -0.311 OA
BRANCH  28  29
HETATM   29  C18 UNL     1      -3.686  -1.096  -2.482  1.00  0.00     0.255 C 
HETATM   30  C19 UNL     1      -3.999  -0.576  -3.809  1.00  0.00     0.126 C 
HETATM   31  O10 UNL     1      -4.370  -1.967  -1.896  1.00  0.00    -0.266 OA
ENDBRANCH  28  29
ENDBRANCH   5  28
BRANCH   6  32
HETATM   32  O11 UNL     1      -2.206  -0.573   1.829  1.00  0.00    -0.311 OA
BRANCH  32  33
HETATM   33  C21 UNL     1      -3.239  -0.479   2.706  1.00  0.00     0.255 C 
HETATM   34  C22 UNL     1      -3.204  -1.115   4.049  1.00  0.00     0.126 C 
HETATM   35  O12 UNL     1      -4.259   0.157   2.397  1.00  0.00    -0.266 OA
ENDBRANCH  32  33
ENDBRANCH   6  32
TORSDOF 15
