REMARK  3 active torsions:
REMARK  status: ('A' for Active; 'I' for Inactive)
REMARK    1  A    between atoms: O1_1  and  C1_3 
REMARK    2  A    between atoms: C1_3  and  C2_4 
REMARK    3  A    between atoms: C2_4  and  C3_5 
ROOT
HETATM    1  C3  UNL     1       1.237  -0.243  -0.295  1.00  0.00    -0.092 C 
HETATM    2  C4  UNL     1       2.403  -0.448  -0.007  1.00  0.00    -0.024 C 
HETATM    3 BR1  UNL     1       4.216  -0.735   0.433  1.00  0.00     0.010 Br
ENDROOT
BRANCH   1   4
HETATM    4  C2  UNL     1      -0.146   0.018  -0.627  1.00  0.00     0.120 C 
BRANCH   4   5
HETATM    5  C1  UNL     1      -0.906   0.216   0.662  1.00  0.00     0.176 C 
BRANCH   5   6
HETATM    6  O1  UNL     1      -2.234   0.465   0.319  1.00  0.00    -0.400 OA
ATOM      7  H1  UNL     1      -2.712   0.590   1.130  1.00  0.00     0.209 HD
ENDBRANCH   5   6
ENDBRANCH   4   5
ENDBRANCH   1   4
TORSDOF 3
