REMARK  8 active torsions:
REMARK  status: ('A' for Active; 'I' for Inactive)
REMARK    1  A    between atoms: C2_2  and  C3_3 
REMARK    2  A    between atoms: C3_3  and  O1_4 
REMARK    3  A    between atoms: O1_4  and  C4_5 
REMARK    4  A    between atoms: C14_15  and  C16_17 
REMARK       I    between atoms: C16_17  and  N1_19 
REMARK    5  A    between atoms: N1_19  and  C17_21 
REMARK    6  A    between atoms: C17_21  and  C18_22 
REMARK    7  A    between atoms: C18_22  and  N2_23 
REMARK    8  A    between atoms: C24_32  and  O3_33 
ROOT
HETATM    1  C4  UNL     1      -5.757   1.289   0.236  1.00  0.00     0.130 C 
HETATM    2  C5  UNL     1      -4.688   1.105  -0.830  1.00  0.00     0.043 C 
HETATM    3  C6  UNL     1      -3.768   0.105  -0.210  1.00  0.00    -0.030 C 
HETATM    4  C7  UNL     1      -4.386  -1.266  -0.549  1.00  0.00     0.016 C 
HETATM    5  C8  UNL     1      -3.839   0.212   1.266  1.00  0.00     0.005 C 
HETATM    6  C9  UNL     1      -2.697   0.878   1.949  1.00  0.00     0.007 C 
HETATM    7  C10 UNL     1      -1.348   0.498   1.418  1.00  0.00     0.006 C 
HETATM    8  C11 UNL     1      -1.437  -0.457   0.216  1.00  0.00    -0.001 C 
HETATM    9  C12 UNL     1      -0.131  -0.916  -0.251  1.00  0.00    -0.002 C 
HETATM   10  C13 UNL     1       1.078  -0.247   0.379  1.00  0.00     0.024 C 
HETATM   11  C14 UNL     1       2.274  -1.160   0.103  1.00  0.00     0.040 C 
HETATM   12  C15 UNL     1       2.041  -2.412   0.954  1.00  0.00     0.025 C 
HETATM   13  C23 UNL     1       2.478  -1.468  -1.325  1.00  0.00     0.051 C 
HETATM   14  C24 UNL     1       1.234  -1.763  -2.116  1.00  0.00     0.123 C 
HETATM   15  C25 UNL     1       0.119  -0.797  -1.737  1.00  0.00     0.019 C 
HETATM   16  C26 UNL     1      -1.066  -1.090  -2.568  1.00  0.00     0.008 C 
HETATM   17  C27 UNL     1      -2.337  -0.438  -2.144  1.00  0.00     0.011 C 
HETATM   18  C28 UNL     1      -2.345   0.182  -0.784  1.00  0.00    -0.032 C 
HETATM   19  C29 UNL     1      -1.901   1.618  -0.954  1.00  0.00     0.016 C 
HETATM   20  C30 UNL     1      -5.135   0.928   1.546  1.00  0.00    -0.017 C 
HETATM   21  C31 UNL     1      -4.943   2.210   2.333  1.00  0.00     0.018 C 
HETATM   22  C32 UNL     1      -6.100   0.075   2.381  1.00  0.00     0.018 C 
ENDROOT
BRANCH  11  23
HETATM   23  C16 UNL     1       3.528  -0.546   0.632  1.00  0.00     0.226 C 
HETATM   24  O2  UNL     1       3.475   0.566   1.205  1.00  0.00    -0.273 OA
HETATM   25  N1  UNL     1       4.731  -1.266   0.455  1.00  0.00    -0.359 N 
ATOM     26  H1  UNL     1       4.686  -2.167  -0.021  1.00  0.00     0.162 HD
BRANCH  25  27
HETATM   27  C17 UNL     1       6.025  -0.799   0.911  1.00  0.00     0.152 C 
BRANCH  27  28
HETATM   28  C18 UNL     1       6.443   0.514   0.287  1.00  0.00     0.292 C 
BRANCH  28  29
HETATM   29  N2  UNL     1       7.763   0.815   0.864  1.00  0.00     0.093 N 
HETATM   30  C19 UNL     1       8.240   2.074   0.310  1.00  0.00     0.300 C 
HETATM   31  C20 UNL     1       8.899   1.829  -1.025  1.00  0.00     0.262 C 
HETATM   32  N3  UNL     1      10.172   1.165  -0.814  1.00  0.00    -0.072 N 
HETATM   33  C21 UNL     1      10.103   0.362   0.395  1.00  0.00     0.262 C 
ATOM     34  H32 UNL     1      10.461   0.618  -1.625  1.00  0.00     0.277 HD
ATOM     35  H31 UNL     1      10.952   1.822  -0.797  1.00  0.00     0.277 HD
HETATM   36  C22 UNL     1       8.710  -0.219   0.572  1.00  0.00     0.300 C 
ENDBRANCH  28  29
ENDBRANCH  27  28
ENDBRANCH  25  27
ENDBRANCH  11  23
BRANCH  14  37
HETATM   37  O3  UNL     1       0.860  -3.073  -2.128  1.00  0.00    -0.395 OA
ATOM     38  H3  UNL     1       0.074  -3.259  -2.628  1.00  0.00     0.210 HD
ENDBRANCH  14  37
BRANCH   1  39
HETATM   39  O1  UNL     1      -6.807   0.442  -0.058  1.00  0.00    -0.381 OA
BRANCH  39  40
HETATM   40  C3  UNL     1      -7.971   1.136  -0.346  1.00  0.00     0.194 C 
BRANCH  40  41
HETATM   41  C2  UNL     1      -9.053   0.171  -0.649  1.00  0.00    -0.011 C 
HETATM   42  C1  UNL     1      -8.815  -1.150  -0.616  1.00  0.00     0.009 C 
ENDBRANCH  40  41
ENDBRANCH  39  40
ENDBRANCH   1  39
TORSDOF 8
