REMARK  7 active torsions:
REMARK  status: ('A' for Active; 'I' for Inactive)
REMARK    1  A    between atoms: C2_2  and  C3_3 
REMARK    2  A    between atoms: C3_3  and  C4_4 
REMARK    3  A    between atoms: C4_4  and  N1_5 
REMARK    4  A    between atoms: N1_5  and  C5_7 
REMARK    5  A    between atoms: C5_7  and  C6_8 
REMARK    6  A    between atoms: C6_8  and  C7_9 
REMARK    7  A    between atoms: C7_9  and  C8_10 
ROOT
HETATM    1  C5  UNL     1       1.339   0.734   0.721  1.00  0.00     0.113 C 
ENDROOT
BRANCH   1   2
HETATM    2  N1  UNL     1       2.425   0.937  -0.173  1.00  0.00    -0.421 N 
ATOM      3  H1  UNL     1       2.909   1.831  -0.255  1.00  0.00     0.153 HD
BRANCH   2   4
HETATM    4  C4  UNL     1       2.786  -0.202  -0.945  1.00  0.00     0.117 C 
BRANCH   4   5
HETATM    5  C3  UNL     1       3.390  -1.342  -0.201  1.00  0.00     0.045 C 
BRANCH   5   6
HETATM    6  C2  UNL     1       4.649  -1.074   0.495  1.00  0.00    -0.035 C 
HETATM    7  C1  UNL     1       5.274   0.075   0.445  1.00  0.00     0.007 C 
ENDBRANCH   5   6
ENDBRANCH   4   5
ENDBRANCH   2   4
ENDBRANCH   1   2
BRANCH   1   8
HETATM    8  C6  UNL     1      -0.003   0.519   0.059  1.00  0.00     0.020 C 
BRANCH   8   9
HETATM    9  C7  UNL     1      -1.031   0.333   1.148  1.00  0.00     0.006 C 
BRANCH   9  10
HETATM   10  C8  UNL     1      -2.407   0.109   0.646  1.00  0.00    -0.014 C 
HETATM   11  C9  UNL     1      -3.007   1.208  -0.210  1.00  0.00     0.009 C 
HETATM   12  C10 UNL     1      -3.754   0.078  -0.936  1.00  0.00    -0.018 C 
HETATM   13  C11 UNL     1      -4.960  -0.309  -0.125  1.00  0.00     0.010 C 
HETATM   14  C12 UNL     1      -2.564  -0.801  -0.557  1.00  0.00     0.009 C 
ENDBRANCH   9  10
ENDBRANCH   8   9
ENDBRANCH   1   8
TORSDOF 7
