REMARK  7 active torsions:
REMARK  status: ('A' for Active; 'I' for Inactive)
REMARK    1  A    between atoms: C2_2  and  C3_3 
REMARK    2  A    between atoms: C3_3  and  C4_4 
REMARK    3  A    between atoms: C4_4  and  N1_5 
REMARK    4  A    between atoms: N1_5  and  C5_8 
REMARK    5  A    between atoms: C5_8  and  C6_9 
REMARK    6  A    between atoms: C6_9  and  C7_10 
REMARK    7  A    between atoms: C7_10  and  C8_11 
ROOT
HETATM    1  C5  UNL     1       1.372   0.219  -0.784  1.00  0.00     0.232 C 
ENDROOT
BRANCH   1   2
HETATM    2  N1  UNL     1       2.023   0.374   0.475  1.00  0.00    -0.075 N 
ATOM      3  H12 UNL     1       1.383   0.740   1.180  1.00  0.00     0.277 HD
ATOM      4  H11 UNL     1       2.694   1.142   0.452  1.00  0.00     0.277 HD
BRANCH   2   5
HETATM    5  C4  UNL     1       2.656  -0.872   0.927  1.00  0.00     0.236 C 
BRANCH   5   6
HETATM    6  C3  UNL     1       3.984  -0.937   0.094  1.00  0.00     0.054 C 
BRANCH   6   7
HETATM    7  C2  UNL     1       4.744   0.279   0.583  1.00  0.00    -0.035 C 
HETATM    8  C1  UNL     1       5.028   1.326  -0.102  1.00  0.00     0.007 C 
ENDBRANCH   6   7
ENDBRANCH   5   6
ENDBRANCH   2   5
ENDBRANCH   1   2
BRANCH   1   9
HETATM    9  C6  UNL     1       0.032  -0.520  -0.596  1.00  0.00     0.028 C 
BRANCH   9  10
HETATM   10  C7  UNL     1      -0.898   0.410   0.196  1.00  0.00     0.006 C 
BRANCH  10  11
HETATM   11  C8  UNL     1      -2.206  -0.273   0.422  1.00  0.00    -0.014 C 
HETATM   12  C9  UNL     1      -3.172   0.656   1.185  1.00  0.00     0.004 C 
HETATM   13  C10 UNL     1      -4.507   0.259   0.623  1.00  0.00     0.000 C 
HETATM   14  C11 UNL     1      -4.223   0.157  -0.877  1.00  0.00     0.000 C 
HETATM   15  C12 UNL     1      -2.919  -0.644  -0.858  1.00  0.00     0.004 C 
ENDBRANCH  10  11
ENDBRANCH   9  10
ENDBRANCH   1   9
TORSDOF 7
