REMARK  5 active torsions:
REMARK  status: ('A' for Active; 'I' for Inactive)
REMARK    1  A    between atoms: C2_2  and  C3_3 
REMARK    2  A    between atoms: C4_4  and  C5_5 
REMARK    3  A    between atoms: C5_5  and  N1_6 
REMARK    4  A    between atoms: N1_6  and  C6_9 
REMARK    5  A    between atoms: C6_9  and  C7_10 
ROOT
HETATM    1  N1  UNL     1       0.818  -0.248   0.064  1.00  0.00    -0.072 N 
ATOM      2  H11 UNL     1       0.739  -0.964  -0.658  1.00  0.00     0.277 HD
ATOM      3  H12 UNL     1       0.790  -0.849   0.887  1.00  0.00     0.277 HD
ENDROOT
BRANCH   1   4
HETATM    4  C5  UNL     1      -0.309   0.659   0.034  1.00  0.00     0.259 C 
BRANCH   4   5
HETATM    5  C4  UNL     1      -1.586   0.028   0.381  1.00  0.00    -0.004 C 
HETATM    6  C3  UNL     1      -2.664  -0.105  -0.369  1.00  0.00    -0.029 C 
BRANCH   6   7
HETATM    7  C2  UNL     1      -3.897  -0.787   0.167  1.00  0.00     0.022 C 
HETATM    8  C1  UNL     1      -5.016   0.241   0.054  1.00  0.00     0.009 C 
ENDBRANCH   6   7
ENDBRANCH   4   5
ENDBRANCH   1   4
BRANCH   1   9
HETATM    9  C6  UNL     1       2.088   0.468  -0.031  1.00  0.00     0.237 C 
BRANCH   9  10
HETATM   10  C7  UNL     1       3.240  -0.477  -0.227  1.00  0.00     0.011 A 
HETATM   11  C8  UNL     1       4.615   0.246  -0.298  1.00  0.00     0.007 A 
HETATM   12  C9  UNL     1       4.266  -0.694   0.814  1.00  0.00     0.007 A 
ENDBRANCH   9  10
ENDBRANCH   1   9
TORSDOF 5
