REMARK  3 active torsions:
REMARK  status: ('A' for Active; 'I' for Inactive)
REMARK    1  A    between atoms: C1_4  and  N2_5 
REMARK    2  A    between atoms: C1_4  and  C10_15 
REMARK    3  A    between atoms: N2_5  and  C2_7 
ROOT
HETATM    1  N2  UNL     1       0.585  -1.173  -0.268  1.00  0.00    -0.371 N 
ATOM      2  H2  UNL     1       0.492  -1.889   0.452  1.00  0.00     0.161 HD
ENDROOT
BRANCH   1   3
HETATM    3  C1  UNL     1       1.871  -0.869  -0.764  1.00  0.00     0.112 C 
HETATM    4  N1  UNL     1       2.116  -0.991  -2.015  1.00  0.00    -0.385 N 
ATOM      5  H12 UNL     1       1.366  -1.309  -2.629  1.00  0.00     0.157 HD
ATOM      6  H11 UNL     1       3.045  -0.771  -2.373  1.00  0.00     0.157 HD
BRANCH   3   7
HETATM    7  C10 UNL     1       2.941  -0.416   0.112  1.00  0.00     0.048 A 
HETATM    8  C11 UNL     1       4.234  -0.078  -0.184  1.00  0.00     0.023 A 
HETATM    9  C12 UNL     1       5.019   0.311   0.825  1.00  0.00     0.009 A 
HETATM   10  C13 UNL     1       4.471   0.344   2.079  1.00  0.00     0.050 A 
HETATM   11  S1  UNL     1       2.870  -0.174   1.800  1.00  0.00    -0.098 SA
ENDBRANCH   3   7
ENDBRANCH   1   3
BRANCH   1  12
HETATM   12  C2  UNL     1      -0.608  -0.504  -0.746  1.00  0.00     0.087 C 
HETATM   13  C3  UNL     1      -0.474   0.961  -0.476  1.00  0.00     0.030 C 
HETATM   14  C4  UNL     1      -1.824   1.463   0.005  1.00  0.00    -0.013 C 
HETATM   15  C5  UNL     1      -2.841   1.030  -1.032  1.00  0.00     0.005 C 
HETATM   16  C9  UNL     1      -2.195   0.827   1.326  1.00  0.00     0.005 C 
HETATM   17  C6  UNL     1      -3.036  -0.484  -0.931  1.00  0.00     0.007 C 
HETATM   18  C7  UNL     1      -1.858  -1.087  -0.154  1.00  0.00     0.008 C 
HETATM   19  C8  UNL     1      -2.057  -0.678   1.288  1.00  0.00     0.007 C 
ENDBRANCH   1  12
TORSDOF 3
