REMARK  2 active torsions:
REMARK  status: ('A' for Active; 'I' for Inactive)
REMARK    1  A    between atoms: N1_2  and  N2_3 
REMARK    2  A    between atoms: N2_3  and  C2_4 
ROOT
HETATM    1  C2  UNL     1       1.310  -0.097   0.789  1.00  0.00     0.124 C 
HETATM    2  C3  UNL     1       2.393  -1.132   0.876  1.00  0.00     0.027 C 
HETATM    3  C4  UNL     1       1.792  -2.538   1.007  1.00  0.00     0.002 C 
HETATM    4  C5  UNL     1       1.314  -2.864  -0.415  1.00  0.00     0.004 C 
HETATM    5  C6  UNL     1       0.481  -1.714  -0.930  1.00  0.00     0.036 C 
HETATM    6  C7  UNL     1       0.124  -0.764   0.114  1.00  0.00    -0.051 C 
HETATM    7  C8  UNL     1      -1.069  -0.400   0.460  1.00  0.00    -0.033 C 
HETATM    8  C9  UNL     1      -1.159   0.690   1.524  1.00  0.00     0.040 C 
HETATM    9  C10 UNL     1      -2.536   1.307   1.457  1.00  0.00     0.005 C 
HETATM   10  C11 UNL     1      -2.857   1.791   0.086  1.00  0.00     0.004 C 
HETATM   11  C12 UNL     1      -3.726   0.865  -0.731  1.00  0.00     0.029 C 
HETATM   12  C13 UNL     1      -3.290  -0.543  -0.649  1.00  0.00    -0.002 C 
HETATM   13  C14 UNL     1      -2.194  -1.081  -0.159  1.00  0.00     0.036 C 
HETATM   14 CL1  UNL     1      -2.052  -2.851  -0.208  1.00  0.00    -0.084 Cl
ENDROOT
BRANCH   1  15
HETATM   15  N2  UNL     1       1.699   0.961  -0.089  1.00  0.00    -0.140 NA
BRANCH  15  16
HETATM   16  N1  UNL     1       2.846   1.613   0.276  1.00  0.00    -0.153 NA
HETATM   17  C1  UNL     1       3.164   2.582  -0.766  1.00  0.00     0.154 C 
ENDBRANCH  15  16
ENDBRANCH   1  15
TORSDOF 2
