REMARK  13 active torsions:
REMARK  status: ('A' for Active; 'I' for Inactive)
REMARK    1  A    between atoms: O1_2  and  C2_3 
REMARK    2  A    between atoms: C2_3  and  C3_4 
REMARK    3  A    between atoms: C3_4  and  C4_5 
REMARK    4  A    between atoms: C4_5  and  O2_6 
REMARK    5  A    between atoms: O2_6  and  C5_7 
REMARK    6  A    between atoms: C8_10  and  C9_11 
REMARK    7  A    between atoms: C10_12  and  C11_13 
REMARK    8  A    between atoms: C16_20  and  C17_21 
REMARK    9  A    between atoms: C17_21  and  C18_22 
REMARK       I    between atoms: C18_22  and  N2_24 
REMARK   10  A    between atoms: N2_24  and  C19_26 
REMARK   11  A    between atoms: C19_26  and  C20_27 
REMARK   12  A    between atoms: C20_27  and  N3_28 
REMARK   13  A    between atoms: C27_40  and  O4_41 
ROOT
HETATM    1  C11 UNL     1       0.373  -0.414   0.172  1.00  0.00     0.064 A 
HETATM    2  C12 UNL     1      -0.340   0.746   0.372  1.00  0.00     0.056 A 
HETATM    3  C13 UNL     1      -1.686   0.721   0.603  1.00  0.00     0.061 A 
HETATM    4  N1  UNL     1      -2.395   1.851   0.801  1.00  0.00    -0.358 N 
ATOM      5  H1  UNL     1      -1.899   2.742   0.775  1.00  0.00     0.166 HD
HETATM    6  C14 UNL     1      -3.726   1.868   1.032  1.00  0.00     0.012 A 
HETATM    7  C15 UNL     1      -4.427   3.156   1.244  1.00  0.00     0.068 C 
HETATM    8  C16 UNL     1      -4.446   0.696   1.079  1.00  0.00    -0.025 A 
HETATM    9  C23 UNL     1      -3.723  -0.485   0.875  1.00  0.00     0.041 A 
HETATM   10  C24 UNL     1      -2.364  -0.483   0.640  1.00  0.00     0.061 A 
HETATM   11  N4  UNL     1      -1.652  -1.594   0.443  1.00  0.00    -0.340 N 
ATOM     12  H4  UNL     1      -2.143  -2.488   0.468  1.00  0.00     0.167 HD
HETATM   13  C25 UNL     1      -0.312  -1.608   0.211  1.00  0.00     0.118 A 
HETATM   14  N5  UNL     1       0.314  -2.721   0.028  1.00  0.00    -0.384 N 
ATOM     15  H51 UNL     1      -0.193  -3.605   0.057  1.00  0.00     0.157 HD
ATOM     16  H52 UNL     1       1.319  -2.731  -0.146  1.00  0.00     0.157 HD
ENDROOT
BRANCH   1  17
HETATM   17  C10 UNL     1       1.810  -0.380  -0.072  1.00  0.00    -0.058 C 
HETATM   18  C9  UNL     1       3.002  -0.361  -0.254  1.00  0.00    -0.061 C 
BRANCH  18  19
HETATM   19  C8  UNL     1       4.419  -0.334  -0.446  1.00  0.00     0.021 A 
HETATM   20  C7  UNL     1       5.013   0.420  -1.439  1.00  0.00     0.023 A 
HETATM   21  C6  UNL     1       6.378   0.449  -1.626  1.00  0.00     0.041 A 
HETATM   22  C5  UNL     1       7.212  -0.286  -0.814  1.00  0.00     0.102 A 
HETATM   23  C27 UNL     1       6.641  -1.046   0.182  1.00  0.00     0.102 A 
HETATM   24  C26 UNL     1       5.274  -1.062   0.353  1.00  0.00     0.060 A 
BRANCH  22  25
HETATM   25  O2  UNL     1       8.598  -0.275  -0.982  1.00  0.00    -0.348 OA
BRANCH  25  26
HETATM   26  C4  UNL     1       9.245   0.466  -1.964  1.00  0.00     0.178 C 
BRANCH  26  27
HETATM   27  C3  UNL     1      10.748   0.300  -1.920  1.00  0.00     0.053 C 
BRANCH  27  28
HETATM   28  C2  UNL     1      11.278   0.737  -0.589  1.00  0.00     0.169 C 
BRANCH  28  29
HETATM   29  O1  UNL     1      10.791  -0.006   0.463  1.00  0.00    -0.396 OA
HETATM   30  C1  UNL     1      11.212  -1.314   0.353  1.00  0.00     0.201 C 
ENDBRANCH  28  29
ENDBRANCH  27  28
ENDBRANCH  26  27
ENDBRANCH  25  26
ENDBRANCH  22  25
BRANCH  23  31
HETATM   31  O4  UNL     1       7.477  -1.790   1.003  1.00  0.00    -0.353 OA
HETATM   32  C28 UNL     1       7.029  -2.607   2.055  1.00  0.00     0.210 C 
ENDBRANCH  23  31
ENDBRANCH  18  19
ENDBRANCH   1  17
BRANCH   8  33
HETATM   33  C17 UNL     1      -5.905   0.626   1.320  1.00  0.00     0.143 C 
BRANCH  33  34
HETATM   34  C18 UNL     1      -6.706   0.988   0.119  1.00  0.00     0.222 C 
HETATM   35  O3  UNL     1      -6.187   1.312  -0.968  1.00  0.00    -0.273 OA
HETATM   36  N2  UNL     1      -8.125   0.957   0.234  1.00  0.00    -0.356 N 
ATOM     37  H2  UNL     1      -8.571   0.695   1.113  1.00  0.00     0.162 HD
BRANCH  36  38
HETATM   38  C19 UNL     1      -8.905   1.299  -0.903  1.00  0.00     0.166 C 
BRANCH  38  39
HETATM   39  C20 UNL     1     -10.368   1.188  -0.704  1.00  0.00     0.076 C 
BRANCH  39  40
HETATM   40  N3  UNL     1     -10.824  -0.122  -0.477  1.00  0.00    -0.400 N 
HETATM   41  C21 UNL     1     -10.556  -0.793   0.706  1.00  0.00     0.148 C 
HETATM   42  C22 UNL     1     -12.061  -0.382  -1.144  1.00  0.00     0.148 C 
ENDBRANCH  39  40
ENDBRANCH  38  39
ENDBRANCH  36  38
ENDBRANCH  33  34
ENDBRANCH   8  33
TORSDOF 13
