REMARK  14 active torsions:
REMARK  status: ('A' for Active; 'I' for Inactive)
REMARK    1  A    between atoms: C2_2  and  C3_3 
REMARK    2  A    between atoms: C3_3  and  N1_4 
REMARK    3  A    between atoms: N1_4  and  C4_6 
REMARK    4  A    between atoms: C7_11  and  N3_12 
REMARK    5  A    between atoms: N3_12  and  C8_14 
REMARK    6  A    between atoms: C11_17  and  N4_18 
REMARK       I    between atoms: N4_18  and  C12_20 
REMARK    7  A    between atoms: C12_20  and  C13_22 
REMARK    8  A    between atoms: C13_22  and  C14_23 
REMARK    9  A    between atoms: C14_23  and  C15_24 
REMARK   10  A    between atoms: C15_24  and  C16_25 
REMARK   11  A    between atoms: C16_25  and  C17_26 
REMARK   12  A    between atoms: C17_26  and  C18_27 
REMARK   13  A    between atoms: C18_27  and  O3_29 
REMARK   14  A    between atoms: O3_29  and  C19_30 
ROOT
HETATM    1  N3  UNL     1      -3.207   0.077  -1.130  1.00  0.00    -0.370 N 
ATOM      2  H3  UNL     1      -2.921   0.718  -1.870  1.00  0.00     0.161 HD
ENDROOT
BRANCH   1   3
HETATM    3  C7  UNL     1      -4.338   0.298  -0.562  1.00  0.00     0.134 A 
HETATM    4  C6  UNL     1      -5.052   1.388  -1.018  1.00  0.00     0.090 A 
HETATM    5  C5  UNL     1      -6.263   1.637  -0.425  1.00  0.00     0.073 A 
HETATM    6  C23 UNL     1      -4.511   2.226  -2.091  1.00  0.00     0.237 A 
HETATM    7  N2  UNL     1      -6.775   0.860   0.578  1.00  0.00    -0.190 N 
HETATM    8  C26 UNL     1      -7.036   2.783  -0.887  1.00  0.00    -0.030 A 
HETATM    9  C4  UNL     1      -6.070  -0.187   1.003  1.00  0.00     0.684 A 
ATOM     10  H2  UNL     1      -7.681   1.079   0.993  1.00  0.00     0.184 HD
HETATM   11  N5  UNL     1      -4.858  -0.430   0.405  1.00  0.00    -0.176 N 
ATOM     12  H5  UNL     1      -4.321  -1.233   0.733  1.00  0.00     0.186 HD
HETATM   13  C25 UNL     1      -6.578   3.560  -1.853  1.00  0.00     0.068 A 
HETATM   14  C27 UNL     1      -8.371   3.087  -0.258  1.00  0.00     0.050 C 
HETATM   15  C24 UNL     1      -5.315   3.358  -2.521  1.00  0.00     0.223 A 
HETATM   16  O5  UNL     1      -4.874   4.088  -3.436  1.00  0.00    -0.284 OA
HETATM   17  O4  UNL     1      -3.395   1.928  -2.578  1.00  0.00    -0.283 OA
BRANCH   9  18
HETATM   18  N1  UNL     1      -6.451  -0.944   1.906  1.00  0.00    -0.202 N 
ATOM     19  H1  UNL     1      -5.738  -1.660   2.044  1.00  0.00     0.183 HD
BRANCH  18  20
HETATM   20  C3  UNL     1      -7.474  -1.181   2.792  1.00  0.00     0.105 C 
BRANCH  20  21
HETATM   21  C2  UNL     1      -8.493  -0.130   3.025  1.00  0.00     0.007 C 
HETATM   22  C1  UNL     1      -9.782  -0.310   2.792  1.00  0.00     0.012 C 
ENDBRANCH  20  21
ENDBRANCH  18  20
ENDBRANCH   9  18
ENDBRANCH   1   3
BRANCH   1  23
HETATM   23  C8  UNL     1      -2.306  -1.009  -0.804  1.00  0.00     0.083 C 
HETATM   24  C9  UNL     1      -1.395  -1.350  -1.951  1.00  0.00     0.027 C 
HETATM   25  C10 UNL     1      -0.223  -2.194  -1.586  1.00  0.00     0.027 C 
HETATM   26  C11 UNL     1       0.616  -1.642  -0.455  1.00  0.00     0.084 C 
HETATM   27  C21 UNL     1      -0.097  -0.369   0.016  1.00  0.00     0.027 C 
HETATM   28  C22 UNL     1      -1.483  -0.761   0.419  1.00  0.00     0.027 C 
BRANCH  26  29
HETATM   29  N4  UNL     1       1.966  -1.387  -0.837  1.00  0.00    -0.356 N 
HETATM   30  C12 UNL     1       3.030  -2.080  -0.230  1.00  0.00     0.217 C 
HETATM   31  O1  UNL     1       2.794  -2.945   0.671  1.00  0.00    -0.274 OA
ATOM     32  H4  UNL     1       2.163  -0.694  -1.559  1.00  0.00     0.162 HD
BRANCH  30  33
HETATM   33  C13 UNL     1       4.424  -1.801  -0.641  1.00  0.00     0.103 C 
BRANCH  33  34
HETATM   34  C14 UNL     1       5.345  -2.673   0.178  1.00  0.00     0.009 C 
BRANCH  34  35
HETATM   35  C15 UNL     1       6.789  -2.495  -0.148  1.00  0.00     0.001 C 
BRANCH  35  36
HETATM   36  C16 UNL     1       7.199  -1.070   0.095  1.00  0.00     0.010 C 
BRANCH  36  37
HETATM   37  C17 UNL     1       8.674  -0.958  -0.243  1.00  0.00     0.111 C 
BRANCH  37  38
HETATM   38  C18 UNL     1       9.080   0.461  -0.000  1.00  0.00     0.258 C 
HETATM   39  O2  UNL     1       8.283   1.326   0.408  1.00  0.00    -0.265 OA
BRANCH  38  40
HETATM   40  O3  UNL     1      10.392   0.802  -0.244  1.00  0.00    -0.322 OA
BRANCH  40  41
HETATM   41  C19 UNL     1      10.874   2.109  -0.046  1.00  0.00     0.174 C 
HETATM   42  C20 UNL     1      10.698   2.517   1.401  1.00  0.00     0.034 C 
ENDBRANCH  40  41
ENDBRANCH  38  40
ENDBRANCH  37  38
ENDBRANCH  36  37
ENDBRANCH  35  36
ENDBRANCH  34  35
ENDBRANCH  33  34
ENDBRANCH  30  33
ENDBRANCH  26  29
ENDBRANCH   1  23
TORSDOF 14
