REMARK  13 active torsions:
REMARK  status: ('A' for Active; 'I' for Inactive)
REMARK    1  A    between atoms: C2_2  and  N1_3 
REMARK    2  A    between atoms: N1_3  and  C3_4 
REMARK       I    between atoms: N1_3  and  C5_6 
REMARK    3  A    between atoms: C5_6  and  C6_8 
REMARK    4  A    between atoms: C7_13  and  N4_14 
REMARK    5  A    between atoms: N4_14  and  S1_15 
REMARK    6  A    between atoms: S1_15  and  C8_18 
REMARK    7  A    between atoms: C12_22  and  C13_23 
REMARK       I    between atoms: C13_23  and  N5_25 
REMARK    8  A    between atoms: N5_25  and  C14_27 
REMARK    9  A    between atoms: C14_27  and  C15_28 
REMARK   10  A    between atoms: C15_28  and  C16_29 
REMARK   11  A    between atoms: C16_29  and  C17_30 
REMARK   12  A    between atoms: C17_30  and  C18_31 
REMARK   13  A    between atoms: C18_31  and  C19_32 
ROOT
HETATM    1  C6  UNL     1      -2.054  -1.371  -1.491  1.00  0.00     0.123 A 
HETATM    2  N2  UNL     1      -2.859  -0.324  -1.238  1.00  0.00    -0.293 N 
ATOM      3  H2  UNL     1      -3.859  -0.505  -1.151  1.00  0.00     0.187 HD
HETATM    4  N3  UNL     1      -2.451   0.910  -1.096  1.00  0.00    -0.272 N 
ATOM      5  H3  UNL     1      -3.141   1.637  -0.908  1.00  0.00     0.189 HD
HETATM    6  C7  UNL     1      -1.147   1.257  -1.190  1.00  0.00     0.224 A 
HETATM    7  C12 UNL     1      -0.240   0.186  -1.459  1.00  0.00     0.100 A 
HETATM    8  C22 UNL     1      -0.682  -1.089  -1.610  1.00  0.00    -0.008 A 
HETATM    9  C23 UNL     1       0.260  -2.150  -2.062  1.00  0.00     0.052 C 
ENDROOT
BRANCH   7  10
HETATM   10  C13 UNL     1       1.177   0.573  -1.563  1.00  0.00     0.257 C 
HETATM   11  O4  UNL     1       1.446   1.689  -2.130  1.00  0.00    -0.267 OA
HETATM   12  N5  UNL     1       2.248  -0.185  -1.082  1.00  0.00    -0.357 N 
ATOM     13  H5  UNL     1       2.085  -1.075  -0.610  1.00  0.00     0.162 HD
BRANCH  12  14
HETATM   14  C14 UNL     1       3.596   0.319  -1.267  1.00  0.00     0.123 C 
BRANCH  14  15
HETATM   15  C15 UNL     1       4.571  -0.666  -0.699  1.00  0.00     0.020 C 
BRANCH  15  16
HETATM   16  C16 UNL     1       4.333  -0.872   0.767  1.00  0.00     0.002 C 
BRANCH  16  17
HETATM   17  C17 UNL     1       4.496   0.411   1.513  1.00  0.00     0.006 C 
BRANCH  17  18
HETATM   18  C18 UNL     1       4.296   0.264   3.014  1.00  0.00     0.058 C 
BRANCH  18  19
HETATM   19  C19 UNL     1       5.289  -0.688   3.552  1.00  0.00     0.025 A 
HETATM   20  C20 UNL     1       5.161  -2.050   3.701  1.00  0.00     0.113 A 
HETATM   21  N6  UNL     1       6.282  -2.561   4.213  1.00  0.00    -0.360 N 
HETATM   22  C21 UNL     1       7.113  -1.520   4.385  1.00  0.00     0.180 A 
ATOM     23  H6  UNL     1       6.469  -3.540   4.429  1.00  0.00     0.166 HD
HETATM   24  N7  UNL     1       6.529  -0.382   3.991  1.00  0.00    -0.355 N 
ATOM     25  H7  UNL     1       6.945   0.549   4.018  1.00  0.00     0.166 HD
ENDBRANCH  18  19
ENDBRANCH  17  18
ENDBRANCH  16  17
ENDBRANCH  15  16
ENDBRANCH  14  15
ENDBRANCH  12  14
ENDBRANCH   7  10
BRANCH   6  26
HETATM   26  N4  UNL     1      -0.686   2.369  -1.076  1.00  0.00    -0.301 NA
BRANCH  26  27
HETATM   27  S1  UNL     1      -0.586   3.958  -0.854  1.00  0.00     0.301 S 
HETATM   28  O2  UNL     1       0.069   4.735  -2.028  1.00  0.00    -0.191 OA
HETATM   29  O3  UNL     1       0.267   4.373   0.376  1.00  0.00    -0.191 OA
BRANCH  27  30
HETATM   30  C8  UNL     1      -2.176   4.785  -0.691  1.00  0.00     0.084 C 
HETATM   31  C9  UNL     1      -2.963   4.551  -1.942  1.00  0.00     0.034 C 
HETATM   32  C10 UNL     1      -2.825   4.300   0.564  1.00  0.00     0.034 C 
HETATM   33  C11 UNL     1      -1.915   6.296  -0.517  1.00  0.00     0.034 C 
ENDBRANCH  27  30
ENDBRANCH  26  27
ENDBRANCH   6  26
BRANCH   1  34
HETATM   34  C5  UNL     1      -2.564  -2.720  -1.558  1.00  0.00     0.272 C 
HETATM   35  N1  UNL     1      -3.917  -3.096  -1.391  1.00  0.00    -0.347 N 
HETATM   36  O1  UNL     1      -1.751  -3.682  -1.784  1.00  0.00    -0.266 OA
BRANCH  35  37
HETATM   37  C2  UNL     1      -4.994  -2.177  -1.154  1.00  0.00     0.121 C 
HETATM   38  C1  UNL     1      -5.151  -1.902   0.332  1.00  0.00     0.026 C 
ENDBRANCH  35  37
BRANCH  35  39
HETATM   39  C3  UNL     1      -4.263  -4.551  -1.461  1.00  0.00     0.121 C 
HETATM   40  C4  UNL     1      -4.151  -5.126  -0.083  1.00  0.00     0.026 C 
ENDBRANCH  35  39
ENDBRANCH   1  34
TORSDOF 13
