REMARK  13 active torsions:
REMARK  status: ('A' for Active; 'I' for Inactive)
REMARK    1  A    between atoms: C2_2  and  N1_3 
REMARK    2  A    between atoms: N1_3  and  C3_4 
REMARK    3  A    between atoms: N1_3  and  C5_6 
REMARK    4  A    between atoms: C5_6  and  C6_7 
REMARK    5  A    between atoms: C6_7  and  N2_8 
REMARK       I    between atoms: N2_8  and  C7_10 
REMARK    6  A    between atoms: C7_10  and  C8_12 
REMARK    7  A    between atoms: C8_12  and  C9_13 
REMARK    8  A    between atoms: C9_13  and  C10_14 
REMARK    9  A    between atoms: C11_15  and  C12_16 
REMARK   10  A    between atoms: C13_18  and  O3_19 
REMARK   11  A    between atoms: C14_21  and  C15_22 
REMARK   12  A    between atoms: C15_22  and  O4_24 
REMARK   13  A    between atoms: C20_31  and  C21_32 
ROOT
HETATM    1  C10 UNL     1       0.636   0.188  -0.512  1.00  0.00     0.009 C 
HETATM    2  C11 UNL     1       0.788  -0.859  -1.413  1.00  0.00     0.046 C 
HETATM    3  C13 UNL     1       1.688  -1.924  -1.259  1.00  0.00     0.093 C 
HETATM    4  C14 UNL     1       2.860  -1.877  -0.443  1.00  0.00     0.038 C 
HETATM    5  C17 UNL     1       3.533  -0.716  -0.129  1.00  0.00    -0.004 A 
HETATM    6  C18 UNL     1       4.900  -0.886  -0.180  1.00  0.00     0.043 A 
HETATM    7  C19 UNL     1       5.750   0.146   0.142  1.00  0.00     0.044 A 
HETATM    8  N3  UNL     1       7.083   0.002   0.104  1.00  0.00    -0.351 N 
ATOM      9  H3  UNL     1       7.469  -0.900  -0.175  1.00  0.00     0.166 HD
HETATM   10  C20 UNL     1       7.930   0.992   0.416  1.00  0.00     0.099 A 
HETATM   11  C22 UNL     1       7.420   2.213   0.792  1.00  0.00     0.042 A 
HETATM   12  C23 UNL     1       6.064   2.431   0.853  1.00  0.00    -0.047 A 
HETATM   13  C24 UNL     1       5.543   3.753   1.263  1.00  0.00     0.049 C 
HETATM   14  C25 UNL     1       5.229   1.388   0.524  1.00  0.00    -0.003 A 
HETATM   15  C26 UNL     1       3.850   1.535   0.563  1.00  0.00     0.030 A 
HETATM   16  C27 UNL     1       3.006   0.500   0.239  1.00  0.00     0.027 A 
HETATM   17  C28 UNL     1       1.654   0.824   0.227  1.00  0.00     0.190 C 
HETATM   18  O6  UNL     1       1.355   1.782   0.956  1.00  0.00    -0.287 OA
ENDROOT
BRANCH   1  19
HETATM   19  C9  UNL     1      -0.732   0.670  -0.337  1.00  0.00     0.053 C 
BRANCH  19  20
HETATM   20  C8  UNL     1      -1.537  -0.361   0.434  1.00  0.00     0.107 C 
BRANCH  20  21
HETATM   21  C7  UNL     1      -2.958   0.116   0.604  1.00  0.00     0.217 C 
HETATM   22  N2  UNL     1      -3.842  -0.742   1.304  1.00  0.00    -0.360 N 
ATOM     23  H2  UNL     1      -3.474  -1.624   1.660  1.00  0.00     0.162 HD
HETATM   24  O1  UNL     1      -3.299   1.231   0.129  1.00  0.00    -0.274 OA
BRANCH  22  25
HETATM   25  C6  UNL     1      -5.250  -0.437   1.545  1.00  0.00     0.142 C 
BRANCH  25  26
HETATM   26  C5  UNL     1      -5.944  -0.326   0.237  1.00  0.00     0.141 C 
BRANCH  26  27
HETATM   27  N1  UNL     1      -7.347  -0.031   0.320  1.00  0.00    -0.393 N 
BRANCH  27  28
HETATM   28  C2  UNL     1      -7.686   1.256   0.793  1.00  0.00     0.117 C 
HETATM   29  C1  UNL     1      -7.510   2.246  -0.361  1.00  0.00     0.026 C 
ENDBRANCH  27  28
BRANCH  27  30
HETATM   30  C3  UNL     1      -8.182  -0.636  -0.634  1.00  0.00     0.054 C 
HETATM   31  C4  UNL     1      -9.550  -1.027  -0.131  1.00  0.00     0.054 C 
ENDBRANCH  27  30
ENDBRANCH  26  27
ENDBRANCH  25  26
ENDBRANCH  22  25
ENDBRANCH  20  21
ENDBRANCH  19  20
ENDBRANCH   1  19
BRANCH   2  32
HETATM   32  C12 UNL     1      -0.033  -0.893  -2.614  1.00  0.00     0.273 C 
HETATM   33  O2  UNL     1      -0.885  -0.064  -2.961  1.00  0.00    -0.301 OA
ENDBRANCH   2  32
BRANCH   3  34
HETATM   34  O3  UNL     1       1.460  -3.085  -1.907  1.00  0.00    -0.359 OA
ATOM     35  H3  UNL     1       2.069  -3.806  -1.803  1.00  0.00     0.217 HD
ENDBRANCH   3  34
BRANCH   4  36
HETATM   36  C15 UNL     1       3.361  -3.117   0.038  1.00  0.00     0.053 C 
HETATM   37  C16 UNL     1       4.446  -3.412   0.959  1.00  0.00     0.077 C 
BRANCH  36  38
HETATM   38  O4  UNL     1       2.739  -4.172  -0.404  1.00  0.00    -0.364 OA
ATOM     39  H4  UNL     1       3.074  -5.001  -0.082  1.00  0.00     0.217 HD
ENDBRANCH  36  38
ENDBRANCH   4  36
BRANCH  10  40
HETATM   40  C21 UNL     1       9.368   0.761   0.345  1.00  0.00     0.281 C 
HETATM   41  N4  UNL     1       9.912  -0.477  -0.060  1.00  0.00    -0.056 NA
HETATM   42  O5  UNL     1      10.164   1.683   0.651  1.00  0.00    -0.269 OA
ENDBRANCH  10  40
TORSDOF 13
