REMARK  9 active torsions:
REMARK  status: ('A' for Active; 'I' for Inactive)
REMARK    1  A    between atoms: C2_2  and  N1_3 
REMARK    2  A    between atoms: C2_2  and  C8_14 
REMARK       I    between atoms: N1_3  and  C3_5 
REMARK    3  A    between atoms: C3_5  and  C4_7 
REMARK    4  A    between atoms: C4_7  and  C5_8 
REMARK    5  A    between atoms: C5_8  and  S1_9 
REMARK    6  A    between atoms: S1_9  and  C6_10 
REMARK    7  A    between atoms: C8_14  and  O2_15 
REMARK    8  A    between atoms: C17_26  and  O4_27 
REMARK    9  A    between atoms: O4_27  and  O5_28 
ROOT
HETATM    1  C6  UNL     1       7.209  -0.040   0.568  1.00  0.00     0.338 C 
HETATM    2  F1  UNL     1       7.754   0.790  -0.397  1.00  0.00    -0.222 F 
HETATM    3  C7  UNL     1       8.251  -0.758   1.305  1.00  0.00     0.107 C 
HETATM    4  N2  UNL     1       9.068  -1.336   1.895  1.00  0.00    -0.193 NA
ENDROOT
BRANCH   1   5
HETATM    5  S1  UNL     1       6.170   0.853   1.730  1.00  0.00    -0.118 SA
BRANCH   5   6
HETATM    6  C5  UNL     1       4.701   1.507   0.910  1.00  0.00     0.087 C 
BRANCH   6   7
HETATM    7  C4  UNL     1       3.789   0.398   0.433  1.00  0.00     0.113 C 
BRANCH   7   8
HETATM    8  C3  UNL     1       2.589   0.932  -0.237  1.00  0.00     0.222 C 
HETATM    9  N1  UNL     1       1.626   0.027  -0.745  1.00  0.00    -0.332 N 
ATOM     10  H1  UNL     1       1.801  -0.971  -0.626  1.00  0.00     0.168 HD
HETATM   11  O1  UNL     1       2.435   2.159  -0.350  1.00  0.00    -0.273 OA
BRANCH   9  12
HETATM   12  C2  UNL     1       0.422   0.421  -1.415  1.00  0.00     0.023 C 
HETATM   13  C1  UNL     1       0.448  -0.059  -2.852  1.00  0.00     0.066 C 
BRANCH  12  14
HETATM   14  C8  UNL     1      -0.859   0.273  -0.729  1.00  0.00     0.126 C 
HETATM   15  C9  UNL     1      -0.913   1.325   0.397  1.00  0.00     0.050 C 
HETATM   16  C10 UNL     1      -2.395   1.563   0.614  1.00  0.00     0.044 C 
HETATM   17  C11 UNL     1      -2.985   0.217   0.999  1.00  0.00     0.087 C 
HETATM   18  C12 UNL     1      -3.451   0.381   2.453  1.00  0.00     0.049 C 
HETATM   19  O3  UNL     1      -2.055  -0.777   1.021  1.00  0.00    -0.364 OA
HETATM   20  C17 UNL     1      -4.135  -0.193   0.142  1.00  0.00     0.194 C 
HETATM   21  C13 UNL     1      -1.383  -0.976  -0.216  1.00  0.00     0.095 C 
HETATM   22  C14 UNL     1      -0.413  -2.080   0.142  1.00  0.00     0.050 C 
HETATM   23  C15 UNL     1      -2.438  -1.593  -1.111  1.00  0.00     0.044 C 
HETATM   24  C16 UNL     1      -3.765  -0.937  -1.097  1.00  0.00     0.041 C 
BRANCH  14  25
HETATM   25  O2  UNL     1      -1.820   0.779  -1.662  1.00  0.00    -0.381 OA
ATOM     26  H2  UNL     1      -2.653   0.683  -1.216  1.00  0.00     0.211 HD
ENDBRANCH  14  25
BRANCH  20  27
HETATM   27  O4  UNL     1      -5.073  -0.883   0.915  1.00  0.00    -0.235 OA
BRANCH  27  28
HETATM   28  O5  UNL     1      -6.214  -0.251   1.023  1.00  0.00    -0.250 OA
ATOM     29  H5  UNL     1      -6.852  -0.720   1.548  1.00  0.00     0.253 HD
ENDBRANCH  27  28
ENDBRANCH  20  27
ENDBRANCH  12  14
ENDBRANCH   9  12
ENDBRANCH   7   8
ENDBRANCH   6   7
ENDBRANCH   5   6
ENDBRANCH   1   5
TORSDOF 9
