REMARK  9 active torsions:
REMARK  status: ('A' for Active; 'I' for Inactive)
REMARK    1  A    between atoms: N1_2  and  C2_3 
REMARK    2  A    between atoms: C2_3  and  C3_4 
REMARK    3  A    between atoms: C3_4  and  C4_5 
REMARK    4  A    between atoms: C4_5  and  N2_6 
REMARK    5  A    between atoms: C7_12  and  C8_13 
REMARK    6  A    between atoms: C8_13  and  O1_14 
REMARK    7  A    between atoms: O1_14  and  C9_15 
REMARK    8  A    between atoms: C10_17  and  C11_18 
REMARK    9  A    between atoms: C11_18  and  O3_19 
ROOT
HETATM    1  C1  UNL     1       3.151   0.402   1.553  1.00  0.00     0.272 C 
HETATM    2  N1  UNL     1       2.659   0.021   0.249  1.00  0.00    -0.070 N 
HETATM    3  C5  UNL     1       2.667   1.167  -0.602  1.00  0.00     0.237 C 
HETATM    4  C6  UNL     1       1.589   2.053   0.042  1.00  0.00     0.036 C 
HETATM    5  C7  UNL     1       0.626   1.061   0.638  1.00  0.00     0.037 C 
HETATM    6  C14 UNL     1       1.220  -0.267   0.314  1.00  0.00     0.243 C 
ENDROOT
BRANCH   5   7
HETATM    7  C8  UNL     1      -0.704   1.238  -0.073  1.00  0.00     0.179 C 
BRANCH   7   8
HETATM    8  O1  UNL     1      -1.591   0.322   0.479  1.00  0.00    -0.339 OA
BRANCH   8   9
HETATM    9  C9  UNL     1      -2.812   0.457  -0.146  1.00  0.00     0.416 C 
HETATM   10  O2  UNL     1      -3.772   0.730   0.824  1.00  0.00    -0.326 OA
HETATM   11  C10 UNL     1      -4.942   0.079   0.435  1.00  0.00     0.216 C 
HETATM   12  C12 UNL     1      -4.406  -1.114  -0.294  1.00  0.00     0.233 C 
HETATM   13  C13 UNL     1      -5.337  -1.789  -1.257  1.00  0.00     0.216 C 
HETATM   14  O4  UNL     1      -4.432  -2.320   0.385  1.00  0.00    -0.242 OA
HETATM   15  O5  UNL     1      -3.198  -0.710  -0.795  1.00  0.00    -0.296 OA
HETATM   16  N3  UNL     1      -4.538  -2.931  -0.841  1.00  0.00    -0.092 NA
BRANCH  11  17
HETATM   17  C11 UNL     1      -5.823   0.950  -0.431  1.00  0.00     0.201 C 
BRANCH  17  18
HETATM   18  O3  UNL     1      -6.148   2.078   0.325  1.00  0.00    -0.398 OA
ATOM     19  H3  UNL     1      -6.702   2.625  -0.219  1.00  0.00     0.209 HD
ENDBRANCH  17  18
ENDBRANCH  11  17
ENDBRANCH   8   9
ENDBRANCH   7   8
ENDBRANCH   5   7
BRANCH   2  20
HETATM   20  C2  UNL     1       3.304  -1.146  -0.249  1.00  0.00     0.238 C 
BRANCH  20  21
HETATM   21  C3  UNL     1       4.537  -0.971  -1.045  1.00  0.00     0.055 C 
BRANCH  21  22
HETATM   22  C4  UNL     1       5.708  -0.346  -0.393  1.00  0.00     0.231 C 
BRANCH  22  23
HETATM   23  N2  UNL     1       6.191  -1.072   0.765  1.00  0.00    -0.079 N 
ATOM     24  H23 UNL     1       5.439  -1.215   1.439  1.00  0.00     0.274 HD
ATOM     25  H22 UNL     1       6.391  -2.043   0.523  1.00  0.00     0.274 HD
ATOM     26  H21 UNL     1       6.999  -0.641   1.215  1.00  0.00     0.274 HD
ENDBRANCH  22  23
ENDBRANCH  21  22
ENDBRANCH  20  21
ENDBRANCH   2  20
TORSDOF 9
