REMARK  14 active torsions:
REMARK  status: ('A' for Active; 'I' for Inactive)
REMARK    1  A    between atoms: C2_2  and  C3_4 
REMARK    2  A    between atoms: C3_4  and  C4_5 
REMARK    3  A    between atoms: C4_5  and  C5_6 
REMARK    4  A    between atoms: C5_6  and  N1_7 
REMARK    5  A    between atoms: C5_6  and  C18_30 
REMARK    6  A    between atoms: N1_7  and  S1_9 
REMARK    7  A    between atoms: S1_9  and  N2_12 
REMARK    8  A    between atoms: N2_12  and  C6_14 
REMARK    9  A    between atoms: C9_17  and  O4_18 
REMARK   10  A    between atoms: C18_30  and  O5_31 
REMARK   11  A    between atoms: C18_30  and  C19_33 
REMARK   12  A    between atoms: C19_33  and  C20_34 
REMARK   13  A    between atoms: C20_34  and  C21_35 
REMARK   14  A    between atoms: C21_35  and  N4_36 
ROOT
HETATM    1  S1  UNL     1       0.495  -2.421  -0.514  1.00  0.00     0.315 S 
HETATM    2  O2  UNL     1       0.514  -3.920  -0.518  1.00  0.00    -0.183 OA
HETATM    3  O3  UNL     1       0.035  -2.033  -1.916  1.00  0.00    -0.183 OA
ENDROOT
BRANCH   1   4
HETATM    4  N1  UNL     1       2.013  -1.693  -0.252  1.00  0.00    -0.296 N 
ATOM      5  H1  UNL     1       2.266  -0.808  -0.692  1.00  0.00     0.174 HD
BRANCH   4   6
HETATM    6  C5  UNL     1       2.910  -2.382   0.611  1.00  0.00     0.123 C 
BRANCH   6   7
HETATM    7  C4  UNL     1       4.286  -2.550   0.063  1.00  0.00     0.036 C 
BRANCH   7   8
HETATM    8  C3  UNL     1       4.365  -3.336  -1.196  1.00  0.00     0.080 C 
BRANCH   8   9
HETATM    9  C2  UNL     1       3.938  -4.741  -1.084  1.00  0.00     0.123 C 
HETATM   10  C1  UNL     1       3.962  -5.556  -2.359  1.00  0.00     0.091 C 
HETATM   11  O1  UNL     1       3.578  -5.283  -0.075  1.00  0.00    -0.298 OA
ENDBRANCH   8   9
ENDBRANCH   7   8
ENDBRANCH   6   7
BRANCH   6  12
HETATM   12  C18 UNL     1       2.982  -1.631   1.953  1.00  0.00     0.141 C 
BRANCH  12  13
HETATM   13  O5  UNL     1       3.823  -2.476   2.775  1.00  0.00    -0.393 OA
ATOM     14  H5  UNL     1       3.867  -2.013   3.603  1.00  0.00     0.210 HD
ENDBRANCH  12  13
BRANCH  12  15
HETATM   15  C19 UNL     1       3.643  -0.309   1.902  1.00  0.00     0.035 C 
BRANCH  15  16
HETATM   16  C20 UNL     1       3.005   0.670   0.989  1.00  0.00     0.022 C 
BRANCH  16  17
HETATM   17  C21 UNL     1       3.806   2.001   1.174  1.00  0.00     0.122 C 
BRANCH  17  18
HETATM   18  N4  UNL     1       3.162   2.951   0.266  1.00  0.00    -0.367 N 
HETATM   19  C22 UNL     1       3.854   3.894  -0.273  1.00  0.00     0.196 C 
HETATM   20  N5  UNL     1       5.244   4.067  -0.028  1.00  0.00    -0.067 NA
HETATM   21  N6  UNL     1       3.205   4.795  -1.147  1.00  0.00    -0.067 NA
ATOM     22  H4  UNL     1       2.167   2.866   0.060  1.00  0.00     0.161 HD
ENDBRANCH  17  18
ENDBRANCH  16  17
ENDBRANCH  15  16
ENDBRANCH  12  15
ENDBRANCH   6  12
ENDBRANCH   4   6
ENDBRANCH   1   4
BRANCH   1  23
HETATM   23  N2  UNL     1      -0.691  -1.845   0.641  1.00  0.00    -0.298 N 
ATOM     24  H2  UNL     1      -0.868  -2.277   1.548  1.00  0.00     0.174 HD
BRANCH  23  25
HETATM   25  C6  UNL     1      -1.392  -0.669   0.140  1.00  0.00     0.096 C 
HETATM   26  C7  UNL     1      -1.170   0.487   1.060  1.00  0.00     0.029 C 
HETATM   27  C8  UNL     1      -2.393   1.336   1.303  1.00  0.00     0.042 C 
HETATM   28  C9  UNL     1      -3.190   1.414   0.018  1.00  0.00     0.082 C 
HETATM   29  C10 UNL     1      -4.256   2.473   0.059  1.00  0.00     0.024 C 
HETATM   30  C16 UNL     1      -3.790   0.071  -0.217  1.00  0.00     0.113 C 
HETATM   31  C11 UNL     1      -4.888   2.633  -1.272  1.00  0.00     0.008 C 
HETATM   32  C15 UNL     1      -5.251   2.156   1.152  1.00  0.00     0.032 C 
HETATM   33  C12 UNL     1      -6.290   2.157  -1.403  1.00  0.00     0.002 C 
HETATM   34  C13 UNL     1      -6.759   1.146  -0.447  1.00  0.00     0.024 C 
HETATM   35  C14 UNL     1      -5.893   0.855   0.721  1.00  0.00     0.077 C 
HETATM   36  N3  UNL     1      -4.965  -0.203   0.553  1.00  0.00    -0.410 N 
ATOM     37  H3  UNL     1      -5.128  -1.122   0.964  1.00  0.00     0.154 HD
HETATM   38  C17 UNL     1      -2.834  -1.068   0.027  1.00  0.00     0.053 C 
BRANCH  28  39
HETATM   39  O4  UNL     1      -2.350   1.754  -1.062  1.00  0.00    -0.387 OA
ATOM     40  H4  UNL     1      -2.850   1.803  -1.868  1.00  0.00     0.210 HD
ENDBRANCH  28  39
ENDBRANCH  23  25
ENDBRANCH   1  23
TORSDOF 14
