REMARK  14 active torsions:
REMARK  status: ('A' for Active; 'I' for Inactive)
REMARK    1  A    between atoms: N1_1  and  C1_5 
REMARK    2  A    between atoms: C1_5  and  C2_6 
REMARK    3  A    between atoms: C2_6  and  C3_7 
REMARK    4  A    between atoms: C5_12  and  C6_13 
REMARK    5  A    between atoms: C6_13  and  C7_14 
REMARK    6  A    between atoms: C7_14  and  C8_15 
REMARK    7  A    between atoms: C8_15  and  N3_16 
REMARK    8  A    between atoms: C15_28  and  C16_29 
REMARK    9  A    between atoms: C16_29  and  C17_30 
REMARK   10  A    between atoms: C17_30  and  C18_31 
REMARK   11  A    between atoms: C18_31  and  C19_32 
REMARK   12  A    between atoms: C19_32  and  C20_33 
REMARK       I    between atoms: C20_33  and  N7_35 
REMARK   13  A    between atoms: N7_35  and  C21_37 
REMARK   14  A    between atoms: C21_37  and  C22_38 
ROOT
HETATM    1  C3  UNL     1      -1.080  -0.969   1.377  1.00  0.00     0.178 C 
HETATM    2  N2  UNL     1      -1.291  -1.048  -0.034  1.00  0.00    -0.342 N 
ATOM      3  H2  UNL     1      -0.686  -1.694  -0.541  1.00  0.00     0.163 HD
HETATM    4  C4  UNL     1      -2.236  -0.340  -0.815  1.00  0.00     0.268 C 
HETATM    5  O1  UNL     1      -2.626  -0.955  -1.872  1.00  0.00    -0.266 OA
HETATM    6  C5  UNL     1      -2.794   0.979  -0.565  1.00  0.00     0.096 C 
HETATM    7  N6  UNL     1      -3.038   1.722  -1.813  1.00  0.00    -0.362 N 
ATOM      8  H6  UNL     1      -3.642   1.280  -2.506  1.00  0.00     0.165 HD
HETATM    9  C10 UNL     1      -2.512   2.989  -2.136  1.00  0.00     0.084 C 
HETATM   10  C11 UNL     1      -1.268   3.325  -2.389  1.00  0.00    -0.010 C 
HETATM   11  C12 UNL     1      -0.069   2.473  -2.411  1.00  0.00     0.028 C 
HETATM   12  C13 UNL     1       1.021   3.046  -1.543  1.00  0.00     0.006 C 
HETATM   13  C14 UNL     1       1.028   2.558  -0.139  1.00  0.00     0.025 C 
HETATM   14  C15 UNL     1       1.316   1.107   0.061  1.00  0.00     0.084 C 
HETATM   15  N8  UNL     1       0.915   0.682   1.384  1.00  0.00    -0.355 N 
ATOM     16  H8  UNL     1       1.645   0.731   2.094  1.00  0.00     0.162 HD
HETATM   17  C23 UNL     1      -0.311   0.219   1.832  1.00  0.00     0.240 C 
HETATM   18  O4  UNL     1      -0.860   0.916   2.775  1.00  0.00    -0.271 OA
ENDROOT
BRANCH  14  19
HETATM   19  C16 UNL     1       2.759   0.759  -0.232  1.00  0.00     0.025 C 
BRANCH  19  20
HETATM   20  C17 UNL     1       3.761   1.470   0.606  1.00  0.00     0.002 C 
BRANCH  20  21
HETATM   21  C18 UNL     1       5.179   1.068   0.266  1.00  0.00     0.009 C 
BRANCH  21  22
HETATM   22  C19 UNL     1       5.464  -0.382   0.456  1.00  0.00     0.103 C 
BRANCH  22  23
HETATM   23  C20 UNL     1       6.895  -0.637   0.090  1.00  0.00     0.217 C 
HETATM   24  O2  UNL     1       7.628   0.306  -0.310  1.00  0.00    -0.274 OA
HETATM   25  N7  UNL     1       7.459  -1.939   0.183  1.00  0.00    -0.355 N 
ATOM     26  H7  UNL     1       6.863  -2.700   0.508  1.00  0.00     0.162 HD
BRANCH  25  27
HETATM   27  C21 UNL     1       8.815  -2.241  -0.154  1.00  0.00     0.192 C 
BRANCH  27  28
HETATM   28  C22 UNL     1       9.186  -1.962  -1.553  1.00  0.00     0.250 C 
HETATM   29  O3  UNL     1       8.418  -1.524  -2.371  1.00  0.00    -0.305 OA
ENDBRANCH  27  28
ENDBRANCH  25  27
ENDBRANCH  22  23
ENDBRANCH  21  22
ENDBRANCH  20  21
ENDBRANCH  19  20
ENDBRANCH  14  19
BRANCH   1  30
HETATM   30  C2  UNL     1      -0.436  -2.199   1.987  1.00  0.00     0.062 C 
BRANCH  30  31
HETATM   31  C1  UNL     1      -1.184  -3.466   1.865  1.00  0.00     0.232 C 
BRANCH  31  32
HETATM   32  N1  UNL     1      -1.429  -3.903   0.534  1.00  0.00    -0.079 N 
ATOM     33  H13 UNL     1      -1.898  -3.168   0.005  1.00  0.00     0.274 HD
ATOM     34  H12 UNL     1      -0.551  -3.964   0.018  1.00  0.00     0.274 HD
ATOM     35  H11 UNL     1      -1.946  -4.778   0.450  1.00  0.00     0.274 HD
ENDBRANCH  31  32
ENDBRANCH  30  31
ENDBRANCH   1  30
BRANCH   6  36
HETATM   36  C6  UNL     1      -3.856   1.127   0.411  1.00  0.00     0.010 C 
BRANCH  36  37
HETATM   37  C7  UNL     1      -5.156   0.464   0.363  1.00  0.00     0.049 C 
BRANCH  37  38
HETATM   38  C8  UNL     1      -5.237  -1.017   0.491  1.00  0.00     0.126 C 
BRANCH  38  39
HETATM   39  N3  UNL     1      -6.566  -1.527   0.432  1.00  0.00    -0.367 N 
HETATM   40  C9  UNL     1      -7.705  -1.074   0.424  1.00  0.00     0.196 C 
HETATM   41  N4  UNL     1      -8.803  -2.019   0.350  1.00  0.00    -0.067 NA
HETATM   42  N5  UNL     1      -8.083   0.283   0.481  1.00  0.00    -0.067 NA
ATOM     43  H3  UNL     1      -6.571  -2.546   0.383  1.00  0.00     0.161 HD
ENDBRANCH  38  39
ENDBRANCH  37  38
ENDBRANCH  36  37
ENDBRANCH   6  36
TORSDOF 14
