REMARK  5 active torsions:
REMARK  status: ('A' for Active; 'I' for Inactive)
REMARK    1  A    between atoms: O1_2  and  C2_3 
REMARK    2  A    between atoms: C4_5  and  N1_6 
REMARK    3  A    between atoms: N1_6  and  C5_8 
REMARK    4  A    between atoms: C12_19  and  C13_20 
REMARK    5  A    between atoms: C15_26  and  N6_27 
ROOT
HETATM    1  C2  UNL     1       0.746  -0.764  -0.330  1.00  0.00     0.081 A 
HETATM    2  C3  UNL     1      -0.624  -0.685  -0.531  1.00  0.00     0.068 A 
HETATM    3  C4  UNL     1      -1.246   0.543  -0.544  1.00  0.00     0.058 A 
HETATM    4  C9  UNL     1      -0.491   1.677  -0.356  1.00  0.00    -0.034 A 
HETATM    5  C10 UNL     1      -1.137   3.025  -0.365  1.00  0.00     0.050 C 
HETATM    6  C11 UNL     1       0.859   1.580  -0.160  1.00  0.00     0.024 A 
HETATM    7  C12 UNL     1       1.536   0.355  -0.139  1.00  0.00     0.010 A 
ENDROOT
BRANCH   7   8
HETATM    8  C13 UNL     1       2.969   0.301   0.073  1.00  0.00    -0.003 A 
HETATM    9  C14 UNL     1       3.470  -0.631   0.954  1.00  0.00     0.119 A 
HETATM   10  N4  UNL     1       4.811  -0.721   1.186  1.00  0.00    -0.309 N 
HETATM   11  N5  UNL     1       5.695   0.055   0.601  1.00  0.00    -0.286 N 
ATOM     12  H4  UNL     1       5.143  -1.425   1.845  1.00  0.00     0.186 HD
HETATM   13  C15 UNL     1       5.262   0.979  -0.266  1.00  0.00     0.114 A 
ATOM     14  H5  UNL     1       6.690  -0.044   0.803  1.00  0.00     0.188 HD
HETATM   15  C16 UNL     1       3.896   1.116  -0.542  1.00  0.00     0.063 A 
BRANCH  13  16
HETATM   16  N6  UNL     1       6.111   1.746  -0.847  1.00  0.00    -0.384 N 
ATOM     17  H62 UNL     1       7.106   1.646  -0.646  1.00  0.00     0.157 HD
ATOM     18  H61 UNL     1       5.781   2.450  -1.507  1.00  0.00     0.157 HD
ENDBRANCH  13  16
ENDBRANCH   7   8
BRANCH   1  19
HETATM   19  O1  UNL     1       1.341  -1.994  -0.321  1.00  0.00    -0.355 OA
HETATM   20  C1  UNL     1       0.712  -3.224  -0.496  1.00  0.00     0.210 C 
ENDBRANCH   1  19
BRANCH   3  21
HETATM   21  N1  UNL     1      -2.628   0.688  -0.741  1.00  0.00    -0.191 N 
ATOM     22  H1  UNL     1      -2.922   1.358  -1.451  1.00  0.00     0.184 HD
BRANCH  21  23
HETATM   23  C5  UNL     1      -3.546   0.071  -0.126  1.00  0.00     0.682 A 
HETATM   24  N2  UNL     1      -3.242  -0.823   0.821  1.00  0.00    -0.202 N 
HETATM   25  C6  UNL     1      -4.240  -1.475   1.470  1.00  0.00     0.107 A 
ATOM     26  H2  UNL     1      -2.267  -1.013   1.054  1.00  0.00     0.183 HD
HETATM   27  C7  UNL     1      -5.570  -1.218   1.156  1.00  0.00     0.035 A 
HETATM   28  C8  UNL     1      -5.867  -0.290   0.174  1.00  0.00     0.107 A 
HETATM   29  N3  UNL     1      -4.823   0.322  -0.432  1.00  0.00    -0.202 N 
ATOM     30  H3  UNL     1      -5.020   1.010  -1.159  1.00  0.00     0.183 HD
ENDBRANCH  21  23
ENDBRANCH   3  21
TORSDOF 5
