REMARK  21 active torsions:
REMARK  status: ('A' for Active; 'I' for Inactive)
REMARK    1  A    between atoms: O1_2  and  C2_3 
REMARK    2  A    between atoms: C2_3  and  C3_5 
REMARK    3  A    between atoms: C3_5  and  C4_6 
REMARK    4  A    between atoms: C4_6  and  C5_7 
REMARK    5  A    between atoms: C5_7  and  C6_8 
REMARK    6  A    between atoms: C6_8  and  C7_9 
REMARK    7  A    between atoms: C7_9  and  C8_10 
REMARK    8  A    between atoms: C8_10  and  C9_11 
REMARK    9  A    between atoms: C9_11  and  O4_13 
REMARK   10  A    between atoms: C13_17  and  C14_18 
REMARK   11  A    between atoms: C14_18  and  O5_19 
REMARK   12  A    between atoms: C14_18  and  N1_21 
REMARK   13  A    between atoms: N1_21  and  C15_23 
REMARK   14  A    between atoms: C15_23  and  C16_24 
REMARK   15  A    between atoms: C16_24  and  O6_25 
REMARK   16  A    between atoms: N2_27  and  C17_28 
REMARK   17  A    between atoms: C17_28  and  O7_29 
REMARK   18  A    between atoms: C18_31  and  N3_32 
REMARK   19  A    between atoms: C18_31  and  C24_41 
REMARK       I    between atoms: N3_32  and  C19_34 
REMARK   20  A    between atoms: C19_34  and  O9_36 
REMARK   21  A    between atoms: O9_36  and  C20_37 
ROOT
HETATM    1  C8  UNL     1       2.214  -0.024  -0.158  1.00  0.00     0.064 C 
HETATM    2  C11 UNL     1       2.813   1.138  -0.834  1.00  0.00     0.024 C 
HETATM    3  C12 UNL     1       1.894   2.265  -1.074  1.00  0.00     0.035 C 
HETATM    4  C13 UNL     1       0.445   1.904  -1.246  1.00  0.00     0.160 C 
HETATM    5  N2  UNL     1      -0.031   1.060  -0.162  1.00  0.00    -0.347 N 
HETATM    6  C28 UNL     1       0.854   0.113   0.441  1.00  0.00     0.145 C 
ENDROOT
BRANCH   5   7
HETATM    7  C17 UNL     1      -1.359   1.163   0.221  1.00  0.00     0.163 C 
HETATM    8  C18 UNL     1      -2.266   0.771   1.238  1.00  0.00     0.072 C 
BRANCH   7   9
HETATM    9  O7  UNL     1      -2.028   1.896  -0.688  1.00  0.00    -0.345 OA
ATOM     10  H7  UNL     1      -2.938   1.967  -0.425  1.00  0.00     0.219 HD
ENDBRANCH   7   9
BRANCH   8  11
HETATM   11  N3  UNL     1      -3.498   0.242   0.651  1.00  0.00    -0.301 N 
HETATM   12  C19 UNL     1      -4.616   0.996   0.250  1.00  0.00     0.365 C 
HETATM   13  O8  UNL     1      -4.703   2.261   0.336  1.00  0.00    -0.238 OA
ATOM     14  H3  UNL     1      -3.551  -0.768   0.520  1.00  0.00     0.171 HD
BRANCH  12  15
HETATM   15  O9  UNL     1      -5.750   0.423  -0.286  1.00  0.00    -0.294 OA
BRANCH  15  16
HETATM   16  C20 UNL     1      -6.913   0.938  -0.752  1.00  0.00     0.061 C 
HETATM   17  C21 UNL     1      -7.648   1.748   0.282  1.00  0.00     0.046 C 
HETATM   18  C22 UNL     1      -6.818   1.758  -2.016  1.00  0.00     0.046 C 
HETATM   19  C23 UNL     1      -7.835  -0.253  -1.073  1.00  0.00     0.046 C 
ENDBRANCH  15  16
ENDBRANCH  12  15
ENDBRANCH   8  11
BRANCH   8  20
HETATM   20  C24 UNL     1      -2.021   0.154   2.520  1.00  0.00    -0.004 C 
HETATM   21  C25 UNL     1      -1.162   0.923   3.490  1.00  0.00     0.021 C 
HETATM   22  C26 UNL     1      -1.632  -1.292   2.578  1.00  0.00     0.021 C 
HETATM   23  C27 UNL     1      -3.416   0.153   3.239  1.00  0.00     0.021 C 
ENDBRANCH   8  20
ENDBRANCH   5   7
BRANCH   4  24
HETATM   24  C14 UNL     1       0.076   1.515  -2.610  1.00  0.00     0.135 C 
BRANCH  24  25
HETATM   25  O5  UNL     1       0.575   2.307  -3.528  1.00  0.00    -0.348 OA
ATOM     26  H5  UNL     1       0.336   2.055  -4.412  1.00  0.00     0.219 HD
ENDBRANCH  24  25
BRANCH  24  27
HETATM   27  N1  UNL     1      -0.698   0.470  -3.078  1.00  0.00    -0.371 N 
ATOM     28  H1  UNL     1      -1.073  -0.179  -2.386  1.00  0.00     0.161 HD
BRANCH  27  29
HETATM   29  C15 UNL     1      -1.018   0.220  -4.452  1.00  0.00     0.147 C 
BRANCH  29  30
HETATM   30  C16 UNL     1      -1.862   1.213  -5.152  1.00  0.00     0.183 C 
BRANCH  30  31
HETATM   31  O6  UNL     1      -1.410   2.498  -5.262  1.00  0.00    -0.399 OA
ATOM     32  H6  UNL     1      -1.952   3.136  -5.712  1.00  0.00     0.209 HD
ENDBRANCH  30  31
ENDBRANCH  29  30
ENDBRANCH  27  29
ENDBRANCH  24  27
ENDBRANCH   4  24
BRANCH   1  33
HETATM   33  C7  UNL     1       3.262  -0.496   0.900  1.00  0.00     0.021 C 
BRANCH  33  34
HETATM   34  C6  UNL     1       2.873  -1.769   1.524  1.00  0.00     0.001 C 
BRANCH  34  35
HETATM   35  C5  UNL     1       3.708  -2.250   2.637  1.00  0.00     0.001 C 
BRANCH  35  36
HETATM   36  C4  UNL     1       5.153  -2.512   2.494  1.00  0.00     0.010 C 
BRANCH  36  37
HETATM   37  C3  UNL     1       6.041  -1.350   2.212  1.00  0.00     0.111 C 
BRANCH  37  38
HETATM   38  C2  UNL     1       7.463  -1.823   2.131  1.00  0.00     0.258 C 
HETATM   39  O2  UNL     1       7.713  -3.029   2.332  1.00  0.00    -0.265 OA
BRANCH  38  40
HETATM   40  O1  UNL     1       8.483  -0.947   1.840  1.00  0.00    -0.326 OA
HETATM   41  C1  UNL     1       9.842  -1.308   1.743  1.00  0.00     0.213 C 
ENDBRANCH  38  40
ENDBRANCH  37  38
ENDBRANCH  36  37
ENDBRANCH  35  36
ENDBRANCH  34  35
ENDBRANCH  33  34
ENDBRANCH   1  33
BRANCH   1  42
HETATM   42  C9  UNL     1       2.183  -1.134  -1.143  1.00  0.00     0.269 C 
HETATM   43  O3  UNL     1       1.244  -1.888  -1.394  1.00  0.00    -0.264 OA
BRANCH  42  44
HETATM   44  O4  UNL     1       3.386  -1.311  -1.851  1.00  0.00    -0.326 OA
HETATM   45  C10 UNL     1       3.484  -2.323  -2.812  1.00  0.00     0.213 C 
ENDBRANCH  42  44
ENDBRANCH   1  42
TORSDOF 21
