REMARK  3 active torsions:
REMARK  status: ('A' for Active; 'I' for Inactive)
REMARK    1  A    between atoms: N1_1  and  C1_4 
REMARK    2  A    between atoms: C2_7  and  N3_8 
REMARK    3  A    between atoms: C4_13  and  N4_14 
ROOT
HETATM    1  C1  UNL     1      -4.275  -1.289  -0.201  1.00  0.00     0.679 A 
HETATM    2  N2  UNL     1      -4.820  -0.064  -0.109  1.00  0.00    -0.176 N 
ATOM      3  H2  UNL     1      -5.830   0.072  -0.071  1.00  0.00     0.186 HD
HETATM    4  C2  UNL     1      -3.968   0.968  -0.070  1.00  0.00     0.135 A 
HETATM    5  C3  UNL     1      -2.583   0.777  -0.123  1.00  0.00     0.097 A 
HETATM    6  S1  UNL     1      -1.177   1.748  -0.104  1.00  0.00    -0.044 SA
HETATM    7  C4  UNL     1       0.005   0.502  -0.216  1.00  0.00     0.177 A 
HETATM    8  N7  UNL     1      -0.746  -0.572  -0.261  1.00  0.00    -0.319 N 
ATOM      9  H7  UNL     1      -0.308  -1.490  -0.331  1.00  0.00     0.169 HD
HETATM   10  C9  UNL     1      -2.042  -0.481  -0.217  1.00  0.00     0.144 A 
HETATM   11  N8  UNL     1      -2.959  -1.506  -0.253  1.00  0.00    -0.175 N 
ATOM     12  H8  UNL     1      -2.621  -2.466  -0.322  1.00  0.00     0.186 HD
ENDROOT
BRANCH   7  13
HETATM   13  N4  UNL     1       1.444   0.619  -0.252  1.00  0.00    -0.179 N 
HETATM   14  N5  UNL     1       2.213   1.015  -1.248  1.00  0.00    -0.266 N 
HETATM   15  C5  UNL     1       3.503   0.980  -0.871  1.00  0.00     0.173 A 
ATOM     16  H5  UNL     1       1.879   1.305  -2.167  1.00  0.00     0.190 HD
HETATM   17  N6  UNL     1       3.581   0.556   0.388  1.00  0.00    -0.209 N 
HETATM   18  S2  UNL     1       5.192   1.273  -1.400  1.00  0.00    -0.083 SA
HETATM   19  C6  UNL     1       2.279   0.335   0.758  1.00  0.00     0.359 A 
HETATM   20  C7  UNL     1       4.847   0.463   0.953  1.00  0.00     0.243 C 
HETATM   21  O1  UNL     1       1.872  -0.082   1.895  1.00  0.00    -0.244 OA
HETATM   22  O2  UNL     1       5.124   0.490   2.205  1.00  0.00    -0.272 OA
HETATM   23  C8  UNL     1       5.961   0.319  -0.019  1.00  0.00     0.186 C 
ENDBRANCH   7  13
BRANCH   4  24
HETATM   24  N3  UNL     1      -4.392   2.170   0.017  1.00  0.00    -0.384 N 
ATOM     25  H32 UNL     1      -5.402   2.309   0.056  1.00  0.00     0.157 HD
ATOM     26  H31 UNL     1      -3.743   2.956   0.047  1.00  0.00     0.157 HD
ENDBRANCH   4  24
BRANCH   1  27
HETATM   27  N1  UNL     1      -5.095  -2.324  -0.241  1.00  0.00    -0.234 N 
ATOM     28  H12 UNL     1      -6.101  -2.158  -0.201  1.00  0.00     0.174 HD
ATOM     29  H11 UNL     1      -4.681  -3.254  -0.311  1.00  0.00     0.174 HD
ENDBRANCH   1  27
TORSDOF 3
