REMARK  5 active torsions:
REMARK  status: ('A' for Active; 'I' for Inactive)
REMARK    1  A    between atoms: N1_2  and  N2_3 
REMARK    2  A    between atoms: N1_2  and  C9_21 
REMARK       I    between atoms: N2_3  and  C2_5 
REMARK    3  A    between atoms: C2_5  and  C3_7 
REMARK    4  A    between atoms: C5_9  and  N3_10 
REMARK    5  A    between atoms: C7_15  and  N5_16 
ROOT
HETATM    1  N2  UNL     1       0.744  -1.435   0.331  1.00  0.00    -0.249 N 
ATOM      2  H2  UNL     1       0.263  -2.271  -0.002  1.00  0.00     0.191 HD
HETATM    3  C2  UNL     1       0.017  -0.263   0.511  1.00  0.00     0.272 C 
HETATM    4  O1  UNL     1       0.655   0.766   0.928  1.00  0.00    -0.266 OA
ENDROOT
BRANCH   3   5
HETATM    5  C3  UNL     1      -1.404  -0.095   0.268  1.00  0.00     0.062 A 
HETATM    6  C4  UNL     1      -2.170  -1.139  -0.183  1.00  0.00     0.057 A 
HETATM    7  C5  UNL     1      -3.534  -0.985  -0.421  1.00  0.00     0.130 A 
HETATM    8  C6  UNL     1      -4.165   0.221  -0.211  1.00  0.00     0.114 A 
HETATM    9  N4  UNL     1      -5.569   0.388  -0.455  1.00  0.00    -0.097 NA
HETATM   10  C7  UNL     1      -3.408   1.279   0.242  1.00  0.00     0.154 A 
HETATM   11  C8  UNL     1      -2.041   1.106   0.475  1.00  0.00     0.097 A 
HETATM   12  N6  UNL     1      -1.249   2.190   0.942  1.00  0.00    -0.099 NA
BRANCH   7  13
HETATM   13  N3  UNL     1      -4.318  -2.064  -0.894  1.00  0.00    -0.114 N 
HETATM   14  O2  UNL     1      -3.763  -2.946  -1.575  1.00  0.00    -0.532 OA
HETATM   15  O3  UNL     1      -5.659  -2.180  -0.640  1.00  0.00    -0.532 OA
ENDBRANCH   7  13
BRANCH  10  16
HETATM   16  N5  UNL     1      -3.975   2.561   0.487  1.00  0.00    -0.112 N 
HETATM   17  O4  UNL     1      -4.693   2.667   1.499  1.00  0.00    -0.532 OA
HETATM   18  O5  UNL     1      -3.763   3.626  -0.322  1.00  0.00    -0.532 OA
ENDBRANCH  10  16
ENDBRANCH   3   5
BRANCH   1  19
HETATM   19  N1  UNL     1       2.102  -1.498   0.591  1.00  0.00    -0.124 N 
HETATM   20  C1  UNL     1       2.538  -2.328   1.721  1.00  0.00     0.197 C 
BRANCH  19  21
HETATM   21  C9  UNL     1       3.112  -0.820  -0.155  1.00  0.00     0.717 A 
HETATM   22  N7  UNL     1       3.556  -1.398  -1.241  1.00  0.00    -0.116 N 
HETATM   23  N8  UNL     1       4.546  -0.829  -2.053  1.00  0.00    -0.226 N 
ATOM     24  H7  UNL     1       3.165  -2.301  -1.508  1.00  0.00     0.207 HD
HETATM   25  N9  UNL     1       5.086   0.410  -1.695  1.00  0.00    -0.258 N 
ATOM     26  H8  UNL     1       4.868  -1.311  -2.892  1.00  0.00     0.209 HD
HETATM   27  C10 UNL     1       4.582   1.020  -0.503  1.00  0.00     0.222 A 
ATOM     28  H9  UNL     1       5.808   0.859  -2.259  1.00  0.00     0.191 HD
HETATM   29  N10 UNL     1       5.138   2.275  -0.149  1.00  0.00    -0.061 NA
HETATM   30  N11 UNL     1       3.669   0.428   0.189  1.00  0.00    -0.159 N 
ATOM     31  H11 UNL     1       3.331   0.889   1.033  1.00  0.00     0.187 HD
ENDBRANCH  19  21
ENDBRANCH   1  19
TORSDOF 5
