REMARK  10 active torsions:
REMARK  status: ('A' for Active; 'I' for Inactive)
REMARK    1  A    between atoms: O1_2  and  C2_3 
REMARK    2  A    between atoms: C2_3  and  O2_4 
REMARK    3  A    between atoms: C4_7  and  O3_8 
REMARK    4  A    between atoms: O3_8  and  C5_9 
REMARK    5  A    between atoms: C8_14  and  N2_15 
REMARK    6  A    between atoms: N2_15  and  C9_17 
REMARK    7  A    between atoms: C10_21  and  O4_22 
REMARK    8  A    between atoms: C11_24  and  O5_25 
REMARK    9  A    between atoms: C12_27  and  C13_28 
REMARK   10  A    between atoms: C13_28  and  O6_29 
ROOT
HETATM    1  O3  UNL     1      -0.159  -0.183  -0.047  1.00  0.00    -0.356 OA
ENDROOT
BRANCH   1   2
HETATM    2  C4  UNL     1      -0.934   0.171  -1.111  1.00  0.00     0.163 C 
HETATM    3  C3  UNL     1      -2.070  -0.867  -1.189  1.00  0.00     0.136 C 
HETATM    4  C2  UNL     1      -2.882  -0.848   0.082  1.00  0.00     0.282 C 
HETATM    5  O7  UNL     1      -2.801   0.286   0.820  1.00  0.00    -0.323 OA
HETATM    6  C12 UNL     1      -2.547   1.474   0.226  1.00  0.00     0.182 C 
HETATM    7  C11 UNL     1      -1.631   1.493  -0.948  1.00  0.00     0.178 C 
BRANCH   4   8
HETATM    8  O1  UNL     1      -4.180  -1.311  -0.166  1.00  0.00    -0.338 OA
HETATM    9  C1  UNL     1      -4.886  -1.501   1.020  1.00  0.00     0.208 C 
ENDBRANCH   4   8
BRANCH   4  10
HETATM   10  O2  UNL     1      -2.302  -1.876   0.879  1.00  0.00    -0.343 OA
ATOM     11  H2  UNL     1      -1.421  -1.562   1.047  1.00  0.00     0.215 HD
ENDBRANCH   4  10
BRANCH   6  12
HETATM   12  C13 UNL     1      -3.823   2.238  -0.171  1.00  0.00     0.199 C 
BRANCH  12  13
HETATM   13  O6  UNL     1      -4.522   1.442  -1.068  1.00  0.00    -0.398 OA
ATOM     14  H6  UNL     1      -5.309   1.914  -1.313  1.00  0.00     0.209 HD
ENDBRANCH  12  13
ENDBRANCH   6  12
BRANCH   7  15
HETATM   15  O5  UNL     1      -0.766   2.564  -0.881  1.00  0.00    -0.390 OA
ATOM     16  H5  UNL     1      -1.206   3.399  -0.778  1.00  0.00     0.210 HD
ENDBRANCH   7  15
ENDBRANCH   1   2
BRANCH   1  17
HETATM   17  C5  UNL     1       1.132  -0.529  -0.312  1.00  0.00     0.248 C 
HETATM   18  N1  UNL     1       1.444  -1.860   0.139  1.00  0.00    -0.395 N 
HETATM   19  C6  UNL     1       2.807  -2.219   0.100  1.00  0.00     0.118 C 
ATOM     20  H1  UNL     1       0.724  -2.504   0.467  1.00  0.00     0.155 HD
HETATM   21  C7  UNL     1       3.790  -1.153   0.451  1.00  0.00     0.047 C 
HETATM   22  C8  UNL     1       3.425   0.201  -0.115  1.00  0.00     0.116 C 
HETATM   23  C10 UNL     1       2.021   0.478   0.394  1.00  0.00     0.189 C 
BRANCH  22  24
HETATM   24  N2  UNL     1       4.369   1.177   0.290  1.00  0.00    -0.379 N 
ATOM     25  H2  UNL     1       4.065   1.984   0.835  1.00  0.00     0.160 HD
BRANCH  24  26
HETATM   26  C9  UNL     1       5.732   1.033  -0.060  1.00  0.00     0.169 C 
HETATM   27  N3  UNL     1       6.276   1.622  -1.053  1.00  0.00    -0.396 N 
ATOM     28  H32 UNL     1       5.679   2.228  -1.616  1.00  0.00     0.156 HD
ATOM     29  H31 UNL     1       7.259   1.518  -1.305  1.00  0.00     0.156 HD
ENDBRANCH  24  26
ENDBRANCH  22  24
BRANCH  23  30
HETATM   30  O4  UNL     1       2.025   0.168   1.756  1.00  0.00    -0.389 OA
ATOM     31  H4  UNL     1       2.582   0.798   2.198  1.00  0.00     0.210 HD
ENDBRANCH  23  30
ENDBRANCH   1  17
TORSDOF 10
