REMARK  15 active torsions:
REMARK  status: ('A' for Active; 'I' for Inactive)
REMARK    1  A    between atoms: C2_2  and  N1_3 
REMARK    2  A    between atoms: N2_6  and  C5_7 
REMARK    3  A    between atoms: C5_7  and  C6_8 
REMARK    4  A    between atoms: C6_8  and  C7_9 
REMARK       I    between atoms: C7_9  and  N3_11 
REMARK    5  A    between atoms: N3_11  and  C8_13 
REMARK    6  A    between atoms: C8_13  and  C9_14 
REMARK    7  A    between atoms: C9_14  and  O3_16 
REMARK    8  A    between atoms: O3_16  and  C10_17 
REMARK    9  A    between atoms: C10_17  and  C11_18 
REMARK   10  A    between atoms: C11_18  and  C12_19 
REMARK   11  A    between atoms: C12_19  and  C13_20 
REMARK   12  A    between atoms: C13_20  and  C14_21 
REMARK   13  A    between atoms: C15_22  and  C16_23 
REMARK   14  A    between atoms: C18_26  and  C19_27 
REMARK       I    between atoms: C19_27  and  N5_29 
REMARK   15  A    between atoms: N5_29  and  C20_31 
ROOT
HETATM    1  C11 UNL     1      -0.401   2.047  -2.269  1.00  0.00     0.028 C 
ENDROOT
BRANCH   1   2
HETATM    2  C10 UNL     1       0.645   2.964  -1.696  1.00  0.00     0.178 C 
BRANCH   2   3
HETATM    3  O3  UNL     1       1.851   2.774  -2.354  1.00  0.00    -0.320 OA
BRANCH   3   4
HETATM    4  C9  UNL     1       2.560   1.603  -2.335  1.00  0.00     0.287 C 
HETATM    5  O2  UNL     1       2.147   0.621  -1.688  1.00  0.00    -0.262 OA
BRANCH   4   6
HETATM    6  C8  UNL     1       3.844   1.455  -3.085  1.00  0.00     0.120 C 
HETATM    7  C28 UNL     1       4.727   2.604  -2.632  1.00  0.00     0.041 C 
HETATM    8  C29 UNL     1       5.489   3.048  -3.855  1.00  0.00     0.003 C 
HETATM    9  C30 UNL     1       4.808   2.500  -5.056  1.00  0.00     0.003 C 
HETATM   10  C31 UNL     1       3.629   1.705  -4.567  1.00  0.00     0.041 C 
BRANCH   6  11
HETATM   11  N3  UNL     1       4.382   0.169  -2.890  1.00  0.00    -0.342 N 
HETATM   12  C7  UNL     1       4.854  -0.390  -1.650  1.00  0.00     0.223 C 
HETATM   13  O1  UNL     1       4.794   0.322  -0.632  1.00  0.00    -0.273 OA
ATOM     14  H3  UNL     1       4.444  -0.430  -3.714  1.00  0.00     0.163 HD
BRANCH  12  15
HETATM   15  C6  UNL     1       5.372  -1.757  -1.702  1.00  0.00     0.147 C 
BRANCH  15  16
HETATM   16  C5  UNL     1       6.268  -2.278  -0.679  1.00  0.00     0.067 C 
BRANCH  16  17
HETATM   17  N2  UNL     1       6.025  -2.415   0.666  1.00  0.00    -0.390 N 
HETATM   18  C4  UNL     1       5.946  -1.376   1.593  1.00  0.00     0.152 C 
HETATM   19  C3  UNL     1       6.640  -1.814   2.911  1.00  0.00     0.292 C 
HETATM   20  N1  UNL     1       8.023  -2.094   2.732  1.00  0.00     0.091 N 
HETATM   21  C33 UNL     1       8.217  -2.966   1.586  1.00  0.00     0.292 C 
HETATM   22  C32 UNL     1       6.882  -3.498   1.186  1.00  0.00     0.152 C 
BRANCH  20  23
HETATM   23  C2  UNL     1       8.578  -2.708   3.900  1.00  0.00     0.268 C 
HETATM   24  C1  UNL     1       8.604  -1.721   5.032  1.00  0.00     0.037 C 
ENDBRANCH  20  23
ENDBRANCH  16  17
ENDBRANCH  15  16
ENDBRANCH  12  15
ENDBRANCH   6  11
ENDBRANCH   4   6
ENDBRANCH   3   4
ENDBRANCH   2   3
ENDBRANCH   1   2
BRANCH   1  25
HETATM   25  C12 UNL     1      -1.743   2.210  -1.642  1.00  0.00     0.014 C 
BRANCH  25  26
HETATM   26  C13 UNL     1      -1.755   1.945  -0.135  1.00  0.00     0.094 C 
BRANCH  26  27
HETATM   27  C14 UNL     1      -3.155   2.139   0.349  1.00  0.00    -0.100 C 
HETATM   28  C15 UNL     1      -4.297   2.296   0.699  1.00  0.00    -0.047 C 
BRANCH  28  29
HETATM   29  C16 UNL     1      -5.666   2.486   1.067  1.00  0.00     0.103 A 
HETATM   30  C17 UNL     1      -6.608   1.454   0.953  1.00  0.00     0.138 A 
HETATM   31  N4  UNL     1      -7.909   1.604   1.255  1.00  0.00    -0.298 N 
HETATM   32  C18 UNL     1      -8.978   0.788   1.205  1.00  0.00     0.124 A 
HETATM   33  C25 UNL     1      -8.354   2.794   1.691  1.00  0.00     0.135 A 
HETATM   34  C24 UNL     1     -10.122   1.493   1.618  1.00  0.00     0.125 A 
HETATM   35  N6  UNL     1      -9.694   2.725   1.909  1.00  0.00    -0.348 N 
ATOM     36  H6  UNL     1     -10.279   3.491   2.242  1.00  0.00     0.167 HD
HETATM   37  C26 UNL     1      -7.448   3.833   1.815  1.00  0.00     0.051 A 
HETATM   38  C27 UNL     1      -7.966   5.139   2.297  1.00  0.00     0.072 C 
HETATM   39  N7  UNL     1      -6.158   3.659   1.508  1.00  0.00    -0.349 N 
ATOM     40  H7  UNL     1      -5.520   4.448   1.612  1.00  0.00     0.166 HD
BRANCH  32  41
HETATM   41  C19 UNL     1      -9.003  -0.606   0.870  1.00  0.00     0.270 C 
HETATM   42  O4  UNL     1     -10.115  -1.032   0.367  1.00  0.00    -0.266 OA
HETATM   43  N5  UNL     1      -8.003  -1.568   1.015  1.00  0.00    -0.348 N 
ATOM     44  H5  UNL     1      -7.113  -1.283   1.425  1.00  0.00     0.163 HD
BRANCH  43  45
HETATM   45  C20 UNL     1      -8.164  -2.959   0.611  1.00  0.00     0.022 C 
HETATM   46  C21 UNL     1      -9.347  -3.603   1.254  1.00  0.00     0.037 C 
HETATM   47  C22 UNL     1      -6.944  -3.776   1.077  1.00  0.00     0.037 C 
HETATM   48  C23 UNL     1      -8.234  -3.104  -0.887  1.00  0.00     0.037 C 
ENDBRANCH  43  45
ENDBRANCH  32  41
ENDBRANCH  28  29
ENDBRANCH  26  27
ENDBRANCH  25  26
ENDBRANCH   1  25
TORSDOF 15
