REMARK  5 active torsions:
REMARK  status: ('A' for Active; 'I' for Inactive)
REMARK    1  A    between atoms: C2_2  and  C3_3 
REMARK    2  A    between atoms: C3_3  and  C4_4 
REMARK    3  A    between atoms: C4_4  and  C5_5 
REMARK    4  A    between atoms: C5_5  and  C6_6 
REMARK    5  A    between atoms: C13_13  and  C14_14 
ROOT
HETATM    1  C6  UNL     1       2.225  -0.512  -0.586  1.00  0.00    -0.001 C 
HETATM    2  C7  UNL     1       1.008  -0.664   0.252  1.00  0.00     0.003 C 
HETATM    3  C8  UNL     1       0.593  -2.011  -0.330  1.00  0.00    -0.005 C 
HETATM    4  C9  UNL     1      -0.580  -2.635   0.263  1.00  0.00     0.006 C 
HETATM    5  C10 UNL     1      -1.665  -1.669   0.352  1.00  0.00     0.011 C 
HETATM    6  C11 UNL     1      -1.472  -0.263  -0.150  1.00  0.00    -0.029 C 
HETATM    7  C12 UNL     1      -1.572  -0.266  -1.686  1.00  0.00     0.016 C 
HETATM    8  C13 UNL     1      -2.636   0.430   0.465  1.00  0.00     0.029 C 
HETATM    9  C20 UNL     1      -2.318   1.929   0.448  1.00  0.00     0.013 C 
HETATM   10  C21 UNL     1      -1.370   2.021   1.631  1.00  0.00     0.044 C 
HETATM   11  C22 UNL     1      -0.081   1.387   1.229  1.00  0.00     0.104 C 
HETATM   12  C23 UNL     1       0.602   0.893   2.483  1.00  0.00     0.052 C 
HETATM   13  F1  UNL     1       0.617   2.557   0.853  1.00  0.00    -0.243 F 
HETATM   14  C24 UNL     1      -0.112   0.353   0.148  1.00  0.00     0.038 C 
HETATM   15  C25 UNL     1       1.797  -2.863  -0.099  1.00  0.00    -0.002 C 
HETATM   16  C26 UNL     1       2.516  -2.887   1.173  1.00  0.00     0.006 C 
HETATM   17  C27 UNL     1       3.702  -2.276   0.431  1.00  0.00     0.010 C 
HETATM   18  C28 UNL     1       2.810  -1.886  -0.702  1.00  0.00    -0.036 C 
HETATM   19  C29 UNL     1       3.234  -2.321  -2.094  1.00  0.00     0.016 C 
ENDROOT
BRANCH   8  20
HETATM   20  C14 UNL     1      -4.001   0.243   0.099  1.00  0.00     0.003 C 
HETATM   21  C15 UNL     1      -4.538   0.452  -1.270  1.00  0.00     0.078 C 
HETATM   22  C16 UNL     1      -6.019   0.100  -1.041  1.00  0.00     0.067 C 
HETATM   23  C17 UNL     1      -6.744  -0.095  -2.320  1.00  0.00     0.046 C 
HETATM   24  C18 UNL     1      -6.672   1.017  -0.066  1.00  0.00     0.046 C 
HETATM   25  O1  UNL     1      -5.780  -1.149  -0.353  1.00  0.00    -0.307 OA
HETATM   26  C19 UNL     1      -4.797  -0.883   0.625  1.00  0.00     0.286 C 
HETATM   27  O2  UNL     1      -4.725  -1.540   1.676  1.00  0.00    -0.260 OA
ENDBRANCH   8  20
BRANCH   1  28
HETATM   28  C5  UNL     1       3.283   0.423  -0.207  1.00  0.00     0.006 C 
BRANCH  28  29
HETATM   29  C4  UNL     1       4.419   0.395  -1.200  1.00  0.00     0.000 C 
BRANCH  29  30
HETATM   30  C3  UNL     1       5.511   1.350  -0.842  1.00  0.00    -0.000 C 
BRANCH  30  31
HETATM   31  C2  UNL     1       5.006   2.756  -0.822  1.00  0.00    -0.005 C 
HETATM   32  C1  UNL     1       6.140   3.736  -0.491  1.00  0.00     0.005 C 
ENDBRANCH  30  31
ENDBRANCH  29  30
ENDBRANCH  28  29
ENDBRANCH   1  28
TORSDOF 5
