REMARK  8 active torsions:
REMARK  status: ('A' for Active; 'I' for Inactive)
REMARK    1  A    between atoms: C2_2  and  O1_3 
REMARK    2  A    between atoms: C2_2  and  C3_5 
REMARK    3  A    between atoms: C4_6  and  C5_7 
REMARK    4  A    between atoms: C5_7  and  C6_8 
REMARK    5  A    between atoms: C6_8  and  C7_9 
REMARK    6  A    between atoms: C6_8  and  C8_12 
REMARK    7  A    between atoms: C7_9  and  O2_10 
REMARK    8  A    between atoms: C8_12  and  C9_13 
ROOT
HETATM    1  C6  UNL     1      -1.102  -0.912   0.879  1.00  0.00     0.013 C 
ENDROOT
BRANCH   1   2
HETATM    2  C5  UNL     1      -2.068  -1.112  -0.320  1.00  0.00     0.033 C 
BRANCH   2   3
HETATM    3  C4  UNL     1      -2.822   0.087  -0.679  1.00  0.00    -0.028 C 
HETATM    4  C3  UNL     1      -4.161   0.073  -0.619  1.00  0.00    -0.000 C 
BRANCH   4   5
HETATM    5  C2  UNL     1      -4.994   1.240  -0.965  1.00  0.00     0.136 C 
HETATM    6  C1  UNL     1      -6.397   0.807  -1.338  1.00  0.00     0.043 C 
BRANCH   5   7
HETATM    7  O1  UNL     1      -5.107   2.020   0.206  1.00  0.00    -0.392 OA
ATOM      8  H1  UNL     1      -4.227   2.292   0.440  1.00  0.00     0.210 HD
ENDBRANCH   5   7
ENDBRANCH   4   5
ENDBRANCH   2   3
ENDBRANCH   1   2
BRANCH   1   9
HETATM    9  C7  UNL     1      -0.468  -2.311   1.035  1.00  0.00     0.168 C 
BRANCH   9  10
HETATM   10  O2  UNL     1      -1.516  -3.243   1.282  1.00  0.00    -0.400 OA
ATOM     11  H2  UNL     1      -1.126  -4.104   1.378  1.00  0.00     0.209 HD
ENDBRANCH   9  10
ENDBRANCH   1   9
BRANCH   1  12
HETATM   12  C8  UNL     1      -0.158   0.133   0.474  1.00  0.00     0.021 C 
BRANCH  12  13
HETATM   13  C9  UNL     1       0.906   0.628   1.348  1.00  0.00     0.080 C 
HETATM   14  C10 UNL     1       1.626   1.735   0.478  1.00  0.00     0.039 C 
HETATM   15  C11 UNL     1       2.650   0.917  -0.285  1.00  0.00     0.088 C 
HETATM   16  C12 UNL     1       3.963   1.667  -0.232  1.00  0.00     0.025 C 
HETATM   17  N1  UNL     1       2.876  -0.302   0.511  1.00  0.00    -0.347 N 
HETATM   18  C13 UNL     1       5.104   0.818  -0.681  1.00  0.00     0.004 C 
HETATM   19  C14 UNL     1       4.775  -0.597  -0.993  1.00  0.00     0.020 C 
HETATM   20  C15 UNL     1       3.820  -1.246  -0.018  1.00  0.00     0.126 C 
HETATM   21  C16 UNL     1       2.047  -0.222   1.678  1.00  0.00     0.224 C 
HETATM   22  O3  UNL     1       2.285  -0.779   2.751  1.00  0.00    -0.273 OA
ENDBRANCH  12  13
ENDBRANCH   1  12
TORSDOF 8
