REMARK  10 active torsions:
REMARK  status: ('A' for Active; 'I' for Inactive)
REMARK    1  A    between atoms: C2_2  and  N1_3 
REMARK    2  A    between atoms: C9_14  and  O3_15 
REMARK    3  A    between atoms: C10_17  and  C11_18 
REMARK    4  A    between atoms: C11_18  and  O4_19 
REMARK    5  A    between atoms: C11_18  and  C12_21 
REMARK    6  A    between atoms: C12_21  and  O5_22 
REMARK    7  A    between atoms: C12_21  and  C13_24 
REMARK    8  A    between atoms: C13_24  and  O6_25 
REMARK    9  A    between atoms: C13_24  and  N3_27 
REMARK   10  A    between atoms: N3_27  and  O7_28 
ROOT
HETATM    1  N1  UNL     1      -1.494   1.470  -0.052  1.00  0.00    -0.230 NA
HETATM    2  C3  UNL     1      -2.973   1.275  -0.055  1.00  0.00     0.133 C 
HETATM    3  C4  UNL     1      -3.341  -0.164   0.238  1.00  0.00     0.139 C 
HETATM    4  N2  UNL     1      -3.015  -0.890  -0.969  1.00  0.00    -0.359 N 
ATOM      5  H2  UNL     1      -3.706  -0.986  -1.713  1.00  0.00     0.162 HD
HETATM    6  C5  UNL     1      -1.744  -1.460  -1.110  1.00  0.00     0.234 C 
HETATM    7  O1  UNL     1      -1.151  -1.350  -2.211  1.00  0.00    -0.272 OA
HETATM    8  C6  UNL     1      -1.122  -2.165  -0.016  1.00  0.00     0.120 C 
HETATM    9  C7  UNL     1      -2.026  -3.227   0.657  1.00  0.00     0.034 C 
HETATM   10  C8  UNL     1       0.106  -2.978  -0.487  1.00  0.00     0.197 C 
HETATM   11  O2  UNL     1       0.721  -2.499   0.637  1.00  0.00    -0.348 OA
HETATM   12  C9  UNL     1      -0.253  -1.517   0.933  1.00  0.00     0.224 C 
HETATM   13  C10 UNL     1       0.165  -0.106   0.863  1.00  0.00     0.093 C 
HETATM   14  N4  UNL     1      -0.913   0.805   0.935  1.00  0.00    -0.319 N 
ATOM     15  H4  UNL     1      -1.292   0.972   1.867  1.00  0.00     0.180 HD
ENDROOT
BRANCH  13  16
HETATM   16  C11 UNL     1       1.311   0.276  -0.025  1.00  0.00     0.203 C 
BRANCH  16  17
HETATM   17  O4  UNL     1       1.736   1.535   0.535  1.00  0.00    -0.387 OA
ATOM     18  H4  UNL     1       2.462   1.777  -0.028  1.00  0.00     0.210 HD
ENDBRANCH  16  17
BRANCH  16  19
HETATM   19  C12 UNL     1       2.601  -0.434   0.146  1.00  0.00     0.199 C 
BRANCH  19  20
HETATM   20  O5  UNL     1       2.994  -0.479   1.504  1.00  0.00    -0.389 OA
ATOM     21  H5  UNL     1       3.821  -0.934   1.614  1.00  0.00     0.210 HD
ENDBRANCH  19  20
BRANCH  19  22
HETATM   22  C13 UNL     1       3.692   0.320  -0.592  1.00  0.00     0.269 C 
BRANCH  22  23
HETATM   23  O6  UNL     1       3.832   1.637  -0.276  1.00  0.00    -0.375 OA
ATOM     24  H6  UNL     1       4.515   2.109  -0.738  1.00  0.00     0.211 HD
ENDBRANCH  22  23
BRANCH  22  25
HETATM   25  N3  UNL     1       4.973  -0.378  -0.460  1.00  0.00    -0.069 NA
BRANCH  25  26
HETATM   26  O7  UNL     1       5.860   0.400  -1.149  1.00  0.00    -0.294 OA
ATOM     27  H7  UNL     1       6.691  -0.053  -1.063  1.00  0.00     0.238 HD
ENDBRANCH  25  26
ENDBRANCH  22  25
ENDBRANCH  19  22
ENDBRANCH  16  19
ENDBRANCH  13  16
BRANCH  12  28
HETATM   28  O3  UNL     1      -0.602  -1.862   2.285  1.00  0.00    -0.360 OA
ATOM     29  H3  UNL     1      -0.029  -1.435   2.911  1.00  0.00     0.213 HD
ENDBRANCH  12  28
BRANCH   1  30
HETATM   30  C2  UNL     1      -1.422   2.927  -0.051  1.00  0.00     0.109 C 
HETATM   31  C1  UNL     1      -1.889   3.568  -1.315  1.00  0.00     0.023 C 
ENDBRANCH   1  30
TORSDOF 10
