REMARK  9 active torsions:
REMARK  status: ('A' for Active; 'I' for Inactive)
REMARK    1  A    between atoms: O1_2  and  C2_3 
REMARK    2  A    between atoms: C3_6  and  C4_7 
REMARK    3  A    between atoms: C4_7  and  C5_8 
REMARK    4  A    between atoms: C5_8  and  N2_9 
REMARK    5  A    between atoms: C6_15  and  C7_16 
REMARK    6  A    between atoms: C7_16  and  C8_17 
REMARK    7  A    between atoms: C9_18  and  C10_19 
REMARK    8  A    between atoms: C13_24  and  N5_25 
REMARK    9  A    between atoms: C14_30  and  N7_31 
ROOT
HETATM    1  C10 UNL     1      -2.175  -0.998  -0.752  1.00  0.00     0.103 A 
HETATM    2  C11 UNL     1      -2.920  -1.422  -1.850  1.00  0.00     0.127 A 
HETATM    3  N4  UNL     1      -4.192  -1.044  -2.066  1.00  0.00    -0.357 N 
ATOM      4  H4  UNL     1      -4.707  -1.375  -2.882  1.00  0.00     0.165 HD
HETATM    5  C12 UNL     1      -4.771  -0.207  -1.164  1.00  0.00     0.122 A 
HETATM    6  C13 UNL     1      -6.090   0.196  -1.373  1.00  0.00     0.145 A 
HETATM    7  N6  UNL     1      -6.624   1.028  -0.450  1.00  0.00    -0.175 N 
ATOM      8  H6  UNL     1      -7.586   1.347  -0.563  1.00  0.00     0.186 HD
HETATM    9  C14 UNL     1      -5.913   1.443   0.613  1.00  0.00     0.681 A 
HETATM   10  N8  UNL     1      -4.643   1.049   0.805  1.00  0.00    -0.170 N 
HETATM   11  C15 UNL     1      -3.889   1.500   1.950  1.00  0.00     0.177 C 
HETATM   12  C16 UNL     1      -4.033   0.213  -0.077  1.00  0.00     0.154 A 
HETATM   13  N9  UNL     1      -2.757  -0.170   0.134  1.00  0.00    -0.332 N 
ATOM     14  H9  UNL     1      -2.243   0.162   0.950  1.00  0.00     0.168 HD
ENDROOT
BRANCH   1  15
HETATM   15  C9  UNL     1      -0.803  -1.444  -0.577  1.00  0.00    -0.047 C 
HETATM   16  C8  UNL     1       0.337  -1.831  -0.447  1.00  0.00    -0.093 C 
BRANCH  16  17
HETATM   17  C7  UNL     1       1.705  -2.316  -0.307  1.00  0.00     0.155 C 
BRANCH  17  18
HETATM   18  C6  UNL     1       2.623  -1.203   0.049  1.00  0.00     0.073 A 
HETATM   19  C2  UNL     1       3.075  -0.251  -0.829  1.00  0.00     0.167 A 
HETATM   20  N1  UNL     1       3.875   0.571  -0.134  1.00  0.00    -0.325 N 
HETATM   21  C3  UNL     1       3.932   0.154   1.151  1.00  0.00     0.085 A 
ATOM     22  H1  UNL     1       4.363   1.382  -0.514  1.00  0.00     0.169 HD
HETATM   23  N3  UNL     1       3.160  -0.938   1.261  1.00  0.00    -0.345 N 
ATOM     24  H3  UNL     1       3.005  -1.476   2.113  1.00  0.00     0.167 HD
BRANCH  19  25
HETATM   25  O1  UNL     1       2.758  -0.161  -2.183  1.00  0.00    -0.339 OA
HETATM   26  C1  UNL     1       3.555  -0.689  -3.204  1.00  0.00     0.211 C 
ENDBRANCH  19  25
BRANCH  21  27
HETATM   27  C4  UNL     1       4.739   0.846   2.196  1.00  0.00     0.104 C 
BRANCH  27  28
HETATM   28  C5  UNL     1       6.143   0.283   2.265  1.00  0.00     0.237 C 
BRANCH  28  29
HETATM   29  N2  UNL     1       6.807   0.454   0.984  1.00  0.00    -0.079 N 
ATOM     30  H23 UNL     1       6.270   0.050   0.217  1.00  0.00     0.274 HD
ATOM     31  H22 UNL     1       6.799   1.426   0.675  1.00  0.00     0.274 HD
ATOM     32  H21 UNL     1       7.753   0.075   1.030  1.00  0.00     0.274 HD
ENDBRANCH  28  29
ENDBRANCH  27  28
ENDBRANCH  21  27
ENDBRANCH  17  18
ENDBRANCH  16  17
ENDBRANCH   1  15
BRANCH   6  33
HETATM   33  N5  UNL     1      -6.761  -0.210  -2.397  1.00  0.00    -0.383 N 
ATOM     34  H52 UNL     1      -6.358  -0.837  -3.093  1.00  0.00     0.157 HD
ATOM     35  H51 UNL     1      -7.725   0.085  -2.550  1.00  0.00     0.157 HD
ENDBRANCH   6  33
BRANCH   9  36
HETATM   36  N7  UNL     1      -6.497   2.248   1.463  1.00  0.00    -0.234 N 
ATOM     37  H72 UNL     1      -7.461   2.547   1.317  1.00  0.00     0.174 HD
ATOM     38  H71 UNL     1      -5.958   2.563   2.269  1.00  0.00     0.174 HD
ENDBRANCH   9  36
TORSDOF 9
