REMARK  12 active torsions:
REMARK  status: ('A' for Active; 'I' for Inactive)
REMARK    1  A    between atoms: O1_2  and  C2_3 
REMARK    2  A    between atoms: C2_3  and  O2_4 
REMARK    3  A    between atoms: C2_3  and  C3_6 
REMARK    4  A    between atoms: C6_9  and  C7_10 
REMARK    5  A    between atoms: C8_11  and  C9_12 
REMARK    6  A    between atoms: C10_17  and  C11_18 
REMARK    7  A    between atoms: C11_18  and  C12_19 
REMARK    8  A    between atoms: C11_18  and  O4_22 
REMARK    9  A    between atoms: C12_19  and  O3_20 
REMARK   10  A    between atoms: O4_22  and  N3_23 
REMARK   11  A    between atoms: C13_25  and  C15_27 
REMARK   12  A    between atoms: C16_30  and  N5_31 
ROOT
HETATM    1  C9  UNL     1       0.564   1.391   0.064  1.00  0.00     0.145 A 
HETATM    2  N1  UNL     1       0.203   2.526  -0.378  1.00  0.00    -0.286 N 
ATOM      3  H1  UNL     1       0.896   3.170  -0.761  1.00  0.00     0.188 HD
HETATM    4  N2  UNL     1      -1.089   2.875  -0.340  1.00  0.00    -0.294 N 
ATOM      5  H2  UNL     1      -1.381   3.786  -0.695  1.00  0.00     0.187 HD
HETATM    6  C10 UNL     1      -1.956   2.072   0.139  1.00  0.00     0.102 A 
HETATM    7  S1  UNL     1      -0.964   0.646   0.615  1.00  0.00    -0.044 SA
ENDROOT
BRANCH   6   8
HETATM    8  C11 UNL     1      -3.428   2.226   0.290  1.00  0.00     0.234 C 
BRANCH   8   9
HETATM    9  C12 UNL     1      -3.714   2.106   1.783  1.00  0.00     0.205 C 
BRANCH   9  10
HETATM   10  O3  UNL     1      -5.059   2.145   2.069  1.00  0.00    -0.398 OA
ATOM     11  H3  UNL     1      -5.237   2.070   2.999  1.00  0.00     0.209 HD
ENDBRANCH   9  10
ENDBRANCH   8   9
BRANCH   8  12
HETATM   12  O4  UNL     1      -4.079   1.125  -0.324  1.00  0.00    -0.266 OA
BRANCH  12  13
HETATM   13  N3  UNL     1      -5.013   1.309  -1.285  1.00  0.00    -0.267 N 
HETATM   14  C13 UNL     1      -6.043   0.584  -1.371  1.00  0.00     0.074 C 
HETATM   15  C14 UNL     1      -6.983   0.927  -2.503  1.00  0.00     0.074 C 
ATOM     16  H3  UNL     1      -4.881   2.059  -1.963  1.00  0.00     0.194 HD
BRANCH  14  17
HETATM   17  C15 UNL     1      -6.432  -0.524  -0.529  1.00  0.00     0.160 A 
HETATM   18  N4  UNL     1      -7.551  -1.283  -0.652  1.00  0.00    -0.172 N 
HETATM   19  C16 UNL     1      -7.566  -2.212   0.309  1.00  0.00     0.692 A 
ATOM     20  H4  UNL     1      -8.269  -1.163  -1.367  1.00  0.00     0.186 HD
HETATM   21  N6  UNL     1      -6.483  -2.067   1.048  1.00  0.00    -0.131 N 
HETATM   22  N7  UNL     1      -5.796  -1.033   0.528  1.00  0.00    -0.269 N 
ATOM     23  H6  UNL     1      -6.218  -2.629   1.857  1.00  0.00     0.205 HD
ATOM     24  H7  UNL     1      -4.909  -0.685   0.893  1.00  0.00     0.189 HD
BRANCH  19  25
HETATM   25  N5  UNL     1      -8.481  -3.106   0.495  1.00  0.00    -0.233 N 
ATOM     26  H52 UNL     1      -9.318  -3.218  -0.076  1.00  0.00     0.174 HD
ATOM     27  H51 UNL     1      -8.492  -3.815   1.228  1.00  0.00     0.174 HD
ENDBRANCH  19  25
ENDBRANCH  14  17
ENDBRANCH  12  13
ENDBRANCH   8  12
ENDBRANCH   6   8
BRANCH   1  28
HETATM   28  C8  UNL     1       1.881   0.867   0.097  1.00  0.00    -0.034 C 
HETATM   29  C7  UNL     1       3.003   0.413   0.107  1.00  0.00    -0.058 C 
BRANCH  29  30
HETATM   30  C6  UNL     1       4.328  -0.147   0.106  1.00  0.00     0.033 A 
HETATM   31  C5  UNL     1       5.283   0.335  -0.767  1.00  0.00     0.024 A 
HETATM   32  C4  UNL     1       6.569  -0.184  -0.792  1.00  0.00     0.031 A 
HETATM   33  C3  UNL     1       6.897  -1.198   0.072  1.00  0.00     0.064 A 
HETATM   34  N8  UNL     1       5.963  -1.680   0.936  1.00  0.00    -0.364 N 
HETATM   35  C17 UNL     1       4.715  -1.165   0.949  1.00  0.00     0.109 A 
ATOM     36  H8  UNL     1       6.207  -2.435   1.577  1.00  0.00     0.165 HD
BRANCH  33  37
HETATM   37  C2  UNL     1       8.253  -1.771   0.071  1.00  0.00     0.307 C 
BRANCH  37  38
HETATM   38  O1  UNL     1       9.194  -0.766   0.027  1.00  0.00    -0.360 OA
HETATM   39  C1  UNL     1      10.016  -0.842  -1.105  1.00  0.00     0.205 C 
ENDBRANCH  37  38
BRANCH  37  40
HETATM   40  O2  UNL     1       8.475  -2.556   1.209  1.00  0.00    -0.366 OA
ATOM     41  H2  UNL     1       7.826  -3.249   1.239  1.00  0.00     0.213 HD
ENDBRANCH  37  40
ENDBRANCH  33  37
ENDBRANCH  29  30
ENDBRANCH   1  28
TORSDOF 12
