REMARK  7 active torsions:
REMARK  status: ('A' for Active; 'I' for Inactive)
REMARK    1  A    between atoms: C2_2  and  C3_3 
REMARK    2  A    between atoms: C2_2  and  C7_11 
REMARK    3  A    between atoms: C3_3  and  C4_4 
REMARK    4  A    between atoms: C4_4  and  O1_5 
REMARK    5  A    between atoms: O1_5  and  C5_6 
REMARK    6  A    between atoms: C5_6  and  C6_7 
REMARK    7  A    between atoms: C15_19  and  O2_20 
ROOT
HETATM    1  C7  UNL     1      -0.012  -0.758  -0.848  1.00  0.00    -0.013 C 
HETATM    2  C8  UNL     1       0.102   0.569  -1.489  1.00  0.00     0.014 C 
HETATM    3  C9  UNL     1       0.254   1.777  -0.673  1.00  0.00     0.001 C 
HETATM    4  C10 UNL     1      -0.838   2.775  -1.106  1.00  0.00     0.000 C 
HETATM    5  C11 UNL     1      -1.639   3.250   0.064  1.00  0.00     0.000 C 
HETATM    6  C12 UNL     1      -3.090   2.882  -0.010  1.00  0.00     0.000 C 
HETATM    7  C13 UNL     1      -3.334   1.404  -0.121  1.00  0.00     0.005 C 
HETATM    8  C14 UNL     1      -2.702   0.615   0.996  1.00  0.00     0.068 C 
HETATM    9  C15 UNL     1      -2.174  -0.732   0.499  1.00  0.00     0.164 C 
HETATM   10  C17 UNL     1      -0.693  -0.827   0.482  1.00  0.00     0.082 C 
HETATM   11  O3  UNL     1      -2.805  -1.005  -0.710  1.00  0.00    -0.355 OA
HETATM   12  C18 UNL     1      -2.847  -2.395  -0.901  1.00  0.00     0.171 C 
HETATM   13  C19 UNL     1      -1.435  -2.810  -1.264  1.00  0.00     0.027 C 
HETATM   14  C20 UNL     1      -0.739  -1.646  -1.867  1.00  0.00     0.016 C 
ENDROOT
BRANCH   1  15
HETATM   15  C2  UNL     1       1.344  -1.355  -0.652  1.00  0.00    -0.078 C 
HETATM   16  C1  UNL     1       1.761  -2.503  -1.135  1.00  0.00     0.015 C 
BRANCH  15  17
HETATM   17  C3  UNL     1       2.324  -0.566   0.196  1.00  0.00     0.060 C 
BRANCH  17  18
HETATM   18  C4  UNL     1       3.634  -1.260   0.371  1.00  0.00     0.172 C 
BRANCH  18  19
HETATM   19  O1  UNL     1       4.487  -0.538   1.166  1.00  0.00    -0.382 OA
BRANCH  19  20
HETATM   20  C5  UNL     1       4.784   0.706   0.665  1.00  0.00     0.284 C 
BRANCH  20  21
HETATM   21  C6  UNL     1       5.777   1.421   1.585  1.00  0.00     0.408 C 
HETATM   22  F1  UNL     1       6.909   0.652   1.642  1.00  0.00    -0.169 F 
HETATM   23  F2  UNL     1       5.193   1.630   2.816  1.00  0.00    -0.169 F 
HETATM   24  F3  UNL     1       6.129   2.641   1.053  1.00  0.00    -0.169 F 
ENDBRANCH  20  21
ENDBRANCH  19  20
ENDBRANCH  18  19
ENDBRANCH  17  18
ENDBRANCH  15  17
ENDBRANCH   1  15
BRANCH   9  25
HETATM   25  O2  UNL     1      -2.654  -1.683   1.398  1.00  0.00    -0.360 OA
HETATM   26  C16 UNL     1      -2.153  -1.591   2.667  1.00  0.00     0.205 C 
ENDBRANCH   9  25
TORSDOF 7
