REMARK  7 active torsions:
REMARK  status: ('A' for Active; 'I' for Inactive)
REMARK    1  A    between atoms: C2_2  and  C3_3 
REMARK    2  A    between atoms: C3_3  and  C4_4 
REMARK    3  A    between atoms: C4_4  and  C5_5 
REMARK    4  A    between atoms: C5_5  and  C6_6 
REMARK    5  A    between atoms: C6_6  and  C7_7 
REMARK    6  A    between atoms: C7_7  and  C8_8 
REMARK    7  A    between atoms: C18_22  and  C19_23 
ROOT
HETATM    1  C8  UNL     1       1.699   0.677  -1.044  1.00  0.00    -0.075 C 
HETATM    2  C9  UNL     1       1.092  -0.400  -1.594  1.00  0.00    -0.004 C 
HETATM    3  C10 UNL     1      -0.044  -1.022  -0.861  1.00  0.00     0.158 C 
HETATM    4  N1  UNL     1      -0.882   0.108  -0.436  1.00  0.00    -0.335 N 
HETATM    5  C11 UNL     1      -0.330   1.189   0.106  1.00  0.00     0.088 A 
HETATM    6  N2  UNL     1      -1.292   2.073   0.406  1.00  0.00    -0.347 N 
ATOM      7  H2  UNL     1      -1.156   2.990   0.832  1.00  0.00     0.167 HD
HETATM    8  C12 UNL     1      -2.469   1.533   0.043  1.00  0.00     0.036 A 
HETATM    9  C13 UNL     1      -2.203   0.291  -0.488  1.00  0.00     0.038 A 
HETATM   10  C14 UNL     1      -3.191  -0.671  -1.021  1.00  0.00     0.096 C 
HETATM   11  C15 UNL     1      -4.234  -0.962   0.039  1.00  0.00     0.060 C 
HETATM   12  C16 UNL     1      -5.406  -1.592  -0.696  1.00  0.00     0.046 C 
HETATM   13  C17 UNL     1      -3.605  -2.146   0.819  1.00  0.00     0.046 C 
HETATM   14  O1  UNL     1      -4.496  -0.052   0.929  1.00  0.00    -0.366 OA
HETATM   15  C18 UNL     1      -4.770   1.219   0.866  1.00  0.00     0.235 C 
HETATM   16  C20 UNL     1      -3.806   2.154   0.187  1.00  0.00     0.100 C 
HETATM   17  C21 UNL     1       1.172   1.175   0.255  1.00  0.00     0.110 C 
ENDROOT
BRANCH   1  18
HETATM   18  C7  UNL     1       2.817   1.351  -1.689  1.00  0.00     0.034 C 
BRANCH  18  19
HETATM   19  C6  UNL     1       4.087   1.481  -0.982  1.00  0.00     0.004 C 
BRANCH  19  20
HETATM   20  C5  UNL     1       4.904   0.338  -0.550  1.00  0.00     0.001 C 
BRANCH  20  21
HETATM   21  C4  UNL     1       4.271  -0.544   0.465  1.00  0.00     0.004 C 
BRANCH  21  22
HETATM   22  C3  UNL     1       5.245  -1.674   0.877  1.00  0.00     0.026 C 
BRANCH  22  23
HETATM   23  C2  UNL     1       6.490  -1.098   1.458  1.00  0.00    -0.037 C 
HETATM   24  C1  UNL     1       7.677  -1.328   0.916  1.00  0.00     0.007 C 
ENDBRANCH  22  23
ENDBRANCH  21  22
ENDBRANCH  20  21
ENDBRANCH  19  20
ENDBRANCH  18  19
ENDBRANCH   1  18
BRANCH  15  25
HETATM   25  C19 UNL     1      -6.167   1.612   0.363  1.00  0.00     0.413 C 
HETATM   26  F1  UNL     1      -7.156   1.096   1.154  1.00  0.00    -0.168 F 
HETATM   27  F2  UNL     1      -6.326   1.411  -0.970  1.00  0.00    -0.168 F 
HETATM   28  F3  UNL     1      -6.218   3.004   0.554  1.00  0.00    -0.168 F 
ENDBRANCH  15  25
TORSDOF 7
