REMARK  7 active torsions:
REMARK  status: ('A' for Active; 'I' for Inactive)
REMARK    1  A    between atoms: C1_2  and  C2_5 
REMARK    2  A    between atoms: N1_10  and  C7_11 
REMARK    3  A    between atoms: C7_11  and  C8_12 
REMARK    4  A    between atoms: C8_12  and  C9_13 
REMARK    5  A    between atoms: C9_13  and  C10_14 
REMARK    6  A    between atoms: C10_14  and  C11_15 
REMARK    7  A    between atoms: C11_15  and  N2_16 
ROOT
HETATM    1  C10 UNL     1      -1.530   0.215   0.191  1.00  0.00    -0.006 C 
HETATM    2  C15 UNL     1      -1.957   0.618  -1.137  1.00  0.00     0.015 C 
HETATM    3  C16 UNL     1      -2.285  -0.353  -2.188  1.00  0.00     0.001 C 
HETATM    4  C17 UNL     1      -2.947  -1.625  -1.765  1.00  0.00     0.000 C 
HETATM    5  C18 UNL     1      -4.027  -1.239  -0.786  1.00  0.00     0.000 C 
HETATM    6  C19 UNL     1      -3.517  -1.360   0.602  1.00  0.00     0.001 C 
HETATM    7  C20 UNL     1      -2.164  -0.895   0.903  1.00  0.00     0.015 C 
ENDROOT
BRANCH   1   8
HETATM    8  C9  UNL     1       0.015  -0.078   0.272  1.00  0.00     0.020 C 
BRANCH   8   9
HETATM    9  C8  UNL     1       0.496  -1.180  -0.496  1.00  0.00     0.045 C 
BRANCH   9  10
HETATM   10  C7  UNL     1       1.924  -1.538  -0.323  1.00  0.00     0.059 C 
BRANCH  10  11
HETATM   11  N1  UNL     1       2.906  -0.603  -0.605  1.00  0.00    -0.380 N 
HETATM   12  C2  UNL     1       3.235   0.480   0.202  1.00  0.00     0.191 C 
HETATM   13  C3  UNL     1       4.338   0.062   1.189  1.00  0.00     0.034 C 
HETATM   14  C4  UNL     1       5.359  -0.843   0.646  1.00  0.00     0.004 C 
HETATM   15  C5  UNL     1       5.247  -1.329  -0.744  1.00  0.00     0.020 C 
HETATM   16  C6  UNL     1       3.974  -1.078  -1.462  1.00  0.00     0.122 C 
BRANCH  12  17
HETATM   17  C1  UNL     1       3.655   1.756  -0.512  1.00  0.00     0.407 C 
HETATM   18  F1  UNL     1       2.671   2.109  -1.398  1.00  0.00    -0.169 F 
HETATM   19  F2  UNL     1       4.898   1.715  -1.057  1.00  0.00    -0.169 F 
HETATM   20  F3  UNL     1       3.691   2.819   0.413  1.00  0.00    -0.169 F 
ENDBRANCH  12  17
ENDBRANCH  10  11
ENDBRANCH   9  10
ENDBRANCH   8   9
ENDBRANCH   1   8
BRANCH   1  21
HETATM   21  C11 UNL     1      -1.541   1.450   1.112  1.00  0.00     0.098 C 
BRANCH  21  22
HETATM   22  N2  UNL     1      -2.760   2.092   1.343  1.00  0.00    -0.282 N 
HETATM   23  C12 UNL     1      -3.650   1.842   2.303  1.00  0.00     0.116 A 
HETATM   24  C13 UNL     1      -4.715   2.707   2.222  1.00  0.00     0.038 A 
HETATM   25  C14 UNL     1      -4.432   3.518   1.145  1.00  0.00     0.109 A 
HETATM   26  N3  UNL     1      -3.268   3.104   0.672  1.00  0.00    -0.306 N 
ATOM     27  H3  UNL     1      -2.809   3.528  -0.134  1.00  0.00     0.186 HD
ENDBRANCH  21  22
ENDBRANCH   1  21
TORSDOF 7
