REMARK  7 active torsions:
REMARK  status: ('A' for Active; 'I' for Inactive)
REMARK    1  A    between atoms: C2_2  and  C3_3 
REMARK    2  A    between atoms: C3_3  and  N1_4 
REMARK    3  A    between atoms: N1_4  and  C4_5 
REMARK    4  A    between atoms: C4_5  and  C5_6 
REMARK    5  A    between atoms: C6_7  and  C7_8 
REMARK    6  A    between atoms: C8_9  and  O1_10 
REMARK    7  A    between atoms: N3_14  and  C9_15 
ROOT
HETATM    1  C7  UNL     1       1.518   0.573   0.697  1.00  0.00     0.159 C 
HETATM    2  C8  UNL     1       2.594  -0.497   0.460  1.00  0.00     0.259 C 
HETATM    3  N2  UNL     1       3.385  -0.181  -0.700  1.00  0.00    -0.307 N 
ATOM      4  H2  UNL     1       3.058  -0.366  -1.648  1.00  0.00     0.183 HD
HETATM    5  N3  UNL     1       4.610   0.387  -0.446  1.00  0.00    -0.317 N 
HETATM    6  C12 UNL     1       4.620   1.461   0.494  1.00  0.00     0.245 C 
HETATM    7  C13 UNL     1       3.410   2.285   0.294  1.00  0.00     0.239 C 
HETATM    8  O2  UNL     1       3.559   3.487  -0.024  1.00  0.00    -0.271 OA
HETATM    9  N4  UNL     1       2.061   1.885   0.419  1.00  0.00    -0.343 N 
HETATM   10  C14 UNL     1       1.077   2.922   0.246  1.00  0.00     0.153 C 
ENDROOT
BRANCH   1  11
HETATM   11  C6  UNL     1       0.386   0.327  -0.232  1.00  0.00     0.000 C 
HETATM   12  C5  UNL     1      -0.555  -0.580   0.017  1.00  0.00    -0.001 C 
BRANCH  12  13
HETATM   13  C4  UNL     1      -1.679  -0.836  -0.888  1.00  0.00     0.264 C 
BRANCH  13  14
HETATM   14  N1  UNL     1      -2.989  -0.605  -0.287  1.00  0.00    -0.064 N 
HETATM   15  C15 UNL     1      -2.800   0.320   0.820  1.00  0.00     0.238 C 
HETATM   16  C16 UNL     1      -4.109   0.677   1.480  1.00  0.00     0.028 C 
HETATM   17  C17 UNL     1      -5.074  -0.452   1.589  1.00  0.00     0.003 C 
HETATM   18  C18 UNL     1      -4.408  -1.764   1.383  1.00  0.00     0.028 C 
HETATM   19  C19 UNL     1      -3.434  -1.840   0.264  1.00  0.00     0.238 C 
BRANCH  14  20
HETATM   20  C3  UNL     1      -3.804   0.029  -1.251  1.00  0.00     0.237 C 
BRANCH  20  21
HETATM   21  C2  UNL     1      -4.450  -0.829  -2.276  1.00  0.00     0.023 C 
HETATM   22  C1  UNL     1      -5.278   0.032  -3.212  1.00  0.00     0.007 C 
ENDBRANCH  20  21
ENDBRANCH  14  20
ENDBRANCH  13  14
ENDBRANCH  12  13
ENDBRANCH   1  11
BRANCH   2  23
HETATM   23  O1  UNL     1       1.893  -1.673   0.188  1.00  0.00    -0.373 OA
ATOM     24  H1  UNL     1       2.559  -2.335   0.041  1.00  0.00     0.212 HD
ENDBRANCH   2  23
BRANCH   5  25
HETATM   25  C9  UNL     1       5.710  -0.491  -0.401  1.00  0.00     0.094 C 
HETATM   26  C10 UNL     1       5.842  -1.247   0.923  1.00  0.00     0.033 C 
HETATM   27  C11 UNL     1       7.040   0.117  -0.714  1.00  0.00     0.033 C 
ENDBRANCH   5  25
TORSDOF 7
