REMARK  4 active torsions:
REMARK  status: ('A' for Active; 'I' for Inactive)
REMARK    1  A    between atoms: C2_2  and  C3_3 
REMARK    2  A    between atoms: C3_3  and  C6_6 
REMARK    3  A    between atoms: C6_6  and  N1_7 
REMARK    4  A    between atoms: C11_18  and  N5_19 
ROOT
HETATM    1  N1  UNL     1       0.514  -0.094   1.078  1.00  0.00    -0.306 N 
HETATM    2  C7  UNL     1       0.977   0.690   2.106  1.00  0.00     0.183 A 
HETATM    3 CL1  UNL     1       0.180   1.078   3.637  1.00  0.00    -0.044 Cl
HETATM    4  N2  UNL     1       2.196   1.086   1.738  1.00  0.00    -0.327 N 
ATOM      5  H2  UNL     1       2.800   1.687   2.298  1.00  0.00     0.168 HD
HETATM    6  C8  UNL     1       2.519   0.598   0.553  1.00  0.00     0.118 A 
HETATM    7  C9  UNL     1       3.625   0.670  -0.279  1.00  0.00     0.160 A 
HETATM    8  C10 UNL     1       4.723   1.480   0.220  1.00  0.00     0.120 C 
HETATM    9  N3  UNL     1       5.605   2.122   0.601  1.00  0.00    -0.190 NA
HETATM   10  N4  UNL     1       3.693   0.043  -1.463  1.00  0.00    -0.180 N 
ATOM     11  H4  UNL     1       4.528   0.124  -2.044  1.00  0.00     0.185 HD
HETATM   12  C11 UNL     1       2.643  -0.695  -1.874  1.00  0.00     0.678 A 
HETATM   13  N6  UNL     1       1.575  -0.768  -1.078  1.00  0.00    -0.174 N 
ATOM     14  H6  UNL     1       0.790  -1.331  -1.405  1.00  0.00     0.186 HD
HETATM   15  C12 UNL     1       1.442  -0.169   0.111  1.00  0.00     0.155 A 
ENDROOT
BRANCH  12  16
HETATM   16  N5  UNL     1       2.698  -1.308  -3.022  1.00  0.00    -0.234 N 
ATOM     17  H52 UNL     1       3.515  -1.252  -3.631  1.00  0.00     0.174 HD
ATOM     18  H51 UNL     1       1.903  -1.867  -3.333  1.00  0.00     0.174 HD
ENDBRANCH  12  16
BRANCH   1  19
HETATM   19  C6  UNL     1      -0.765  -0.708   1.121  1.00  0.00     0.142 C 
BRANCH  19  20
HETATM   20  C3  UNL     1      -1.962  -0.029   0.591  1.00  0.00    -0.031 C 
HETATM   21  C4  UNL     1      -2.134   1.360   1.244  1.00  0.00     0.016 C 
HETATM   22  C5  UNL     1      -3.193  -0.823   0.932  1.00  0.00     0.016 C 
BRANCH  20  23
HETATM   23  C2  UNL     1      -1.970   0.259  -0.890  1.00  0.00     0.006 C 
HETATM   24  C1  UNL     1      -1.897  -0.960  -1.758  1.00  0.00     0.006 C 
ENDBRANCH  20  23
ENDBRANCH  19  20
ENDBRANCH   1  19
TORSDOF 4
