REMARK  3 active torsions:
REMARK  status: ('A' for Active; 'I' for Inactive)
REMARK    1  A    between atoms: C3_3  and  C5_5 
REMARK    2  A    between atoms: C5_5  and  C6_6 
REMARK    3  A    between atoms: C8_13  and  C9_14 
ROOT
HETATM    1  C1  UNL     1      -3.701   0.620   1.489  1.00  0.00     0.012 C 
HETATM    2  C2  UNL     1      -2.676   0.698   0.874  1.00  0.00    -0.110 C 
HETATM    3  C3  UNL     1      -1.422   0.771   0.116  1.00  0.00     0.093 C 
HETATM    4  C4  UNL     1      -1.678   1.016  -1.353  1.00  0.00     0.026 C 
ENDROOT
BRANCH   3   5
HETATM    5  C5  UNL     1      -0.669  -0.523   0.344  1.00  0.00     0.119 A 
HETATM    6  N2  UNL     1      -1.480  -1.649  -0.105  1.00  0.00    -0.107 NA
HETATM    7  N3  UNL     1      -0.783  -2.219  -1.174  1.00  0.00    -0.030 NA
HETATM    8  N4  UNL     1       0.423  -1.539  -1.361  1.00  0.00    -0.288 N 
HETATM    9  C8  UNL     1       0.519  -0.562  -0.507  1.00  0.00     0.070 A 
ATOM     10  H4  UNL     1       1.125  -1.774  -2.063  1.00  0.00     0.183 HD
BRANCH   5  11
HETATM   11  C6  UNL     1      -0.374  -0.706   1.795  1.00  0.00     0.160 C 
HETATM   12  C7  UNL     1       0.354  -1.960   1.992  1.00  0.00     0.061 C 
HETATM   13  N1  UNL     1       0.944  -2.950   2.163  1.00  0.00    -0.197 NA
ENDBRANCH   5  11
BRANCH   9  14
HETATM   14  C9  UNL     1       1.662   0.344  -0.439  1.00  0.00     0.052 A 
HETATM   15  S1  UNL     1       1.874   1.646   0.640  1.00  0.00    -0.098 SA
HETATM   16  C10 UNL     1       3.401   2.199   0.113  1.00  0.00     0.052 A 
HETATM   17  C11 UNL     1       3.698   1.333  -0.904  1.00  0.00     0.032 A 
HETATM   18  C12 UNL     1       2.804   0.378  -1.189  1.00  0.00     0.053 A 
HETATM   19 CL1  UNL     1       3.034  -0.830  -2.483  1.00  0.00    -0.083 Cl
ENDBRANCH   9  14
ENDBRANCH   3   5
TORSDOF 3
