REMARK  2 active torsions:
REMARK  status: ('A' for Active; 'I' for Inactive)
REMARK       I    between atoms: N1_2  and  C2_4 
REMARK       I    between atoms: C2_4  and  N2_5 
REMARK    1  A    between atoms: C3_7  and  N3_9 
REMARK    2  A    between atoms: N6_14  and  C5_16 
ROOT
HETATM    1  C1  UNL     1       1.269  -2.456  -1.139  1.00  0.00     0.165 C 
HETATM    2  N1  UNL     1       1.027  -1.233  -0.397  1.00  0.00    -0.231 N 
ATOM      3  H1  UNL     1       1.407  -1.111   0.541  1.00  0.00     0.177 HD
HETATM    4  C2  UNL     1       0.248  -0.206  -1.004  1.00  0.00     0.676 C 
HETATM    5  N2  UNL     1       0.818   0.546  -2.054  1.00  0.00    -0.166 N 
ATOM      6  H2  UNL     1       0.316   0.573  -2.941  1.00  0.00     0.186 HD
HETATM    7  C3  UNL     1       1.909   1.192  -1.977  1.00  0.00     0.195 C 
HETATM    8 CL1  UNL     1       2.504   2.082  -3.350  1.00  0.00    -0.044 Cl
HETATM    9  N6  UNL     1      -0.936   0.046  -0.625  1.00  0.00    -0.220 N 
ATOM     10  H6  UNL     1      -1.424   0.797  -1.113  1.00  0.00     0.178 HD
ENDROOT
BRANCH   9  11
HETATM   11  C5  UNL     1      -1.658  -0.619   0.420  1.00  0.00     0.116 C 
HETATM   12  C6  UNL     1      -2.787  -1.522  -0.031  1.00  0.00     0.044 C 
HETATM   13  C7  UNL     1      -3.559  -1.023   1.177  1.00  0.00     0.076 C 
HETATM   14 BR1  UNL     1      -3.122  -2.081   2.716  1.00  0.00    -0.090 Br
HETATM   15  C8  UNL     1      -2.722   0.237   1.091  1.00  0.00     0.095 C 
HETATM   16 BR2  UNL     1      -2.188   0.981   2.776  1.00  0.00    -0.088 Br
ENDBRANCH   9  11
BRANCH   7  17
HETATM   17  N3  UNL     1       2.653   1.197  -0.777  1.00  0.00    -0.309 N 
HETATM   18  C4  UNL     1       2.408   1.973   0.214  1.00  0.00     0.203 C 
HETATM   19  N4  UNL     1       3.191   1.931   1.394  1.00  0.00    -0.066 NA
HETATM   20  N5  UNL     1       1.326   2.883   0.102  1.00  0.00    -0.066 NA
ATOM     21  H3  UNL     1       3.432   0.544  -0.693  1.00  0.00     0.170 HD
ENDBRANCH   7  17
TORSDOF 2
