REMARK  6 active torsions:
REMARK  status: ('A' for Active; 'I' for Inactive)
REMARK    1  A    between atoms: C5_6  and  C6_7 
REMARK    2  A    between atoms: C9_12  and  C10_13 
REMARK    3  A    between atoms: C10_13  and  N3_14 
REMARK    4  A    between atoms: N3_14  and  C11_17 
REMARK    5  A    between atoms: C14_20  and  C15_21 
REMARK    6  A    between atoms: C15_21  and  C16_22 
ROOT
HETATM    1  N1  UNL     1       2.889  -2.658   2.649  1.00  0.00    -0.191 NA
HETATM    2  C1  UNL     1       3.527  -1.813   2.112  1.00  0.00     0.101 C 
HETATM    3  C2  UNL     1       4.309  -0.808   1.436  1.00  0.00     0.069 A 
HETATM    4  C3  UNL     1       5.651  -0.646   1.727  1.00  0.00     0.027 A 
HETATM    5  C4  UNL     1       6.374   0.268   1.012  1.00  0.00     0.027 A 
HETATM    6  C5  UNL     1       5.824   1.055  -0.011  1.00  0.00     0.013 A 
HETATM    7  N2  UNL     1       4.524   0.861  -0.251  1.00  0.00    -0.360 N 
ATOM      8  H2  UNL     1       4.078   1.410  -0.986  1.00  0.00     0.165 HD
HETATM    9  C9  UNL     1       3.778  -0.021   0.428  1.00  0.00     0.056 A 
ENDROOT
BRANCH   9  10
HETATM   10  C10 UNL     1       2.301  -0.058   0.213  1.00  0.00     0.294 C 
BRANCH  10  11
HETATM   11  N3  UNL     1       1.823  -1.381  -0.061  1.00  0.00    -0.038 N 
ATOM     12  H32 UNL     1       2.288  -1.790  -0.872  1.00  0.00     0.281 HD
ATOM     13  H31 UNL     1       2.132  -2.048   0.646  1.00  0.00     0.281 HD
BRANCH  11  14
HETATM   14  C11 UNL     1       0.406  -1.387  -0.207  1.00  0.00     0.226 C 
HETATM   15  C12 UNL     1      -0.272  -2.659   0.177  1.00  0.00     0.069 C 
HETATM   16  C13 UNL     1      -1.755  -2.311   0.445  1.00  0.00     0.016 C 
HETATM   17  C14 UNL     1      -2.049  -1.180  -0.558  1.00  0.00    -0.016 C 
HETATM   18  C22 UNL     1      -1.341  -1.467  -1.859  1.00  0.00     0.016 C 
HETATM   19  C24 UNL     1      -1.436   0.020   0.163  1.00  0.00     0.180 C 
HETATM   20  C23 UNL     1       0.110  -1.070  -1.683  1.00  0.00     0.069 C 
HETATM   21  O3  UNL     1      -0.131  -0.318   0.518  1.00  0.00    -0.353 OA
BRANCH  17  22
HETATM   22  C15 UNL     1      -3.489  -1.052  -0.813  1.00  0.00     0.050 C 
BRANCH  22  23
HETATM   23  C16 UNL     1      -4.367  -0.565   0.340  1.00  0.00     0.183 C 
HETATM   24  O1  UNL     1      -5.700  -0.650  -0.242  1.00  0.00    -0.347 OA
HETATM   25  C17 UNL     1      -6.611   0.224   0.234  1.00  0.00     0.290 A 
HETATM   26  O2  UNL     1      -7.362   1.033  -0.777  1.00  0.00    -0.348 OA
HETATM   27  C18 UNL     1      -6.680   1.540   0.451  1.00  0.00     0.180 A 
HETATM   28  C19 UNL     1      -5.697   2.627   0.279  1.00  0.00     0.043 C 
HETATM   29  C20 UNL     1      -4.268   2.210   0.807  1.00  0.00     0.071 C 
HETATM   30  C21 UNL     1      -4.194   0.827   0.613  1.00  0.00     0.100 C 
HETATM   31  F1  UNL     1      -4.428   1.059  -0.772  1.00  0.00    -0.213 F 
ENDBRANCH  22  23
ENDBRANCH  17  22
ENDBRANCH  11  14
ENDBRANCH  10  11
ENDBRANCH   9  10
BRANCH   6  32
HETATM   32  C6  UNL     1       6.685   2.053  -0.691  1.00  0.00     0.035 A 
HETATM   33  C7  UNL     1       8.088   1.718  -1.100  1.00  0.00     0.011 A 
HETATM   34  C8  UNL     1       7.022   1.887  -2.167  1.00  0.00     0.011 A 
ENDBRANCH   6  32
TORSDOF 6
