REMARK  5 active torsions:
REMARK  status: ('A' for Active; 'I' for Inactive)
REMARK    1  A    between atoms: C5_6  and  S1_7 
REMARK    2  A    between atoms: S1_7  and  C6_8 
REMARK    3  A    between atoms: C8_12  and  C9_13 
REMARK    4  A    between atoms: C11_18  and  C12_19 
REMARK       I    between atoms: C12_19  and  N4_21 
REMARK    5  A    between atoms: C15_24  and  C16_26 
ROOT
HETATM    1  N1  UNL     1       2.755   0.691  -3.831  1.00  0.00    -0.191 NA
HETATM    2  C1  UNL     1       1.634   0.495  -3.623  1.00  0.00     0.100 C 
HETATM    3  C2  UNL     1       0.226   0.266  -3.374  1.00  0.00     0.060 A 
HETATM    4  C3  UNL     1      -0.706   1.094  -3.970  1.00  0.00     0.025 A 
HETATM    5  C4  UNL     1      -2.061   0.894  -3.746  1.00  0.00     0.020 A 
HETATM    6  C5  UNL     1      -2.489  -0.126  -2.933  1.00  0.00     0.007 A 
HETATM    7  C10 UNL     1      -1.546  -0.941  -2.349  1.00  0.00     0.037 A 
HETATM    8  C11 UNL     1      -0.193  -0.758  -2.559  1.00  0.00     0.054 A 
ENDROOT
BRANCH   8   9
HETATM    9  C12 UNL     1       0.801  -1.618  -1.942  1.00  0.00     0.255 C 
HETATM   10  O2  UNL     1       1.140  -2.647  -2.600  1.00  0.00    -0.267 OA
HETATM   11  N4  UNL     1       1.379  -1.355  -0.678  1.00  0.00    -0.348 N 
HETATM   12  C13 UNL     1       1.039  -0.202   0.125  1.00  0.00     0.129 C 
HETATM   13  C20 UNL     1       2.362  -2.280  -0.158  1.00  0.00     0.129 C 
HETATM   14  C14 UNL     1       1.855  -0.241   1.411  1.00  0.00     0.064 C 
HETATM   15  C15 UNL     1       3.318  -0.439   1.140  1.00  0.00     0.110 C 
HETATM   16  F1  UNL     1       3.835   0.782   0.726  1.00  0.00    -0.242 F 
HETATM   17  C19 UNL     1       3.620  -1.480   0.106  1.00  0.00     0.064 C 
BRANCH  15  18
HETATM   18  C16 UNL     1       4.015  -0.840   2.428  1.00  0.00     0.025 A 
HETATM   19  C17 UNL     1       3.948   0.106   3.564  1.00  0.00     0.008 A 
HETATM   20  C18 UNL     1       5.229  -0.057   2.798  1.00  0.00     0.008 A 
ENDBRANCH  15  18
ENDBRANCH   8   9
BRANCH   6  21
HETATM   21  S1  UNL     1      -4.212  -0.370  -2.657  1.00  0.00    -0.082 SA
BRANCH  21  22
HETATM   22  C6  UNL     1      -4.804   0.555  -1.236  1.00  0.00     0.063 A 
HETATM   23  C7  UNL     1      -5.306   1.829  -1.195  1.00  0.00     0.115 A 
HETATM   24  N2  UNL     1      -5.676   2.302  -0.050  1.00  0.00    -0.354 N 
HETATM   25  C8  UNL     1      -5.564   1.556   1.036  1.00  0.00     0.141 A 
ATOM     26  H2  UNL     1      -6.053   3.247   0.015  1.00  0.00     0.166 HD
HETATM   27  S2  UNL     1      -4.902   0.109   0.424  1.00  0.00    -0.059 SA
BRANCH  25  28
HETATM   28  C9  UNL     1      -5.939   1.951   2.393  1.00  0.00     0.288 C 
HETATM   29  N3  UNL     1      -5.781   1.078   3.499  1.00  0.00    -0.055 NA
HETATM   30  O1  UNL     1      -6.415   3.091   2.605  1.00  0.00    -0.269 OA
ENDBRANCH  25  28
ENDBRANCH  21  22
ENDBRANCH   6  21
TORSDOF 5
