REMARK  2 active torsions:
REMARK  status: ('A' for Active; 'I' for Inactive)
REMARK    1  A    between atoms: N1_1  and  N2_4 
REMARK       I    between atoms: N2_4  and  C1_6 
REMARK    2  A    between atoms: C1_6  and  C2_8 
ROOT
HETATM    1  C2  UNL     1      -0.079   0.430   0.182  1.00  0.00     0.474 C 
HETATM    2  N3  UNL     1      -1.066   0.806   1.180  1.00  0.00    -0.035 N 
ATOM      3  H31 UNL     1      -0.855   1.650   1.713  1.00  0.00     0.280 HD
ATOM      4  H32 UNL     1      -1.120   0.199   1.998  1.00  0.00     0.280 HD
HETATM    5  C3  UNL     1      -2.272   0.864   0.354  1.00  0.00     0.262 C 
HETATM    6  C4  UNL     1      -2.107  -0.402  -0.482  1.00  0.00     0.262 C 
HETATM    7  N4  UNL     1      -0.697  -0.748  -0.401  1.00  0.00    -0.035 N 
ATOM      8  H41 UNL     1      -0.506  -1.614   0.102  1.00  0.00     0.280 HD
ATOM      9  H42 UNL     1      -0.286  -1.042  -1.287  1.00  0.00     0.280 HD
ENDROOT
BRANCH   1  10
HETATM   10  C1  UNL     1       1.234   0.141   0.795  1.00  0.00     0.294 C 
HETATM   11  N2  UNL     1       2.306  -0.242  -0.050  1.00  0.00    -0.273 N 
ATOM     12  H2  UNL     1       2.147  -0.309  -1.055  1.00  0.00     0.189 HD
HETATM   13  O1  UNL     1       1.386   0.232   2.016  1.00  0.00    -0.267 OA
BRANCH  11  14
HETATM   14  N1  UNL     1       3.576  -0.530   0.460  1.00  0.00    -0.343 N 
ATOM     15  H12 UNL     1       3.718  -0.458   1.468  1.00  0.00     0.176 HD
ATOM     16  H11 UNL     1       4.347  -0.806  -0.148  1.00  0.00     0.176 HD
ENDBRANCH  11  14
ENDBRANCH   1  10
TORSDOF 2
