REMARK  3 active torsions:
REMARK  status: ('A' for Active; 'I' for Inactive)
REMARK    1  A    between atoms: C2_2  and  C3_3 
REMARK    2  A    between atoms: C6_6  and  N1_7 
REMARK    3  A    between atoms: C7_11  and  N2_13 
ROOT
HETATM    1  C3  UNL     1       0.817  -0.230   0.036  1.00  0.00     0.037 C 
HETATM    2  C4  UNL     1       1.216   0.568  -1.232  1.00  0.00     0.013 C 
HETATM    3  C5  UNL     1       0.471   1.851  -1.103  1.00  0.00     0.036 C 
HETATM    4  C6  UNL     1      -0.534   1.678   0.015  1.00  0.00     0.211 C 
HETATM    5  C7  UNL     1      -0.583   0.159   0.262  1.00  0.00     0.056 C 
HETATM    6  C8  UNL     1      -0.997   0.042   1.729  1.00  0.00     0.041 C 
ENDROOT
BRANCH   4   7
HETATM    7  N1  UNL     1      -0.043   2.371   1.187  1.00  0.00    -0.073 N 
ATOM      8  H13 UNL     1       0.895   2.072   1.454  1.00  0.00     0.274 HD
ATOM      9  H12 UNL     1       0.171   3.351   1.001  1.00  0.00     0.274 HD
ATOM     10  H11 UNL     1      -0.720   2.254   1.941  1.00  0.00     0.274 HD
ENDBRANCH   4   7
BRANCH   5  11
HETATM   11  N2  UNL     1      -1.532  -0.373  -0.623  1.00  0.00    -0.415 N 
HETATM   12  C9  UNL     1      -1.783  -1.764  -0.648  1.00  0.00     0.140 C 
ATOM     13  H2  UNL     1      -2.043   0.247  -1.251  1.00  0.00     0.153 HD
ENDBRANCH   5  11
BRANCH   1  14
HETATM   14  C2  UNL     1       1.136  -1.614  -0.276  1.00  0.00    -0.030 C 
HETATM   15  C1  UNL     1       1.933  -2.282   0.570  1.00  0.00     0.007 C 
ENDBRANCH   1  14
TORSDOF 3
