REMARK  1 active torsions:
REMARK  status: ('A' for Active; 'I' for Inactive)
REMARK    1  A    between atoms: C2_2  and  C3_3 
ROOT
HETATM    1  C3  UNL     1      -1.176   0.786   0.334  1.00  0.00     0.279 C 
HETATM    2  N1  UNL     1      -0.307   0.453   1.440  1.00  0.00    -0.054 N 
ATOM      3  H11 UNL     1      -0.407  -0.516   1.743  1.00  0.00     0.279 HD
ATOM      4  H12 UNL     1      -0.590   0.899   2.313  1.00  0.00     0.279 HD
HETATM    5  C4  UNL     1       1.051   0.783   1.056  1.00  0.00     0.245 C 
HETATM    6  C5  UNL     1       1.559  -0.167  -0.011  1.00  0.00    -0.008 C 
HETATM    7  C6  UNL     1       1.775  -1.509   0.668  1.00  0.00     0.018 C 
HETATM    8  C7  UNL     1       2.828   0.398  -0.563  1.00  0.00     0.018 C 
HETATM    9  C8  UNL     1       0.471  -0.336  -1.024  1.00  0.00     0.126 C 
HETATM   10  N2  UNL     1      -0.467   0.742  -0.900  1.00  0.00    -0.395 N 
ATOM     11  H2  UNL     1      -0.615   1.427  -1.641  1.00  0.00     0.155 HD
ENDROOT
BRANCH   1  12
HETATM   12  C2  UNL     1      -2.362  -0.147   0.394  1.00  0.00     0.049 C 
HETATM   13  C1  UNL     1      -3.305   0.155  -0.741  1.00  0.00     0.009 C 
ENDBRANCH   1  12
TORSDOF 1
