REMARK  10 active torsions:
REMARK  status: ('A' for Active; 'I' for Inactive)
REMARK    1  A    between atoms: O1_2  and  C2_3 
REMARK    2  A    between atoms: C3_5  and  O3_7 
REMARK    3  A    between atoms: C5_10  and  C6_11 
REMARK    4  A    between atoms: C6_11  and  O5_12 
REMARK    5  A    between atoms: O5_12  and  C7_13 
REMARK    6  A    between atoms: C8_15  and  O7_17 
REMARK    7  A    between atoms: C10_19  and  O8_20 
REMARK    8  A    between atoms: C11_22  and  O9_23 
REMARK    9  A    between atoms: C12_25  and  O10_26 
REMARK   10  A    between atoms: C13_28  and  O11_29 
ROOT
HETATM    1  C7  UNL     1      -1.373  -0.166  -1.271  1.00  0.00     0.294 C 
HETATM    2  O6  UNL     1      -1.673  -0.701   0.019  1.00  0.00    -0.320 OA
HETATM    3  C8  UNL     1      -2.367   0.261   0.700  1.00  0.00     0.189 C 
HETATM    4  C9  UNL     1      -2.441  -0.039   2.199  1.00  0.00     0.082 C 
HETATM    5  C10 UNL     1      -3.791   0.241   0.202  1.00  0.00     0.211 C 
HETATM    6  C11 UNL     1      -3.907   0.011  -1.261  1.00  0.00     0.185 C 
HETATM    7  C12 UNL     1      -2.655   0.049  -2.044  1.00  0.00     0.204 C 
ENDROOT
BRANCH   1   8
HETATM    8  O5  UNL     1      -0.489  -0.962  -1.815  1.00  0.00    -0.356 OA
BRANCH   8   9
HETATM    9  C6  UNL     1       0.764  -0.866  -2.136  1.00  0.00     0.206 C 
BRANCH   9  10
HETATM   10  C5  UNL     1       1.800  -0.677  -1.074  1.00  0.00     0.184 C 
HETATM   11  O4  UNL     1       1.776  -1.671  -0.102  1.00  0.00    -0.323 OA
HETATM   12  C3  UNL     1       2.546  -1.426   0.974  1.00  0.00     0.278 C 
HETATM   13  O2  UNL     1       3.392  -0.373   0.973  1.00  0.00    -0.300 OA
HETATM   14  C4  UNL     1       3.386  -2.680   1.259  1.00  0.00     0.115 C 
HETATM   15  C2  UNL     1       2.983   0.789   0.395  1.00  0.00     0.296 C 
HETATM   16  C13 UNL     1       1.673   0.636  -0.384  1.00  0.00     0.204 C 
BRANCH  12  17
HETATM   17  O3  UNL     1       1.700  -1.302   2.102  1.00  0.00    -0.343 OA
ATOM     18  H3  UNL     1       1.105  -2.043   2.103  1.00  0.00     0.215 HD
ENDBRANCH  12  17
BRANCH  15  19
HETATM   19  O1  UNL     1       2.835   1.776   1.354  1.00  0.00    -0.363 OA
HETATM   20  C1  UNL     1       3.696   2.825   1.053  1.00  0.00     0.204 C 
ENDBRANCH  15  19
BRANCH  16  21
HETATM   21  O11 UNL     1       1.681   1.708  -1.307  1.00  0.00    -0.388 OA
ATOM     22  H11 UNL     1       0.869   1.613  -1.790  1.00  0.00     0.210 HD
ENDBRANCH  16  21
ENDBRANCH   9  10
ENDBRANCH   8   9
ENDBRANCH   1   8
BRANCH   7  23
HETATM   23  O10 UNL     1      -2.567   1.278  -2.692  1.00  0.00    -0.388 OA
ATOM     24  H10 UNL     1      -3.372   1.413  -3.178  1.00  0.00     0.210 HD
ENDBRANCH   7  23
BRANCH   3  25
HETATM   25  O7  UNL     1      -1.899   1.545   0.593  1.00  0.00    -0.363 OA
ATOM     26  H7  UNL     1      -2.381   2.213   1.066  1.00  0.00     0.213 HD
ENDBRANCH   3  25
BRANCH   6  27
HETATM   27  O9  UNL     1      -4.578  -1.228  -1.429  1.00  0.00    -0.390 OA
ATOM     28  H9  UNL     1      -4.652  -1.375  -2.365  1.00  0.00     0.210 HD
ENDBRANCH   6  27
BRANCH   5  29
HETATM   29  O8  UNL     1      -4.480  -0.719   0.954  1.00  0.00    -0.387 OA
ATOM     30  H8  UNL     1      -5.377  -0.732   0.640  1.00  0.00     0.210 HD
ENDBRANCH   5  29
TORSDOF 10
