REMARK  3 active torsions:
REMARK  status: ('A' for Active; 'I' for Inactive)
REMARK    1  A    between atoms: C3_3  and  N1_4 
REMARK    2  A    between atoms: C9_10  and  N2_11 
REMARK    3  A    between atoms: C10_15  and  N3_16 
ROOT
HETATM    1  C1  UNL     1      -0.263   2.716   1.022  1.00  0.00     0.015 C 
HETATM    2  C2  UNL     1      -0.194   1.629   0.505  1.00  0.00    -0.075 C 
HETATM    3  C3  UNL     1      -0.111   0.303  -0.153  1.00  0.00     0.219 C 
HETATM    4  C7  UNL     1       0.489   0.503  -1.520  1.00  0.00     0.057 C 
HETATM    5  C8  UNL     1       1.889  -0.072  -1.475  1.00  0.00     0.038 C 
HETATM    6  C9  UNL     1       2.204   0.074   0.019  1.00  0.00     0.217 C 
HETATM    7  C10 UNL     1       0.907  -0.494   0.613  1.00  0.00     0.262 C 
ENDROOT
BRANCH   3   8
HETATM    8  N1  UNL     1      -1.417  -0.263  -0.163  1.00  0.00    -0.057 N 
HETATM    9  C4  UNL     1      -1.705  -1.088  -1.307  1.00  0.00     0.273 C 
HETATM   10  C5  UNL     1      -2.401   0.833  -0.183  1.00  0.00     0.273 C 
HETATM   11  C6  UNL     1      -1.728  -1.042   1.023  1.00  0.00     0.273 C 
ENDBRANCH   3   8
BRANCH   7  12
HETATM   12  N3  UNL     1       0.824  -0.272   2.029  1.00  0.00    -0.070 N 
ATOM     13  H33 UNL     1       0.893   0.721   2.250  1.00  0.00     0.274 HD
ATOM     14  H32 UNL     1      -0.119  -0.451   2.374  1.00  0.00     0.274 HD
ATOM     15  H31 UNL     1       1.515  -0.813   2.549  1.00  0.00     0.274 HD
ENDBRANCH   7  12
BRANCH   6  16
HETATM   16  N2  UNL     1       3.351  -0.677   0.388  1.00  0.00    -0.073 N 
ATOM     17  H23 UNL     1       3.256  -1.657   0.122  1.00  0.00     0.274 HD
ATOM     18  H22 UNL     1       4.157  -0.433  -0.188  1.00  0.00     0.274 HD
ATOM     19  H21 UNL     1       3.560  -0.580   1.382  1.00  0.00     0.274 HD
ENDBRANCH   6  16
TORSDOF 3
