REMARK  4 active torsions:
REMARK  status: ('A' for Active; 'I' for Inactive)
REMARK    1  A    between atoms: C2_3  and  O1_4 
REMARK    2  A    between atoms: O1_4  and  C3_5 
REMARK    3  A    between atoms: C3_5  and  N2_6 
REMARK       I    between atoms: N2_6  and  C4_8 
REMARK       I    between atoms: C4_8  and  N3_10 
REMARK    4  A    between atoms: N3_10  and  C5_12 
ROOT
HETATM    1  N1  UNL     1      -6.082   3.116   0.357  1.00  0.00    -0.195 NA
HETATM    2  C1  UNL     1      -5.839   2.311  -0.470  1.00  0.00     0.085 C 
HETATM    3  C2  UNL     1      -5.548   1.352  -1.518  1.00  0.00     0.294 C 
ENDROOT
BRANCH   3   4
HETATM    4  O1  UNL     1      -5.287   0.108  -1.108  1.00  0.00    -0.347 OA
BRANCH   4   5
HETATM    5  C3  UNL     1      -4.247  -0.167  -0.259  1.00  0.00     0.139 A 
HETATM    6  C15 UNL     1      -4.465   0.033   1.194  1.00  0.00     0.061 A 
HETATM    7  C16 UNL     1      -4.505  -1.474   1.436  1.00  0.00     0.010 A 
HETATM    8  C17 UNL     1      -4.236  -1.685  -0.023  1.00  0.00     0.061 A 
BRANCH   5   9
HETATM    9  N2  UNL     1      -2.987   0.323  -0.784  1.00  0.00    -0.310 N 
HETATM   10  C4  UNL     1      -1.714  -0.045  -0.349  1.00  0.00     0.323 C 
HETATM   11  O2  UNL     1      -1.559  -0.862   0.577  1.00  0.00    -0.247 OA
HETATM   12  N3  UNL     1      -0.548   0.499  -0.947  1.00  0.00    -0.302 N 
ATOM     13  H3  UNL     1      -0.642   1.171  -1.709  1.00  0.00     0.171 HD
ATOM     14  H2  UNL     1      -3.037   1.002  -1.544  1.00  0.00     0.167 HD
BRANCH  12  15
HETATM   15  C5  UNL     1       0.758   0.121  -0.500  1.00  0.00     0.100 A 
HETATM   16  S1  UNL     1       1.084  -0.986   0.756  1.00  0.00    -0.074 SA
HETATM   17  C6  UNL     1       2.760  -0.941   0.731  1.00  0.00     0.003 A 
HETATM   18  C7  UNL     1       3.075  -0.049  -0.272  1.00  0.00    -0.021 A 
HETATM   19  C14 UNL     1       3.705  -1.698   1.630  1.00  0.00     0.126 C 
HETATM   20  C8  UNL     1       1.999   0.502  -0.911  1.00  0.00     0.086 A 
HETATM   21  C10 UNL     1       4.469   0.355  -0.723  1.00  0.00     0.042 C 
HETATM   22  C9  UNL     1       2.069   1.484  -2.020  1.00  0.00     0.103 C 
HETATM   23  N4  UNL     1       2.144   2.257  -2.892  1.00  0.00    -0.191 NA
HETATM   24  C11 UNL     1       5.414   0.924   0.262  1.00  0.00     0.016 C 
HETATM   25  C12 UNL     1       6.007  -0.128   1.265  1.00  0.00     0.080 C 
HETATM   26  C13 UNL     1       4.962  -1.008   1.615  1.00  0.00    -0.178 C 
ENDBRANCH  12  15
ENDBRANCH   5   9
ENDBRANCH   4   5
ENDBRANCH   3   4
TORSDOF 4
