REMARK  14 active torsions:
REMARK  status: ('A' for Active; 'I' for Inactive)
REMARK    1  A    between atoms: C2_2  and  C4_4 
REMARK    2  A    between atoms: C4_4  and  C5_5 
REMARK    3  A    between atoms: C5_5  and  O1_6 
REMARK    4  A    between atoms: C5_5  and  N1_8 
REMARK    5  A    between atoms: N1_8  and  C6_10 
REMARK    6  A    between atoms: C6_10  and  C8_13 
REMARK    7  A    between atoms: C8_13  and  N3_14 
REMARK    8  A    between atoms: N3_14  and  C9_17 
REMARK    9  A    between atoms: C9_17  and  O2_18 
REMARK   10  A    between atoms: C9_17  and  N4_20 
REMARK   11  A    between atoms: N4_20  and  C10_23 
REMARK   12  A    between atoms: C10_23  and  C11_24 
REMARK   13  A    between atoms: C10_23  and  C12_27 
REMARK   14  A    between atoms: C11_24  and  O3_25 
ROOT
HETATM    1  C6  UNL     1       1.069   0.833  -0.475  1.00  0.00     0.216 C 
HETATM    2  C7  UNL     1       1.409   2.078   0.169  1.00  0.00     0.086 C 
HETATM    3  N2  UNL     1       1.652   3.077   0.700  1.00  0.00    -0.195 NA
ENDROOT
BRANCH   1   4
HETATM    4  N1  UNL     1       2.011  -0.204  -0.524  1.00  0.00    -0.356 N 
ATOM      5  H1  UNL     1       1.817  -1.062  -0.007  1.00  0.00     0.162 HD
BRANCH   4   6
HETATM    6  C5  UNL     1       3.198  -0.117  -1.245  1.00  0.00     0.112 C 
BRANCH   6   7
HETATM    7  C4  UNL     1       4.280   0.816  -0.917  1.00  0.00     0.087 C 
BRANCH   7   8
HETATM    8  C2  UNL     1       5.227   0.453   0.174  1.00  0.00    -0.015 C 
HETATM    9  C1  UNL     1       4.551   0.256   1.500  1.00  0.00     0.010 C 
HETATM   10  C3  UNL     1       6.155  -0.674  -0.169  1.00  0.00     0.010 C 
ENDBRANCH   7   8
ENDBRANCH   6   7
BRANCH   6  11
HETATM   11  O1  UNL     1       3.663  -1.393  -1.624  1.00  0.00    -0.350 OA
ATOM     12  H1  UNL     1       2.962  -1.998  -1.837  1.00  0.00     0.219 HD
ENDBRANCH   6  11
ENDBRANCH   4   6
ENDBRANCH   1   4
BRANCH   1  13
HETATM   13  C8  UNL     1      -0.270   0.314   0.103  1.00  0.00     0.277 C 
BRANCH  13  14
HETATM   14  N3  UNL     1      -0.738  -0.736  -0.749  1.00  0.00    -0.020 N 
ATOM     15  H32 UNL     1      -0.779  -0.437  -1.723  1.00  0.00     0.282 HD
ATOM     16  H31 UNL     1      -0.046  -1.479  -0.842  1.00  0.00     0.282 HD
BRANCH  14  17
HETATM   17  C9  UNL     1      -2.027  -1.257  -0.293  1.00  0.00     0.522 C 
BRANCH  17  18
HETATM   18  O2  UNL     1      -1.762  -1.703   1.033  1.00  0.00    -0.349 OA
ATOM     19  H2  UNL     1      -2.599  -2.041   1.329  1.00  0.00     0.213 HD
ENDBRANCH  17  18
BRANCH  17  20
HETATM   20  N4  UNL     1      -3.008  -0.218  -0.271  1.00  0.00    -0.011 N 
ATOM     21  H42 UNL     1      -2.860   0.419   0.512  1.00  0.00     0.283 HD
ATOM     22  H41 UNL     1      -2.872   0.440  -1.038  1.00  0.00     0.283 HD
BRANCH  20  23
HETATM   23  C10 UNL     1      -4.337  -0.753  -0.268  1.00  0.00     0.273 C 
BRANCH  23  24
HETATM   24  C11 UNL     1      -4.587  -1.585   0.957  1.00  0.00     0.204 C 
BRANCH  24  25
HETATM   25  O3  UNL     1      -4.370  -0.795   2.081  1.00  0.00    -0.398 OA
ATOM     26  H3  UNL     1      -4.528  -1.321   2.856  1.00  0.00     0.209 HD
ENDBRANCH  24  25
ENDBRANCH  23  24
BRANCH  23  27
HETATM   27  C12 UNL     1      -5.354   0.355  -0.356  1.00  0.00     0.110 A 
HETATM   28  C13 UNL     1      -5.377   1.492   0.394  1.00  0.00     0.056 A 
HETATM   29  C14 UNL     1      -6.479   2.204  -0.033  1.00  0.00     0.117 A 
HETATM   30  N5  UNL     1      -7.070   1.469  -1.016  1.00  0.00    -0.272 N 
HETATM   31  O4  UNL     1      -6.376   0.374  -1.183  1.00  0.00    -0.241 OA
ATOM     32  H5  UNL     1      -7.910   1.729  -1.533  1.00  0.00     0.193 HD
ENDBRANCH  23  27
ENDBRANCH  20  23
ENDBRANCH  17  20
ENDBRANCH  14  17
ENDBRANCH  13  14
ENDBRANCH   1  13
TORSDOF 14
