REMARK  7 active torsions:
REMARK  status: ('A' for Active; 'I' for Inactive)
REMARK    1  A    between atoms: C2_2  and  C3_3 
REMARK    2  A    between atoms: C3_3  and  C4_4 
REMARK    3  A    between atoms: C4_4  and  C5_5 
REMARK    4  A    between atoms: C5_5  and  C6_6 
REMARK    5  A    between atoms: C5_5  and  C7_11 
REMARK    6  A    between atoms: C6_6  and  N1_7 
REMARK    7  A    between atoms: C7_11  and  C8_12 
ROOT
HETATM    1  C5  UNL     1      -0.395   1.077  -0.217  1.00  0.00     0.015 C 
ENDROOT
BRANCH   1   2
HETATM    2  C4  UNL     1      -1.181  -0.188  -0.271  1.00  0.00     0.010 C 
BRANCH   2   3
HETATM    3  C3  UNL     1      -2.454  -0.079   0.520  1.00  0.00     0.027 C 
BRANCH   3   4
HETATM    4  C2  UNL     1      -3.213  -1.379   0.439  1.00  0.00    -0.037 C 
HETATM    5  C1  UNL     1      -3.503  -2.085   1.508  1.00  0.00     0.007 C 
ENDBRANCH   3   4
ENDBRANCH   2   3
ENDBRANCH   1   2
BRANCH   1   6
HETATM    6  C6  UNL     1      -1.134   2.276  -0.770  1.00  0.00     0.234 C 
BRANCH   6   7
HETATM    7  N1  UNL     1      -0.240   3.409  -0.646  1.00  0.00    -0.079 N 
ATOM      8  H13 UNL     1       0.102   3.550   0.305  1.00  0.00     0.274 HD
ATOM      9  H12 UNL     1       0.667   3.256  -1.087  1.00  0.00     0.274 HD
ATOM     10  H11 UNL     1      -0.738   4.217  -1.019  1.00  0.00     0.274 HD
ENDBRANCH   6   7
ENDBRANCH   1   6
BRANCH   1  11
HETATM   11  C7  UNL     1       0.914   1.001  -0.949  1.00  0.00     0.045 C 
BRANCH  11  12
HETATM   12  C8  UNL     1       1.835  -0.041  -0.431  1.00  0.00    -0.058 A 
HETATM   13  C9  UNL     1       2.748   0.217   0.576  1.00  0.00     0.007 A 
HETATM   14  C10 UNL     1       3.609  -0.767   1.052  1.00  0.00     0.001 A 
HETATM   15  C11 UNL     1       3.542  -2.035   0.494  1.00  0.00     0.000 A 
HETATM   16  C12 UNL     1       2.643  -2.328  -0.512  1.00  0.00     0.001 A 
HETATM   17  C13 UNL     1       1.805  -1.308  -0.951  1.00  0.00     0.007 A 
ENDBRANCH  11  12
ENDBRANCH   1  11
TORSDOF 7
