REMARK  6 active torsions:
REMARK  status: ('A' for Active; 'I' for Inactive)
REMARK    1  A    between atoms: C2_2  and  C3_3 
REMARK    2  A    between atoms: C3_3  and  C4_4 
REMARK    3  A    between atoms: C6_6  and  N1_7 
REMARK    4  A    between atoms: N1_7  and  C7_10 
REMARK    5  A    between atoms: C7_10  and  C8_11 
REMARK    6  A    between atoms: C8_11  and  C9_12 
ROOT
HETATM    1  N1  UNL     1       0.200   0.589   0.451  1.00  0.00    -0.070 N 
ATOM      2  H11 UNL     1       0.447   1.087  -0.404  1.00  0.00     0.277 HD
ATOM      3  H12 UNL     1       0.186   1.407   1.060  1.00  0.00     0.277 HD
ENDROOT
BRANCH   1   4
HETATM    4  C6  UNL     1       1.169  -0.432   0.847  1.00  0.00     0.190 A 
HETATM    5  C4  UNL     1       2.444  -0.615   0.088  1.00  0.00     0.018 A 
HETATM    6  C5  UNL     1       1.300  -1.451  -0.303  1.00  0.00     0.040 A 
BRANCH   5   7
HETATM    7  C3  UNL     1       2.958   0.571  -0.679  1.00  0.00     0.006 C 
BRANCH   7   8
HETATM    8  C2  UNL     1       4.201   1.153   0.024  1.00  0.00    -0.004 C 
HETATM    9  C1  UNL     1       5.356   0.171   0.024  1.00  0.00     0.005 C 
ENDBRANCH   7   8
ENDBRANCH   5   7
ENDBRANCH   1   4
BRANCH   1  10
HETATM   10  C7  UNL     1      -1.088  -0.128   0.378  1.00  0.00     0.233 C 
BRANCH  10  11
HETATM   11  C8  UNL     1      -2.108   0.716  -0.324  1.00  0.00     0.036 C 
BRANCH  11  12
HETATM   12  C9  UNL     1      -3.446   0.054  -0.379  1.00  0.00    -0.043 A 
HETATM   13  C10 UNL     1      -4.483   0.880  -1.143  1.00  0.00     0.015 C 
HETATM   14  C11 UNL     1      -3.975  -0.356   0.976  1.00  0.00     0.010 A 
HETATM   15  C12 UNL     1      -3.727  -1.349  -0.151  1.00  0.00     0.010 A 
ENDBRANCH  11  12
ENDBRANCH  10  11
ENDBRANCH   1  10
TORSDOF 6
