REMARK  7 active torsions:
REMARK  status: ('A' for Active; 'I' for Inactive)
REMARK    1  A    between atoms: C2_2  and  C3_3 
REMARK    2  A    between atoms: C3_3  and  C4_4 
REMARK    3  A    between atoms: C4_4  and  C5_5 
REMARK    4  A    between atoms: C4_4  and  C8_8 
REMARK    5  A    between atoms: C5_5  and  C6_6 
REMARK    6  A    between atoms: C8_8  and  C9_9 
REMARK    7  A    between atoms: C9_9  and  C10_10 
ROOT
HETATM    1  C8  UNL     1      -0.057  -0.011   0.773  1.00  0.00     0.005 C 
ENDROOT
BRANCH   1   2
HETATM    2  C4  UNL     1      -1.303  -0.160  -0.022  1.00  0.00    -0.014 C 
BRANCH   2   3
HETATM    3  C3  UNL     1      -1.648   1.081  -0.822  1.00  0.00     0.004 C 
BRANCH   3   4
HETATM    4  C2  UNL     1      -1.639   2.317   0.048  1.00  0.00    -0.004 C 
HETATM    5  C1  UNL     1      -1.990   3.553  -0.760  1.00  0.00     0.005 C 
ENDBRANCH   3   4
ENDBRANCH   2   3
BRANCH   2   6
HETATM    6  C5  UNL     1      -1.311  -1.387  -0.873  1.00  0.00     0.004 C 
BRANCH   6   7
HETATM    7  C6  UNL     1      -0.972  -2.635  -0.093  1.00  0.00    -0.004 C 
HETATM    8  C7  UNL     1      -1.998  -2.801   1.011  1.00  0.00     0.005 C 
ENDBRANCH   6   7
ENDBRANCH   2   6
ENDBRANCH   1   2
BRANCH   1   9
HETATM    9  C9  UNL     1       1.171   0.271  -0.040  1.00  0.00     0.008 C 
BRANCH   9  10
HETATM   10  C10 UNL     1       2.317   0.385   0.956  1.00  0.00     0.037 C 
HETATM   11  C11 UNL     1       3.656   0.671   0.330  1.00  0.00     0.238 C 
HETATM   12  N1  UNL     1       4.210  -0.569   0.851  1.00  0.00    -0.074 N 
HETATM   13  C12 UNL     1       2.903  -0.960   1.289  1.00  0.00     0.238 C 
ATOM     14  H12 UNL     1       4.751  -1.183   0.243  1.00  0.00     0.277 HD
ATOM     15  H11 UNL     1       4.986  -0.545   1.513  1.00  0.00     0.277 HD
ENDBRANCH   9  10
ENDBRANCH   1   9
TORSDOF 7
