REMARK  9 active torsions:
REMARK  status: ('A' for Active; 'I' for Inactive)
REMARK    1  A    between atoms: N2_5  and  C3_6 
REMARK    2  A    between atoms: C3_6  and  C4_7 
REMARK    3  A    between atoms: C5_8  and  C6_9 
REMARK    4  A    between atoms: C6_9  and  S1_10 
REMARK    5  A    between atoms: S1_10  and  C7_11 
REMARK    6  A    between atoms: C7_11  and  O1_12 
REMARK    7  A    between atoms: O1_12  and  C8_13 
REMARK    8  A    between atoms: C8_13  and  C11_16 
REMARK    9  A    between atoms: C11_16  and  C12_17 
ROOT
HETATM    1  C1  UNL     1       6.009  -0.481  -2.849  1.00  0.00     0.070 C 
HETATM    2  C2  UNL     1       5.570   0.084  -1.541  1.00  0.00     0.031 A 
HETATM    3  N1  UNL     1       4.339   0.187  -1.036  1.00  0.00    -0.301 N 
ATOM      4  H1  UNL     1       3.494  -0.128  -1.512  1.00  0.00     0.187 HD
HETATM    5  N2  UNL     1       4.355   0.754   0.170  1.00  0.00    -0.278 N 
HETATM    6  C15 UNL     1       5.646   1.019   0.436  1.00  0.00     0.139 A 
HETATM    7  C16 UNL     1       6.169   1.637   1.633  1.00  0.00     0.120 C 
HETATM    8  N3  UNL     1       6.572   2.140   2.592  1.00  0.00    -0.190 NA
HETATM    9  C17 UNL     1       6.426   0.608  -0.621  1.00  0.00     0.001 A 
HETATM   10  C18 UNL     1       7.885   0.729  -0.702  1.00  0.00     0.053 C 
ENDROOT
BRANCH   5  11
HETATM   11  C3  UNL     1       3.219   1.035   1.033  1.00  0.00     0.177 C 
BRANCH  11  12
HETATM   12  C4  UNL     1       2.924  -0.099   1.940  1.00  0.00    -0.008 C 
HETATM   13  C5  UNL     1       1.811  -0.786   2.008  1.00  0.00    -0.019 C 
BRANCH  13  14
HETATM   14  C6  UNL     1       0.590  -0.584   1.192  1.00  0.00     0.103 C 
BRANCH  14  15
HETATM   15  S1  UNL     1      -0.763  -0.204   2.344  1.00  0.00    -0.139 SA
BRANCH  15  16
HETATM   16  C7  UNL     1      -2.320   0.062   1.423  1.00  0.00     0.242 C 
BRANCH  16  17
HETATM   17  O1  UNL     1      -2.706  -1.108   0.832  1.00  0.00    -0.371 OA
BRANCH  17  18
HETATM   18  C8  UNL     1      -3.898  -1.069   0.134  1.00  0.00     0.055 C 
HETATM   19  C9  UNL     1      -4.104  -2.482  -0.404  1.00  0.00     0.045 C 
HETATM   20  C10 UNL     1      -4.961  -0.752   1.187  1.00  0.00     0.045 C 
BRANCH  18  21
HETATM   21  C11 UNL     1      -3.827  -0.063  -0.947  1.00  0.00     0.041 C 
BRANCH  21  22
HETATM   22  C12 UNL     1      -5.033   0.086  -1.823  1.00  0.00    -0.020 C 
HETATM   23  C13 UNL     1      -4.638   1.181  -2.842  1.00  0.00     0.009 C 
HETATM   24  C14 UNL     1      -6.266   0.604  -1.167  1.00  0.00     0.009 C 
ENDBRANCH  21  22
ENDBRANCH  18  21
ENDBRANCH  17  18
ENDBRANCH  16  17
ENDBRANCH  15  16
ENDBRANCH  14  15
ENDBRANCH  13  14
ENDBRANCH  11  12
ENDBRANCH   5  11
TORSDOF 9
