REMARK  2 active torsions:
REMARK  status: ('A' for Active; 'I' for Inactive)
REMARK    1  A    between atoms: N3_4  and  N4_6 
REMARK    2  A    between atoms: C2_8  and  N5_9 
ROOT
HETATM    1  N4  UNL     1      -0.589   0.274   0.950  1.00  0.00    -0.292 N 
ATOM      2  H4  UNL     1      -0.302  -0.598   1.395  1.00  0.00     0.187 HD
HETATM    3  C2  UNL     1       0.292   0.919   0.267  1.00  0.00     0.222 C 
ENDROOT
BRANCH   1   4
HETATM    4  N3  UNL     1      -1.902   0.686   1.120  1.00  0.00    -0.275 N 
HETATM    5  C1  UNL     1      -2.826   0.058   0.476  1.00  0.00     0.215 C 
HETATM    6  N1  UNL     1      -2.517  -1.038  -0.394  1.00  0.00    -0.065 NA
HETATM    7  N2  UNL     1      -4.187   0.445   0.619  1.00  0.00    -0.065 NA
ATOM      8  H3  UNL     1      -2.131   1.465   1.738  1.00  0.00     0.189 HD
ENDBRANCH   1   4
BRANCH   3   9
HETATM    9  N5  UNL     1       1.600   0.376   0.179  1.00  0.00    -0.262 N 
HETATM   10  C3  UNL     1       1.911  -0.946   0.253  1.00  0.00     0.118 A 
HETATM   11  C4  UNL     1       3.276  -1.052   0.124  1.00  0.00     0.038 A 
HETATM   12  C5  UNL     1       3.752   0.240  -0.026  1.00  0.00     0.109 A 
HETATM   13  N6  UNL     1       2.708   1.071   0.013  1.00  0.00    -0.305 N 
ATOM     14  H6  UNL     1       2.760   2.086  -0.072  1.00  0.00     0.186 HD
ENDBRANCH   3   9
TORSDOF 2
