REMARK  6 active torsions:
REMARK  status: ('A' for Active; 'I' for Inactive)
REMARK    1  A    between atoms: C2_2  and  N1_3 
REMARK    2  A    between atoms: C7_11  and  N3_12 
REMARK    3  A    between atoms: N3_12  and  C8_14 
REMARK    4  A    between atoms: C13_21  and  N5_22 
REMARK    5  A    between atoms: N5_22  and  C14_24 
REMARK    6  A    between atoms: C16_26  and  C17_27 
ROOT
HETATM    1  C1  UNL     1      -0.062  -2.077   0.663  1.00  0.00     0.098 A 
HETATM    2  C2  UNL     1      -1.254  -2.207   0.005  1.00  0.00     0.122 A 
HETATM    3  N2  UNL     1      -1.908  -1.072  -0.307  1.00  0.00    -0.177 N 
ATOM      4  H2  UNL     1      -2.800  -1.135  -0.797  1.00  0.00     0.185 HD
HETATM    5  C7  UNL     1      -1.414   0.160   0.012  1.00  0.00     0.681 A 
HETATM    6  N4  UNL     1      -0.236   0.241   0.660  1.00  0.00    -0.177 N 
ATOM      7  H4  UNL     1       0.129   1.164   0.897  1.00  0.00     0.186 HD
HETATM    8  C13 UNL     1       0.479  -0.844   1.008  1.00  0.00     0.126 A 
ENDROOT
BRANCH   8   9
HETATM    9  N5  UNL     1       1.702  -0.829   1.680  1.00  0.00    -0.327 N 
ATOM     10  H5  UNL     1       1.770  -1.419   2.510  1.00  0.00     0.169 HD
BRANCH   9  11
HETATM   11  C14 UNL     1       2.737  -0.165   1.375  1.00  0.00     0.123 A 
HETATM   12  C15 UNL     1       2.850   0.688   0.299  1.00  0.00     0.076 A 
HETATM   13  C16 UNL     1       4.134   1.243   0.283  1.00  0.00     0.033 A 
HETATM   14  N6  UNL     1       4.749   0.705   1.350  1.00  0.00    -0.303 N 
HETATM   15  N7  UNL     1       3.927  -0.127   1.997  1.00  0.00    -0.285 N 
ATOM     16  H6  UNL     1       5.710   0.904   1.628  1.00  0.00     0.186 HD
ATOM     17  H7  UNL     1       4.167  -0.654   2.837  1.00  0.00     0.188 HD
BRANCH  13  18
HETATM   18  C17 UNL     1       4.704   2.212  -0.690  1.00  0.00     0.037 A 
HETATM   19  C18 UNL     1       5.742   3.162  -0.227  1.00  0.00     0.011 A 
HETATM   20  C19 UNL     1       6.132   2.019  -1.131  1.00  0.00     0.011 A 
ENDBRANCH  13  18
ENDBRANCH   9  11
ENDBRANCH   8   9
BRANCH   2  21
HETATM   21  N1  UNL     1      -1.819  -3.459  -0.353  1.00  0.00    -0.363 N 
HETATM   22  C3  UNL     1      -3.085  -3.521  -1.047  1.00  0.00     0.150 C 
HETATM   23  C4  UNL     1      -3.152  -4.619  -2.070  1.00  0.00     0.187 C 
HETATM   24  O1  UNL     1      -2.114  -5.534  -1.967  1.00  0.00    -0.388 OA
HETATM   25  C5  UNL     1      -1.948  -5.826  -0.607  1.00  0.00     0.187 C 
HETATM   26  C6  UNL     1      -1.135  -4.669  -0.027  1.00  0.00     0.150 C 
ENDBRANCH   2  21
BRANCH   5  27
HETATM   27  N3  UNL     1      -2.125   1.154  -0.337  1.00  0.00    -0.221 N 
ATOM     28  H3  UNL     1      -2.999   0.952  -0.822  1.00  0.00     0.178 HD
BRANCH  27  29
HETATM   29  C8  UNL     1      -1.806   2.540  -0.108  1.00  0.00     0.099 C 
HETATM   30  C9  UNL     1      -2.139   2.871   1.326  1.00  0.00     0.026 C 
HETATM   31  C10 UNL     1      -3.497   3.495   1.302  1.00  0.00     0.002 C 
HETATM   32  C11 UNL     1      -3.477   4.287   0.011  1.00  0.00     0.002 C 
HETATM   33  C12 UNL     1      -2.621   3.478  -0.935  1.00  0.00     0.026 C 
ENDBRANCH  27  29
ENDBRANCH   5  27
TORSDOF 6
