REMARK  11 active torsions:
REMARK  status: ('A' for Active; 'I' for Inactive)
REMARK    1  A    between atoms: O1_2  and  C2_3 
REMARK    2  A    between atoms: C7_9  and  C8_10 
REMARK    3  A    between atoms: C8_10  and  C9_12 
REMARK    4  A    between atoms: C9_12  and  O3_13 
REMARK    5  A    between atoms: O3_13  and  C10_14 
REMARK    6  A    between atoms: C10_14  and  C11_16 
REMARK    7  A    between atoms: C11_16  and  S1_17 
REMARK    8  A    between atoms: S1_17  and  C12_19 
REMARK    9  A    between atoms: C12_19  and  C13_20 
REMARK       I    between atoms: C13_20  and  N1_22 
REMARK   10  A    between atoms: N1_22  and  C14_24 
REMARK   11  A    between atoms: C17_27  and  N2_28 
ROOT
HETATM    1  C11 UNL     1       0.385   1.614   2.017  1.00  0.00     0.220 C 
ENDROOT
BRANCH   1   2
HETATM    2  C10 UNL     1      -0.422   1.103   0.888  1.00  0.00     0.270 C 
HETATM    3  O4  UNL     1       0.144   0.746  -0.169  1.00  0.00    -0.264 OA
BRANCH   2   4
HETATM    4  O3  UNL     1      -1.797   1.018   0.990  1.00  0.00    -0.313 OA
BRANCH   4   5
HETATM    5  C9  UNL     1      -2.531   0.528  -0.106  1.00  0.00     0.262 C 
BRANCH   5   6
HETATM    6  C8  UNL     1      -3.984   0.505   0.160  1.00  0.00     0.186 C 
HETATM    7  O2  UNL     1      -4.413   0.893   1.265  1.00  0.00    -0.290 OA
BRANCH   6   8
HETATM    8  C7  UNL     1      -4.891   0.034  -0.862  1.00  0.00     0.046 A 
HETATM    9  C2  UNL     1      -6.263   0.018  -0.607  1.00  0.00     0.082 A 
HETATM   10  C3  UNL     1      -7.119  -0.432  -1.590  1.00  0.00     0.039 A 
HETATM   11  C4  UNL     1      -6.698  -0.872  -2.824  1.00  0.00     0.022 A 
HETATM   12  C5  UNL     1      -5.334  -0.855  -3.074  1.00  0.00     0.012 A 
HETATM   13 BR1  UNL     1      -4.721  -1.460  -4.774  1.00  0.00    -0.051 Br
HETATM   14  C6  UNL     1      -4.467  -0.407  -2.098  1.00  0.00     0.037 A 
BRANCH   9  15
HETATM   15  O1  UNL     1      -6.789   0.436   0.591  1.00  0.00    -0.355 OA
HETATM   16  C1  UNL     1      -8.140   0.452   0.919  1.00  0.00     0.210 C 
ENDBRANCH   9  15
ENDBRANCH   6   8
ENDBRANCH   5   6
ENDBRANCH   4   5
ENDBRANCH   2   4
ENDBRANCH   1   2
BRANCH   1  17
HETATM   17  S1  UNL     1       0.925   0.316   3.105  1.00  0.00     0.033 S 
HETATM   18  O5  UNL     1       1.824   1.026   4.339  1.00  0.00    -0.257 OA
BRANCH  17  19
HETATM   19  C12 UNL     1       1.911  -0.878   2.268  1.00  0.00     0.212 C 
BRANCH  19  20
HETATM   20  C13 UNL     1       3.150  -0.285   1.671  1.00  0.00     0.233 C 
HETATM   21  O6  UNL     1       3.315   0.928   1.851  1.00  0.00    -0.272 OA
HETATM   22  N1  UNL     1       4.046  -1.081   0.959  1.00  0.00    -0.326 N 
ATOM     23  H1  UNL     1       3.804  -2.068   0.871  1.00  0.00     0.169 HD
BRANCH  22  24
HETATM   24  C14 UNL     1       5.249  -0.674   0.347  1.00  0.00     0.034 A 
HETATM   25  C15 UNL     1       5.873  -1.597  -0.507  1.00  0.00     0.032 A 
HETATM   26  C16 UNL     1       7.055  -1.336  -1.155  1.00  0.00     0.038 A 
HETATM   27  C17 UNL     1       7.692  -0.131  -0.991  1.00  0.00     0.103 A 
HETATM   28  C18 UNL     1       7.089   0.778  -0.158  1.00  0.00     0.038 A 
HETATM   29  C19 UNL     1       5.885   0.518   0.506  1.00  0.00     0.032 A 
BRANCH  27  30
HETATM   30  N2  UNL     1       8.921   0.183  -1.644  1.00  0.00    -0.116 N 
HETATM   31  O7  UNL     1       9.471   1.278  -1.472  1.00  0.00    -0.532 OA
HETATM   32  O8  UNL     1       9.508  -0.730  -2.469  1.00  0.00    -0.532 OA
ENDBRANCH  27  30
ENDBRANCH  22  24
ENDBRANCH  19  20
ENDBRANCH  17  19
ENDBRANCH   1  17
TORSDOF 11
