REMARK  17 active torsions:
REMARK  status: ('A' for Active; 'I' for Inactive)
REMARK    1  A    between atoms: C2_2  and  C4_5 
REMARK    2  A    between atoms: C4_5  and  O1_6 
REMARK    3  A    between atoms: O1_6  and  C5_7 
REMARK    4  A    between atoms: C8_10  and  C9_11 
REMARK    5  A    between atoms: C9_11  and  C10_12 
REMARK    6  A    between atoms: C10_12  and  C11_13 
REMARK    7  A    between atoms: C10_12  and  C20_25 
REMARK    8  A    between atoms: C11_13  and  O2_14 
REMARK    9  A    between atoms: O2_14  and  C12_15 
REMARK   10  A    between atoms: C12_15  and  C13_17 
REMARK   11  A    between atoms: C13_17  and  C14_19 
REMARK   12  A    between atoms: C20_25  and  O4_26 
REMARK   13  A    between atoms: C20_25  and  N2_28 
REMARK   14  A    between atoms: N2_28  and  C21_30 
REMARK   15  A    between atoms: C21_30  and  C22_31 
REMARK   16  A    between atoms: C22_31  and  O6_33 
REMARK   17  A    between atoms: C25_36  and  O7_37 
ROOT
HETATM    1  C1  UNL     1       6.566  -3.873  -3.482  1.00  0.00     0.033 C 
HETATM    2  C2  UNL     1       6.728  -4.236  -2.224  1.00  0.00     0.037 C 
HETATM    3  C3  UNL     1       7.885  -4.979  -1.807  1.00  0.00     0.096 C 
HETATM    4  N1  UNL     1       8.818  -5.570  -1.459  1.00  0.00    -0.192 NA
ENDROOT
BRANCH   2   5
HETATM    5  C4  UNL     1       5.700  -3.870  -1.223  1.00  0.00     0.224 C 
BRANCH   5   6
HETATM    6  O1  UNL     1       4.674  -3.155  -1.844  1.00  0.00    -0.343 OA
BRANCH   6   7
HETATM    7  C5  UNL     1       3.589  -2.692  -1.120  1.00  0.00     0.102 A 
HETATM    8  C6  UNL     1       3.521  -2.938   0.231  1.00  0.00     0.040 A 
HETATM    9  C7  UNL     1       2.458  -2.492   0.984  1.00  0.00     0.014 A 
HETATM   10  C8  UNL     1       1.456  -1.789   0.351  1.00  0.00    -0.033 A 
HETATM   11  C24 UNL     1       1.524  -1.541  -1.011  1.00  0.00     0.051 A 
HETATM   12  C25 UNL     1       2.588  -1.993  -1.739  1.00  0.00     0.102 A 
BRANCH  10  13
HETATM   13  C9  UNL     1       0.292  -1.392   1.100  1.00  0.00     0.025 C 
BRANCH  13  14
HETATM   14  C10 UNL     1      -0.181  -0.257   1.440  1.00  0.00     0.017 C 
BRANCH  14  15
HETATM   15  C11 UNL     1      -1.498  -0.302   2.249  1.00  0.00     0.222 C 
BRANCH  15  16
HETATM   16  O2  UNL     1      -2.404   0.417   1.435  1.00  0.00    -0.315 OA
BRANCH  16  17
HETATM   17  C12 UNL     1      -3.714   0.654   1.741  1.00  0.00     0.282 C 
HETATM   18  O3  UNL     1      -4.189   0.224   2.818  1.00  0.00    -0.263 OA
BRANCH  17  19
HETATM   19  C13 UNL     1      -4.608   1.413   0.832  1.00  0.00     0.214 C 
HETATM   20 CL1  UNL     1      -4.020   3.053   0.497  1.00  0.00    -0.109 Cl
BRANCH  19  21
HETATM   21  C14 UNL     1      -5.974   1.541   1.428  1.00  0.00    -0.030 A 
HETATM   22  C15 UNL     1      -7.033   0.889   0.842  1.00  0.00     0.009 A 
HETATM   23  C16 UNL     1      -8.288   1.001   1.375  1.00  0.00     0.001 A 
HETATM   24  C17 UNL     1      -8.497   1.776   2.512  1.00  0.00     0.000 A 
HETATM   25  C18 UNL     1      -7.445   2.421   3.090  1.00  0.00     0.001 A 
HETATM   26  C19 UNL     1      -6.166   2.307   2.548  1.00  0.00     0.009 A 
ENDBRANCH  19  21
ENDBRANCH  17  19
ENDBRANCH  16  17
ENDBRANCH  15  16
ENDBRANCH  14  15
BRANCH  14  27
HETATM   27  C20 UNL     1       0.386   1.045   1.298  1.00  0.00     0.144 C 
BRANCH  27  28
HETATM   28  O4  UNL     1      -0.338   2.070   1.659  1.00  0.00    -0.346 OA
ATOM     29  H4  UNL     1       0.039   2.937   1.564  1.00  0.00     0.219 HD
ENDBRANCH  27  28
BRANCH  27  30
HETATM   30  N2  UNL     1       1.648   1.366   0.818  1.00  0.00    -0.361 N 
ATOM     31  H2  UNL     1       2.297   0.632   0.536  1.00  0.00     0.162 HD
BRANCH  30  32
HETATM   32  C21 UNL     1       2.035   2.786   0.723  1.00  0.00     0.232 C 
BRANCH  32  33
HETATM   33  C22 UNL     1       1.139   3.433  -0.254  1.00  0.00     0.276 C 
HETATM   34  O5  UNL     1       0.277   2.821  -0.923  1.00  0.00    -0.263 OA
BRANCH  33  35
HETATM   35  O6  UNL     1       1.249   4.809  -0.454  1.00  0.00    -0.325 OA
HETATM   36  C23 UNL     1       0.384   5.412  -1.393  1.00  0.00     0.213 C 
ENDBRANCH  33  35
ENDBRANCH  32  33
ENDBRANCH  30  32
ENDBRANCH  27  30
ENDBRANCH  14  27
ENDBRANCH  13  14
ENDBRANCH  10  13
BRANCH  12  37
HETATM   37  O7  UNL     1       2.633  -1.733  -3.095  1.00  0.00    -0.353 OA
HETATM   38  C26 UNL     1       1.624  -1.018  -3.774  1.00  0.00     0.210 C 
ENDBRANCH  12  37
ENDBRANCH   6   7
ENDBRANCH   5   6
ENDBRANCH   2   5
TORSDOF 17
