REMARK  9 active torsions:
REMARK  status: ('A' for Active; 'I' for Inactive)
REMARK    1  A    between atoms: C2_2  and  N1_3 
REMARK    2  A    between atoms: C4_6  and  C5_7 
REMARK    3  A    between atoms: C5_7  and  C6_8 
REMARK    4  A    between atoms: C5_7  and  C18_25 
REMARK    5  A    between atoms: C6_8  and  C7_9 
REMARK    6  A    between atoms: N2_12  and  C10_13 
REMARK    7  A    between atoms: N3_17  and  O2_19 
REMARK       I    between atoms: C18_25  and  N4_27 
REMARK    8  A    between atoms: C21_30  and  O4_31 
REMARK    9  A    between atoms: C23_34  and  O5_35 
ROOT
HETATM    1  C5  UNL     1      -1.214  -0.087   0.087  1.00  0.00     0.004 C 
ENDROOT
BRANCH   1   2
HETATM    2  C4  UNL     1      -2.207   0.891   0.622  1.00  0.00     0.141 C 
HETATM    3  C3  UNL     1      -2.646   1.850  -0.419  1.00  0.00     0.231 C 
HETATM    4  N1  UNL     1      -3.951   2.484  -0.266  1.00  0.00    -0.343 N 
HETATM    5  O1  UNL     1      -2.045   2.200  -1.439  1.00  0.00    -0.272 OA
HETATM    6  C26 UNL     1      -4.426   2.714   1.065  1.00  0.00     0.030 C 
HETATM    7  C25 UNL     1      -4.046   1.605   1.976  1.00  0.00     0.063 C 
HETATM    8  C27 UNL     1      -3.725   3.990   1.555  1.00  0.00     0.038 C 
HETATM    9  C28 UNL     1      -5.929   2.888   1.139  1.00  0.00     0.038 C 
HETATM   10  C23 UNL     1      -3.474   0.381   1.191  1.00  0.00     0.140 C 
BRANCH   4  11
HETATM   11  C2  UNL     1      -4.750   2.875  -1.400  1.00  0.00     0.122 C 
HETATM   12  C1  UNL     1      -4.511   4.281  -1.874  1.00  0.00     0.026 C 
ENDBRANCH   4  11
BRANCH  10  13
HETATM   13  O5  UNL     1      -3.463  -0.597   2.123  1.00  0.00    -0.389 OA
HETATM   14  C24 UNL     1      -4.451  -1.537   1.820  1.00  0.00     0.202 C 
ENDBRANCH  10  13
ENDBRANCH   1   2
BRANCH   1  15
HETATM   15  C6  UNL     1       0.015   0.609  -0.332  1.00  0.00     0.046 C 
BRANCH  15  16
HETATM   16  C7  UNL     1       1.176  -0.144  -0.902  1.00  0.00    -0.004 C 
HETATM   17  C8  UNL     1       2.209   1.004  -1.278  1.00  0.00     0.025 C 
HETATM   18  C9  UNL     1       3.402   0.439  -1.933  1.00  0.00     0.122 C 
HETATM   19  N2  UNL     1       4.010  -0.655  -1.233  1.00  0.00    -0.389 N 
HETATM   20  C16 UNL     1       3.117  -1.594  -0.736  1.00  0.00     0.059 C 
HETATM   21  C17 UNL     1       2.009  -0.933   0.060  1.00  0.00     0.049 C 
BRANCH  19  22
HETATM   22  C10 UNL     1       5.253  -0.394  -0.657  1.00  0.00     0.084 C 
HETATM   23  C11 UNL     1       5.463  -0.977   0.697  1.00  0.00     0.031 C 
HETATM   24  C12 UNL     1       6.755  -0.449   1.326  1.00  0.00     0.056 C 
HETATM   25  C13 UNL     1       7.608   0.130   0.272  1.00  0.00     0.010 C 
HETATM   26  N3  UNL     1       8.187   1.249   0.455  1.00  0.00    -0.277 N 
HETATM   27  C14 UNL     1       7.716  -0.681  -0.989  1.00  0.00     0.056 C 
ATOM     28  H3  UNL     1       8.773   1.638  -0.284  1.00  0.00     0.193 HD
HETATM   29  C15 UNL     1       6.355  -0.746  -1.636  1.00  0.00     0.031 C 
BRANCH  26  30
HETATM   30  O2  UNL     1       8.037   1.929   1.614  1.00  0.00    -0.290 OA
ATOM     31  H2  UNL     1       8.469   2.764   1.751  1.00  0.00     0.244 HD
ENDBRANCH  26  30
ENDBRANCH  19  22
ENDBRANCH  15  16
ENDBRANCH   1  15
BRANCH   1  32
HETATM   32  C18 UNL     1      -1.075  -1.340   0.823  1.00  0.00     0.246 C 
HETATM   33  O3  UNL     1      -0.824  -1.387   2.084  1.00  0.00    -0.268 OA
HETATM   34  N4  UNL     1      -1.201  -2.622   0.215  1.00  0.00    -0.346 N 
HETATM   35  C19 UNL     1      -1.511  -2.821  -1.181  1.00  0.00     0.129 C 
HETATM   36  C22 UNL     1      -1.015  -3.911   0.845  1.00  0.00     0.157 C 
HETATM   37  C20 UNL     1      -1.938  -4.264  -1.318  1.00  0.00     0.053 C 
HETATM   38  C21 UNL     1      -1.856  -4.868   0.067  1.00  0.00     0.137 C 
BRANCH  38  39
HETATM   39  O4  UNL     1      -3.122  -4.951   0.637  1.00  0.00    -0.394 OA
ATOM     40  H4  UNL     1      -3.071  -5.330   1.507  1.00  0.00     0.210 HD
ENDBRANCH  38  39
ENDBRANCH   1  32
TORSDOF 9
