REMARK  2 active torsions:
REMARK  status: ('A' for Active; 'I' for Inactive)
REMARK       I    between atoms: C2_2  and  N1_4 
REMARK    1  A    between atoms: N1_4  and  C3_6 
REMARK    2  A    between atoms: N2_13  and  C10_14 
ROOT
HETATM    1  C3  UNL     1       3.206   0.058   0.312  1.00  0.00     0.084 C 
HETATM    2  C4  UNL     1       2.397   0.986  -0.603  1.00  0.00     0.026 C 
HETATM    3  C5  UNL     1       1.372   0.139  -1.276  1.00  0.00     0.013 C 
HETATM    4  C6  UNL     1       0.468  -0.605  -0.345  1.00  0.00    -0.014 C 
HETATM    5  C7  UNL     1      -0.021  -1.837  -1.128  1.00  0.00     0.013 C 
HETATM    6  C8  UNL     1      -0.882  -2.598  -0.146  1.00  0.00     0.031 C 
HETATM    7  C9  UNL     1      -2.071  -1.782   0.183  1.00  0.00     0.273 C 
HETATM    8  N2  UNL     1      -1.873  -0.414   0.424  1.00  0.00     0.094 N 
HETATM    9  C15 UNL     1      -0.748   0.230  -0.093  1.00  0.00     0.282 C 
HETATM   10  C16 UNL     1       1.126  -1.126   0.882  1.00  0.00     0.013 C 
HETATM   11  C17 UNL     1       2.225  -0.300   1.429  1.00  0.00     0.026 C 
ENDROOT
BRANCH   8  12
HETATM   12  C10 UNL     1      -3.079   0.295   0.010  1.00  0.00     0.227 C 
HETATM   13  C11 UNL     1      -2.962   1.779   0.232  1.00  0.00     0.062 C 
HETATM   14  C12 UNL     1      -4.310   2.389  -0.111  1.00  0.00     0.169 C 
HETATM   15  O2  UNL     1      -5.155   1.461  -0.714  1.00  0.00    -0.391 OA
HETATM   16  C13 UNL     1      -5.509   0.427   0.124  1.00  0.00     0.169 C 
HETATM   17  C14 UNL     1      -4.292  -0.172   0.815  1.00  0.00     0.062 C 
ENDBRANCH   8  12
BRANCH   1  18
HETATM   18  N1  UNL     1       4.397   0.668   0.795  1.00  0.00    -0.357 N 
HETATM   19  C2  UNL     1       5.673   0.144   0.480  1.00  0.00     0.213 C 
HETATM   20  C1  UNL     1       6.917   0.788   0.989  1.00  0.00     0.117 C 
HETATM   21  O1  UNL     1       5.734  -0.884  -0.243  1.00  0.00    -0.274 OA
ATOM     22  H1  UNL     1       4.330   1.500   1.381  1.00  0.00     0.162 HD
ENDBRANCH   1  18
TORSDOF 2
