REMARK  6 active torsions:
REMARK  status: ('A' for Active; 'I' for Inactive)
REMARK    1  A    between atoms: C2_5  and  N2_6 
REMARK    2  A    between atoms: N2_6  and  C3_8 
REMARK    3  A    between atoms: C8_16  and  N4_17 
REMARK    4  A    between atoms: C13_22  and  N5_23 
REMARK    5  A    between atoms: N5_23  and  N6_25 
REMARK    6  A    between atoms: N6_25  and  C14_27 
ROOT
HETATM    1  O1  UNL     1      -0.056  -2.748   0.208  1.00  0.00    -0.265 OA
HETATM    2  C1  UNL     1       0.095  -1.507   0.151  1.00  0.00     0.291 A 
HETATM    3  N1  UNL     1       1.330  -0.987   0.161  1.00  0.00    -0.154 N 
ATOM      4  H1  UNL     1       2.125  -1.624   0.215  1.00  0.00     0.187 HD
HETATM    5  C2  UNL     1       1.571   0.335   0.103  1.00  0.00     0.683 A 
HETATM    6  N3  UNL     1       0.491   1.175   0.030  1.00  0.00    -0.174 N 
ATOM      7  H3  UNL     1       0.659   2.180  -0.015  1.00  0.00     0.186 HD
HETATM    8  C8  UNL     1      -0.775   0.737   0.015  1.00  0.00     0.153 A 
HETATM    9  C13 UNL     1      -0.981  -0.624   0.076  1.00  0.00     0.161 A 
ENDROOT
BRANCH   9  10
HETATM   10  N5  UNL     1      -2.295  -1.137   0.063  1.00  0.00    -0.292 N 
ATOM     11  H5  UNL     1      -3.016  -0.636  -0.456  1.00  0.00     0.187 HD
BRANCH  10  12
HETATM   12  N6  UNL     1      -2.612  -2.220   0.687  1.00  0.00    -0.297 N 
ATOM     13  H6  UNL     1      -1.906  -2.737   1.212  1.00  0.00     0.187 HD
BRANCH  12  14
HETATM   14  C14 UNL     1      -3.949  -2.685   0.637  1.00  0.00     0.081 A 
HETATM   15  C15 UNL     1      -5.020  -2.344   1.446  1.00  0.00     0.139 A 
HETATM   16  N7  UNL     1      -6.076  -3.062   0.989  1.00  0.00    -0.310 N 
HETATM   17  N8  UNL     1      -5.681  -3.803  -0.042  1.00  0.00    -0.310 N 
ATOM     18  H7  UNL     1      -7.020  -3.038   1.374  1.00  0.00     0.186 HD
HETATM   19  C16 UNL     1      -4.390  -3.604  -0.292  1.00  0.00     0.139 A 
ATOM     20  H8  UNL     1      -6.284  -4.436  -0.568  1.00  0.00     0.186 HD
ENDBRANCH  12  14
ENDBRANCH  10  12
ENDBRANCH   9  10
BRANCH   8  21
HETATM   21  N4  UNL     1      -1.912   1.581  -0.060  1.00  0.00    -0.365 N 
HETATM   22  C9  UNL     1      -2.699   2.195   0.974  1.00  0.00     0.124 C 
HETATM   23  C10 UNL     1      -2.823   3.625   0.456  1.00  0.00     0.021 C 
HETATM   24  C11 UNL     1      -2.710   3.489  -1.060  1.00  0.00     0.021 C 
HETATM   25  C12 UNL     1      -2.526   2.002  -1.319  1.00  0.00     0.124 C 
ENDBRANCH   8  21
BRANCH   5  26
HETATM   26  N2  UNL     1       2.765   0.825   0.113  1.00  0.00    -0.218 N 
ATOM     27  H2  UNL     1       2.895   1.836   0.066  1.00  0.00     0.178 HD
BRANCH  26  28
HETATM   28  C3  UNL     1       3.899  -0.026   0.188  1.00  0.00     0.133 C 
HETATM   29  C4  UNL     1       4.340  -0.579  -1.156  1.00  0.00     0.029 C 
HETATM   30  C5  UNL     1       5.677  -1.207  -0.781  1.00  0.00     0.005 C 
HETATM   31  C6  UNL     1       6.202  -0.378   0.386  1.00  0.00     0.039 C 
HETATM   32  C7  UNL     1       5.172   0.746   0.568  1.00  0.00     0.193 C 
HETATM   33  F1  UNL     1       5.127   1.201   1.849  1.00  0.00    -0.247 F 
ENDBRANCH  26  28
ENDBRANCH   5  26
TORSDOF 6
