REMARK  11 active torsions:
REMARK  status: ('A' for Active; 'I' for Inactive)
REMARK    1  A    between atoms: N1_1  and  C1_5 
REMARK    2  A    between atoms: C1_5  and  C2_6 
REMARK    3  A    between atoms: C2_6  and  C3_7 
REMARK    4  A    between atoms: C3_7  and  O1_8 
REMARK    5  A    between atoms: O1_8  and  N2_9 
REMARK    6  A    between atoms: N2_9  and  C4_11 
REMARK    7  A    between atoms: C4_11  and  C5_18 
REMARK    8  A    between atoms: N3_12  and  N4_14 
REMARK    9  A    between atoms: N4_14  and  O2_16 
REMARK   10  A    between atoms: C9_25  and  S1_26 
REMARK   11  A    between atoms: S1_26  and  N6_27 
ROOT
HETATM    1  C5  UNL     1      -0.422  -0.555  -0.285  1.00  0.00     0.055 A 
HETATM    2  C6  UNL     1      -1.213   0.090  -1.192  1.00  0.00     0.042 A 
HETATM    3  C7  UNL     1      -2.518   0.257  -0.886  1.00  0.00     0.067 A 
HETATM    4  C8  UNL     1      -3.512   0.885  -1.664  1.00  0.00     0.260 A 
HETATM    5  O3  UNL     1      -3.272   1.384  -2.788  1.00  0.00    -0.267 OA
HETATM    6  N5  UNL     1      -4.747   0.959  -1.207  1.00  0.00    -0.298 N 
ATOM      7  H5  UNL     1      -5.436   1.421  -1.800  1.00  0.00     0.171 HD
HETATM    8  C9  UNL     1      -5.175   0.480  -0.030  1.00  0.00     0.227 A 
HETATM    9  N7  UNL     1      -4.255  -0.123   0.734  1.00  0.00    -0.325 N 
ATOM     10  H7  UNL     1      -4.522  -0.507   1.640  1.00  0.00     0.169 HD
HETATM   11  C10 UNL     1      -2.957  -0.228   0.307  1.00  0.00     0.092 A 
HETATM   12  S2  UNL     1      -1.531  -0.911   0.980  1.00  0.00    -0.068 SA
ENDROOT
BRANCH   1  13
HETATM   13  C4  UNL     1       0.997  -0.896  -0.321  1.00  0.00     0.158 C 
HETATM   14  N3  UNL     1       1.538  -1.307  -1.400  1.00  0.00    -0.263 N 
ATOM     15  H3  UNL     1       2.534  -1.527  -1.389  1.00  0.00     0.190 HD
BRANCH  13  16
HETATM   16  N2  UNL     1       1.758  -0.750   0.865  1.00  0.00    -0.248 N 
ATOM     17  H2  UNL     1       1.306  -0.436   1.724  1.00  0.00     0.196 HD
BRANCH  16  18
HETATM   18  O1  UNL     1       3.059  -1.021   0.863  1.00  0.00    -0.279 OA
BRANCH  18  19
HETATM   19  C3  UNL     1       3.865   0.098   0.897  1.00  0.00     0.203 C 
BRANCH  19  20
HETATM   20  C2  UNL     1       5.332  -0.251   0.888  1.00  0.00     0.056 C 
BRANCH  20  21
HETATM   21  C1  UNL     1       6.200   0.990   0.926  1.00  0.00     0.231 C 
BRANCH  21  22
HETATM   22  N1  UNL     1       7.600   0.668   0.916  1.00  0.00    -0.079 N 
ATOM     23  H13 UNL     1       7.838   0.027   1.673  1.00  0.00     0.274 HD
ATOM     24  H12 UNL     1       7.838   0.074   0.121  1.00  0.00     0.274 HD
ATOM     25  H11 UNL     1       8.184   1.504   0.942  1.00  0.00     0.274 HD
ENDBRANCH  21  22
ENDBRANCH  20  21
ENDBRANCH  19  20
ENDBRANCH  18  19
ENDBRANCH  16  18
ENDBRANCH  13  16
BRANCH  14  26
HETATM   26  N4  UNL     1       0.842  -1.469  -2.585  1.00  0.00    -0.208 N 
ATOM     27  H4  UNL     1       1.011  -0.789  -3.326  1.00  0.00     0.215 HD
BRANCH  26  28
HETATM   28  O2  UNL     1       0.032  -2.373  -2.816  1.00  0.00    -0.274 OA
ATOM     29  H2  UNL     1      -0.446  -2.484  -3.630  1.00  0.00     0.246 HD
ENDBRANCH  26  28
ENDBRANCH  14  26
ENDBRANCH   1  13
BRANCH   8  30
HETATM   30  S1  UNL     1      -6.813   0.616   0.501  1.00  0.00     0.289 S 
HETATM   31  O4  UNL     1      -7.251   2.023   0.714  1.00  0.00    -0.198 OA
HETATM   32  O5  UNL     1      -6.984  -0.121   1.804  1.00  0.00    -0.198 OA
BRANCH  30  33
HETATM   33  N6  UNL     1      -7.821  -0.199  -0.657  1.00  0.00    -0.322 N 
ATOM     34  H62 UNL     1      -7.488  -0.670  -1.498  1.00  0.00     0.169 HD
ATOM     35  H61 UNL     1      -8.788  -0.119  -0.343  1.00  0.00     0.169 HD
ENDBRANCH  30  33
ENDBRANCH   8  30
TORSDOF 11
