REMARK  5 active torsions:
REMARK  status: ('A' for Active; 'I' for Inactive)
REMARK    1  A    between atoms: C7_7  and  N1_8 
REMARK    2  A    between atoms: N1_8  and  S1_10 
REMARK    3  A    between atoms: S1_10  and  C8_13 
REMARK    4  A    between atoms: C12_17  and  C13_18 
REMARK    5  A    between atoms: C17_24  and  N3_25 
ROOT
HETATM    1  C13 UNL     1       2.239   0.114  -0.361  1.00  0.00     0.043 A 
HETATM    2  C14 UNL     1       2.653   0.313   0.919  1.00  0.00     0.033 A 
HETATM    3  C15 UNL     1       3.871  -0.197   1.362  1.00  0.00     0.035 A 
HETATM    4  C16 UNL     1       4.666  -0.912   0.494  1.00  0.00     0.079 A 
HETATM    5  N2  UNL     1       5.855  -1.444   0.822  1.00  0.00    -0.190 N 
ATOM      6  H2  UNL     1       6.195  -1.312   1.775  1.00  0.00     0.184 HD
HETATM    7  C17 UNL     1       6.619  -2.137  -0.030  1.00  0.00     0.678 A 
HETATM    8  N4  UNL     1       6.185  -2.322  -1.299  1.00  0.00    -0.175 N 
ATOM      9  H4  UNL     1       6.759  -2.849  -1.957  1.00  0.00     0.186 HD
HETATM   10  C18 UNL     1       5.010  -1.821  -1.699  1.00  0.00     0.144 A 
HETATM   11  N5  UNL     1       4.627  -2.014  -2.910  1.00  0.00    -0.383 N 
ATOM     12  H51 UNL     1       3.732  -1.632  -3.215  1.00  0.00     0.157 HD
ATOM     13  H52 UNL     1       5.208  -2.542  -3.561  1.00  0.00     0.157 HD
HETATM   14  C19 UNL     1       4.223  -1.105  -0.816  1.00  0.00     0.105 A 
HETATM   15  N6  UNL     1       3.039  -0.587  -1.179  1.00  0.00    -0.351 N 
ATOM     16  H6  UNL     1       2.727  -0.736  -2.139  1.00  0.00     0.166 HD
ENDROOT
BRANCH   1  17
HETATM   17  C12 UNL     1       0.957   0.640  -0.860  1.00  0.00    -0.008 A 
HETATM   18  C11 UNL     1       0.609   0.394  -2.174  1.00  0.00     0.014 A 
HETATM   19  C10 UNL     1      -0.558   0.844  -2.716  1.00  0.00     0.002 A 
HETATM   20  C9  UNL     1      -1.420   1.579  -1.895  1.00  0.00     0.025 A 
HETATM   21  C8  UNL     1      -1.123   1.851  -0.588  1.00  0.00     0.080 A 
HETATM   22  C20 UNL     1       0.093   1.356  -0.101  1.00  0.00     0.039 A 
BRANCH  21  23
HETATM   23  S1  UNL     1      -2.200   2.762   0.427  1.00  0.00     0.263 S 
HETATM   24  O1  UNL     1      -1.414   3.659   1.378  1.00  0.00    -0.200 OA
HETATM   25  O2  UNL     1      -3.034   3.734  -0.390  1.00  0.00    -0.200 OA
BRANCH  23  26
HETATM   26  N1  UNL     1      -3.275   1.798   1.343  1.00  0.00    -0.280 N 
ATOM     27  H1  UNL     1      -3.208   1.856   2.359  1.00  0.00     0.179 HD
BRANCH  26  28
HETATM   28  C7  UNL     1      -4.247   0.929   0.807  1.00  0.00     0.048 A 
HETATM   29  C2  UNL     1      -4.755  -0.129   1.561  1.00  0.00    -0.035 A 
HETATM   30  C1  UNL     1      -4.252  -0.356   2.962  1.00  0.00     0.050 C 
HETATM   31  C3  UNL     1      -5.712  -0.969   1.039  1.00  0.00     0.009 A 
HETATM   32  C4  UNL     1      -6.204  -0.808  -0.228  1.00  0.00     0.001 A 
HETATM   33  C5  UNL     1      -5.724   0.221  -0.988  1.00  0.00     0.002 A 
HETATM   34  C6  UNL     1      -4.751   1.078  -0.462  1.00  0.00     0.030 A 
ENDBRANCH  26  28
ENDBRANCH  23  26
ENDBRANCH  21  23
ENDBRANCH   1  17
BRANCH   7  35
HETATM   35  N3  UNL     1       7.763  -2.646   0.295  1.00  0.00    -0.234 N 
ATOM     36  H32 UNL     1       8.090  -2.507   1.251  1.00  0.00     0.174 HD
ATOM     37  H31 UNL     1       8.345  -3.174  -0.355  1.00  0.00     0.174 HD
ENDBRANCH   7  35
TORSDOF 5
