REMARK  8 active torsions:
REMARK  status: ('A' for Active; 'I' for Inactive)
REMARK       I    between atoms: C1_4  and  N3_6 
REMARK    1  A    between atoms: N3_6  and  C2_8 
REMARK    2  A    between atoms: C5_11  and  C6_12 
REMARK    3  A    between atoms: C9_16  and  C10_17 
REMARK    4  A    between atoms: C13_20  and  C14_21 
REMARK    5  A    between atoms: C14_21  and  N5_23 
REMARK    6  A    between atoms: N5_23  and  O1_25 
REMARK    7  A    between atoms: N6_32  and  C20_34 
REMARK    8  A    between atoms: C20_34  and  C21_35 
ROOT
HETATM    1  C6  UNL     1       2.431  -0.463  -0.016  1.00  0.00     0.045 A 
HETATM    2  C7  UNL     1       1.769  -1.677  -0.021  1.00  0.00     0.050 A 
HETATM    3  C8  UNL     1       0.377  -1.734   0.019  1.00  0.00     0.021 A 
HETATM    4  S1  UNL     1      -0.751  -3.014   0.026  1.00  0.00    -0.089 SA
HETATM    5  C9  UNL     1      -2.195  -2.109   0.086  1.00  0.00     0.017 A 
HETATM    6  C17 UNL     1      -1.739  -0.814   0.099  1.00  0.00     0.036 A 
HETATM    7  C18 UNL     1      -0.410  -0.620   0.064  1.00  0.00     0.026 A 
HETATM    8  C19 UNL     1       0.276   0.607   0.068  1.00  0.00     0.117 A 
HETATM    9  N6  UNL     1      -0.250   1.742   0.106  1.00  0.00    -0.351 N 
ATOM     10  H6  UNL     1       0.486   2.448   0.098  1.00  0.00     0.166 HD
HETATM   11  N8  UNL     1       1.644   0.607   0.029  1.00  0.00    -0.341 N 
ATOM     12  H8  UNL     1       2.105   1.517   0.035  1.00  0.00     0.167 HD
ENDROOT
BRANCH   1  13
HETATM   13  C5  UNL     1       3.898  -0.388  -0.057  1.00  0.00    -0.009 A 
HETATM   14  C4  UNL     1       4.646  -1.526  -0.102  1.00  0.00     0.016 A 
HETATM   15  C3  UNL     1       6.034  -1.467  -0.141  1.00  0.00     0.030 A 
HETATM   16  C2  UNL     1       6.696  -0.260  -0.136  1.00  0.00     0.034 A 
HETATM   17  C28 UNL     1       5.933   0.887  -0.091  1.00  0.00     0.030 A 
HETATM   18  C27 UNL     1       4.544   0.817  -0.052  1.00  0.00     0.016 A 
BRANCH  16  19
HETATM   19  N3  UNL     1       8.116  -0.211  -0.177  1.00  0.00    -0.331 N 
HETATM   20  C1  UNL     1       8.854  -1.399  -0.222  1.00  0.00     0.186 C 
HETATM   21  N1  UNL     1       9.401  -1.773  -1.321  1.00  0.00    -0.373 N 
HETATM   22  N2  UNL     1       8.996  -2.186   0.948  1.00  0.00    -0.064 NA
ATOM     23  H12 UNL     1       9.939  -2.639  -1.354  1.00  0.00     0.158 HD
ATOM     24  H11 UNL     1       9.299  -1.207  -2.163  1.00  0.00     0.158 HD
ATOM     25  H3  UNL     1       8.596   0.689  -0.174  1.00  0.00     0.168 HD
ENDBRANCH  16  19
ENDBRANCH   1  13
BRANCH   9  26
HETATM   26  C20 UNL     1      -1.471   2.370   0.155  1.00  0.00     0.101 C 
BRANCH  26  27
HETATM   27  C21 UNL     1      -1.396   3.870   0.153  1.00  0.00    -0.021 A 
HETATM   28  C22 UNL     1      -1.331   4.609   1.305  1.00  0.00     0.014 A 
HETATM   29  C23 UNL     1      -1.262   5.999   1.268  1.00  0.00     0.027 A 
HETATM   30  C24 UNL     1      -1.258   6.648   0.059  1.00  0.00     0.046 A 
HETATM   31  N7  UNL     1      -1.187   8.087   0.018  1.00  0.00    -0.102 NA
HETATM   32  C25 UNL     1      -1.323   5.921  -1.098  1.00  0.00     0.027 A 
HETATM   33  C26 UNL     1      -1.392   4.537  -1.047  1.00  0.00     0.014 A 
ENDBRANCH  26  27
ENDBRANCH   9  26
BRANCH   5  34
HETATM   34  C10 UNL     1      -3.597  -2.577   0.118  1.00  0.00    -0.019 A 
HETATM   35  C11 UNL     1      -3.796  -3.917   0.097  1.00  0.00     0.014 A 
HETATM   36  C12 UNL     1      -5.096  -4.431   0.125  1.00  0.00     0.016 A 
HETATM   37  C13 UNL     1      -6.200  -3.617   0.173  1.00  0.00     0.007 A 
HETATM   38  C15 UNL     1      -5.907  -2.242   0.192  1.00  0.00     0.016 A 
HETATM   39  C16 UNL     1      -4.653  -1.717   0.166  1.00  0.00     0.014 A 
BRANCH  37  40
HETATM   40  C14 UNL     1      -7.577  -4.061   0.204  1.00  0.00     0.146 C 
HETATM   41  N4  UNL     1      -8.585  -3.025   0.254  1.00  0.00    -0.080 NA
BRANCH  40  42
HETATM   42  N5  UNL     1      -7.997  -5.235   0.193  1.00  0.00    -0.255 N 
ATOM     43  H5  UNL     1      -9.012  -5.336   0.221  1.00  0.00     0.195 HD
BRANCH  42  44
HETATM   44  O1  UNL     1      -7.320  -6.363   0.151  1.00  0.00    -0.288 OA
ATOM     45  H1  UNL     1      -7.640  -7.257   0.143  1.00  0.00     0.244 HD
ENDBRANCH  42  44
ENDBRANCH  40  42
ENDBRANCH  37  40
ENDBRANCH   5  34
TORSDOF 8
