REMARK  7 active torsions:
REMARK  status: ('A' for Active; 'I' for Inactive)
REMARK    1  A    between atoms: C2_2  and  C3_3 
REMARK    2  A    between atoms: N1_6  and  C6_7 
REMARK    3  A    between atoms: C6_7  and  C8_9 
REMARK    4  A    between atoms: C8_9  and  C9_10 
REMARK    5  A    between atoms: C9_10  and  C10_11 
REMARK    6  A    between atoms: C10_11  and  N2_12 
REMARK    7  A    between atoms: C13_22  and  N5_23 
ROOT
HETATM    1  C3  UNL     1      -2.101   0.213   0.610  1.00  0.00    -0.018 A 
HETATM    2  C4  UNL     1      -0.947  -0.567   0.581  1.00  0.00     0.017 A 
HETATM    3  C5  UNL     1      -0.679  -1.687   1.485  1.00  0.00     0.069 C 
HETATM    4  N1  UNL     1      -0.150  -0.114  -0.404  1.00  0.00    -0.332 N 
HETATM    5  C11 UNL     1      -0.771   0.940  -1.004  1.00  0.00     0.123 A 
HETATM    6  N3  UNL     1      -0.364   1.706  -2.028  1.00  0.00    -0.338 N 
ATOM      7  H3  UNL     1       0.535   1.541  -2.481  1.00  0.00     0.168 HD
HETATM    8  C12 UNL     1      -1.179   2.704  -2.443  1.00  0.00     0.183 A 
HETATM    9  N4  UNL     1      -2.364   2.950  -1.873  1.00  0.00    -0.338 N 
ATOM     10  H4  UNL     1      -2.947   3.713  -2.217  1.00  0.00     0.168 HD
HETATM   11  C13 UNL     1      -2.785   2.190  -0.846  1.00  0.00     0.114 A 
HETATM   12  C14 UNL     1      -1.990   1.166  -0.392  1.00  0.00     0.060 A 
ENDROOT
BRANCH   4  13
HETATM   13  C6  UNL     1       1.146  -0.645  -0.770  1.00  0.00     0.087 C 
HETATM   14  C7  UNL     1       1.214  -2.130  -0.811  1.00  0.00     0.033 C 
BRANCH  13  15
HETATM   15  C8  UNL     1       2.261  -0.012   0.028  1.00  0.00     0.027 C 
BRANCH  15  16
HETATM   16  C9  UNL     1       3.614  -0.567  -0.352  1.00  0.00     0.029 C 
BRANCH  16  17
HETATM   17  C10 UNL     1       4.726   0.059   0.435  1.00  0.00     0.230 C 
BRANCH  17  18
HETATM   18  N2  UNL     1       4.624  -0.125   1.850  1.00  0.00    -0.079 N 
ATOM     19  H23 UNL     1       3.720   0.205   2.187  1.00  0.00     0.274 HD
ATOM     20  H22 UNL     1       4.543  -1.117   2.075  1.00  0.00     0.274 HD
ATOM     21  H21 UNL     1       5.381   0.301   2.385  1.00  0.00     0.274 HD
ENDBRANCH  17  18
ENDBRANCH  16  17
ENDBRANCH  15  16
ENDBRANCH  13  15
ENDBRANCH   4  13
BRANCH   1  22
HETATM   22  C2  UNL     1      -3.212   0.033   1.543  1.00  0.00     0.037 C 
HETATM   23  C1  UNL     1      -4.075  -1.168   1.129  1.00  0.00     0.010 C 
ENDBRANCH   1  22
BRANCH  11  24
HETATM   24  N5  UNL     1      -3.912   2.400  -0.285  1.00  0.00    -0.385 N 
ATOM     25  H52 UNL     1      -4.502   3.160  -0.622  1.00  0.00     0.157 HD
ATOM     26  H51 UNL     1      -4.231   1.824   0.494  1.00  0.00     0.157 HD
ENDBRANCH  11  24
TORSDOF 7
