REMARK  9 active torsions:
REMARK  status: ('A' for Active; 'I' for Inactive)
REMARK    1  A    between atoms: N1_1  and  C1_5 
REMARK    2  A    between atoms: C1_5  and  C2_6 
REMARK    3  A    between atoms: C2_6  and  O1_7 
REMARK    4  A    between atoms: O1_7  and  C3_8 
REMARK    5  A    between atoms: C6_17  and  C7_18 
REMARK    6  A    between atoms: C10_27  and  N8_28 
REMARK    7  A    between atoms: N8_28  and  C11_30 
REMARK    8  A    between atoms: C11_30  and  C12_31 
REMARK    9  A    between atoms: C12_31  and  O2_32 
ROOT
HETATM    1  C3  UNL     1      -1.252  -0.452  -0.212  1.00  0.00     0.229 A 
HETATM    2  N2  UNL     1      -1.446   0.662   0.504  1.00  0.00    -0.307 N 
ATOM      3  H2  UNL     1      -2.396   0.926   0.764  1.00  0.00     0.171 HD
HETATM    4  C4  UNL     1      -0.432   1.433   0.885  1.00  0.00     0.125 A 
HETATM    5  N3  UNL     1      -0.678   2.550   1.622  1.00  0.00    -0.338 N 
ATOM      6  H3  UNL     1      -1.621   2.830   1.890  1.00  0.00     0.168 HD
HETATM    7  C5  UNL     1       0.399   3.251   1.968  1.00  0.00     0.182 A 
HETATM    8  N4  UNL     1       1.627   2.930   1.645  1.00  0.00    -0.348 N 
ATOM      9  H4  UNL     1       2.376   3.543   1.965  1.00  0.00     0.167 HD
HETATM   10  C6  UNL     1       1.981   1.818   0.900  1.00  0.00     0.097 A 
HETATM   11  C9  UNL     1       0.948   1.052   0.508  1.00  0.00     0.082 A 
HETATM   12  C10 UNL     1       1.116  -0.123  -0.244  1.00  0.00     0.120 A 
HETATM   13  N9  UNL     1       0.008  -0.777  -0.542  1.00  0.00    -0.307 N 
ATOM     14  H9  UNL     1       0.123  -1.631  -1.088  1.00  0.00     0.171 HD
ENDROOT
BRANCH   1  15
HETATM   15  O1  UNL     1      -2.287  -1.257  -0.612  1.00  0.00    -0.278 OA
BRANCH  15  16
HETATM   16  C2  UNL     1      -3.643  -1.140  -0.442  1.00  0.00     0.281 A 
HETATM   17  C13 UNL     1      -4.391  -2.475  -0.274  1.00  0.00     0.306 A 
HETATM   18  N10 UNL     1      -4.113  -1.646   0.856  1.00  0.00    -0.034 N 
ATOM     19 2H10 UNL     1      -3.639  -1.821   1.742  1.00  0.00     0.281 HD
ATOM     20 1H10 UNL     1      -4.707  -1.243   1.581  1.00  0.00     0.281 HD
BRANCH  16  21
HETATM   21  C1  UNL     1      -4.464  -0.010  -1.025  1.00  0.00     0.300 C 
BRANCH  21  22
HETATM   22  N1  UNL     1      -4.127   1.285  -0.590  1.00  0.00    -0.075 N 
ATOM     23  H13 UNL     1      -4.155   1.326   0.429  1.00  0.00     0.274 HD
ATOM     24  H12 UNL     1      -3.135   1.458  -0.753  1.00  0.00     0.274 HD
ATOM     25  H11 UNL     1      -4.680   2.047  -0.983  1.00  0.00     0.274 HD
ENDBRANCH  21  22
ENDBRANCH  16  21
ENDBRANCH  15  16
ENDBRANCH   1  15
BRANCH  12  26
HETATM   26  N8  UNL     1       2.250  -0.502  -0.609  1.00  0.00    -0.373 N 
ATOM     27  H8  UNL     1       3.033   0.090  -0.331  1.00  0.00     0.161 HD
BRANCH  26  28
HETATM   28  C11 UNL     1       2.577  -1.655  -1.363  1.00  0.00     0.147 C 
BRANCH  28  29
HETATM   29  C12 UNL     1       1.524  -2.701  -1.388  1.00  0.00     0.183 C 
BRANCH  29  30
HETATM   30  O2  UNL     1       2.044  -3.799  -2.153  1.00  0.00    -0.399 OA
ATOM     31  H2  UNL     1       1.370  -4.468  -2.169  1.00  0.00     0.209 HD
ENDBRANCH  29  30
ENDBRANCH  28  29
ENDBRANCH  26  28
ENDBRANCH  12  26
BRANCH  10  32
HETATM   32  C7  UNL     1       3.371   1.583   0.642  1.00  0.00     0.149 A 
HETATM   33  N5  UNL     1       4.190   0.816   0.046  1.00  0.00    -0.335 N 
HETATM   34  C8  UNL     1       5.484   1.106   0.196  1.00  0.00     0.199 A 
ATOM     35  H5  UNL     1       3.876   0.024  -0.515  1.00  0.00     0.168 HD
HETATM   36  N6  UNL     1       5.504   2.185   0.978  1.00  0.00    -0.294 N 
HETATM   37  N7  UNL     1       4.262   2.484   1.254  1.00  0.00    -0.283 N 
ATOM     38  H6  UNL     1       6.333   2.684   1.301  1.00  0.00     0.187 HD
ATOM     39  H7  UNL     1       3.975   3.270   1.838  1.00  0.00     0.188 HD
ENDBRANCH  10  32
TORSDOF 9
