REMARK  7 active torsions:
REMARK  status: ('A' for Active; 'I' for Inactive)
REMARK    1  A    between atoms: N2_6  and  C5_7 
REMARK    2  A    between atoms: C5_7  and  C6_8 
REMARK    3  A    between atoms: C6_8  and  C7_9 
REMARK    4  A    between atoms: C7_9  and  N3_10 
REMARK    5  A    between atoms: N4_13  and  C9_14 
REMARK    6  A    between atoms: C9_14  and  C10_15 
REMARK    7  A    between atoms: C13_19  and  O1_20 
ROOT
HETATM    1  N3  UNL     1       2.379  -0.731   0.043  1.00  0.00    -0.332 N 
HETATM    2  C8  UNL     1       3.042   0.200  -0.796  1.00  0.00     0.174 C 
HETATM    3  S1  UNL     1       2.525   0.391  -2.323  1.00  0.00    -0.041 SA
HETATM    4  N4  UNL     1       4.165   0.969  -0.317  1.00  0.00    -0.357 N 
HETATM    5  C11 UNL     1       4.542   0.688   1.051  1.00  0.00     0.129 C 
HETATM    6  C12 UNL     1       3.267   0.542   1.878  1.00  0.00     0.073 C 
HETATM    7  C13 UNL     1       2.601  -0.745   1.473  1.00  0.00     0.223 C 
ENDROOT
BRANCH   1   8
HETATM    8  C7  UNL     1       1.493  -1.685  -0.537  1.00  0.00     0.129 C 
BRANCH   8   9
HETATM    9  C6  UNL     1       0.055  -1.566  -0.198  1.00  0.00     0.040 C 
BRANCH   9  10
HETATM   10  C5  UNL     1      -0.583  -0.261  -0.606  1.00  0.00     0.127 C 
BRANCH  10  11
HETATM   11  N2  UNL     1      -1.994  -0.286  -0.207  1.00  0.00    -0.349 N 
HETATM   12  C4  UNL     1      -3.018  -0.795  -1.092  1.00  0.00     0.154 C 
HETATM   13  C3  UNL     1      -4.080   0.297  -1.128  1.00  0.00     0.257 C 
HETATM   14  N1  UNL     1      -4.728   0.242   0.164  1.00  0.00    -0.065 N 
HETATM   15  C1  UNL     1      -5.299  -1.099   0.282  1.00  0.00     0.272 C 
HETATM   16  C2  UNL     1      -5.884   1.148   0.117  1.00  0.00     0.272 C 
HETATM   17  C15 UNL     1      -3.847   0.573   1.228  1.00  0.00     0.339 C 
HETATM   18  C14 UNL     1      -2.437   0.177   1.053  1.00  0.00     0.246 C 
HETATM   19  O2  UNL     1      -1.607   0.247   2.022  1.00  0.00    -0.272 OA
ENDBRANCH  10  11
ENDBRANCH   9  10
ENDBRANCH   8   9
ENDBRANCH   1   8
BRANCH   7  20
HETATM   20  O1  UNL     1       3.350  -1.849   1.876  1.00  0.00    -0.377 OA
ATOM     21  H1  UNL     1       3.496  -1.858   2.815  1.00  0.00     0.212 HD
ENDBRANCH   7  20
BRANCH   4  22
HETATM   22  C9  UNL     1       4.814   1.920  -1.181  1.00  0.00     0.136 C 
BRANCH  22  23
HETATM   23  C10 UNL     1       6.226   1.444  -1.539  1.00  0.00     0.105 C 
HETATM   24 BR1  UNL     1       6.096  -0.262  -2.442  1.00  0.00    -0.095 Br
ENDBRANCH  22  23
ENDBRANCH   4  22
TORSDOF 7
