REMARK  6 active torsions:
REMARK  status: ('A' for Active; 'I' for Inactive)
REMARK    1  A    between atoms: N1_2  and  C2_5 
REMARK    2  A    between atoms: C2_5  and  C3_6 
REMARK    3  A    between atoms: C3_6  and  S1_7 
REMARK    4  A    between atoms: S1_7  and  C4_8 
REMARK    5  A    between atoms: C4_8  and  C5_9 
REMARK    6  A    between atoms: C5_9  and  N2_10 
ROOT
HETATM    1  N2  UNL     1      -0.506   0.288  -0.749  1.00  0.00    -0.041 N 
HETATM    2  C6  UNL     1      -0.019   0.004  -2.062  1.00  0.00     0.286 A 
HETATM    3  C7  UNL     1      -0.171  -1.164  -1.125  1.00  0.00     0.295 A 
HETATM    4  C8  UNL     1      -1.335  -1.883  -1.125  1.00  0.00    -0.069 C 
HETATM    5  C9  UNL     1      -2.322  -2.244  -1.016  1.00  0.00    -0.085 C 
HETATM    6  C10 UNL     1      -3.756  -2.384  -0.668  1.00  0.00     0.220 C 
HETATM    7  N3  UNL     1      -3.810  -1.111   0.219  1.00  0.00    -0.336 N 
HETATM    8  C11 UNL     1      -2.935  -1.102   1.315  1.00  0.00     0.227 C 
HETATM    9  O1  UNL     1      -2.469  -1.602   2.361  1.00  0.00    -0.273 OA
HETATM   10  C12 UNL     1      -2.303   0.236   0.915  1.00  0.00     0.112 C 
HETATM   11  C13 UNL     1      -3.674   0.909   1.259  1.00  0.00     0.041 C 
HETATM   12  C14 UNL     1      -4.462   0.173   0.125  1.00  0.00     0.090 C 
HETATM   13  C15 UNL     1      -4.108   1.112  -0.996  1.00  0.00     0.043 C 
HETATM   14  C16 UNL     1      -2.660   1.669  -0.894  1.00  0.00     0.092 C 
HETATM   15 BR1  UNL     1      -2.220   2.275  -2.653  1.00  0.00    -0.089 Br
HETATM   16  C17 UNL     1      -1.908   0.393  -0.474  1.00  0.00     0.219 C 
ENDROOT
BRANCH   1  17
HETATM   17  C5  UNL     1       0.363   0.731   0.295  1.00  0.00     0.249 C 
BRANCH  17  18
HETATM   18  C4  UNL     1       1.843   0.761  -0.088  1.00  0.00     0.102 C 
BRANCH  18  19
HETATM   19  S1  UNL     1       2.704   1.356   1.381  1.00  0.00    -0.166 SA
BRANCH  19  20
HETATM   20  C3  UNL     1       4.453   1.508   1.203  1.00  0.00     0.101 C 
BRANCH  20  21
HETATM   21  C2  UNL     1       5.278   0.286   1.130  1.00  0.00     0.242 C 
BRANCH  21  22
HETATM   22  N1  UNL     1       5.024  -0.645   0.081  1.00  0.00    -0.078 N 
HETATM   23  C1  UNL     1       6.071  -1.704   0.169  1.00  0.00     0.267 C 
ATOM     24  H12 UNL     1       4.975  -0.207  -0.839  1.00  0.00     0.276 HD
ATOM     25  H11 UNL     1       4.075  -1.019   0.099  1.00  0.00     0.276 HD
ENDBRANCH  21  22
ENDBRANCH  20  21
ENDBRANCH  19  20
ENDBRANCH  18  19
ENDBRANCH  17  18
ENDBRANCH   1  17
TORSDOF 6
