REMARK  7 active torsions:
REMARK  status: ('A' for Active; 'I' for Inactive)
REMARK    1  A    between atoms: C3_3  and  C4_4 
REMARK    2  A    between atoms: C5_5  and  C6_6 
REMARK    3  A    between atoms: C6_6  and  N1_7 
REMARK    4  A    between atoms: N1_7  and  C7_8 
REMARK    5  A    between atoms: C7_8  and  C8_9 
REMARK    6  A    between atoms: C8_9  and  C9_10 
REMARK    7  A    between atoms: C9_10  and  N2_11 
ROOT
HETATM    1  C1  UNL     1      -5.363   5.091   0.419  1.00  0.00     0.113 C 
HETATM    2  C2  UNL     1      -4.688   3.790   0.501  1.00  0.00    -0.097 C 
HETATM    3  C3  UNL     1      -4.138   2.711   0.549  1.00  0.00    -0.015 C 
ENDROOT
BRANCH   3   4
HETATM    4  C4  UNL     1      -3.507   1.436   0.588  1.00  0.00    -0.013 C 
HETATM    5  C5  UNL     1      -2.966   0.352   0.603  1.00  0.00    -0.064 C 
BRANCH   5   6
HETATM    6  C6  UNL     1      -2.327  -0.974   0.609  1.00  0.00     0.334 C 
BRANCH   6   7
HETATM    7  N1  UNL     1      -0.966  -0.789   0.025  1.00  0.00    -0.036 N 
HETATM    8  C13 UNL     1      -1.116  -0.549  -1.406  1.00  0.00     0.361 C 
HETATM    9  N3  UNL     1      -1.804  -1.795  -1.780  1.00  0.00    -0.368 N 
HETATM   10  C14 UNL     1      -1.280  -2.818  -0.938  1.00  0.00     0.045 C 
ATOM     11  H3  UNL     1      -2.517  -1.905  -2.501  1.00  0.00     0.161 HD
HETATM   12  C15 UNL     1      -1.504  -4.099  -1.031  1.00  0.00     0.009 C 
HETATM   13  C17 UNL     1      -0.418  -2.100   0.075  1.00  0.00     0.298 C 
HETATM   14  C16 UNL     1      -0.852  -5.000  -0.041  1.00  0.00     0.059 C 
HETATM   15 BR1  UNL     1      -2.632  -4.755  -2.400  1.00  0.00    -0.054 Br
BRANCH   7  16
HETATM   16  C7  UNL     1      -0.360   0.236   0.759  1.00  0.00     0.242 C 
BRANCH  16  17
HETATM   17  C8  UNL     1       1.085   0.277   0.990  1.00  0.00     0.058 C 
BRANCH  17  18
HETATM   18  C9  UNL     1       1.987   0.373  -0.203  1.00  0.00     0.275 C 
BRANCH  18  19
HETATM   19  N2  UNL     1       3.356   0.412   0.363  1.00  0.00     0.100 N 
HETATM   20  C10 UNL     1       4.234   0.505  -0.777  1.00  0.00     0.286 C 
HETATM   21  C11 UNL     1       5.624   0.783  -0.244  1.00  0.00     0.141 C 
HETATM   22  S1  UNL     1       5.209   2.007   1.013  1.00  0.00     0.045 S 
HETATM   23  O1  UNL     1       5.370   3.515   0.284  1.00  0.00    -0.256 OA
HETATM   24  C12 UNL     1       3.445   1.658   1.090  1.00  0.00     0.380 C 
ENDBRANCH  18  19
ENDBRANCH  17  18
ENDBRANCH  16  17
ENDBRANCH   7  16
ENDBRANCH   6   7
ENDBRANCH   5   6
ENDBRANCH   3   4
TORSDOF 7
