REMARK  14 active torsions:
REMARK  status: ('A' for Active; 'I' for Inactive)
REMARK    1  A    between atoms: C2_2  and  C3_3 
REMARK    2  A    between atoms: C3_3  and  C4_4 
REMARK    3  A    between atoms: C4_4  and  C5_5 
REMARK    4  A    between atoms: C6_6  and  C7_7 
REMARK    5  A    between atoms: C10_10  and  O1_11 
REMARK    6  A    between atoms: N1_14  and  C12_15 
REMARK    7  A    between atoms: C14_17  and  C15_18 
REMARK    8  A    between atoms: C15_18  and  O2_19 
REMARK    9  A    between atoms: O2_19  and  C16_20 
REMARK   10  A    between atoms: C17_22  and  C18_23 
REMARK   11  A    between atoms: C18_23  and  O4_24 
REMARK   12  A    between atoms: C19_26  and  O5_27 
REMARK   13  A    between atoms: C20_29  and  O6_30 
REMARK   14  A    between atoms: C21_32  and  O7_33 
ROOT
HETATM    1  C12 UNL     1      -0.721   0.692  -0.417  1.00  0.00     0.232 C 
HETATM    2  C13 UNL     1       0.015  -0.124   0.576  1.00  0.00     0.088 C 
HETATM    3  C14 UNL     1       0.717   0.675   1.613  1.00  0.00     0.152 C 
HETATM    4  O8  UNL     1       0.790   2.020   1.468  1.00  0.00    -0.359 OA
HETATM    5  C22 UNL     1       0.128   2.581   0.421  1.00  0.00     0.341 C 
HETATM    6  O9  UNL     1      -1.054   1.919   0.098  1.00  0.00    -0.342 OA
ENDROOT
BRANCH   3   7
HETATM    7  C15 UNL     1       2.177   0.180   1.678  1.00  0.00     0.203 C 
BRANCH   7   8
HETATM    8  O2  UNL     1       2.855   0.519   0.535  1.00  0.00    -0.356 OA
BRANCH   8   9
HETATM    9  C16 UNL     1       4.177   0.125   0.516  1.00  0.00     0.291 C 
HETATM   10  O3  UNL     1       4.978   1.219   0.395  1.00  0.00    -0.348 OA
HETATM   11  C17 UNL     1       6.293   1.015   0.091  1.00  0.00     0.179 C 
HETATM   12  C19 UNL     1       6.545  -0.009  -0.989  1.00  0.00     0.180 C 
HETATM   13  C20 UNL     1       5.797  -1.280  -0.781  1.00  0.00     0.183 C 
HETATM   14  C21 UNL     1       4.344  -0.938  -0.525  1.00  0.00     0.204 C 
BRANCH  11  15
HETATM   15  C18 UNL     1       7.184   0.779   1.306  1.00  0.00     0.198 C 
BRANCH  15  16
HETATM   16  O4  UNL     1       6.817  -0.314   2.042  1.00  0.00    -0.398 OA
ATOM     17  H4  UNL     1       7.372  -0.461   2.799  1.00  0.00     0.209 HD
ENDBRANCH  15  16
ENDBRANCH  11  15
BRANCH  12  18
HETATM   18  O5  UNL     1       6.237   0.560  -2.201  1.00  0.00    -0.390 OA
ATOM     19  H5  UNL     1       6.396  -0.084  -2.881  1.00  0.00     0.210 HD
ENDBRANCH  12  18
BRANCH  13  20
HETATM   20  O6  UNL     1       5.831  -1.992  -1.997  1.00  0.00    -0.390 OA
ATOM     21  H6  UNL     1       5.354  -2.803  -1.864  1.00  0.00     0.210 HD
ENDBRANCH  13  20
BRANCH  14  22
HETATM   22  O7  UNL     1       3.691  -2.089  -0.058  1.00  0.00    -0.388 OA
ATOM     23  H7  UNL     1       3.797  -2.764  -0.719  1.00  0.00     0.210 HD
ENDBRANCH  14  22
ENDBRANCH   8   9
ENDBRANCH   7   8
ENDBRANCH   3   7
BRANCH   1  24
HETATM   24  N1  UNL     1      -1.825   0.006  -1.054  1.00  0.00    -0.330 N 
HETATM   25  C5  UNL     1      -3.051  -0.241  -0.565  1.00  0.00     0.023 A 
HETATM   26  C6  UNL     1      -3.766  -0.948  -1.557  1.00  0.00     0.003 A 
HETATM   27  C10 UNL     1      -2.972  -1.125  -2.640  1.00  0.00     0.089 A 
HETATM   28  C11 UNL     1      -1.742  -0.505  -2.287  1.00  0.00     0.130 A 
BRANCH  25  29
HETATM   29  C4  UNL     1      -3.513   0.172   0.739  1.00  0.00     0.058 C 
BRANCH  29  30
HETATM   30  C3  UNL     1      -4.399   1.377   0.819  1.00  0.00     0.006 C 
BRANCH  30  31
HETATM   31  C2  UNL     1      -4.781   1.659   2.291  1.00  0.00    -0.004 C 
HETATM   32  C1  UNL     1      -5.675   2.870   2.363  1.00  0.00     0.005 C 
ENDBRANCH  30  31
ENDBRANCH  29  30
ENDBRANCH  25  29
BRANCH  26  33
HETATM   33  C7  UNL     1      -5.147  -1.418  -1.338  1.00  0.00     0.015 C 
HETATM   34  C8  UNL     1      -5.894  -1.819  -2.564  1.00  0.00     0.015 C 
HETATM   35  C9  UNL     1      -5.162  -2.587  -0.357  1.00  0.00     0.015 C 
ENDBRANCH  26  33
BRANCH  27  36
HETATM   36  O1  UNL     1      -3.182  -1.739  -3.849  1.00  0.00    -0.359 OA
ATOM     37  H1  UNL     1      -2.625  -1.863  -4.609  1.00  0.00     0.217 HD
ENDBRANCH  27  36
ENDBRANCH   1  24
TORSDOF 14
