REMARK  5 active torsions:
REMARK  status: ('A' for Active; 'I' for Inactive)
REMARK    1  A    between atoms: C2_2  and  N1_3 
REMARK    2  A    between atoms: N2_6  and  C5_7 
REMARK    3  A    between atoms: C5_7  and  C6_8 
REMARK    4  A    between atoms: C7_10  and  N3_11 
REMARK    5  A    between atoms: C8_16  and  C9_17 
ROOT
HETATM    1  C6  UNL     1      -0.768  -1.854   0.436  1.00  0.00     0.117 A 
HETATM    2  O1  UNL     1      -0.717  -3.131   0.292  1.00  0.00    -0.276 OA
HETATM    3  C7  UNL     1      -1.845  -3.533  -0.208  1.00  0.00     0.222 A 
HETATM    4  N4  UNL     1      -2.647  -2.500  -0.435  1.00  0.00    -0.323 N 
ATOM      5  H4  UNL     1      -3.582  -2.549  -0.840  1.00  0.00     0.169 HD
HETATM    6  C8  UNL     1      -2.030  -1.396  -0.047  1.00  0.00     0.052 A 
ENDROOT
BRANCH   1   7
HETATM    7  C5  UNL     1       0.195  -0.927   1.016  1.00  0.00     0.129 C 
BRANCH   7   8
HETATM    8  N2  UNL     1       1.287  -0.448   0.345  1.00  0.00    -0.364 N 
HETATM    9  C4  UNL     1       2.145   0.301   1.217  1.00  0.00     0.158 C 
HETATM   10  C3  UNL     1       2.974   1.224   0.347  1.00  0.00     0.293 C 
HETATM   11  N1  UNL     1       3.722   0.463  -0.589  1.00  0.00     0.094 N 
HETATM   12  C17 UNL     1       3.360  -0.888  -0.818  1.00  0.00     0.317 C 
HETATM   13  C16 UNL     1       1.884  -1.165  -0.683  1.00  0.00     0.093 C 
BRANCH  11  14
HETATM   14  C2  UNL     1       5.110   0.435  -0.141  1.00  0.00     0.268 C 
HETATM   15  C1  UNL     1       5.830   1.730  -0.297  1.00  0.00     0.037 C 
ENDBRANCH  11  14
ENDBRANCH   7   8
ENDBRANCH   1   7
BRANCH   6  16
HETATM   16  C9  UNL     1      -2.289   0.009  -0.334  1.00  0.00     0.043 C 
HETATM   17  C10 UNL     1      -2.249   0.953   0.839  1.00  0.00     0.016 C 
HETATM   18  C11 UNL     1      -3.413   1.875   0.568  1.00  0.00    -0.013 C 
HETATM   19  C12 UNL     1      -3.361   2.503  -0.801  1.00  0.00     0.005 C 
HETATM   20  C15 UNL     1      -4.446   0.758   0.304  1.00  0.00     0.010 C 
HETATM   21  C13 UNL     1      -3.697   1.390  -1.796  1.00  0.00     0.006 C 
HETATM   22  C14 UNL     1      -3.704   0.188  -0.906  1.00  0.00    -0.004 C 
ENDBRANCH   6  16
BRANCH   3  23
HETATM   23  N3  UNL     1      -2.064  -4.819  -0.418  1.00  0.00    -0.365 N 
ATOM     24  H32 UNL     1      -1.448  -5.613  -0.244  1.00  0.00     0.159 HD
ATOM     25  H31 UNL     1      -2.951  -5.135  -0.811  1.00  0.00     0.159 HD
ENDBRANCH   3  23
TORSDOF 5
