REMARK  12 active torsions:
REMARK  status: ('A' for Active; 'I' for Inactive)
REMARK    1  A    between atoms: C2_4  and  C4_6 
REMARK    2  A    between atoms: C5_7  and  O1_8 
REMARK    3  A    between atoms: C6_10  and  N2_11 
REMARK    4  A    between atoms: C9_14  and  N3_15 
REMARK    5  A    between atoms: C10_18  and  O4_19 
REMARK    6  A    between atoms: C11_21  and  C12_22 
REMARK    7  A    between atoms: C12_22  and  O5_23 
REMARK    8  A    between atoms: C12_22  and  C13_25 
REMARK    9  A    between atoms: C13_25  and  C14_26 
REMARK   10  A    between atoms: C14_26  and  C15_27 
REMARK   11  A    between atoms: C19_32  and  C20_33 
REMARK   12  A    between atoms: C22_38  and  O6_40 
ROOT
HETATM    1  C4  UNL     1      -2.266  -0.552  -0.861  1.00  0.00     0.037 A 
HETATM    2  C5  UNL     1      -3.537  -0.356  -0.284  1.00  0.00     0.108 A 
HETATM    3  C6  UNL     1      -3.859   0.660   0.591  1.00  0.00     0.101 A 
HETATM    4  C9  UNL     1      -2.885   1.539   0.918  1.00  0.00     0.166 A 
HETATM    5  C10 UNL     1      -1.641   1.383   0.374  1.00  0.00     0.115 A 
HETATM    6  C11 UNL     1      -1.256   0.365  -0.512  1.00  0.00     0.049 A 
ENDROOT
BRANCH   6   7
HETATM    7  C12 UNL     1       0.097   0.113  -0.746  1.00  0.00     0.092 C 
BRANCH   7   8
HETATM    8  O5  UNL     1       0.385  -0.519  -1.846  1.00  0.00    -0.359 OA
ATOM      9  H5  UNL     1       1.306  -0.690  -2.005  1.00  0.00     0.217 HD
ENDBRANCH   7   8
BRANCH   7  10
HETATM   10  C13 UNL     1       1.360   0.392  -0.005  1.00  0.00     0.027 C 
HETATM   11  C22 UNL     1       1.493   0.594   1.398  1.00  0.00     0.052 C 
HETATM   12  C23 UNL     1       2.689   0.974   2.187  1.00  0.00     0.077 C 
BRANCH  10  13
HETATM   13  C14 UNL     1       2.421   0.318  -0.796  1.00  0.00     0.028 C 
BRANCH  13  14
HETATM   14  C15 UNL     1       3.823   0.484  -0.583  1.00  0.00    -0.034 A 
HETATM   15  C16 UNL     1       4.475   1.594  -1.152  1.00  0.00     0.014 A 
HETATM   16  C17 UNL     1       5.834   1.755  -1.055  1.00  0.00     0.044 A 
HETATM   17  C18 UNL     1       6.627   0.838  -0.399  1.00  0.00     0.131 A 
HETATM   18  F1  UNL     1       7.973   0.997  -0.302  1.00  0.00    -0.205 F 
HETATM   19  C19 UNL     1       6.017  -0.259   0.167  1.00  0.00     0.087 A 
HETATM   20  C21 UNL     1       4.657  -0.424   0.074  1.00  0.00     0.030 A 
BRANCH  19  21
HETATM   21  C20 UNL     1       6.871  -1.248   0.874  1.00  0.00     0.420 C 
HETATM   22  F2  UNL     1       6.092  -2.271   1.377  1.00  0.00    -0.166 F 
HETATM   23  F3  UNL     1       7.516  -0.585   1.909  1.00  0.00    -0.166 F 
HETATM   24  F4  UNL     1       7.776  -1.785  -0.023  1.00  0.00    -0.166 F 
ENDBRANCH  19  21
ENDBRANCH  13  14
ENDBRANCH  10  13
BRANCH  11  25
HETATM   25  O6  UNL     1       0.464   0.455   2.189  1.00  0.00    -0.364 OA
ATOM     26  H6  UNL     1       0.553   0.590   3.125  1.00  0.00     0.217 HD
ENDBRANCH  11  25
ENDBRANCH   7  10
ENDBRANCH   6   7
BRANCH   1  27
HETATM   27  C2  UNL     1      -2.124  -1.711  -1.723  1.00  0.00     0.015 C 
HETATM   28  N1  UNL     1      -1.109  -2.110  -2.344  1.00  0.00    -0.397 N 
HETATM   29  C1  UNL     1      -0.979  -3.254  -3.183  1.00  0.00     0.146 C 
ATOM     30  H1  UNL     1      -0.269  -1.542  -2.234  1.00  0.00     0.158 HD
HETATM   31  C3  UNL     1      -3.319  -2.635  -1.961  1.00  0.00     0.068 C 
ENDBRANCH   1  27
BRANCH   5  32
HETATM   32  O4  UNL     1      -0.708   2.375   0.737  1.00  0.00    -0.357 OA
ATOM     33  H4  UNL     1       0.157   2.267   0.359  1.00  0.00     0.217 HD
ENDBRANCH   5  32
BRANCH   2  34
HETATM   34  O1  UNL     1      -4.576  -1.230  -0.592  1.00  0.00    -0.357 OA
ATOM     35  H1  UNL     1      -5.433  -1.098  -0.203  1.00  0.00     0.217 HD
ENDBRANCH   2  34
BRANCH   4  36
HETATM   36  N3  UNL     1      -3.166   2.607   1.820  1.00  0.00    -0.110 N 
HETATM   37  O2  UNL     1      -3.846   3.559   1.443  1.00  0.00    -0.532 OA
HETATM   38  O3  UNL     1      -2.666   2.539   3.083  1.00  0.00    -0.532 OA
ENDBRANCH   4  36
BRANCH   3  39
HETATM   39  N2  UNL     1      -5.172   0.771   1.128  1.00  0.00    -0.373 N 
HETATM   40  C7  UNL     1      -6.555   1.271   1.089  1.00  0.00     0.143 A 
HETATM   41  C8  UNL     1      -6.082   0.401   2.205  1.00  0.00     0.143 A 
ENDBRANCH   3  39
TORSDOF 12
