REMARK  4 active torsions:
REMARK  status: ('A' for Active; 'I' for Inactive)
REMARK    1  A    between atoms: C3_8  and  N3_9 
REMARK    2  A    between atoms: N5_14  and  N6_15 
REMARK    3  A    between atoms: C4_17  and  N7_18 
REMARK    4  A    between atoms: N7_18  and  N8_20 
ROOT
HETATM    1  N1  UNL     1       1.032  -1.785  -0.617  1.00  0.00    -0.232 N 
ATOM      2  H11 UNL     1       1.919  -1.283  -0.656  1.00  0.00     0.174 HD
ATOM      3  H12 UNL     1       1.019  -2.756  -0.931  1.00  0.00     0.174 HD
HETATM    4  C1  UNL     1      -0.065  -1.230  -0.184  1.00  0.00     0.712 A 
HETATM    5  N2  UNL     1      -1.300  -1.928  -0.130  1.00  0.00    -0.195 N 
ATOM      6  H2  UNL     1      -1.354  -2.900  -0.435  1.00  0.00     0.183 HD
HETATM    7  C2  UNL     1      -2.454  -1.267   0.350  1.00  0.00     0.162 A 
HETATM    8  C3  UNL     1      -2.411  -0.005   0.752  1.00  0.00     0.206 A 
HETATM    9  N4  UNL     1      -1.209   0.755   0.725  1.00  0.00    -0.243 N 
ATOM     10  H4  UNL     1      -1.195   1.726   1.038  1.00  0.00     0.191 HD
HETATM   11  N5  UNL     1      -0.047   0.135   0.257  1.00  0.00    -0.018 N 
ENDROOT
BRANCH  11  12
HETATM   12  N6  UNL     1       1.158   0.829   0.208  1.00  0.00    -0.259 N 
HETATM   13  C4  UNL     1       1.854   0.971  -0.859  1.00  0.00     0.215 C 
ATOM     14  H6  UNL     1       1.507   1.248   1.070  1.00  0.00     0.190 HD
BRANCH  13  15
HETATM   15  N7  UNL     1       3.072   1.686  -0.853  1.00  0.00    -0.301 N 
ATOM     16  H7  UNL     1       3.109   2.657  -1.162  1.00  0.00     0.187 HD
BRANCH  15  17
HETATM   17  N8  UNL     1       4.225   1.030  -0.413  1.00  0.00    -0.344 N 
ATOM     18  H82 UNL     1       4.171   0.058  -0.107  1.00  0.00     0.176 HD
ATOM     19  H81 UNL     1       5.105   1.546  -0.409  1.00  0.00     0.176 HD
ENDBRANCH  15  17
ENDBRANCH  13  15
ENDBRANCH  11  12
BRANCH   8  20
HETATM   20  N3  UNL     1      -3.602   0.628   1.232  1.00  0.00    -0.095 N 
HETATM   21  O1  UNL     1      -3.552   1.692   1.841  1.00  0.00    -0.530 OA
HETATM   22  O2  UNL     1      -4.821   0.039   1.008  1.00  0.00    -0.530 OA
ENDBRANCH   8  20
TORSDOF 4
