REMARK  2 active torsions:
REMARK  status: ('A' for Active; 'I' for Inactive)
REMARK    1  A    between atoms: C2_2  and  C3_3 
REMARK    2  A    between atoms: C2_2  and  C4_6 
ROOT
HETATM    1  C1  UNL     1       0.091  -1.821   0.453  1.00  0.00     0.024 C 
HETATM    2  C2  UNL     1       0.435  -0.585   0.235  1.00  0.00     0.002 C 
ENDROOT
BRANCH   2   3
HETATM    3  C3  UNL     1       1.875  -0.329   0.016  1.00  0.00     0.260 C 
HETATM    4  N1  UNL     1       2.255   1.016  -0.221  1.00  0.00    -0.058 NA
HETATM    5  O1  UNL     1       2.719  -1.257   0.039  1.00  0.00    -0.271 OA
ENDBRANCH   2   3
BRANCH   2   6
HETATM    6  C4  UNL     1      -0.497   0.546   0.195  1.00  0.00     0.023 A 
HETATM    7  C5  UNL     1      -1.487   0.661  -0.924  1.00  0.00     0.010 A 
HETATM    8  C6  UNL     1      -1.980   0.250   0.424  1.00  0.00     0.010 A 
ENDBRANCH   2   6
TORSDOF 2
