REMARK  2 active torsions:
REMARK  status: ('A' for Active; 'I' for Inactive)
REMARK    1  A    between atoms: C1_2  and  C2_3 
REMARK    2  A    between atoms: C6_7  and  O2_8 
ROOT
HETATM    1  C2  UNL     1      -0.539   3.276   0.002  1.00  0.00     0.071 C 
HETATM    2  C3  UNL     1      -1.404   2.287   0.743  1.00  0.00     0.013 C 
HETATM    3  C4  UNL     1      -2.349   1.543  -0.168  1.00  0.00     0.003 C 
HETATM    4  C5  UNL     1      -2.712   0.241   0.525  1.00  0.00     0.032 C 
HETATM    5  C6  UNL     1      -2.468  -0.945  -0.377  1.00  0.00     0.118 C 
HETATM    6  C7  UNL     1      -2.565  -2.187   0.489  1.00  0.00     0.032 C 
HETATM    7  C8  UNL     1      -1.432  -3.151   0.127  1.00  0.00     0.002 C 
HETATM    8  C9  UNL     1      -0.304  -3.080   1.100  1.00  0.00     0.000 C 
HETATM    9  C10 UNL     1       0.727  -2.047   0.761  1.00  0.00     0.000 C 
HETATM   10  C11 UNL     1       1.540  -2.447  -0.445  1.00  0.00     0.000 C 
HETATM   11  C12 UNL     1       2.443  -1.360  -0.904  1.00  0.00     0.000 C 
HETATM   12  C13 UNL     1       3.008  -0.512   0.186  1.00  0.00     0.002 C 
HETATM   13  C14 UNL     1       3.566   0.778  -0.321  1.00  0.00     0.026 C 
HETATM   14  C15 UNL     1       2.550   1.678  -0.941  1.00  0.00     0.167 C 
HETATM   15  O3  UNL     1       1.567   2.101  -0.035  1.00  0.00    -0.390 OA
HETATM   16  C16 UNL     1       0.509   2.574  -0.819  1.00  0.00     0.179 C 
ENDROOT
BRANCH   1  17
HETATM   17  C1  UNL     1       0.026   4.267   0.932  1.00  0.00     0.237 C 
HETATM   18  O1  UNL     1       0.987   4.021   1.639  1.00  0.00    -0.306 OA
ENDBRANCH   1  17
BRANCH   5  19
HETATM   19  O2  UNL     1      -3.451  -0.932  -1.363  1.00  0.00    -0.396 OA
ATOM     20  H2  UNL     1      -3.297  -1.678  -1.931  1.00  0.00     0.210 HD
ENDBRANCH   5  19
TORSDOF 2
