REMARK  8 active torsions:
REMARK  status: ('A' for Active; 'I' for Inactive)
REMARK    1  A    between atoms: C2_2  and  C3_3 
REMARK    2  A    between atoms: C3_3  and  N1_4 
REMARK    3  A    between atoms: C5_7  and  O2_8 
REMARK    4  A    between atoms: C8_13  and  C9_14 
REMARK    5  A    between atoms: C9_14  and  C10_15 
REMARK    6  A    between atoms: C10_15  and  O3_16 
REMARK    7  A    between atoms: C10_15  and  O4_18 
REMARK    8  A    between atoms: C12_21  and  C13_22 
ROOT
HETATM    1  N1  UNL     1       3.053   0.791   0.360  1.00  0.00    -0.340 N 
HETATM    2  C4  UNL     1       2.211   1.335   1.360  1.00  0.00     0.259 C 
HETATM    3  O1  UNL     1       2.589   1.698   2.488  1.00  0.00    -0.270 OA
HETATM    4  C5  UNL     1       0.815   1.411   0.871  1.00  0.00     0.182 C 
HETATM    5  C6  UNL     1       0.090   0.092   0.992  1.00  0.00     0.150 C 
HETATM    6  C7  UNL     1      -1.182   0.048   1.734  1.00  0.00     0.116 C 
HETATM    7 CL1  UNL     1      -1.320  -1.556   2.542  1.00  0.00    -0.122 Cl
HETATM    8  C8  UNL     1      -2.422   0.183   0.882  1.00  0.00     0.036 C 
HETATM    9  C11 UNL     1      -2.353  -0.637  -0.347  1.00  0.00     0.013 C 
HETATM   10  C12 UNL     1      -1.188  -0.612  -0.996  1.00  0.00     0.073 C 
HETATM   11  N2  UNL     1      -0.153   0.181  -0.437  1.00  0.00    -0.358 N 
HETATM   12  C15 UNL     1       0.919   1.144  -0.618  1.00  0.00     0.154 C 
HETATM   13  C16 UNL     1       2.254   0.467  -0.826  1.00  0.00     0.110 C 
HETATM   14  C17 UNL     1       2.868   1.054  -2.080  1.00  0.00     0.034 C 
ENDROOT
BRANCH   8  15
HETATM   15  C9  UNL     1      -3.666  -0.071   1.697  1.00  0.00     0.070 C 
BRANCH  15  16
HETATM   16  C10 UNL     1      -4.899   0.069   0.839  1.00  0.00     0.254 C 
BRANCH  16  17
HETATM   17  O3  UNL     1      -4.992   1.363   0.291  1.00  0.00    -0.371 OA
ATOM     18  H3  UNL     1      -5.768   1.451  -0.249  1.00  0.00     0.212 HD
ENDBRANCH  16  17
BRANCH  16  19
HETATM   19  O4  UNL     1      -6.062  -0.131   1.617  1.00  0.00    -0.371 OA
ATOM     20  H4  UNL     1      -6.838  -0.043   1.077  1.00  0.00     0.212 HD
ENDBRANCH  16  19
ENDBRANCH  15  16
ENDBRANCH   8  15
BRANCH  10  21
HETATM   21  C13 UNL     1      -1.002  -1.382  -2.227  1.00  0.00     0.171 C 
HETATM   22  C14 UNL     1      -2.115  -2.200  -2.753  1.00  0.00     0.098 C 
HETATM   23  O5  UNL     1       0.086  -1.345  -2.822  1.00  0.00    -0.291 OA
ENDBRANCH  10  21
BRANCH   4  24
HETATM   24  O2  UNL     1       0.093   2.515   1.238  1.00  0.00    -0.376 OA
ATOM     25  H2  UNL     1      -0.802   2.564   0.924  1.00  0.00     0.211 HD
ENDBRANCH   4  24
BRANCH   1  26
HETATM   26  C3  UNL     1       4.489   0.544   0.386  1.00  0.00     0.153 C 
BRANCH  26  27
HETATM   27  C2  UNL     1       4.792  -0.815   0.895  1.00  0.00    -0.017 C 
HETATM   28  C1  UNL     1       5.440  -1.688   0.148  1.00  0.00     0.008 C 
ENDBRANCH  26  27
ENDBRANCH   1  26
TORSDOF 8
