REMARK  5 active torsions:
REMARK  status: ('A' for Active; 'I' for Inactive)
REMARK    1  A    between atoms: C2_2  and  C3_3 
REMARK       I    between atoms: C3_3  and  N1_5 
REMARK    2  A    between atoms: N1_5  and  C4_7 
REMARK       I    between atoms: N2_11  and  C8_13 
REMARK    3  A    between atoms: C8_13  and  C9_15 
REMARK    4  A    between atoms: C11_17  and  N3_19 
REMARK    5  A    between atoms: C13_22  and  C14_23 
ROOT
HETATM    1  C4  UNL     1      -2.229   0.026  -0.969  1.00  0.00     0.179 C 
HETATM    2  C5  UNL     1      -1.111  -0.024   0.086  1.00  0.00     0.066 C 
HETATM    3  C6  UNL     1       0.071   0.484  -0.680  1.00  0.00     0.139 C 
HETATM    4  C7  UNL     1       1.033   1.351  -0.018  1.00  0.00     0.046 C 
HETATM    5  N2  UNL     1       1.876   1.262   0.931  1.00  0.00    -0.326 N 
ATOM      6  H2  UNL     1       2.431   2.083   1.173  1.00  0.00     0.168 HD
HETATM    7  C8  UNL     1       2.073   0.065   1.664  1.00  0.00     0.254 C 
HETATM    8  O2  UNL     1       1.088  -0.410   2.326  1.00  0.00    -0.268 OA
HETATM    9  C13 UNL     1       0.610   2.454  -0.923  1.00  0.00     0.237 C 
HETATM   10  N4  UNL     1      -0.546   1.667  -1.326  1.00  0.00    -0.320 N 
HETATM   11  C15 UNL     1      -1.762   1.158  -1.835  1.00  0.00     0.244 C 
HETATM   12  O5  UNL     1      -2.359   1.604  -2.875  1.00  0.00    -0.271 OA
ENDROOT
BRANCH   9  13
HETATM   13  C14 UNL     1       1.493   2.783  -2.038  1.00  0.00     0.203 C 
HETATM   14  O3  UNL     1       2.495   3.507  -1.849  1.00  0.00    -0.646 OA
HETATM   15  O4  UNL     1       1.227   2.299  -3.301  1.00  0.00    -0.646 OA
ENDBRANCH   9  13
BRANCH   7  16
HETATM   16  C9  UNL     1       3.316  -0.656   1.716  1.00  0.00     0.044 C 
HETATM   17  C10 UNL     1       3.406  -1.922   2.529  1.00  0.00     0.057 C 
HETATM   18  C11 UNL     1       4.430  -0.313   1.103  1.00  0.00     0.110 C 
HETATM   19 CL1  UNL     1       4.422   1.143   0.135  1.00  0.00    -0.064 Cl
BRANCH  18  20
HETATM   20  N3  UNL     1       5.631  -1.038   1.171  1.00  0.00    -0.384 N 
HETATM   21  C12 UNL     1       5.905  -2.292   0.539  1.00  0.00     0.147 C 
ATOM     22  H3  UNL     1       6.383  -0.630   1.726  1.00  0.00     0.160 HD
ENDBRANCH  18  20
ENDBRANCH   7  16
BRANCH   1  23
HETATM   23  N1  UNL     1      -3.431   0.484  -0.304  1.00  0.00    -0.348 N 
HETATM   24  C3  UNL     1      -4.647  -0.228  -0.328  1.00  0.00     0.217 C 
HETATM   25  O1  UNL     1      -4.717  -1.311  -0.948  1.00  0.00    -0.274 OA
ATOM     26  H1  UNL     1      -3.396   1.366   0.207  1.00  0.00     0.163 HD
BRANCH  24  27
HETATM   27  C2  UNL     1      -5.844   0.281   0.367  1.00  0.00     0.098 C 
HETATM   28  C1  UNL     1      -6.977  -0.677   0.173  1.00  0.00     0.014 C 
ENDBRANCH  24  27
ENDBRANCH   1  23
TORSDOF 5
