REMARK  8 active torsions:
REMARK  status: ('A' for Active; 'I' for Inactive)
REMARK    1  A    between atoms: N1_2  and  C3_4 
REMARK    2  A    between atoms: C3_4  and  C4_5 
REMARK    3  A    between atoms: C4_5  and  N2_6 
REMARK    4  A    between atoms: C8_10  and  N3_11 
REMARK    5  A    between atoms: N3_11  and  C9_13 
REMARK    6  A    between atoms: N5_17  and  C11_18 
REMARK    7  A    between atoms: C13_24  and  N6_25 
REMARK    8  A    between atoms: N6_25  and  C14_27 
ROOT
HETATM    1  C9  UNL     1      -0.383  -0.848  -0.295  1.00  0.00     0.078 A 
HETATM    2  C10 UNL     1       0.490  -1.917  -0.058  1.00  0.00     0.139 A 
HETATM    3  N4  UNL     1       0.065  -2.989   0.615  1.00  0.00    -0.297 N 
ATOM      4  H4  UNL     1       0.718  -3.756   0.774  1.00  0.00     0.186 HD
HETATM    5  N5  UNL     1      -1.164  -3.099   1.083  1.00  0.00    -0.157 N 
HETATM    6  C12 UNL     1      -2.030  -2.089   0.874  1.00  0.00     0.298 A 
HETATM    7  O1  UNL     1      -3.194  -2.265   1.355  1.00  0.00    -0.264 OA
HETATM    8  C13 UNL     1      -1.672  -0.936   0.183  1.00  0.00     0.127 A 
ENDROOT
BRANCH   1   9
HETATM    9  N3  UNL     1       0.099   0.267  -1.062  1.00  0.00    -0.373 N 
ATOM     10  H3  UNL     1      -0.542   1.012  -1.334  1.00  0.00     0.160 HD
BRANCH   9  11
HETATM   11  C8  UNL     1       1.492   0.335  -1.449  1.00  0.00     0.174 C 
HETATM   12  C7  UNL     1       1.652   1.492  -2.423  1.00  0.00     0.036 C 
HETATM   13  C6  UNL     1       3.057   1.884  -2.668  1.00  0.00     0.022 C 
HETATM   14  C5  UNL     1       4.107   1.243  -1.829  1.00  0.00     0.126 C 
HETATM   15  N2  UNL     1       3.648   1.096  -0.476  1.00  0.00    -0.349 N 
HETATM   16  C21 UNL     1       2.308   0.684  -0.251  1.00  0.00     0.242 C 
HETATM   17  O2  UNL     1       1.880   0.634   0.915  1.00  0.00    -0.271 OA
BRANCH  15  18
HETATM   18  C4  UNL     1       4.509   1.375   0.631  1.00  0.00     0.156 C 
BRANCH  18  19
HETATM   19  C3  UNL     1       5.204   0.143   1.086  1.00  0.00     0.291 C 
BRANCH  19  20
HETATM   20  N1  UNL     1       6.033  -0.392   0.037  1.00  0.00     0.081 N 
HETATM   21  C1  UNL     1       7.154   0.515  -0.164  1.00  0.00     0.309 C 
HETATM   22  C2  UNL     1       6.537  -1.689   0.511  1.00  0.00     0.309 C 
ENDBRANCH  19  20
ENDBRANCH  18  19
ENDBRANCH  15  18
ENDBRANCH   9  11
ENDBRANCH   1   9
BRANCH   8  23
HETATM   23  N6  UNL     1      -2.557   0.125   0.006  1.00  0.00    -0.379 N 
ATOM     24  H6  UNL     1      -2.122   0.973  -0.359  1.00  0.00     0.160 HD
BRANCH  23  25
HETATM   25  C14 UNL     1      -3.957   0.245   0.240  1.00  0.00     0.082 C 
HETATM   26  C15 UNL     1      -4.848  -0.534  -0.668  1.00  0.00     0.025 C 
HETATM   27  C16 UNL     1      -6.165  -0.789   0.023  1.00  0.00     0.002 C 
HETATM   28  C17 UNL     1      -6.757   0.544   0.408  1.00  0.00     0.000 C 
HETATM   29  C18 UNL     1      -6.615   1.502  -0.738  1.00  0.00     0.000 C 
HETATM   30  C19 UNL     1      -5.262   2.127  -0.831  1.00  0.00     0.002 C 
HETATM   31  C20 UNL     1      -4.326   1.718   0.256  1.00  0.00     0.025 C 
ENDBRANCH  23  25
ENDBRANCH   8  23
BRANCH   5  32
HETATM   32  C11 UNL     1      -1.589  -4.288   1.811  1.00  0.00     0.508 C 
HETATM   33  F1  UNL     1      -2.942  -4.379   1.911  1.00  0.00    -0.149 F 
HETATM   34  F2  UNL     1      -0.994  -4.410   3.030  1.00  0.00    -0.149 F 
HETATM   35  F3  UNL     1      -1.160  -5.368   1.026  1.00  0.00    -0.149 F 
ENDBRANCH   5  32
TORSDOF 8
