REMARK  5 active torsions:
REMARK  status: ('A' for Active; 'I' for Inactive)
REMARK    1  A    between atoms: C3_5  and  N2_6 
REMARK    2  A    between atoms: N2_6  and  C4_8 
REMARK    3  A    between atoms: C10_16  and  C11_17 
REMARK    4  A    between atoms: C11_17  and  O1_18 
REMARK    5  A    between atoms: N4_20  and  O2_22 
ROOT
HETATM    1  C1  UNL     1      -3.163  -0.304  -1.136  1.00  0.00     0.035 C 
HETATM    2  C2  UNL     1      -2.546  -0.842   0.149  1.00  0.00     0.126 C 
HETATM    3  N1  UNL     1      -1.115  -1.029  -0.210  1.00  0.00    -0.220 N 
ATOM      4  H1  UNL     1      -0.586  -1.897  -0.296  1.00  0.00     0.178 HD
HETATM    5  C3  UNL     1      -0.662   0.331  -0.406  1.00  0.00     0.671 C 
HETATM    6  N3  UNL     1      -1.388   1.115   0.354  1.00  0.00    -0.212 N 
ATOM      7  H3  UNL     1      -1.290   2.128   0.418  1.00  0.00     0.178 HD
HETATM    8  C10 UNL     1      -2.364   0.308   1.099  1.00  0.00     0.198 C 
ENDROOT
BRANCH   5   9
HETATM    9  N2  UNL     1       0.371   0.811  -1.246  1.00  0.00    -0.222 N 
ATOM     10  H2  UNL     1       0.107   1.365  -2.061  1.00  0.00     0.178 HD
BRANCH   9  11
HETATM   11  C4  UNL     1       1.757   0.567  -1.023  1.00  0.00     0.099 C 
HETATM   12  C5  UNL     1       2.110  -0.911  -1.019  1.00  0.00     0.026 C 
HETATM   13  C6  UNL     1       3.617  -0.979  -1.205  1.00  0.00     0.002 C 
HETATM   14  C7  UNL     1       4.278  -0.339  -0.020  1.00  0.00     0.000 C 
HETATM   15  C8  UNL     1       3.302   0.292   0.939  1.00  0.00     0.002 C 
HETATM   16  C9  UNL     1       2.274   1.150   0.270  1.00  0.00     0.026 C 
ENDBRANCH   9  11
ENDBRANCH   5   9
BRANCH   8  17
HETATM   17  C11 UNL     1      -3.569   1.014   1.467  1.00  0.00     0.161 C 
HETATM   18  N4  UNL     1      -4.738   0.523   1.424  1.00  0.00    -0.249 N 
ATOM     19  H4  UNL     1      -5.477   1.162   1.718  1.00  0.00     0.196 HD
BRANCH  17  20
HETATM   20  O1  UNL     1      -3.484   2.340   1.916  1.00  0.00    -0.346 OA
ATOM     21  H1  UNL     1      -4.277   2.804   2.158  1.00  0.00     0.219 HD
ENDBRANCH  17  20
BRANCH  18  22
HETATM   22  O2  UNL     1      -5.166  -0.690   1.059  1.00  0.00    -0.288 OA
ATOM     23  H2  UNL     1      -6.041  -1.058   1.027  1.00  0.00     0.244 HD
ENDBRANCH  18  22
ENDBRANCH   8  17
TORSDOF 5
