REMARK  5 active torsions:
REMARK  status: ('A' for Active; 'I' for Inactive)
REMARK    1  A    between atoms: C1_4  and  O1_5 
REMARK    2  A    between atoms: C1_4  and  C2_7 
REMARK    3  A    between atoms: C6_13  and  C7_14 
REMARK    4  A    between atoms: C11_18  and  O2_19 
REMARK    5  A    between atoms: C12_21  and  O3_22 
ROOT
HETATM    1  C2  UNL     1       2.172   0.345   0.127  1.00  0.00     0.037 A 
HETATM    2  C3  UNL     1       3.269   0.085  -0.683  1.00  0.00     0.019 A 
HETATM    3  C4  UNL     1       3.055  -0.567  -1.891  1.00  0.00     0.018 A 
HETATM    4  C5  UNL     1       1.814  -0.959  -2.310  1.00  0.00     0.088 A 
HETATM    5  N2  UNL     1       0.796  -0.686  -1.500  1.00  0.00    -0.368 N 
ATOM      6  H2  UNL     1      -0.139  -0.967  -1.796  1.00  0.00     0.165 HD
HETATM    7  C6  UNL     1       0.922  -0.053  -0.295  1.00  0.00     0.030 A 
ENDROOT
BRANCH   7   8
HETATM    8  C7  UNL     1      -0.274   0.093   0.570  1.00  0.00     0.068 C 
HETATM    9  C8  UNL     1      -1.080   1.279  -0.021  1.00  0.00     0.013 C 
HETATM   10  C9  UNL     1      -2.505   1.247   0.469  1.00  0.00     0.004 C 
HETATM   11  C10 UNL     1      -3.129   0.187  -0.450  1.00  0.00     0.034 C 
HETATM   12  C11 UNL     1      -2.518  -1.081  -0.008  1.00  0.00     0.147 C 
HETATM   13  C12 UNL     1      -1.096  -1.179   0.342  1.00  0.00     0.156 C 
BRANCH  12  14
HETATM   14  O2  UNL     1      -2.850  -2.014  -1.030  1.00  0.00    -0.393 OA
ATOM     15  H2  UNL     1      -2.457  -2.831  -0.745  1.00  0.00     0.210 HD
ENDBRANCH  12  14
BRANCH  13  16
HETATM   16  O3  UNL     1      -1.024  -1.929   1.534  1.00  0.00    -0.392 OA
ATOM     17  H3  UNL     1      -1.534  -2.718   1.393  1.00  0.00     0.210 HD
ENDBRANCH  13  16
ENDBRANCH   7   8
BRANCH   1  18
HETATM   18  C1  UNL     1       2.413   1.041   1.391  1.00  0.00     0.145 C 
HETATM   19  N1  UNL     1       3.583   1.544   1.619  1.00  0.00    -0.379 N 
ATOM     20  H12 UNL     1       3.751   2.029   2.500  1.00  0.00     0.158 HD
ATOM     21  H11 UNL     1       4.254   1.401   0.864  1.00  0.00     0.158 HD
BRANCH  18  22
HETATM   22  O1  UNL     1       1.496   1.236   2.423  1.00  0.00    -0.346 OA
ATOM     23  H1  UNL     1       0.637   0.867   2.256  1.00  0.00     0.219 HD
ENDBRANCH  18  22
ENDBRANCH   1  18
TORSDOF 5
