REMARK  2 active torsions:
REMARK  status: ('A' for Active; 'I' for Inactive)
REMARK    1  A    between atoms: C12_13  and  N2_14 
REMARK    2  A    between atoms: N2_14  and  N3_16 
ROOT
HETATM    1  C1  UNL     1       2.360   1.350  -2.207  1.00  0.00     0.081 C 
HETATM    2  C2  UNL     1       1.344   0.953  -1.138  1.00  0.00     0.076 C 
HETATM    3  N1  UNL     1       0.292   1.520  -1.018  1.00  0.00    -0.429 NA
HETATM    4  C3  UNL     1      -0.921   1.938  -0.641  1.00  0.00     0.154 C 
HETATM    5  C4  UNL     1      -1.366   1.841   0.783  1.00  0.00     0.059 C 
HETATM    6  C5  UNL     1      -2.712   1.292   1.036  1.00  0.00     0.006 C 
HETATM    7  C6  UNL     1      -3.121   0.041   0.347  1.00  0.00     0.000 C 
HETATM    8  C7  UNL     1      -2.638  -1.234   0.966  1.00  0.00     0.000 C 
HETATM    9  C8  UNL     1      -2.121  -2.274   0.051  1.00  0.00     0.000 C 
HETATM   10  C9  UNL     1      -1.318  -1.906  -1.116  1.00  0.00     0.000 C 
HETATM   11  C10 UNL     1       0.179  -2.009  -0.988  1.00  0.00     0.002 C 
HETATM   12  C11 UNL     1       0.819  -1.221   0.079  1.00  0.00     0.028 C 
HETATM   13  C12 UNL     1       1.769  -0.159  -0.273  1.00  0.00     0.138 C 
ENDROOT
BRANCH  13  14
HETATM   14  N2  UNL     1       2.271   0.433   0.967  1.00  0.00    -0.231 NA
HETATM   15  C13 UNL     1       3.335  -0.359   1.543  1.00  0.00     0.136 C 
BRANCH  14  16
HETATM   16  N3  UNL     1       2.751   1.744   0.703  1.00  0.00    -0.363 NA
ATOM     17  H32 UNL     1       2.001   2.303   0.297  1.00  0.00     0.171 HD
ATOM     18  H31 UNL     1       3.101   2.157   1.568  1.00  0.00     0.171 HD
ENDBRANCH  14  16
ENDBRANCH  13  14
TORSDOF 2
