REMARK  5 active torsions:
REMARK  status: ('A' for Active; 'I' for Inactive)
REMARK    1  A    between atoms: N1_2  and  S1_4 
REMARK    2  A    between atoms: S1_4  and  N2_7 
REMARK    3  A    between atoms: N2_7  and  C3_9 
REMARK    4  A    between atoms: C4_10  and  O3_11 
REMARK    5  A    between atoms: C5_13  and  O4_14 
ROOT
HETATM    1  C3  UNL     1       1.144  -0.192  -0.122  1.00  0.00     0.162 C 
HETATM    2  C4  UNL     1       2.497  -0.829  -0.457  1.00  0.00     0.176 C 
HETATM    3  C5  UNL     1       3.126   0.499  -0.042  1.00  0.00     0.185 C 
HETATM    4  C6  UNL     1       1.900   0.699   0.838  1.00  0.00     0.227 C 
HETATM    5  F1  UNL     1       2.087   0.056   2.032  1.00  0.00    -0.244 F 
ENDROOT
BRANCH   1   6
HETATM    6  N2  UNL     1       0.235  -1.040   0.566  1.00  0.00    -0.296 N 
ATOM      7  H2  UNL     1       0.477  -1.542   1.420  1.00  0.00     0.173 HD
BRANCH   6   8
HETATM    8  S1  UNL     1      -1.318  -1.139  -0.182  1.00  0.00     0.298 S 
HETATM    9  O1  UNL     1      -1.230  -1.050  -1.662  1.00  0.00    -0.188 OA
HETATM   10  O2  UNL     1      -1.980  -2.451   0.161  1.00  0.00    -0.188 OA
BRANCH   8  11
HETATM   11  N1  UNL     1      -2.279   0.109   0.504  1.00  0.00    -0.202 NA
HETATM   12  C1  UNL     1      -2.205   1.348  -0.198  1.00  0.00     0.130 C 
HETATM   13  C2  UNL     1      -3.645  -0.277   0.715  1.00  0.00     0.130 C 
ENDBRANCH   8  11
ENDBRANCH   6   8
ENDBRANCH   1   6
BRANCH   2  14
HETATM   14  O3  UNL     1       2.780  -1.823   0.465  1.00  0.00    -0.391 OA
ATOM     15  H3  UNL     1       3.619  -2.218   0.257  1.00  0.00     0.210 HD
ENDBRANCH   2  14
BRANCH   3  16
HETATM   16  O4  UNL     1       3.137   1.449  -1.050  1.00  0.00    -0.390 OA
ATOM     17  H4  UNL     1       3.528   2.275  -0.792  1.00  0.00     0.210 HD
ENDBRANCH   3  16
TORSDOF 5
