REMARK  5 active torsions:
REMARK  status: ('A' for Active; 'I' for Inactive)
REMARK    1  A    between atoms: N2_4  and  N3_6 
REMARK    2  A    between atoms: N3_6  and  C1_8 
REMARK    3  A    between atoms: C4_11  and  N4_12 
REMARK    4  A    between atoms: C6_16  and  N6_17 
REMARK    5  A    between atoms: N7_20  and  O1_21 
ROOT
HETATM    1  C1  UNL     1      -2.169  -0.198  -0.574  1.00  0.00     0.137 C 
HETATM    2  C2  UNL     1      -2.033   1.195  -0.013  1.00  0.00     0.032 C 
HETATM    3  C3  UNL     1      -0.552   1.475  -0.015  1.00  0.00     0.031 C 
HETATM    4  C4  UNL     1       0.028   0.115   0.288  1.00  0.00     0.127 C 
HETATM    5  C8  UNL     1      -0.814  -0.847  -0.493  1.00  0.00     0.217 C 
HETATM    6  F1  UNL     1      -0.345  -1.058  -1.771  1.00  0.00    -0.245 F 
ENDROOT
BRANCH   4   7
HETATM    7  N4  UNL     1       1.429   0.016   0.036  1.00  0.00    -0.329 N 
HETATM    8  C5  UNL     1       1.956   0.449  -1.123  1.00  0.00     0.202 A 
HETATM    9  N5  UNL     1       3.290   0.361  -1.380  1.00  0.00    -0.186 N 
HETATM   10  C6  UNL     1       4.102  -0.169  -0.455  1.00  0.00     0.704 A 
ATOM     11  H5  UNL     1       3.667   0.695  -2.267  1.00  0.00     0.185 HD
HETATM   12  N7  UNL     1       3.604  -0.608   0.709  1.00  0.00    -0.048 N 
HETATM   13  C7  UNL     1       2.269  -0.511   0.944  1.00  0.00     0.236 A 
BRANCH  10  14
HETATM   14  N6  UNL     1       5.366  -0.234  -0.738  1.00  0.00    -0.232 N 
ATOM     15  H62 UNL     1       5.745   0.100  -1.624  1.00  0.00     0.174 HD
ATOM     16  H61 UNL     1       5.984  -0.637  -0.034  1.00  0.00     0.174 HD
ENDBRANCH  10  14
BRANCH  12  17
HETATM   17  O1  UNL     1       4.468  -1.144   1.627  1.00  0.00    -0.269 OA
ATOM     18  H1  UNL     1       4.115  -1.455   2.452  1.00  0.00     0.246 HD
ENDBRANCH  12  17
ENDBRANCH   4   7
BRANCH   1  19
HETATM   19  N3  UNL     1      -3.151  -0.893   0.264  1.00  0.00    -0.315 N 
ATOM     20  H3  UNL     1      -2.916  -1.740   0.781  1.00  0.00     0.182 HD
BRANCH  19  21
HETATM   21  N2  UNL     1      -4.425  -0.329   0.314  1.00  0.00    -0.253 N 
HETATM   22  N1  UNL     1      -5.323  -0.811  -0.433  1.00  0.00    -0.331 N 
ATOM     23  H12 UNL     1      -5.105  -1.593  -1.051  1.00  0.00     0.178 HD
ATOM     24  H11 UNL     1      -6.255  -0.398  -0.396  1.00  0.00     0.178 HD
ATOM     25  H2  UNL     1      -4.627   0.453   0.937  1.00  0.00     0.207 HD
ENDBRANCH  19  21
ENDBRANCH   1  19
TORSDOF 5
