REMARK  17 active torsions:
REMARK  status: ('A' for Active; 'I' for Inactive)
REMARK    1  A    between atoms: C4_4  and  O1_6 
REMARK    2  A    between atoms: C6_8  and  O2_9 
REMARK    3  A    between atoms: O2_9  and  C7_10 
REMARK    4  A    between atoms: C8_12  and  O4_13 
REMARK    5  A    between atoms: C10_15  and  O5_16 
REMARK    6  A    between atoms: C11_18  and  O6_19 
REMARK    7  A    between atoms: C12_21  and  O7_22 
REMARK    8  A    between atoms: C13_24  and  C14_25 
REMARK    9  A    between atoms: C14_25  and  O8_26 
REMARK   10  A    between atoms: C14_25  and  C15_28 
REMARK   11  A    between atoms: C15_28  and  O9_29 
REMARK   12  A    between atoms: C15_28  and  C16_31 
REMARK   13  A    between atoms: C16_31  and  O10_33 
REMARK   14  A    between atoms: O10_33  and  C18_34 
REMARK   15  A    between atoms: C18_34  and  C19_35 
REMARK   16  A    between atoms: C21_37  and  O11_38 
REMARK   17  A    between atoms: C25_44  and  N1_45 
ROOT
HETATM    1  C1  UNL     1       2.215  -4.037  -0.909  1.00  0.00     0.015 C 
HETATM    2  C2  UNL     1       2.199  -2.800  -1.354  1.00  0.00    -0.077 C 
HETATM    3  C3  UNL     1       2.326  -2.289  -2.750  1.00  0.00     0.074 C 
HETATM    4  C4  UNL     1       3.069  -0.997  -2.628  1.00  0.00     0.085 C 
HETATM    5  C5  UNL     1       2.591   0.059  -3.595  1.00  0.00     0.049 C 
HETATM    6  C6  UNL     1       2.875  -0.533  -1.181  1.00  0.00     0.169 C 
HETATM    7  C13 UNL     1       2.041  -1.585  -0.499  1.00  0.00     0.077 C 
ENDROOT
BRANCH   7   8
HETATM    8  C14 UNL     1       0.584  -1.292  -0.417  1.00  0.00     0.160 C 
BRANCH   8   9
HETATM    9  O8  UNL     1      -0.034  -1.034  -1.632  1.00  0.00    -0.392 OA
ATOM     10  H8  UNL     1      -0.964  -0.847  -1.580  1.00  0.00     0.210 HD
ENDBRANCH   8   9
BRANCH   8  11
HETATM   11  C15 UNL     1       0.169  -0.284   0.588  1.00  0.00     0.176 C 
BRANCH  11  12
HETATM   12  O9  UNL     1       0.497   0.992   0.171  1.00  0.00    -0.390 OA
ATOM     13  H9  UNL     1       0.231   1.638   0.815  1.00  0.00     0.210 HD
ENDBRANCH  11  12
BRANCH  11  14
HETATM   14  C16 UNL     1      -1.333  -0.322   0.878  1.00  0.00     0.148 C 
HETATM   15  C17 UNL     1      -1.537   0.780   1.922  1.00  0.00     0.042 C 
BRANCH  14  16
HETATM   16  O10 UNL     1      -1.747  -1.539   1.296  1.00  0.00    -0.381 OA
BRANCH  16  17
HETATM   17  C18 UNL     1      -2.711  -2.222   0.670  1.00  0.00     0.200 C 
BRANCH  17  18
HETATM   18  C19 UNL     1      -4.120  -1.679   0.664  1.00  0.00     0.148 C 
HETATM   19  C20 UNL     1      -4.740  -1.673   2.021  1.00  0.00     0.066 C 
HETATM   20  C21 UNL     1      -5.679  -0.587   2.359  1.00  0.00     0.126 C 
HETATM   21  C22 UNL     1      -6.574  -0.049   1.309  1.00  0.00     0.042 C 
HETATM   22  C23 UNL     1      -6.587  -0.859   0.060  1.00  0.00     0.043 C 
HETATM   23  C25 UNL     1      -5.896   1.045   0.543  1.00  0.00     0.113 C 
HETATM   24  C24 UNL     1      -5.403  -0.074  -0.395  1.00  0.00     0.145 C 
HETATM   25  O12 UNL     1      -4.185  -0.454   0.093  1.00  0.00    -0.376 OA
BRANCH  20  26
HETATM   26  O11 UNL     1      -4.965   0.453   2.992  1.00  0.00    -0.395 OA
ATOM     27  H11 UNL     1      -5.570   1.153   3.210  1.00  0.00     0.210 HD
ENDBRANCH  20  26
BRANCH  23  28
HETATM   28  N1  UNL     1      -6.617   1.998  -0.142  1.00  0.00    -0.414 N 
HETATM   29  C26 UNL     1      -7.484   2.862   0.599  1.00  0.00     0.143 C 
HETATM   30  C27 UNL     1      -6.762   2.072  -1.509  1.00  0.00     0.143 C 
ENDBRANCH  23  28
ENDBRANCH  17  18
ENDBRANCH  16  17
ENDBRANCH  14  16
ENDBRANCH  11  14
ENDBRANCH   8  11
ENDBRANCH   7   8
BRANCH   6  31
HETATM   31  O2  UNL     1       4.135  -0.595  -0.583  1.00  0.00    -0.349 OA
BRANCH  31  32
HETATM   32  C7  UNL     1       4.559   0.640  -0.096  1.00  0.00     0.294 C 
HETATM   33  O3  UNL     1       5.695   1.009  -0.741  1.00  0.00    -0.326 OA
HETATM   34  C8  UNL     1       6.683   1.574   0.012  1.00  0.00     0.293 C 
HETATM   35  C10 UNL     1       7.143   0.588   1.064  1.00  0.00     0.204 C 
HETATM   36  C11 UNL     1       5.999   0.067   1.884  1.00  0.00     0.185 C 
HETATM   37  C12 UNL     1       4.654   0.524   1.394  1.00  0.00     0.204 C 
BRANCH  34  38
HETATM   38  O4  UNL     1       6.394   2.819   0.513  1.00  0.00    -0.363 OA
HETATM   39  C9  UNL     1       7.213   3.831   0.072  1.00  0.00     0.204 C 
ENDBRANCH  34  38
BRANCH  35  40
HETATM   40  O5  UNL     1       8.098   1.105   1.906  1.00  0.00    -0.388 OA
ATOM     41  H5  UNL     1       8.387   0.486   2.566  1.00  0.00     0.210 HD
ENDBRANCH  35  40
BRANCH  36  42
HETATM   42  O6  UNL     1       6.014  -1.337   1.906  1.00  0.00    -0.390 OA
ATOM     43  H6  UNL     1       5.290  -1.667   2.425  1.00  0.00     0.210 HD
ENDBRANCH  36  42
BRANCH  37  44
HETATM   44  O7  UNL     1       4.221   1.700   2.048  1.00  0.00    -0.388 OA
ATOM     45  H7  UNL     1       4.281   1.626   2.993  1.00  0.00     0.210 HD
ENDBRANCH  37  44
ENDBRANCH  31  32
ENDBRANCH   6  31
BRANCH   4  46
HETATM   46  O1  UNL     1       4.410  -1.242  -2.919  1.00  0.00    -0.387 OA
ATOM     47  H1  UNL     1       4.882  -0.421  -2.841  1.00  0.00     0.210 HD
ENDBRANCH   4  46
TORSDOF 17
