REMARK  6 active torsions:
REMARK  status: ('A' for Active; 'I' for Inactive)
REMARK       I    between atoms: C2_2  and  N1_4 
REMARK    1  A    between atoms: N1_4  and  C3_5 
REMARK    2  A    between atoms: N1_4  and  C4_7 
REMARK    3  A    between atoms: C4_7  and  C12_22 
REMARK    4  A    between atoms: C6_9  and  O3_10 
REMARK    5  A    between atoms: C7_12  and  C8_13 
REMARK    6  A    between atoms: C9_16  and  C10_20 
ROOT
HETATM    1  C4  UNL     1      -0.484  -0.086   0.138  1.00  0.00     0.214 C 
HETATM    2  C5  UNL     1       0.202   0.536   1.291  1.00  0.00     0.095 C 
HETATM    3  C6  UNL     1       1.678   0.815   1.102  1.00  0.00     0.133 C 
HETATM    4  C7  UNL     1       2.298   0.214  -0.097  1.00  0.00     0.110 C 
HETATM    5  C9  UNL     1       1.334  -0.244  -1.162  1.00  0.00     0.205 C 
HETATM    6  N2  UNL     1       0.052   0.428  -1.101  1.00  0.00    -0.042 N 
ATOM      7  H21 UNL     1       0.090   1.445  -1.170  1.00  0.00     0.280 HD
ATOM      8  H22 UNL     1      -0.545   0.302  -1.919  1.00  0.00     0.280 HD
ENDROOT
BRANCH   1   9
HETATM    9  N1  UNL     1      -1.914   0.085   0.237  1.00  0.00    -0.260 N 
HETATM   10  C2  UNL     1      -2.793  -0.309  -0.809  1.00  0.00     0.224 C 
HETATM   11  C1  UNL     1      -4.261  -0.181  -0.793  1.00  0.00     0.117 C 
HETATM   12  O1  UNL     1      -2.269  -0.814  -1.845  1.00  0.00    -0.273 OA
BRANCH   9  13
HETATM   13  C3  UNL     1      -2.456   0.619   1.410  1.00  0.00     0.360 C 
HETATM   14  O2  UNL     1      -3.698   0.828   1.601  1.00  0.00    -0.283 OA
ENDBRANCH   9  13
ENDBRANCH   1   9
BRANCH   1  15
HETATM   15  C12 UNL     1      -0.264  -1.576   0.015  1.00  0.00     0.049 A 
HETATM   16  C10 UNL     1       0.965  -1.660  -0.848  1.00  0.00     0.026 A 
HETATM   17  C11 UNL     1       0.957  -2.198   0.513  1.00  0.00     0.016 A 
ENDBRANCH   1  15
BRANCH   3  18
HETATM   18  O3  UNL     1       1.979   2.183   1.117  1.00  0.00    -0.395 OA
ATOM     19  H3  UNL     1       2.905   2.358   0.998  1.00  0.00     0.210 HD
ENDBRANCH   3  18
BRANCH   4  20
HETATM   20  C8  UNL     1       3.359   1.146  -0.679  1.00  0.00     0.361 C 
HETATM   21  F1  UNL     1       2.877   2.356  -1.065  1.00  0.00    -0.214 F 
HETATM   22  F2  UNL     1       3.973   0.455  -1.724  1.00  0.00    -0.214 F 
ENDBRANCH   4  20
TORSDOF 6
