REMARK  4 active torsions:
REMARK  status: ('A' for Active; 'I' for Inactive)
REMARK    1  A    between atoms: C3_8  and  N2_9 
REMARK    2  A    between atoms: N2_9  and  C4_12 
REMARK    3  A    between atoms: C4_12  and  C5_13 
REMARK    4  A    between atoms: C5_13  and  S1_14 
ROOT
HETATM    1  O1  UNL     1      -2.270   2.613  -0.092  1.00  0.00    -0.238 OA
HETATM    2  C1  UNL     1      -2.172   1.411   0.206  1.00  0.00     0.367 C 
HETATM    3  N1  UNL     1      -2.806   0.325  -0.458  1.00  0.00    -0.270 N 
ATOM      4  H1  UNL     1      -3.548   0.386  -1.155  1.00  0.00     0.170 HD
HETATM    5  C2  UNL     1      -2.195  -0.879   0.046  1.00  0.00     0.377 C 
HETATM    6  F1  UNL     1      -3.237  -1.603   0.659  1.00  0.00    -0.177 F 
HETATM    7  F2  UNL     1      -1.755  -1.710  -0.965  1.00  0.00    -0.177 F 
HETATM    8  C3  UNL     1      -1.167  -0.496   1.046  1.00  0.00     0.426 C 
HETATM    9  O2  UNL     1      -1.413   0.894   1.254  1.00  0.00    -0.262 OA
ENDROOT
BRANCH   8  10
HETATM   10  N2  UNL     1       0.208  -0.680   0.636  1.00  0.00    -0.040 N 
ATOM     11  H22 UNL     1       0.857  -0.586   1.418  1.00  0.00     0.280 HD
ATOM     12  H21 UNL     1       0.409  -1.650   0.393  1.00  0.00     0.280 HD
BRANCH  10  13
HETATM   13  C4  UNL     1       0.525   0.229  -0.446  1.00  0.00     0.248 C 
BRANCH  13  14
HETATM   14  C5  UNL     1       1.875  -0.056  -1.066  1.00  0.00     0.140 C 
BRANCH  14  15
HETATM   15  S1  UNL     1       3.241  -0.021   0.053  1.00  0.00     0.045 SA
HETATM   16  F3  UNL     1       4.667  -0.324  -0.858  1.00  0.00    -0.162 F 
HETATM   17 CL1  UNL     1       3.067  -1.671   1.367  1.00  0.00    -0.023 Cl
HETATM   18 BR1  UNL     1       3.448   1.861   1.207  1.00  0.00     0.015 Br
ENDBRANCH  14  15
ENDBRANCH  13  14
ENDBRANCH  10  13
ENDBRANCH   8  10
TORSDOF 4
