REMARK  7 active torsions:
REMARK  status: ('A' for Active; 'I' for Inactive)
REMARK    1  A    between atoms: C1_2  and  C2_3 
REMARK       I    between atoms: C1_2  and  N1_18 
REMARK    2  A    between atoms: C2_3  and  C3_4 
REMARK    3  A    between atoms: C3_4  and  O2_5 
REMARK    4  A    between atoms: C3_4  and  C4_7 
REMARK    5  A    between atoms: C13_24  and  C14_25 
REMARK    6  A    between atoms: C14_25  and  C15_26 
REMARK    7  A    between atoms: C15_26  and  O3_27 
ROOT
HETATM    1  C2  UNL     1      -0.841   0.234  -0.106  1.00  0.00     0.139 C 
ENDROOT
BRANCH   1   2
HETATM    2  C1  UNL     1       0.522  -0.241   0.341  1.00  0.00     0.223 C 
HETATM    3  O1  UNL     1       0.560  -1.092   1.236  1.00  0.00    -0.273 OA
HETATM    4  N1  UNL     1       1.672   0.270  -0.245  1.00  0.00    -0.334 N 
HETATM    5  C10 UNL     1       1.790   1.280  -1.325  1.00  0.00     0.199 C 
HETATM    6  C13 UNL     1       3.088   0.001  -0.016  1.00  0.00     0.154 C 
HETATM    7  C11 UNL     1       2.735   0.499  -2.210  1.00  0.00     0.148 C 
HETATM    8  F6  UNL     1       2.830   0.524  -3.554  1.00  0.00    -0.206 F 
HETATM    9  C12 UNL     1       3.503  -0.263  -1.414  1.00  0.00     0.152 C 
HETATM   10  F7  UNL     1       4.461  -1.094  -1.842  1.00  0.00    -0.206 F 
BRANCH   6  11
HETATM   11  C14 UNL     1       3.365  -1.068   0.962  1.00  0.00     0.058 C 
BRANCH  11  12
HETATM   12  C15 UNL     1       4.835  -1.328   1.195  1.00  0.00     0.166 C 
BRANCH  12  13
HETATM   13  O3  UNL     1       5.500  -0.200   1.663  1.00  0.00    -0.401 OA
ATOM     14  H3  UNL     1       6.424  -0.363   1.810  1.00  0.00     0.209 HD
ENDBRANCH  12  13
ENDBRANCH  11  12
ENDBRANCH   6  11
ENDBRANCH   1   2
BRANCH   1  15
HETATM   15  C3  UNL     1      -1.920  -0.441   0.648  1.00  0.00     0.166 C 
BRANCH  15  16
HETATM   16  O2  UNL     1      -1.901  -1.833   0.487  1.00  0.00    -0.390 OA
ATOM     17  H2  UNL     1      -2.594  -2.266   0.971  1.00  0.00     0.210 HD
ENDBRANCH  15  16
BRANCH  15  18
HETATM   18  C4  UNL     1      -3.253   0.115   0.475  1.00  0.00     0.054 A 
HETATM   19  C5  UNL     1      -4.289  -0.317   1.352  1.00  0.00     0.170 A 
HETATM   20  F1  UNL     1      -3.944  -1.221   2.308  1.00  0.00    -0.202 F 
HETATM   21  C6  UNL     1      -5.574   0.135   1.263  1.00  0.00     0.197 A 
HETATM   22  F2  UNL     1      -6.512  -0.326   2.141  1.00  0.00    -0.199 F 
HETATM   23  C7  UNL     1      -5.862   1.049   0.275  1.00  0.00     0.199 A 
HETATM   24  F3  UNL     1      -7.147   1.505   0.181  1.00  0.00    -0.199 F 
HETATM   25  C8  UNL     1      -4.901   1.502  -0.602  1.00  0.00     0.197 A 
HETATM   26  F4  UNL     1      -5.187   2.402  -1.574  1.00  0.00    -0.199 F 
HETATM   27  C9  UNL     1      -3.581   1.018  -0.487  1.00  0.00     0.170 A 
HETATM   28  F5  UNL     1      -2.717   1.501  -1.386  1.00  0.00    -0.202 F 
ENDBRANCH  15  18
ENDBRANCH   1  15
TORSDOF 7
