REMARK  7 active torsions:
REMARK  status: ('A' for Active; 'I' for Inactive)
REMARK    1  A    between atoms: C2_2  and  N1_3 
REMARK    2  A    between atoms: N1_3  and  C4_5 
REMARK    3  A    between atoms: C4_5  and  C5_6 
REMARK    4  A    between atoms: C8_11  and  C9_12 
REMARK    5  A    between atoms: C10_17  and  C11_18 
REMARK    6  A    between atoms: C10_17  and  C13_24 
REMARK    7  A    between atoms: C11_18  and  N2_19 
ROOT
HETATM    1  C5  UNL     1       0.491  -0.063   0.105  1.00  0.00     0.061 C 
HETATM    2  C6  UNL     1       0.357  -1.223   1.067  1.00  0.00     0.091 C 
HETATM    3  C7  UNL     1      -0.169  -2.400   0.321  1.00  0.00     0.278 C 
HETATM    4  F1  UNL     1      -0.670  -3.268   1.309  1.00  0.00    -0.203 F 
HETATM    5  F2  UNL     1       0.867  -3.166  -0.250  1.00  0.00    -0.203 F 
HETATM    6  C8  UNL     1      -1.248  -2.112  -0.644  1.00  0.00     0.302 C 
HETATM    7  O1  UNL     1      -1.477  -0.872  -1.047  1.00  0.00    -0.352 OA
HETATM    8  C10 UNL     1      -0.797   0.201  -0.633  1.00  0.00     0.142 C 
ENDROOT
BRANCH   8   9
HETATM    9  C11 UNL     1      -1.699   0.974   0.341  1.00  0.00     0.166 C 
BRANCH   9  10
HETATM   10  N2  UNL     1      -2.914   1.394  -0.269  1.00  0.00    -0.364 N 
HETATM   11  C12 UNL     1      -3.693   2.240   0.289  1.00  0.00     0.197 C 
HETATM   12  N3  UNL     1      -3.388   2.814   1.561  1.00  0.00    -0.067 NA
HETATM   13  N4  UNL     1      -4.880   2.615  -0.368  1.00  0.00    -0.067 NA
ATOM     14  H2  UNL     1      -3.171   1.009  -1.178  1.00  0.00     0.161 HD
ENDBRANCH   9  10
ENDBRANCH   8   9
BRANCH   8  15
HETATM   15  C13 UNL     1      -0.525   1.037  -1.866  1.00  0.00     0.389 C 
HETATM   16  F6  UNL     1       0.031   2.245  -1.599  1.00  0.00    -0.211 F 
HETATM   17  F7  UNL     1      -1.745   1.240  -2.487  1.00  0.00    -0.211 F 
ENDBRANCH   8  15
BRANCH   1  18
HETATM   18  C4  UNL     1       1.652  -0.307  -0.787  1.00  0.00     0.279 C 
BRANCH  18  19
HETATM   19  N1  UNL     1       2.880  -0.452  -0.057  1.00  0.00     0.084 N 
HETATM   20  C3  UNL     1       3.915  -0.993  -0.945  1.00  0.00     0.309 C 
BRANCH  19  21
HETATM   21  C2  UNL     1       3.307   0.767   0.522  1.00  0.00     0.267 C 
HETATM   22  C1  UNL     1       4.470   0.582   1.496  1.00  0.00     0.037 C 
ENDBRANCH  19  21
ENDBRANCH  18  19
ENDBRANCH   1  18
BRANCH   6  23
HETATM   23  C9  UNL     1      -2.569  -2.732  -0.154  1.00  0.00     0.419 C 
HETATM   24  F3  UNL     1      -3.534  -2.427  -1.100  1.00  0.00    -0.168 F 
HETATM   25  F4  UNL     1      -2.897  -2.346   1.108  1.00  0.00    -0.168 F 
HETATM   26  F5  UNL     1      -2.440  -4.129  -0.193  1.00  0.00    -0.168 F 
ENDBRANCH   6  23
TORSDOF 7
