REMARK  12 active torsions:
REMARK  status: ('A' for Active; 'I' for Inactive)
REMARK    1  A    between atoms: N1_2  and  C3_4 
REMARK    2  A    between atoms: C3_4  and  C4_5 
REMARK    3  A    between atoms: C4_5  and  N2_6 
REMARK    4  A    between atoms: N2_6  and  C5_8 
REMARK    5  A    between atoms: C6_11  and  N4_12 
REMARK    6  A    between atoms: N4_12  and  C7_14 
REMARK    7  A    between atoms: C12_23  and  C13_24 
REMARK    8  A    between atoms: C18_31  and  O1_32 
REMARK    9  A    between atoms: O1_32  and  C19_33 
REMARK   10  A    between atoms: C19_33  and  C20_34 
REMARK   11  A    between atoms: C20_34  and  C21_35 
REMARK   12  A    between atoms: C21_35  and  N7_36 
ROOT
HETATM    1  C5  UNL     1      -0.979   0.797  -0.235  1.00  0.00     0.132 A 
HETATM    2  N3  UNL     1      -1.961   1.685  -0.019  1.00  0.00    -0.176 N 
ATOM      3  H3  UNL     1      -2.591   1.548   0.772  1.00  0.00     0.186 HD
HETATM    4  C6  UNL     1      -2.135   2.748  -0.817  1.00  0.00     0.681 A 
HETATM    5  N5  UNL     1      -1.307   2.927  -1.855  1.00  0.00    -0.176 N 
ATOM      6  H5  UNL     1      -1.444   3.738  -2.459  1.00  0.00     0.186 HD
HETATM    7  C10 UNL     1      -0.297   2.072  -2.131  1.00  0.00     0.136 A 
HETATM    8  N6  UNL     1       0.646   2.028  -3.086  1.00  0.00    -0.350 N 
ATOM      9  H6  UNL     1       0.756   2.712  -3.834  1.00  0.00     0.166 HD
HETATM   10  C11 UNL     1       1.428   0.939  -2.906  1.00  0.00     0.103 A 
HETATM   11  C12 UNL     1       0.964   0.269  -1.797  1.00  0.00     0.013 A 
HETATM   12  C22 UNL     1      -0.117   0.961  -1.295  1.00  0.00     0.065 A 
ENDROOT
BRANCH  11  13
HETATM   13  C13 UNL     1       1.468  -0.976  -1.177  1.00  0.00     0.049 A 
HETATM   14  C14 UNL     1       0.968  -2.189  -1.581  1.00  0.00     0.133 A 
HETATM   15  F1  UNL     1      -0.001  -2.231  -2.561  1.00  0.00    -0.205 F 
HETATM   16  C15 UNL     1       1.429  -3.361  -1.014  1.00  0.00     0.085 A 
HETATM   17  C16 UNL     1       2.400  -3.273  -0.035  1.00  0.00     0.122 A 
HETATM   18  F2  UNL     1       2.887  -4.411   0.557  1.00  0.00    -0.206 F 
HETATM   19  C17 UNL     1       2.904  -2.065   0.374  1.00  0.00     0.080 A 
HETATM   20  C18 UNL     1       2.447  -0.907  -0.189  1.00  0.00     0.085 A 
BRANCH  20  21
HETATM   21  O1  UNL     1       2.884   0.344   0.150  1.00  0.00    -0.350 OA
BRANCH  21  22
HETATM   22  C19 UNL     1       3.817   0.788   1.046  1.00  0.00     0.177 C 
BRANCH  22  23
HETATM   23  C20 UNL     1       5.230   0.384   0.878  1.00  0.00     0.054 C 
BRANCH  23  24
HETATM   24  C21 UNL     1       5.817   0.829  -0.454  1.00  0.00     0.231 C 
BRANCH  24  25
HETATM   25  N7  UNL     1       7.187   0.390  -0.522  1.00  0.00    -0.079 N 
ATOM     26  H73 UNL     1       7.739   0.708   0.274  1.00  0.00     0.274 HD
ATOM     27  H72 UNL     1       7.284  -0.614  -0.368  1.00  0.00     0.274 HD
ATOM     28  H71 UNL     1       7.580   0.688  -1.415  1.00  0.00     0.274 HD
ENDBRANCH  24  25
ENDBRANCH  23  24
ENDBRANCH  22  23
ENDBRANCH  21  22
ENDBRANCH  20  21
ENDBRANCH  11  13
BRANCH   1  29
HETATM   29  N2  UNL     1      -0.817  -0.231   0.543  1.00  0.00    -0.373 N 
ATOM     30  H2  UNL     1      -0.055  -0.876   0.336  1.00  0.00     0.161 HD
BRANCH  29  31
HETATM   31  C4  UNL     1      -1.644  -0.507   1.669  1.00  0.00     0.151 C 
BRANCH  31  32
HETATM   32  C3  UNL     1      -2.884  -1.304   1.326  1.00  0.00     0.290 C 
BRANCH  32  33
HETATM   33  N1  UNL     1      -2.544  -2.591   0.743  1.00  0.00     0.081 N 
HETATM   34  C1  UNL     1      -3.781  -3.287   0.444  1.00  0.00     0.309 C 
HETATM   35  C2  UNL     1      -1.784  -3.389   1.692  1.00  0.00     0.309 C 
ENDBRANCH  32  33
ENDBRANCH  31  32
ENDBRANCH  29  31
ENDBRANCH   1  29
BRANCH   4  36
HETATM   36  N4  UNL     1      -3.077   3.597  -0.608  1.00  0.00    -0.221 N 
ATOM     37  H4  UNL     1      -3.198   4.402  -1.223  1.00  0.00     0.178 HD
BRANCH  36  38
HETATM   38  C7  UNL     1      -3.961   3.389   0.515  1.00  0.00     0.099 A 
HETATM   39  C8  UNL     1      -5.277   4.119   0.543  1.00  0.00     0.028 A 
HETATM   40  C9  UNL     1      -5.251   2.672   0.308  1.00  0.00     0.028 A 
ENDBRANCH  36  38
ENDBRANCH   4  36
TORSDOF 12
