REMARK  7 active torsions:
REMARK  status: ('A' for Active; 'I' for Inactive)
REMARK    1  A    between atoms: C2_2  and  C3_3 
REMARK    2  A    between atoms: C9_10  and  N2_11 
REMARK    3  A    between atoms: N2_11  and  C10_13 
REMARK    4  A    between atoms: C10_13  and  C11_17 
REMARK    5  A    between atoms: C11_17  and  C12_18 
REMARK    6  A    between atoms: C13_19  and  C14_20 
REMARK    7  A    between atoms: C14_20  and  O1_21 
ROOT
HETATM    1  N2  UNL     1      -0.670  -1.078   1.173  1.00  0.00    -0.373 N 
ATOM      2  H2  UNL     1      -1.105  -1.580   1.947  1.00  0.00     0.161 HD
ENDROOT
BRANCH   1   3
HETATM    3  C9  UNL     1      -1.534  -0.524   0.131  1.00  0.00     0.122 C 
HETATM    4  C3  UNL     1      -1.397   0.952   0.014  1.00  0.00     0.038 C 
HETATM    5  C4  UNL     1      -2.712   1.528   0.491  1.00  0.00     0.280 C 
HETATM    6  N1  UNL     1      -3.376   0.470   1.216  1.00  0.00     0.100 N 
HETATM    7  C5  UNL     1      -4.706   0.189   0.703  1.00  0.00     0.221 C 
HETATM    8  C8  UNL     1      -2.935  -0.755   0.583  1.00  0.00     0.248 C 
HETATM    9  C6  UNL     1      -5.434  -0.702   1.706  1.00  0.00     0.043 C 
HETATM   10  C7  UNL     1      -4.024  -0.620  -0.408  1.00  0.00     0.073 C 
BRANCH   4  11
HETATM   11  C2  UNL     1      -1.076   1.426  -1.379  1.00  0.00     0.004 C 
HETATM   12  C1  UNL     1       0.207   0.897  -1.911  1.00  0.00     0.005 C 
ENDBRANCH   4  11
ENDBRANCH   1   3
BRANCH   1  13
HETATM   13  C10 UNL     1       0.725  -0.954   1.161  1.00  0.00     0.074 C 
HETATM   14  N3  UNL     1       1.304  -0.003   1.779  1.00  0.00    -0.389 N 
ATOM     15  H32 UNL     1       0.745   0.679   2.292  1.00  0.00     0.157 HD
ATOM     16  H31 UNL     1       2.320   0.087   1.770  1.00  0.00     0.157 HD
BRANCH  13  17
HETATM   17  C11 UNL     1       1.530  -1.937   0.422  1.00  0.00     0.102 C 
BRANCH  17  18
HETATM   18  C12 UNL     1       2.975  -1.680   0.499  1.00  0.00    -0.021 C 
HETATM   19  C13 UNL     1       3.686  -1.458  -0.587  1.00  0.00    -0.005 C 
BRANCH  19  20
HETATM   20  C14 UNL     1       5.163  -1.195  -0.509  1.00  0.00     0.194 C 
BRANCH  20  21
HETATM   21  O1  UNL     1       5.377   0.053  -1.049  1.00  0.00    -0.392 OA
HETATM   22  C15 UNL     1       6.722   0.417  -1.033  1.00  0.00     0.201 C 
ENDBRANCH  20  21
ENDBRANCH  19  20
ENDBRANCH  17  18
ENDBRANCH  13  17
ENDBRANCH   1  13
TORSDOF 7
