REMARK  7 active torsions:
REMARK  status: ('A' for Active; 'I' for Inactive)
REMARK    1  A    between atoms: C2_2  and  C4_4 
REMARK    2  A    between atoms: C4_4  and  C5_5 
REMARK    3  A    between atoms: C5_5  and  C6_6 
REMARK    4  A    between atoms: C7_7  and  C8_8 
REMARK       I    between atoms: C8_8  and  N1_10 
REMARK    5  A    between atoms: C9_12  and  C10_13 
REMARK    6  A    between atoms: C10_13  and  N2_14 
REMARK    7  A    between atoms: C14_18  and  C15_19 
ROOT
HETATM    1  C6  UNL     1      -0.977   0.340   1.209  1.00  0.00    -0.011 C 
HETATM    2  C7  UNL     1       0.293   0.506   0.970  1.00  0.00     0.071 C 
ENDROOT
BRANCH   1   3
HETATM    3  C5  UNL     1      -1.988   0.001   0.094  1.00  0.00    -0.008 A 
HETATM    4  C13 UNL     1      -1.542   0.530  -1.209  1.00  0.00     0.030 A 
HETATM    5  C14 UNL     1      -1.396  -0.955  -0.827  1.00  0.00     0.100 A 
BRANCH   3   6
HETATM    6  C4  UNL     1      -3.310   0.158   0.660  1.00  0.00     0.018 C 
BRANCH   6   7
HETATM    7  C2  UNL     1      -4.591  -0.028   0.016  1.00  0.00    -0.022 C 
HETATM    8  C1  UNL     1      -5.629   0.302   1.150  1.00  0.00     0.009 C 
HETATM    9  C3  UNL     1      -4.946   1.004  -1.037  1.00  0.00     0.009 C 
ENDBRANCH   6   7
ENDBRANCH   3   6
BRANCH   5  10
HETATM   10  C15 UNL     1      -2.001  -1.955  -1.678  1.00  0.00     0.178 C 
HETATM   11  O2  UNL     1      -3.143  -1.876  -2.170  1.00  0.00    -0.648 OA
HETATM   12  O3  UNL     1      -1.300  -3.134  -2.014  1.00  0.00    -0.648 OA
ENDBRANCH   5  10
ENDBRANCH   1   3
BRANCH   2  13
HETATM   13  C8  UNL     1       1.197   0.823   2.056  1.00  0.00     0.244 C 
HETATM   14  O1  UNL     1       0.772   0.939   3.243  1.00  0.00    -0.268 OA
HETATM   15  N1  UNL     1       2.571   1.011   1.810  1.00  0.00    -0.336 N 
HETATM   16  C9  UNL     1       3.266   0.367   0.946  1.00  0.00     0.094 C 
ATOM     17  H1  UNL     1       3.053   1.718   2.365  1.00  0.00     0.168 HD
BRANCH  16  18
HETATM   18  C10 UNL     1       4.697   0.702   0.829  1.00  0.00     0.315 C 
BRANCH  18  19
HETATM   19  N2  UNL     1       5.519  -0.373   0.340  1.00  0.00     0.084 N 
HETATM   20  C11 UNL     1       5.234  -0.672  -1.031  1.00  0.00     0.309 C 
HETATM   21  C12 UNL     1       6.914   0.030   0.452  1.00  0.00     0.309 C 
ENDBRANCH  18  19
ENDBRANCH  16  18
ENDBRANCH   2  13
TORSDOF 7
