REMARK  6 active torsions:
REMARK  status: ('A' for Active; 'I' for Inactive)
REMARK    1  A    between atoms: C1_2  and  C2_4 
REMARK    2  A    between atoms: C2_4  and  C3_5 
REMARK    3  A    between atoms: C3_5  and  C4_6 
REMARK       I    between atoms: C4_6  and  N1_8 
REMARK    4  A    between atoms: N1_8  and  C5_10 
REMARK    5  A    between atoms: C5_10  and  C6_11 
REMARK    6  A    between atoms: C5_10  and  C11_17 
ROOT
HETATM    1  C4  UNL     1      -1.748   0.743  -0.927  1.00  0.00     0.227 C 
HETATM    2  O3  UNL     1      -1.752   1.986  -1.034  1.00  0.00    -0.273 OA
HETATM    3  N1  UNL     1      -0.596   0.175  -0.196  1.00  0.00    -0.351 N 
ATOM      4  H1  UNL     1      -0.492  -0.833  -0.082  1.00  0.00     0.163 HD
ENDROOT
BRANCH   3   5
HETATM    5  C5  UNL     1       0.370   1.081   0.348  1.00  0.00     0.127 C 
BRANCH   5   6
HETATM    6  C6  UNL     1       1.772   0.951  -0.195  1.00  0.00     0.083 C 
HETATM    7  N2  UNL     1       2.493  -0.158  -0.058  1.00  0.00    -0.391 N 
HETATM    8  C7  UNL     1       2.358  -1.417  -0.610  1.00  0.00     0.122 C 
HETATM    9  C10 UNL     1       3.947   0.055   0.117  1.00  0.00     0.122 C 
HETATM   10  C8  UNL     1       3.603  -2.238  -0.228  1.00  0.00     0.021 C 
HETATM   11  C9  UNL     1       4.353  -1.311   0.683  1.00  0.00     0.021 C 
ENDBRANCH   5   6
BRANCH   5  12
HETATM   12  C11 UNL     1       0.341   1.067   1.863  1.00  0.00     0.013 A 
HETATM   13  C12 UNL     1       1.197   1.891   2.712  1.00  0.00     0.007 A 
HETATM   14  C13 UNL     1      -0.317   2.214   2.558  1.00  0.00     0.007 A 
ENDBRANCH   5  12
ENDBRANCH   3   5
BRANCH   1  15
HETATM   15  C3  UNL     1      -2.803  -0.107  -1.491  1.00  0.00     0.050 A 
HETATM   16  C14 UNL     1      -3.296   0.100  -2.889  1.00  0.00     0.021 A 
HETATM   17  C15 UNL     1      -2.400  -1.036  -2.635  1.00  0.00     0.021 A 
BRANCH  15  18
HETATM   18  C2  UNL     1      -3.624  -0.957  -0.480  1.00  0.00     0.132 C 
BRANCH  18  19
HETATM   19  C1  UNL     1      -4.346  -0.040   0.449  1.00  0.00     0.173 C 
HETATM   20  O1  UNL     1      -4.236   1.198   0.288  1.00  0.00    -0.648 OA
HETATM   21  O2  UNL     1      -5.119  -0.543   1.457  1.00  0.00    -0.648 OA
ENDBRANCH  18  19
ENDBRANCH  15  18
ENDBRANCH   1  15
TORSDOF 6
