REMARK  5 active torsions:
REMARK  status: ('A' for Active; 'I' for Inactive)
REMARK    1  A    between atoms: C1_2  and  N1_3 
REMARK    2  A    between atoms: N1_3  and  C2_4 
REMARK    3  A    between atoms: C2_4  and  C3_5 
REMARK    4  A    between atoms: C3_5  and  C4_6 
REMARK    5  A    between atoms: C4_6  and  C5_7 
ROOT
HETATM    1  C4  UNL     1       0.096   1.222   0.364  1.00  0.00     0.007 C 
ENDROOT
BRANCH   1   2
HETATM    2  C3  UNL     1       1.463   0.686   0.473  1.00  0.00     0.034 C 
BRANCH   2   3
HETATM    3  C2  UNL     1       1.956  -0.282  -0.533  1.00  0.00     0.221 C 
BRANCH   3   4
HETATM    4  N1  UNL     1       3.301  -0.713  -0.334  1.00  0.00    -0.423 NA
BRANCH   4   5
HETATM    5  C1  UNL     1       4.543  -1.110  -0.151  1.00  0.00     0.435 C 
HETATM    6  O1  UNL     1       5.653  -0.463  -0.086  1.00  0.00    -0.269 OA
ENDBRANCH   4   5
ENDBRANCH   3   4
ENDBRANCH   2   3
ENDBRANCH   1   2
BRANCH   1   7
HETATM    7  C5  UNL     1      -1.023   0.284   0.463  1.00  0.00    -0.014 C 
HETATM    8  C6  UNL     1      -2.368   1.108   0.395  1.00  0.00     0.004 C 
HETATM    9  C7  UNL     1      -3.422   0.054   0.116  1.00  0.00     0.000 C 
HETATM   10  C8  UNL     1      -2.652  -1.226  -0.136  1.00  0.00     0.000 C 
HETATM   11  C9  UNL     1      -1.328  -0.621  -0.689  1.00  0.00     0.004 C 
ENDBRANCH   1   7
TORSDOF 5
