REMARK  6 active torsions:
REMARK  status: ('A' for Active; 'I' for Inactive)
REMARK    1  A    between atoms: N1_2  and  C2_3 
REMARK    2  A    between atoms: N1_2  and  C5_7 
REMARK    3  A    between atoms: C2_3  and  C3_4 
REMARK    4  A    between atoms: C7_11  and  C8_12 
REMARK    5  A    between atoms: C10_16  and  N5_17 
REMARK    6  A    between atoms: C11_22  and  N7_23 
ROOT
HETATM    1  C3  UNL     1       5.253   1.542  -0.166  1.00  0.00     0.144 C 
HETATM    2  C4  UNL     1       6.555   1.342  -0.820  1.00  0.00     0.060 C 
HETATM    3  N2  UNL     1       7.576   1.183  -1.357  1.00  0.00    -0.197 NA
ENDROOT
BRANCH   1   4
HETATM    4  C2  UNL     1       4.650   0.211   0.237  1.00  0.00     0.155 C 
BRANCH   4   5
HETATM    5  N1  UNL     1       3.378   0.364   0.878  1.00  0.00    -0.221 N 
HETATM    6  C1  UNL     1       3.362   0.967   2.198  1.00  0.00     0.168 C 
BRANCH   5   7
HETATM    7  C5  UNL     1       2.149  -0.046   0.308  1.00  0.00     0.682 A 
HETATM    8  N3  UNL     1       0.998  -0.002   1.056  1.00  0.00    -0.201 N 
HETATM    9  C6  UNL     1      -0.193  -0.356   0.608  1.00  0.00     0.121 A 
ATOM     10  H3  UNL     1       1.067   0.325   2.020  1.00  0.00     0.183 HD
HETATM   11  C7  UNL     1      -0.332  -0.801  -0.689  1.00  0.00     0.056 A 
HETATM   12  C15 UNL     1       0.808  -0.847  -1.444  1.00  0.00     0.269 A 
HETATM   13  O1  UNL     1       0.749  -1.244  -2.636  1.00  0.00    -0.267 OA
HETATM   14  N10 UNL     1       2.033  -0.476  -0.955  1.00  0.00    -0.155 N 
ATOM     15  H10 UNL     1       2.857  -0.527  -1.553  1.00  0.00     0.187 HD
BRANCH  11  16
HETATM   16  C8  UNL     1      -1.676  -1.192  -1.185  1.00  0.00     0.186 C 
HETATM   17  C9  UNL     1      -2.718  -0.179  -0.794  1.00  0.00     0.066 A 
HETATM   18  N4  UNL     1      -2.971   1.071  -1.260  1.00  0.00    -0.193 N 
HETATM   19  C12 UNL     1      -3.481  -0.715   0.210  1.00  0.00     0.030 A 
HETATM   20  C10 UNL     1      -3.979   1.787  -0.733  1.00  0.00     0.677 A 
ATOM     21  H4  UNL     1      -2.399   1.465  -2.007  1.00  0.00     0.184 HD
HETATM   22  N6  UNL     1      -4.732   1.265   0.253  1.00  0.00    -0.177 N 
HETATM   23  C11 UNL     1      -4.509   0.040   0.734  1.00  0.00     0.124 A 
ATOM     24  H6  UNL     1      -5.493   1.820   0.643  1.00  0.00     0.185 HD
HETATM   25  C13 UNL     1      -3.023  -2.091   0.548  1.00  0.00     0.180 C 
HETATM   26  N8  UNL     1      -2.140  -2.421  -0.572  1.00  0.00    -0.300 N 
HETATM   27  C14 UNL     1      -1.809  -3.729  -0.976  1.00  0.00     0.181 C 
HETATM   28  N9  UNL     1      -1.521  -4.811  -1.296  1.00  0.00    -0.172 NA
BRANCH  20  29
HETATM   29  N5  UNL     1      -4.185   2.974  -1.205  1.00  0.00    -0.234 N 
ATOM     30  H52 UNL     1      -3.614   3.370  -1.952  1.00  0.00     0.174 HD
ATOM     31  H51 UNL     1      -4.950   3.517  -0.805  1.00  0.00     0.174 HD
ENDBRANCH  20  29
BRANCH  23  32
HETATM   32  N7  UNL     1      -5.230  -0.461   1.681  1.00  0.00    -0.385 N 
ATOM     33  H72 UNL     1      -5.990   0.097   2.069  1.00  0.00     0.157 HD
ATOM     34  H71 UNL     1      -5.060  -1.397   2.049  1.00  0.00     0.157 HD
ENDBRANCH  23  32
ENDBRANCH  11  16
ENDBRANCH   5   7
ENDBRANCH   4   5
ENDBRANCH   1   4
TORSDOF 6
