REMARK  4 active torsions:
REMARK  status: ('A' for Active; 'I' for Inactive)
REMARK    1  A    between atoms: C2_2  and  N1_4 
REMARK    2  A    between atoms: N1_4  and  C4_6 
REMARK    3  A    between atoms: C4_6  and  N2_8 
REMARK    4  A    between atoms: N2_8  and  N3_10 
ROOT
HETATM    1  N2  UNL     1       0.085  -0.052  -0.387  1.00  0.00    -0.295 N 
ATOM      2  H2  UNL     1      -0.096  -0.510   0.506  1.00  0.00     0.183 HD
ENDROOT
BRANCH   1   3
HETATM    3  C4  UNL     1      -0.898   0.731  -1.021  1.00  0.00     0.182 C 
HETATM    4  S1  UNL     1      -0.590   1.461  -2.444  1.00  0.00    -0.040 SA
BRANCH   3   5
HETATM    5  N1  UNL     1      -2.161   0.894  -0.431  1.00  0.00    -0.362 N 
ATOM      6  H1  UNL     1      -2.856   1.473  -0.902  1.00  0.00     0.162 HD
BRANCH   5   7
HETATM    7  C2  UNL     1      -2.503   0.271   0.813  1.00  0.00     0.075 C 
HETATM    8  C1  UNL     1      -2.532  -1.226   0.646  1.00  0.00     0.032 C 
HETATM    9  C3  UNL     1      -3.836   0.786   1.353  1.00  0.00     0.032 C 
ENDBRANCH   5   7
ENDBRANCH   3   5
ENDBRANCH   1   3
BRANCH   1  10
HETATM   10  N3  UNL     1       1.337  -0.178  -1.040  1.00  0.00    -0.225 NA
HETATM   11  C5  UNL     1       2.097   0.982  -0.745  1.00  0.00     0.140 C 
HETATM   12  C6  UNL     1       3.089   0.868   0.344  1.00  0.00     0.183 C 
HETATM   13  O1  UNL     1       3.398  -0.413   0.737  1.00  0.00    -0.389 OA
HETATM   14  C7  UNL     1       3.420  -1.216  -0.416  1.00  0.00     0.183 C 
HETATM   15  C8  UNL     1       1.959  -1.426  -0.783  1.00  0.00     0.140 C 
ENDBRANCH   1  10
TORSDOF 4
