REMARK  2 active torsions:
REMARK  status: ('A' for Active; 'I' for Inactive)
REMARK    1  A    between atoms: C5_7  and  C6_8 
REMARK    2  A    between atoms: C6_8  and  O2_9 
ROOT
HETATM    1  O1  UNL     1      -2.308   0.271  -1.723  1.00  0.00    -0.064 OA
HETATM    2  N1  UNL     1      -1.380   0.180  -0.807  1.00  0.00     0.014 N 
HETATM    3  C1  UNL     1      -1.834  -0.256   0.499  1.00  0.00     0.312 C 
HETATM    4  C2  UNL     1      -0.629   0.066   1.394  1.00  0.00     0.044 C 
HETATM    5  C3  UNL     1       0.282   0.872   0.499  1.00  0.00     0.030 C 
HETATM    6  C4  UNL     1      -0.777   1.476  -0.442  1.00  0.00     0.317 C 
HETATM    7  C5  UNL     1       0.954  -0.044  -0.469  1.00  0.00     0.049 C 
HETATM    8  C7  UNL     1      -0.245  -0.667  -1.174  1.00  0.00     0.319 C 
ENDROOT
BRANCH   7   9
HETATM    9  C6  UNL     1       1.853  -1.061   0.149  1.00  0.00     0.171 C 
BRANCH   9  10
HETATM   10  O2  UNL     1       2.847  -0.377   0.848  1.00  0.00    -0.400 OA
ATOM     11  H2  UNL     1       3.420  -1.025   1.242  1.00  0.00     0.209 HD
ENDBRANCH   9  10
ENDBRANCH   7   9
TORSDOF 2
