REMARK  3 active torsions:
REMARK  status: ('A' for Active; 'I' for Inactive)
REMARK    1  A    between atoms: C3_4  and  O1_5 
REMARK    2  A    between atoms: C5_8  and  C6_9 
REMARK    3  A    between atoms: C6_9  and  O2_10 
ROOT
HETATM    1  C1  UNL     1      -2.680   1.009   0.225  1.00  0.00     0.310 C 
HETATM    2  N1  UNL     1      -1.450   0.381  -0.280  1.00  0.00     0.087 N 
HETATM    3  C2  UNL     1      -1.458  -1.021   0.044  1.00  0.00     0.303 C 
HETATM    4  C3  UNL     1      -0.257  -1.654  -0.610  1.00  0.00     0.146 C 
HETATM    5  C4  UNL     1       1.016  -0.933  -0.362  1.00  0.00     0.042 C 
HETATM    6  C5  UNL     1       0.917   0.330   0.393  1.00  0.00     0.040 C 
HETATM    7  C7  UNL     1      -0.337   1.100   0.231  1.00  0.00     0.278 C 
ENDROOT
BRANCH   6   8
HETATM    8  C6  UNL     1       2.082   1.229  -0.038  1.00  0.00     0.170 C 
BRANCH   8   9
HETATM    9  O2  UNL     1       3.295   0.604   0.238  1.00  0.00    -0.400 OA
ATOM     10  H2  UNL     1       4.017   1.161  -0.029  1.00  0.00     0.209 HD
ENDBRANCH   8   9
ENDBRANCH   6   8
BRANCH   4  11
HETATM   11  O1  UNL     1      -0.224  -2.999  -0.223  1.00  0.00    -0.394 OA
ATOM     12  H1  UNL     1       0.533  -3.398  -0.635  1.00  0.00     0.210 HD
ENDBRANCH   4  11
TORSDOF 3
