REMARK  2 active torsions:
REMARK  status: ('A' for Active; 'I' for Inactive)
REMARK    1  A    between atoms: C2_2  and  N1_3 
REMARK    2  A    between atoms: C7_9  and  O2_10 
ROOT
HETATM    1  N1  UNL     1      -0.973  -0.694  -0.227  1.00  0.00     0.092 N 
HETATM    2  C3  UNL     1       0.060  -0.977   0.749  1.00  0.00     0.275 C 
HETATM    3  C4  UNL     1       1.429  -1.027   0.160  1.00  0.00     0.062 C 
HETATM    4  C5  UNL     1       2.138   0.295   0.153  1.00  0.00     0.122 C 
HETATM    5  C6  UNL     1       3.564   0.023  -0.288  1.00  0.00     0.040 C 
HETATM    6  O1  UNL     1       1.508   1.148  -0.755  1.00  0.00    -0.355 OA
HETATM    7  C7  UNL     1       0.266   1.459  -0.212  1.00  0.00     0.285 C 
HETATM    8  C8  UNL     1      -0.788   0.592  -0.858  1.00  0.00     0.332 C 
ENDROOT
BRANCH   1   9
HETATM    9  C2  UNL     1      -2.222  -0.657   0.549  1.00  0.00     0.268 C 
HETATM   10  C1  UNL     1      -3.436  -0.661  -0.356  1.00  0.00     0.037 C 
ENDBRANCH   1   9
BRANCH   7  11
HETATM   11  O2  UNL     1       0.014   2.799  -0.616  1.00  0.00    -0.369 OA
ATOM     12  H2  UNL     1      -0.834   3.011  -0.245  1.00  0.00     0.212 HD
ENDBRANCH   7  11
TORSDOF 2
