REMARK  7 active torsions:
REMARK  status: ('A' for Active; 'I' for Inactive)
REMARK    1  A    between atoms: C2_2  and  O1_3 
REMARK    2  A    between atoms: C2_2  and  C3_5 
REMARK    3  A    between atoms: C2_2  and  C18_25 
REMARK    4  A    between atoms: C3_5  and  N1_6 
REMARK    5  A    between atoms: C5_8  and  N2_9 
REMARK       I    between atoms: N2_9  and  C6_11 
REMARK    6  A    between atoms: C6_11  and  C7_13 
REMARK    7  A    between atoms: C18_25  and  N3_26 
ROOT
HETATM    1  N2  UNL     1       1.432  -0.849  -0.616  1.00  0.00    -0.352 N 
ATOM      2  H2  UNL     1       1.213   0.112  -0.354  1.00  0.00     0.163 HD
HETATM    3  C6  UNL     1       2.779  -1.303  -0.577  1.00  0.00     0.226 C 
HETATM    4  O2  UNL     1       3.017  -2.486  -0.903  1.00  0.00    -0.273 OA
ENDROOT
BRANCH   1   5
HETATM    5  C5  UNL     1       0.380  -1.735  -1.021  1.00  0.00     0.141 C 
HETATM    6  C4  UNL     1      -0.876  -1.690  -0.129  1.00  0.00     0.299 C 
HETATM    7  N1  UNL     1      -1.322  -0.597  -0.902  1.00  0.00     0.095 N 
HETATM    8  C17 UNL     1      -0.535  -1.067  -2.022  1.00  0.00     0.299 C 
BRANCH   7   9
HETATM    9  C3  UNL     1      -2.680  -0.431  -1.249  1.00  0.00     0.311 C 
BRANCH   9  10
HETATM   10  C2  UNL     1      -3.625  -0.075  -0.129  1.00  0.00     0.104 C 
HETATM   11  C1  UNL     1      -3.637  -1.170   0.862  1.00  0.00     0.049 C 
BRANCH  10  12
HETATM   12  O1  UNL     1      -3.136   1.146   0.395  1.00  0.00    -0.387 OA
ATOM     13  H1  UNL     1      -3.128   1.850  -0.242  1.00  0.00     0.210 HD
ENDBRANCH  10  12
BRANCH  10  14
HETATM   14  C18 UNL     1      -4.950   0.173  -0.800  1.00  0.00     0.275 C 
BRANCH  14  15
HETATM   15  N3  UNL     1      -5.993   0.687  -0.002  1.00  0.00    -0.076 N 
HETATM   16  C19 UNL     1      -6.863  -0.386   0.492  1.00  0.00     0.271 C 
HETATM   17  C20 UNL     1      -6.856   1.490  -0.894  1.00  0.00     0.271 C 
HETATM   18  C21 UNL     1      -5.619   1.582   1.062  1.00  0.00     0.271 C 
ENDBRANCH  14  15
ENDBRANCH  10  14
ENDBRANCH   9  10
ENDBRANCH   7   9
ENDBRANCH   1   5
BRANCH   3  19
HETATM   19  C7  UNL     1       3.903  -0.430  -0.165  1.00  0.00     0.042 C 
HETATM   20  C8  UNL     1       3.615   0.022   1.261  1.00  0.00     0.024 C 
HETATM   21  C9  UNL     1       4.765   0.833   1.766  1.00  0.00    -0.012 C 
HETATM   22  C10 UNL     1       4.970   2.058   0.910  1.00  0.00     0.012 C 
HETATM   23  C15 UNL     1       6.017  -0.011   1.750  1.00  0.00     0.012 C 
HETATM   24  C11 UNL     1       5.216   1.595  -0.499  1.00  0.00     0.021 C 
HETATM   25  C12 UNL     1       4.044   0.798  -1.023  1.00  0.00     0.026 C 
HETATM   26  C13 UNL     1       6.505   0.808  -0.542  1.00  0.00     0.178 C 
HETATM   27  F1  UNL     1       6.715   0.358  -1.839  1.00  0.00    -0.249 F 
HETATM   28  C14 UNL     1       6.347  -0.407   0.325  1.00  0.00     0.021 C 
HETATM   29  C16 UNL     1       5.183  -1.211  -0.209  1.00  0.00     0.026 C 
ENDBRANCH   3  19
TORSDOF 7
