REMARK  16 active torsions:
REMARK  status: ('A' for Active; 'I' for Inactive)
REMARK    1  A    between atoms: N1_2  and  C2_4 
REMARK    2  A    between atoms: C3_7  and  N3_8 
REMARK    3  A    between atoms: N3_8  and  C4_10 
REMARK    4  A    between atoms: C4_10  and  C5_11 
REMARK    5  A    between atoms: C8_14  and  N4_15 
REMARK       I    between atoms: N4_15  and  C9_17 
REMARK    6  A    between atoms: C9_17  and  C10_19 
REMARK    7  A    between atoms: C10_19  and  C11_20 
REMARK    8  A    between atoms: C11_20  and  C12_21 
REMARK    9  A    between atoms: C12_21  and  N5_22 
REMARK   10  A    between atoms: C17_29  and  N7_30 
REMARK   11  A    between atoms: N7_30  and  C18_32 
REMARK   12  A    between atoms: C18_32  and  C19_33 
REMARK   13  A    between atoms: C18_32  and  C23_39 
REMARK   14  A    between atoms: C19_33  and  N8_34 
REMARK   15  A    between atoms: N8_34  and  C20_36 
REMARK   16  A    between atoms: C23_39  and  C24_40 
ROOT
HETATM    1  C2  UNL     1      -2.866   2.003   0.671  1.00  0.00     0.706 A 
HETATM    2  N2  UNL     1      -1.631   1.865   0.173  1.00  0.00    -0.022 N 
ATOM      3  H2  UNL     1      -0.969   2.634   0.274  1.00  0.00     0.203 HD
HETATM    4  C3  UNL     1      -1.235   0.738  -0.459  1.00  0.00     0.707 A 
HETATM    5  N6  UNL     1      -2.153  -0.227  -0.555  1.00  0.00    -0.022 N 
ATOM      6  H6  UNL     1      -1.895  -1.094  -1.026  1.00  0.00     0.203 HD
HETATM    7  C17 UNL     1      -3.427  -0.114  -0.053  1.00  0.00     0.707 A 
HETATM    8  N9  UNL     1      -3.775   1.021   0.565  1.00  0.00    -0.022 N 
ATOM      9  H9  UNL     1      -4.713   1.138   0.948  1.00  0.00     0.203 HD
ENDROOT
BRANCH   4  10
HETATM   10  N3  UNL     1      -0.041   0.603  -0.940  1.00  0.00    -0.225 N 
ATOM     11  H3  UNL     1       0.233  -0.258  -1.413  1.00  0.00     0.177 HD
BRANCH  10  12
HETATM   12  C4  UNL     1       0.886   1.680  -0.798  1.00  0.00     0.142 C 
BRANCH  12  13
HETATM   13  C5  UNL     1       2.296   1.304  -1.196  1.00  0.00     0.004 C 
HETATM   14  C6  UNL     1       3.137   2.541  -0.996  1.00  0.00     0.008 C 
HETATM   15  C7  UNL     1       4.565   2.161  -1.300  1.00  0.00     0.026 C 
HETATM   16  C8  UNL     1       5.042   1.358  -0.086  1.00  0.00     0.084 C 
HETATM   17  C15 UNL     1       3.862   0.698   0.595  1.00  0.00     0.026 C 
HETATM   18  C16 UNL     1       2.851   0.181  -0.400  1.00  0.00     0.008 C 
BRANCH  16  19
HETATM   19  N4  UNL     1       5.929   0.358  -0.592  1.00  0.00    -0.356 N 
HETATM   20  C9  UNL     1       7.331   0.355  -0.359  1.00  0.00     0.217 C 
HETATM   21  O1  UNL     1       7.879   1.276   0.332  1.00  0.00    -0.274 OA
ATOM     22  H4  UNL     1       5.533  -0.397  -1.152  1.00  0.00     0.162 HD
BRANCH  20  23
HETATM   23  C10 UNL     1       8.162  -0.710  -0.917  1.00  0.00     0.104 C 
BRANCH  23  24
HETATM   24  C11 UNL     1       9.620  -0.627  -0.663  1.00  0.00     0.039 C 
BRANCH  24  25
HETATM   25  C12 UNL     1      10.053  -0.664   0.762  1.00  0.00     0.271 C 
BRANCH  25  26
HETATM   26  N5  UNL     1      11.522  -0.578   0.858  1.00  0.00     0.080 N 
HETATM   27  C13 UNL     1      11.868  -0.610   2.259  1.00  0.00     0.309 C 
HETATM   28  C14 UNL     1      12.104  -1.761   0.236  1.00  0.00     0.309 C 
ENDBRANCH  25  26
ENDBRANCH  24  25
ENDBRANCH  23  24
ENDBRANCH  20  23
ENDBRANCH  16  19
ENDBRANCH  12  13
ENDBRANCH  10  12
ENDBRANCH   4  10
BRANCH   1  29
HETATM   29  N1  UNL     1      -3.218   3.086   1.268  1.00  0.00    -0.229 N 
HETATM   30  C1  UNL     1      -4.514   3.316   1.828  1.00  0.00     0.165 C 
ATOM     31  H1  UNL     1      -2.526   3.831   1.348  1.00  0.00     0.177 HD
ENDBRANCH   1  29
BRANCH   7  32
HETATM   32  N7  UNL     1      -4.238  -1.092  -0.194  1.00  0.00    -0.219 N 
ATOM     33  H7  UNL     1      -3.855  -1.900  -0.684  1.00  0.00     0.178 HD
BRANCH  32  34
HETATM   34  C18 UNL     1      -5.590  -1.232   0.224  1.00  0.00     0.120 C 
BRANCH  34  35
HETATM   35  C19 UNL     1      -6.472  -1.618  -0.968  1.00  0.00     0.140 C 
BRANCH  35  36
HETATM   36  N8  UNL     1      -6.405  -0.628  -2.008  1.00  0.00    -0.416 N 
ATOM     37  H8  UNL     1      -5.959  -0.836  -2.902  1.00  0.00     0.153 HD
BRANCH  36  38
HETATM   38  C20 UNL     1      -6.967   0.627  -1.761  1.00  0.00     0.068 C 
HETATM   39  C21 UNL     1      -8.431   0.695  -1.511  1.00  0.00     0.031 C 
HETATM   40  C22 UNL     1      -6.612   1.555  -2.916  1.00  0.00     0.031 C 
ENDBRANCH  36  38
ENDBRANCH  35  36
ENDBRANCH  34  35
BRANCH  34  41
HETATM   41  C23 UNL     1      -5.681  -2.358   1.234  1.00  0.00     0.065 C 
BRANCH  41  42
HETATM   42  C24 UNL     1      -7.046  -2.586   1.748  1.00  0.00    -0.056 A 
HETATM   43  C25 UNL     1      -7.906  -3.526   1.221  1.00  0.00     0.007 A 
HETATM   44  C26 UNL     1      -9.174  -3.720   1.718  1.00  0.00     0.001 A 
HETATM   45  C27 UNL     1      -9.658  -2.977   2.782  1.00  0.00     0.000 A 
HETATM   46  C28 UNL     1      -8.806  -2.044   3.306  1.00  0.00     0.001 A 
HETATM   47  C29 UNL     1      -7.538  -1.837   2.824  1.00  0.00     0.007 A 
ENDBRANCH  41  42
ENDBRANCH  34  41
ENDBRANCH  32  34
ENDBRANCH   7  32
TORSDOF 16
