REMARK  12 active torsions:
REMARK  status: ('A' for Active; 'I' for Inactive)
REMARK    1  A    between atoms: N3_6  and  C3_8 
REMARK    2  A    between atoms: C6_11  and  C7_12 
REMARK    3  A    between atoms: C7_12  and  O1_13 
REMARK    4  A    between atoms: C10_17  and  C11_18 
REMARK    5  A    between atoms: C11_18  and  N4_19 
REMARK    6  A    between atoms: N4_19  and  O2_21 
REMARK    7  A    between atoms: O2_21  and  C12_22 
REMARK    8  A    between atoms: C12_22  and  C13_23 
REMARK    9  A    between atoms: C13_23  and  O3_24 
REMARK   10  A    between atoms: O3_24  and  S1_25 
REMARK   11  A    between atoms: S1_25  and  N5_26 
REMARK   12  A    between atoms: C14_31  and  O6_32 
ROOT
HETATM    1  N1  UNL     1      -2.695  -5.113   0.316  1.00  0.00    -0.063 NA
HETATM    2  C1  UNL     1      -1.615  -4.206   0.114  1.00  0.00     0.195 A 
HETATM    3  N2  UNL     1      -1.776  -2.915  -0.162  1.00  0.00    -0.316 N 
ATOM      4  H2  UNL     1      -2.729  -2.559  -0.232  1.00  0.00     0.170 HD
HETATM    5  C2  UNL     1      -0.764  -2.045  -0.356  1.00  0.00     0.119 A 
HETATM    6  N3  UNL     1      -0.909  -0.811  -0.620  1.00  0.00    -0.371 N 
ATOM      7  H3  UNL     1      -0.057  -0.265  -0.743  1.00  0.00     0.161 HD
HETATM    8  C10 UNL     1       0.514  -2.555  -0.256  1.00  0.00     0.076 A 
HETATM    9  C14 UNL     1       0.723  -3.887   0.029  1.00  0.00     0.158 A 
HETATM   10  N6  UNL     1      -0.355  -4.698   0.211  1.00  0.00    -0.310 N 
ATOM     11  H6  UNL     1      -0.214  -5.686   0.422  1.00  0.00     0.170 HD
ENDROOT
BRANCH   8  12
HETATM   12  C11 UNL     1       1.681  -1.680  -0.452  1.00  0.00     0.133 C 
BRANCH  12  13
HETATM   13  N4  UNL     1       1.514  -0.429  -0.719  1.00  0.00    -0.277 N 
ATOM     14  H4  UNL     1       0.568  -0.054  -0.793  1.00  0.00     0.193 HD
BRANCH  13  15
HETATM   15  O2  UNL     1       2.583   0.402  -0.905  1.00  0.00    -0.279 OA
BRANCH  15  16
HETATM   16  C12 UNL     1       3.567   0.587   0.107  1.00  0.00     0.229 C 
BRANCH  16  17
HETATM   17  C13 UNL     1       4.615   1.552  -0.383  1.00  0.00     0.220 C 
BRANCH  17  18
HETATM   18  O3  UNL     1       5.575   1.736   0.599  1.00  0.00    -0.258 OA
BRANCH  18  19
HETATM   19  S1  UNL     1       6.708   2.822  -0.017  1.00  0.00     0.355 S 
HETATM   20  O4  UNL     1       6.785   2.566  -1.513  1.00  0.00    -0.176 OA
HETATM   21  O5  UNL     1       6.277   4.246   0.203  1.00  0.00    -0.176 OA
BRANCH  19  22
HETATM   22  N5  UNL     1       8.258   2.609   0.662  1.00  0.00    -0.306 N 
ATOM     23  H52 UNL     1       8.461   1.897   1.364  1.00  0.00     0.171 HD
ATOM     24  H51 UNL     1       8.943   3.266   0.289  1.00  0.00     0.171 HD
ENDBRANCH  19  22
ENDBRANCH  18  19
ENDBRANCH  17  18
ENDBRANCH  16  17
ENDBRANCH  15  16
ENDBRANCH  13  15
ENDBRANCH  12  13
ENDBRANCH   8  12
BRANCH   9  25
HETATM   25  O6  UNL     1       1.974  -4.460   0.143  1.00  0.00    -0.345 OA
ATOM     26  H6  UNL     1       2.118  -5.378   0.339  1.00  0.00     0.219 HD
ENDBRANCH   9  25
BRANCH   6  27
HETATM   27  C3  UNL     1      -2.145  -0.113  -0.762  1.00  0.00     0.083 C 
HETATM   28  C4  UNL     1      -2.970  -0.056   0.486  1.00  0.00     0.025 C 
HETATM   29  C5  UNL     1      -4.297   0.558   0.155  1.00  0.00     0.009 C 
HETATM   30  C6  UNL     1      -4.236   1.842  -0.579  1.00  0.00     0.009 C 
HETATM   31  C8  UNL     1      -3.073   2.059  -1.458  1.00  0.00     0.009 C 
HETATM   32  C9  UNL     1      -1.827   1.340  -1.106  1.00  0.00     0.025 C 
BRANCH  30  33
HETATM   33  C7  UNL     1      -4.425   2.998   0.414  1.00  0.00     0.168 C 
BRANCH  33  34
HETATM   34  O1  UNL     1      -5.698   2.777   0.987  1.00  0.00    -0.400 OA
ATOM     35  H1  UNL     1      -5.815   3.492   1.601  1.00  0.00     0.209 HD
ENDBRANCH  33  34
ENDBRANCH  30  33
ENDBRANCH   6  27
TORSDOF 12
