REMARK  13 active torsions:
REMARK  status: ('A' for Active; 'I' for Inactive)
REMARK    1  A    between atoms: C2_2  and  N1_3 
REMARK    2  A    between atoms: N2_6  and  C5_7 
REMARK    3  A    between atoms: C5_7  and  C6_8 
REMARK    4  A    between atoms: C6_8  and  C7_9 
REMARK    5  A    between atoms: C7_9  and  N3_10 
REMARK    6  A    between atoms: N3_10  and  C8_12 
REMARK    7  A    between atoms: C8_12  and  C9_14 
REMARK    8  A    between atoms: C11_16  and  N4_17 
REMARK       I    between atoms: N4_17  and  C12_19 
REMARK    9  A    between atoms: C14_22  and  N5_23 
REMARK       I    between atoms: N5_23  and  C15_25 
REMARK   10  A    between atoms: C15_25  and  C16_27 
REMARK   11  A    between atoms: C16_27  and  N6_28 
REMARK   12  A    between atoms: C22_35  and  O4_36 
REMARK   13  A    between atoms: O4_36  and  C23_37 
ROOT
HETATM    1  C9  UNL     1      -0.914  -0.532   0.452  1.00  0.00     0.037 A 
HETATM    2  C10 UNL     1      -1.243   0.837   0.526  1.00  0.00     0.049 A 
HETATM    3  C11 UNL     1      -2.541   1.253   0.413  1.00  0.00     0.062 A 
HETATM    4  C14 UNL     1      -3.535   0.275   0.222  1.00  0.00     0.064 A 
HETATM    5  C21 UNL     1      -3.179  -1.033   0.153  1.00  0.00     0.069 A 
HETATM    6  C22 UNL     1      -1.835  -1.515   0.265  1.00  0.00     0.085 A 
ENDROOT
BRANCH   1   7
HETATM    7  C8  UNL     1       0.510  -0.873   0.602  1.00  0.00     0.109 C 
HETATM    8  S1  UNL     1       1.038  -1.196   2.131  1.00  0.00    -0.060 SA
BRANCH   7   9
HETATM    9  N3  UNL     1       1.398  -0.886  -0.498  1.00  0.00    -0.380 N 
ATOM     10  H3  UNL     1       1.073  -0.658  -1.438  1.00  0.00     0.160 HD
BRANCH   9  11
HETATM   11  C7  UNL     1       2.786  -1.233  -0.252  1.00  0.00     0.122 C 
BRANCH  11  12
HETATM   12  C6  UNL     1       3.584  -1.196  -1.519  1.00  0.00     0.039 C 
BRANCH  12  13
HETATM   13  C5  UNL     1       5.037  -1.552  -1.294  1.00  0.00     0.118 C 
BRANCH  13  14
HETATM   14  N2  UNL     1       5.705  -0.676  -0.397  1.00  0.00    -0.409 N 
HETATM   15  C4  UNL     1       5.905   0.647  -0.867  1.00  0.00     0.147 C 
HETATM   16  C3  UNL     1       6.728   1.513   0.035  1.00  0.00     0.291 C 
HETATM   17  N1  UNL     1       7.925   0.858   0.510  1.00  0.00     0.091 N 
HETATM   18  C29 UNL     1       8.048  -0.490  -0.006  1.00  0.00     0.291 C 
HETATM   19  C28 UNL     1       6.776  -1.221   0.358  1.00  0.00     0.147 C 
BRANCH  17  20
HETATM   20  C2  UNL     1       9.112   1.657   0.285  1.00  0.00     0.268 C 
HETATM   21  C1  UNL     1      10.331   0.956   0.794  1.00  0.00     0.037 C 
ENDBRANCH  17  20
ENDBRANCH  13  14
ENDBRANCH  12  13
ENDBRANCH  11  12
ENDBRANCH   9  11
ENDBRANCH   7   9
ENDBRANCH   1   7
BRANCH   6  22
HETATM   22  O4  UNL     1      -1.647  -2.831   0.178  1.00  0.00    -0.345 OA
BRANCH  22  23
HETATM   23  C23 UNL     1      -0.742  -3.788   0.183  1.00  0.00     0.129 C 
HETATM   24  C24 UNL     1      -0.873  -4.768   1.364  1.00  0.00     0.032 C 
HETATM   25  C25 UNL     1      -0.504  -6.132   0.879  1.00  0.00     0.002 C 
HETATM   26  C26 UNL     1      -0.151  -5.961  -0.564  1.00  0.00     0.002 C 
HETATM   27  C27 UNL     1      -0.822  -4.722  -1.047  1.00  0.00     0.032 C 
ENDBRANCH  22  23
ENDBRANCH   6  22
BRANCH   3  28
HETATM   28  N4  UNL     1      -2.924   2.605   0.402  1.00  0.00    -0.326 N 
HETATM   29  C12 UNL     1      -2.120   3.691   0.782  1.00  0.00     0.218 C 
HETATM   30  C13 UNL     1      -2.651   5.108   0.718  1.00  0.00     0.117 C 
HETATM   31  O1  UNL     1      -0.945   3.618   1.194  1.00  0.00    -0.274 OA
ATOM     32  H4  UNL     1      -3.872   2.816   0.090  1.00  0.00     0.169 HD
ENDBRANCH   3  28
BRANCH   4  33
HETATM   33  N5  UNL     1      -4.882   0.691   0.188  1.00  0.00    -0.324 N 
HETATM   34  C15 UNL     1      -6.022  -0.025  -0.195  1.00  0.00     0.250 C 
HETATM   35  O2  UNL     1      -5.971  -1.197  -0.575  1.00  0.00    -0.271 OA
ATOM     36  H5  UNL     1      -5.050   1.652   0.485  1.00  0.00     0.169 HD
BRANCH  34  37
HETATM   37  C16 UNL     1      -7.387   0.590  -0.163  1.00  0.00     0.375 C 
BRANCH  37  38
HETATM   38  N6  UNL     1      -7.382   1.974   0.232  1.00  0.00     0.101 N 
HETATM   39  C17 UNL     1      -8.798   2.346   0.425  1.00  0.00     0.299 C 
HETATM   40  C18 UNL     1      -8.906   3.852   0.617  1.00  0.00     0.198 C 
HETATM   41  O3  UNL     1      -8.356   4.577  -0.411  1.00  0.00    -0.388 OA
HETATM   42  C19 UNL     1      -7.055   4.189  -0.740  1.00  0.00     0.198 C 
HETATM   43  C20 UNL     1      -7.013   2.716  -1.008  1.00  0.00     0.299 C 
ENDBRANCH  37  38
ENDBRANCH  34  37
ENDBRANCH   4  33
TORSDOF 13
