REMARK  5 active torsions:
REMARK  status: ('A' for Active; 'I' for Inactive)
REMARK       I    between atoms: C1_2  and  N2_4 
REMARK    1  A    between atoms: N2_4  and  C2_6 
REMARK    2  A    between atoms: C5_11  and  N4_12 
REMARK    3  A    between atoms: N4_12  and  C6_14 
REMARK    4  A    between atoms: C6_14  and  N5_15 
REMARK    5  A    between atoms: C6_14  and  C7_19 
ROOT
HETATM    1  C2  UNL     1       1.697  -0.834  -0.141  1.00  0.00     0.687 A 
HETATM    2  N3  UNL     1       1.780  -0.248   1.065  1.00  0.00    -0.201 N 
ATOM      3  H3  UNL     1       2.626  -0.376   1.620  1.00  0.00     0.183 HD
HETATM    4  C3  UNL     1       0.783   0.500   1.561  1.00  0.00     0.110 A 
HETATM    5  C4  UNL     1      -0.379   0.700   0.844  1.00  0.00     0.066 A 
HETATM    6  C5  UNL     1      -0.478   0.105  -0.394  1.00  0.00     0.120 A 
HETATM    7  N7  UNL     1       0.572  -0.645  -0.842  1.00  0.00    -0.177 N 
ATOM      8  H7  UNL     1       0.495  -1.084  -1.759  1.00  0.00     0.186 HD
ENDROOT
BRANCH   6   9
HETATM    9  N4  UNL     1      -1.510   0.235  -1.121  1.00  0.00    -0.341 N 
ATOM     10  H4  UNL     1      -1.467  -0.252  -2.016  1.00  0.00     0.163 HD
BRANCH   9  11
HETATM   11  C6  UNL     1      -2.709   0.945  -0.891  1.00  0.00     0.373 C 
BRANCH  11  12
HETATM   12  N5  UNL     1      -2.511   2.369  -0.660  1.00  0.00    -0.050 N 
ATOM     13  H53 UNL     1      -1.851   2.522   0.102  1.00  0.00     0.277 HD
ATOM     14  H52 UNL     1      -1.986   2.788  -1.427  1.00  0.00     0.277 HD
ATOM     15  H51 UNL     1      -3.377   2.882  -0.494  1.00  0.00     0.277 HD
ENDBRANCH  11  12
BRANCH  11  16
HETATM   16  C7  UNL     1      -3.594   0.333   0.147  1.00  0.00     0.281 C 
HETATM   17  N6  UNL     1      -3.232  -0.869   0.773  1.00  0.00    -0.059 NA
HETATM   18  O2  UNL     1      -4.663   0.923   0.440  1.00  0.00    -0.273 OA
ENDBRANCH  11  16
ENDBRANCH   9  11
ENDBRANCH   6   9
BRANCH   1  19
HETATM   19  N2  UNL     1       2.680  -1.551  -0.590  1.00  0.00    -0.143 N 
HETATM   20  C1  UNL     1       3.851  -1.719   0.197  1.00  0.00     0.346 C 
HETATM   21  N1  UNL     1       5.013  -0.932   0.042  1.00  0.00    -0.039 NA
HETATM   22  O1  UNL     1       3.875  -2.614   1.089  1.00  0.00    -0.250 OA
ATOM     23  H2  UNL     1       2.613  -1.994  -1.507  1.00  0.00     0.188 HD
ENDBRANCH   1  19
TORSDOF 5
