REMARK  5 active torsions:
REMARK  status: ('A' for Active; 'I' for Inactive)
REMARK    1  A    between atoms: C3_3  and  N1_4 
REMARK       I    between atoms: N1_4  and  C4_6 
REMARK    2  A    between atoms: C4_6  and  C5_8 
REMARK    3  A    between atoms: N2_11  and  C8_12 
REMARK    4  A    between atoms: C9_13  and  C10_14 
REMARK    5  A    between atoms: C18_23  and  C19_24 
ROOT
HETATM    1  C1  UNL     1       4.118  -3.512  -0.475  1.00  0.00     0.015 C 
HETATM    2  C2  UNL     1       3.937  -2.341  -0.267  1.00  0.00    -0.086 C 
HETATM    3  C3  UNL     1       3.714  -0.928   0.011  1.00  0.00     0.096 C 
HETATM    4  C16 UNL     1       4.458  -0.528   1.256  1.00  0.00     0.045 C 
HETATM    5  C17 UNL     1       4.947   0.887   1.218  1.00  0.00     0.013 C 
HETATM    6  C18 UNL     1       5.829   1.196   0.052  1.00  0.00     0.051 C 
HETATM    7  C20 UNL     1       5.655   0.153  -1.003  1.00  0.00     0.013 C 
HETATM    8  C21 UNL     1       4.155  -0.102  -1.187  1.00  0.00     0.045 C 
ENDROOT
BRANCH   3   9
HETATM    9  N1  UNL     1       2.288  -0.739   0.261  1.00  0.00    -0.341 N 
HETATM   10  C4  UNL     1       1.321  -1.044  -0.731  1.00  0.00     0.225 C 
HETATM   11  O1  UNL     1       1.676  -1.482  -1.851  1.00  0.00    -0.273 OA
ATOM     12  H1  UNL     1       1.981  -0.381   1.166  1.00  0.00     0.164 HD
BRANCH  10  13
HETATM   13  C5  UNL     1      -0.091  -0.843  -0.429  1.00  0.00     0.101 C 
HETATM   14  C6  UNL     1      -1.045  -1.066  -1.554  1.00  0.00     0.060 C 
HETATM   15  C7  UNL     1      -2.292  -0.331  -1.136  1.00  0.00     0.064 C 
HETATM   16  N2  UNL     1      -1.895   0.608  -0.164  1.00  0.00    -0.370 N 
HETATM   17  C15 UNL     1      -0.433   0.623  -0.090  1.00  0.00     0.141 C 
BRANCH  16  18
HETATM   18  C8  UNL     1      -2.521   0.695   1.069  1.00  0.00     0.086 C 
HETATM   19  C9  UNL     1      -3.804   1.300   1.298  1.00  0.00    -0.005 C 
BRANCH  19  20
HETATM   20  C10 UNL     1      -5.102   0.996   0.733  1.00  0.00     0.013 C 
HETATM   21  C11 UNL     1      -5.420   1.156  -0.689  1.00  0.00     0.035 C 
HETATM   22  C12 UNL     1      -6.062  -0.106  -1.278  1.00  0.00     0.168 C 
HETATM   23  O2  UNL     1      -7.237  -0.416  -0.624  1.00  0.00    -0.391 OA
HETATM   24  C13 UNL     1      -7.076  -0.433   0.763  1.00  0.00     0.168 C 
HETATM   25  C14 UNL     1      -5.610  -0.405   1.140  1.00  0.00     0.035 C 
ENDBRANCH  19  20
ENDBRANCH  16  18
ENDBRANCH  10  13
ENDBRANCH   3   9
BRANCH   6  26
HETATM   26  C19 UNL     1       7.292   1.244   0.433  1.00  0.00     0.357 C 
HETATM   27  F1  UNL     1       7.755   0.068   0.954  1.00  0.00    -0.214 F 
HETATM   28  F2  UNL     1       8.021   1.620  -0.663  1.00  0.00    -0.214 F 
ENDBRANCH   6  26
TORSDOF 5
