REMARK  4 active torsions:
REMARK  status: ('A' for Active; 'I' for Inactive)
REMARK    1  A    between atoms: N1_2  and  C1_4 
REMARK    2  A    between atoms: C4_7  and  C5_8 
REMARK    3  A    between atoms: N2_9  and  N3_11 
REMARK    4  A    between atoms: C8_15  and  C9_16 
ROOT
HETATM    1  N3  UNL     1       2.547   1.700   1.987  1.00  0.00    -0.279 N 
ATOM      2  H3  UNL     1       2.926   2.400   2.624  1.00  0.00     0.189 HD
HETATM    3  C6  UNL     1       1.258   1.475   1.968  1.00  0.00     0.186 A 
HETATM    4  C7  UNL     1       0.647   0.551   1.146  1.00  0.00     0.087 A 
HETATM    5  C8  UNL     1      -0.700   0.622   1.430  1.00  0.00     0.041 A 
HETATM    6  N4  UNL     1      -0.827   1.571   2.396  1.00  0.00    -0.263 N 
ATOM      7  H4  UNL     1      -1.708   1.858   2.823  1.00  0.00     0.194 HD
HETATM    8  O3  UNL     1       0.340   2.057   2.694  1.00  0.00    -0.218 OA
ENDROOT
BRANCH   1   9
HETATM    9  N2  UNL     1       3.407   0.996   1.149  1.00  0.00    -0.309 N 
HETATM   10  C5  UNL     1       4.324   1.639   0.522  1.00  0.00     0.126 C 
ATOM     11  H2  UNL     1       3.310  -0.013   1.035  1.00  0.00     0.186 HD
BRANCH  10  12
HETATM   12  C4  UNL     1       5.207   0.850  -0.351  1.00  0.00     0.024 A 
HETATM   13  C3  UNL     1       6.245   1.319  -1.111  1.00  0.00     0.023 A 
HETATM   14  C2  UNL     1       6.926   0.426  -1.839  1.00  0.00     0.045 A 
HETATM   15  C1  UNL     1       6.528  -0.883  -1.763  1.00  0.00     0.144 A 
HETATM   16  S1  UNL     1       5.216  -0.820  -0.677  1.00  0.00    -0.065 SA
BRANCH  15  17
HETATM   17  N1  UNL     1       7.106  -2.015  -2.452  1.00  0.00    -0.108 N 
HETATM   18  O1  UNL     1       8.061  -1.841  -3.200  1.00  0.00    -0.531 OA
HETATM   19  O2  UNL     1       6.570  -3.245  -2.247  1.00  0.00    -0.531 OA
ENDBRANCH  15  17
ENDBRANCH  10  12
ENDBRANCH   1   9
BRANCH   5  20
HETATM   20  C9  UNL     1      -1.794  -0.167   0.818  1.00  0.00     0.037 C 
HETATM   21  C10 UNL     1      -2.761   0.788   0.187  1.00  0.00     0.011 C 
HETATM   22  C11 UNL     1      -2.966   0.431  -1.263  1.00  0.00     0.001 C 
HETATM   23  C12 UNL     1      -4.415   0.105  -1.515  1.00  0.00     0.000 C 
HETATM   24  C13 UNL     1      -5.012  -0.803  -0.491  1.00  0.00     0.000 C 
HETATM   25  C14 UNL     1      -4.042  -1.780   0.104  1.00  0.00     0.000 C 
HETATM   26  C15 UNL     1      -3.817  -1.464   1.550  1.00  0.00     0.001 C 
HETATM   27  C16 UNL     1      -2.428  -1.033   1.878  1.00  0.00     0.011 C 
ENDBRANCH   5  20
TORSDOF 4
