REMARK  2 active torsions:
REMARK  status: ('A' for Active; 'I' for Inactive)
REMARK    1  A    between atoms: N1_1  and  C1_4 
REMARK    2  A    between atoms: C2_10  and  N4_11 
ROOT
HETATM    1  C1  UNL     1      -0.078   0.618  -0.020  1.00  0.00     0.149 A 
HETATM    2  N2  UNL     1      -1.282   0.148  -0.225  1.00  0.00    -0.277 N 
ATOM      3  H2  UNL     1      -2.069   0.781  -0.368  1.00  0.00     0.189 HD
HETATM    4  N3  UNL     1      -1.458  -1.146  -0.243  1.00  0.00    -0.266 N 
ATOM      5  H3  UNL     1      -2.327  -1.660  -0.389  1.00  0.00     0.195 HD
HETATM    6  S1  UNL     1       0.079  -1.769   0.031  1.00  0.00     0.023 SA
HETATM    7  C2  UNL     1       0.930  -0.298   0.165  1.00  0.00     0.131 A 
ENDROOT
BRANCH   1   8
HETATM    8  N1  UNL     1       0.172   1.923   0.011  1.00  0.00    -0.382 N 
ATOM      9  H12 UNL     1      -0.576   2.603  -0.126  1.00  0.00     0.157 HD
ATOM     10  H11 UNL     1       1.110   2.289   0.171  1.00  0.00     0.157 HD
ENDBRANCH   1   8
BRANCH   7  11
HETATM   11  N4  UNL     1       2.198  -0.054   0.384  1.00  0.00    -0.389 N 
ATOM     12  H42 UNL     1       2.707   0.826   0.464  1.00  0.00     0.157 HD
ATOM     13  H41 UNL     1       2.946  -0.734   0.521  1.00  0.00     0.157 HD
ENDBRANCH   7  11
TORSDOF 2
