REMARK  6 active torsions:
REMARK  status: ('A' for Active; 'I' for Inactive)
REMARK    1  A    between atoms: C2_2  and  C3_3 
REMARK    2  A    between atoms: C3_3  and  N1_4 
REMARK    3  A    between atoms: C4_5  and  N2_6 
REMARK    4  A    between atoms: C7_14  and  N4_15 
REMARK    5  A    between atoms: N4_15  and  N5_17 
REMARK    6  A    between atoms: N5_17  and  O2_19 
ROOT
HETATM    1  N1  UNL     1       1.090   0.524  -0.234  1.00  0.00    -0.164 N 
HETATM    2  C4  UNL     1       1.026   1.285  -1.342  1.00  0.00     0.682 A 
HETATM    3  N3  UNL     1      -0.173   1.620  -1.901  1.00  0.00    -0.155 N 
ATOM      4  H3  UNL     1      -0.188   2.198  -2.741  1.00  0.00     0.187 HD
HETATM    5  C5  UNL     1      -1.336   1.203  -1.366  1.00  0.00     0.277 A 
HETATM    6  O1  UNL     1      -2.439   1.515  -1.885  1.00  0.00    -0.266 OA
HETATM    7  C6  UNL     1      -1.299   0.433  -0.245  1.00  0.00     0.122 A 
HETATM    8  C7  UNL     1      -2.479  -0.008   0.324  1.00  0.00     0.142 A 
HETATM    9  N6  UNL     1      -2.364  -0.766   1.432  1.00  0.00    -0.337 N 
ATOM     10  H6  UNL     1      -3.213  -1.110   1.881  1.00  0.00     0.168 HD
HETATM   11  C8  UNL     1      -1.171  -1.088   1.971  1.00  0.00     0.183 A 
HETATM   12  N7  UNL     1      -0.023  -0.658   1.416  1.00  0.00    -0.337 N 
ATOM     13  H7  UNL     1       0.873  -0.908   1.834  1.00  0.00     0.168 HD
HETATM   14  C9  UNL     1      -0.064   0.100   0.312  1.00  0.00     0.144 A 
ENDROOT
BRANCH   8  15
HETATM   15  N4  UNL     1      -3.622   0.302  -0.195  1.00  0.00    -0.265 N 
ATOM     16  H4  UNL     1      -3.677   0.878  -1.035  1.00  0.00     0.190 HD
BRANCH  15  17
HETATM   17  N5  UNL     1      -4.779  -0.174   0.427  1.00  0.00    -0.208 N 
ATOM     18  H5  UNL     1      -5.082  -1.131   0.244  1.00  0.00     0.215 HD
BRANCH  17  19
HETATM   19  O2  UNL     1      -5.457   0.543   1.206  1.00  0.00    -0.274 OA
ATOM     20  H2  UNL     1      -6.244   0.219   1.629  1.00  0.00     0.246 HD
ENDBRANCH  17  19
ENDBRANCH  15  17
ENDBRANCH   8  15
BRANCH   1  21
HETATM   21  C3  UNL     1       2.389   0.182   0.342  1.00  0.00     0.176 C 
BRANCH  21  22
HETATM   22  C2  UNL     1       2.899  -1.084  -0.241  1.00  0.00    -0.016 C 
HETATM   23  C1  UNL     1       3.136  -2.110   0.554  1.00  0.00     0.008 C 
ENDBRANCH  21  22
ENDBRANCH   1  21
BRANCH   2  24
HETATM   24  N2  UNL     1       2.137   1.686  -1.858  1.00  0.00    -0.234 N 
ATOM     25  H22 UNL     1       3.033   1.436  -1.440  1.00  0.00     0.174 HD
ATOM     26  H21 UNL     1       2.088   2.263  -2.698  1.00  0.00     0.174 HD
ENDBRANCH   2  24
TORSDOF 6
