REMARK  4 active torsions:
REMARK  status: ('A' for Active; 'I' for Inactive)
REMARK    1  A    between atoms: O1_2  and  C2_3 
REMARK    2  A    between atoms: C2_3  and  C3_5 
REMARK    3  A    between atoms: C4_6  and  N1_7 
REMARK    4  A    between atoms: C8_16  and  N4_17 
ROOT
HETATM    1  C3  UNL     1       0.524   0.397   0.157  1.00  0.00     0.125 A 
HETATM    2  C4  UNL     1      -0.786   0.709   0.036  1.00  0.00     0.144 A 
HETATM    3  N3  UNL     1      -1.201   2.026   0.145  1.00  0.00    -0.175 N 
ATOM      4  H3  UNL     1      -2.191   2.254   0.051  1.00  0.00     0.186 HD
HETATM    5  C8  UNL     1      -0.316   3.001   0.372  1.00  0.00     0.678 A 
HETATM    6  N5  UNL     1       0.987   2.698   0.496  1.00  0.00    -0.178 N 
ATOM      7  H5  UNL     1       1.656   3.448   0.671  1.00  0.00     0.185 HD
HETATM    8  C9  UNL     1       1.433   1.440   0.397  1.00  0.00     0.151 A 
HETATM    9  N6  UNL     1       2.841   1.146   0.535  1.00  0.00    -0.081 NA
ENDROOT
BRANCH   2  10
HETATM   10  N1  UNL     1      -1.783  -0.279  -0.147  1.00  0.00    -0.321 N 
HETATM   11  C5  UNL     1      -2.501  -1.175   0.709  1.00  0.00     0.139 A 
HETATM   12  C6  UNL     1      -3.238  -1.762  -0.451  1.00  0.00     0.096 A 
HETATM   13  C7  UNL     1      -2.483  -0.788  -1.257  1.00  0.00     0.080 A 
HETATM   14  N2  UNL     1      -2.518  -0.550  -2.546  1.00  0.00    -0.389 N 
ATOM     15  H22 UNL     1      -1.995   0.125  -3.104  1.00  0.00     0.157 HD
ATOM     16  H21 UNL     1      -3.025  -0.919  -3.350  1.00  0.00     0.157 HD
ENDBRANCH   2  10
BRANCH   1  17
HETATM   17  C2  UNL     1       1.024  -0.942   0.021  1.00  0.00     0.300 C 
HETATM   18  O2  UNL     1       0.354  -1.964  -0.202  1.00  0.00    -0.259 OA
BRANCH  17  19
HETATM   19  O1  UNL     1       2.401  -1.145   0.146  1.00  0.00    -0.322 OA
HETATM   20  C1  UNL     1       2.927  -2.438   0.019  1.00  0.00     0.213 C 
ENDBRANCH  17  19
ENDBRANCH   1  17
BRANCH   5  21
HETATM   21  N4  UNL     1      -0.705   4.233   0.474  1.00  0.00    -0.234 N 
ATOM     22  H42 UNL     1      -1.694   4.463   0.380  1.00  0.00     0.174 HD
ATOM     23  H41 UNL     1      -0.029   4.977   0.647  1.00  0.00     0.174 HD
ENDBRANCH   5  21
TORSDOF 4
