REMARK  7 active torsions:
REMARK  status: ('A' for Active; 'I' for Inactive)
REMARK    1  A    between atoms: C2_3  and  C3_4 
REMARK    2  A    between atoms: C3_4  and  C4_5 
REMARK    3  A    between atoms: C4_5  and  O1_6 
REMARK    4  A    between atoms: C4_5  and  N2_8 
REMARK    5  A    between atoms: N2_8  and  N3_10 
REMARK    6  A    between atoms: C5_12  and  C6_13 
REMARK    7  A    between atoms: C10_22  and  N7_23 
ROOT
HETATM    1  N1  UNL     1       4.977   1.713   0.470  1.00  0.00    -0.192 NA
HETATM    2  C1  UNL     1       4.960   0.609   0.124  1.00  0.00     0.088 C 
HETATM    3  C2  UNL     1       4.988  -0.742  -0.303  1.00  0.00     0.098 C 
ENDROOT
BRANCH   3   4
HETATM    4  C3  UNL     1       4.040  -1.607  -0.465  1.00  0.00     0.068 C 
BRANCH   4   5
HETATM    5  C4  UNL     1       2.625  -1.470  -0.259  1.00  0.00     0.155 C 
BRANCH   5   6
HETATM    6  O1  UNL     1       1.912  -2.534  -0.511  1.00  0.00    -0.345 OA
ATOM      7  H1  UNL     1       0.976  -2.443  -0.375  1.00  0.00     0.219 HD
ENDBRANCH   5   6
BRANCH   5   8
HETATM    8  N2  UNL     1       1.936  -0.336   0.178  1.00  0.00    -0.281 N 
ATOM      9  H2  UNL     1       2.444   0.523   0.389  1.00  0.00     0.189 HD
BRANCH   8  10
HETATM   10  N3  UNL     1       0.520  -0.385   0.327  1.00  0.00    -0.308 N 
HETATM   11  C5  UNL     1      -0.167   0.574  -0.194  1.00  0.00     0.140 C 
ATOM     12  H3  UNL     1       0.067  -1.150   0.827  1.00  0.00     0.186 HD
BRANCH  11  13
HETATM   13  C6  UNL     1      -1.623   0.500  -0.027  1.00  0.00     0.094 A 
HETATM   14  N4  UNL     1      -2.186  -0.534   0.645  1.00  0.00    -0.342 N 
HETATM   15  C7  UNL     1      -3.513  -0.638   0.819  1.00  0.00     0.130 A 
ATOM     16  H4  UNL     1      -1.580  -1.258   1.032  1.00  0.00     0.167 HD
HETATM   17  C8  UNL     1      -4.114  -1.731   1.529  1.00  0.00     0.119 C 
HETATM   18  C9  UNL     1      -4.269   0.376   0.270  1.00  0.00     0.130 A 
HETATM   19  N5  UNL     1      -4.580  -2.619   2.104  1.00  0.00    -0.190 NA
HETATM   20  N6  UNL     1      -3.735   1.405  -0.396  1.00  0.00    -0.348 N 
HETATM   21  C10 UNL     1      -2.381   1.506  -0.571  1.00  0.00     0.127 A 
ATOM     22  H6  UNL     1      -4.346   2.126  -0.780  1.00  0.00     0.167 HD
BRANCH  21  23
HETATM   23  N7  UNL     1      -1.907   2.519  -1.222  1.00  0.00    -0.384 N 
ATOM     24  H72 UNL     1      -0.898   2.594  -1.352  1.00  0.00     0.157 HD
ATOM     25  H71 UNL     1      -2.471   3.267  -1.626  1.00  0.00     0.157 HD
ENDBRANCH  21  23
ENDBRANCH  11  13
ENDBRANCH   8  10
ENDBRANCH   5   8
ENDBRANCH   4   5
ENDBRANCH   3   4
TORSDOF 7
