REMARK  5 active torsions:
REMARK  status: ('A' for Active; 'I' for Inactive)
REMARK    1  A    between atoms: C1_4  and  O1_6 
REMARK    2  A    between atoms: O1_6  and  C2_7 
REMARK    3  A    between atoms: C5_12  and  C6_13 
REMARK    4  A    between atoms: C7_18  and  O2_19 
REMARK    5  A    between atoms: N6_21  and  O3_22 
ROOT
HETATM    1  C2  UNL     1       1.484   0.047  -0.183  1.00  0.00     0.095 A 
HETATM    2  C3  UNL     1       1.636  -0.687  -1.328  1.00  0.00     0.124 A 
HETATM    3  N3  UNL     1       0.564  -1.201  -1.968  1.00  0.00    -0.372 N 
ATOM      4  H3  UNL     1       0.706  -1.744  -2.819  1.00  0.00     0.164 HD
HETATM    5  C4  UNL     1      -0.707  -1.011  -1.503  1.00  0.00     0.103 A 
HETATM    6  C5  UNL     1      -0.938  -0.287  -0.361  1.00  0.00     0.030 A 
HETATM    7  C8  UNL     1       0.196   0.227   0.270  1.00  0.00     0.055 A 
ENDROOT
BRANCH   6   8
HETATM    8  C6  UNL     1      -2.262  -0.038   0.200  1.00  0.00     0.163 A 
HETATM    9  N4  UNL     1      -2.472   0.678   1.327  1.00  0.00    -0.280 N 
HETATM   10  N5  UNL     1      -3.768   0.729   1.582  1.00  0.00    -0.262 N 
ATOM     11  H4  UNL     1      -1.743   1.112   1.893  1.00  0.00     0.188 HD
HETATM   12  C7  UNL     1      -4.430   0.052   0.635  1.00  0.00     0.265 A 
ATOM     13  H5  UNL     1      -4.196   1.208   2.374  1.00  0.00     0.190 HD
HETATM   14  N6  UNL     1      -3.452  -0.412  -0.210  1.00  0.00    -0.166 N 
BRANCH  12  15
HETATM   15  O2  UNL     1      -5.809  -0.159   0.499  1.00  0.00    -0.330 OA
ATOM     16  H2  UNL     1      -6.279  -0.639  -0.173  1.00  0.00     0.221 HD
ENDBRANCH  12  15
BRANCH  14  17
HETATM   17  O3  UNL     1      -3.760  -1.162  -1.317  1.00  0.00    -0.278 OA
ATOM     18  H3  UNL     1      -4.621  -1.433  -1.614  1.00  0.00     0.245 HD
ENDBRANCH  14  17
ENDBRANCH   6   8
BRANCH   1  19
HETATM   19  O1  UNL     1       2.525   0.611   0.531  1.00  0.00    -0.281 OA
BRANCH  19  20
HETATM   20  C1  UNL     1       3.847   0.539   0.207  1.00  0.00     0.230 C 
HETATM   21  N1  UNL     1       4.149   0.881  -0.995  1.00  0.00    -0.368 N 
ATOM     22  H12 UNL     1       5.138   0.827  -1.237  1.00  0.00     0.159 HD
ATOM     23  H11 UNL     1       3.458   1.190  -1.679  1.00  0.00     0.159 HD
HETATM   24  N2  UNL     1       4.801   0.112   1.151  1.00  0.00    -0.056 NA
ENDBRANCH  19  20
ENDBRANCH   1  19
TORSDOF 5
