REMARK  3 active torsions:
REMARK  status: ('A' for Active; 'I' for Inactive)
REMARK    1  A    between atoms: N4_9  and  C3_10 
REMARK    2  A    between atoms: C3_10  and  O1_11 
REMARK    3  A    between atoms: C3_10  and  C4_13 
ROOT
HETATM    1  N1  UNL     1      -0.364  -1.578   1.660  1.00  0.00    -0.379 N 
ATOM      2  H11 UNL     1       0.511  -1.340   2.128  1.00  0.00     0.158 HD
ATOM      3  H12 UNL     1      -0.837  -2.408   2.017  1.00  0.00     0.158 HD
HETATM    4  C1  UNL     1      -0.819  -0.915   0.688  1.00  0.00     0.161 C 
HETATM    5  S1  UNL     1      -2.382  -1.341  -0.148  1.00  0.00     0.032 SA
HETATM    6  N2  UNL     1      -3.048   0.293  -0.538  1.00  0.00    -0.065 NA
HETATM    7  N3  UNL     1      -2.338   1.139   0.364  1.00  0.00    -0.116 NA
HETATM    8  C2  UNL     1      -1.017   1.403  -0.127  1.00  0.00     0.265 C 
HETATM    9  N4  UNL     1      -0.166   0.230   0.196  1.00  0.00    -0.288 N 
ENDROOT
BRANCH   9  10
HETATM   10  C3  UNL     1       1.213   0.267  -0.017  1.00  0.00     0.212 C 
BRANCH  10  11
HETATM   11  O1  UNL     1       1.623   1.461  -0.393  1.00  0.00    -0.342 OA
ATOM     12  H1  UNL     1       2.562   1.486  -0.538  1.00  0.00     0.219 HD
ENDBRANCH  10  11
BRANCH  10  13
HETATM   13  C4  UNL     1       2.237  -0.706   0.085  1.00  0.00     0.305 C 
HETATM   14  N5  UNL     1       3.617  -0.335  -0.152  1.00  0.00    -0.054 NA
HETATM   15  O2  UNL     1       2.056  -1.891   0.370  1.00  0.00    -0.267 OA
ENDBRANCH  10  13
ENDBRANCH   9  10
TORSDOF 3
