REMARK  5 active torsions:
REMARK  status: ('A' for Active; 'I' for Inactive)
REMARK    1  A    between atoms: C3_5  and  N2_6 
REMARK    2  A    between atoms: C4_9  and  N3_10 
REMARK    3  A    between atoms: N3_10  and  O1_12 
REMARK    4  A    between atoms: N4_14  and  N5_15 
REMARK    5  A    between atoms: N6_17  and  N7_19 
ROOT
HETATM    1  C1  UNL     1      -1.731  -2.713   0.344  1.00  0.00     0.091 C 
HETATM    2  C2  UNL     1      -1.221  -1.318   0.239  1.00  0.00     0.095 A 
HETATM    3  N1  UNL     1      -2.082  -0.286   0.404  1.00  0.00    -0.328 N 
ATOM      4  H1  UNL     1      -3.065  -0.479   0.597  1.00  0.00     0.169 HD
HETATM    5  C3  UNL     1      -1.662   0.990   0.317  1.00  0.00     0.150 A 
HETATM    6  C4  UNL     1      -0.329   1.191   0.054  1.00  0.00     0.210 A 
HETATM    7  N4  UNL     1       0.541   0.178  -0.113  1.00  0.00    -0.157 N 
HETATM    8  N8  UNL     1       0.080  -1.061  -0.018  1.00  0.00    -0.265 N 
ATOM      9  H8  UNL     1       0.725  -1.841  -0.142  1.00  0.00     0.190 HD
ENDROOT
BRANCH   7  10
HETATM   10  N5  UNL     1       1.902   0.420  -0.381  1.00  0.00    -0.205 N 
HETATM   11  N6  UNL     1       2.806  -0.375   0.047  1.00  0.00    -0.233 N 
ATOM     12  H6  UNL     1       2.561  -1.201   0.592  1.00  0.00     0.209 HD
ATOM     13  H5  UNL     1       2.170   1.241  -0.924  1.00  0.00     0.212 HD
BRANCH  11  14
HETATM   14  N7  UNL     1       4.131  -0.085  -0.249  1.00  0.00    -0.330 N 
ATOM     15  H72 UNL     1       4.360   0.745  -0.795  1.00  0.00     0.178 HD
ATOM     16  H71 UNL     1       4.853  -0.720   0.093  1.00  0.00     0.178 HD
ENDBRANCH  11  14
ENDBRANCH   7  10
BRANCH   6  17
HETATM   17  N3  UNL     1       0.105   2.394  -0.036  1.00  0.00    -0.247 N 
ATOM     18  H3  UNL     1       1.096   2.533  -0.232  1.00  0.00     0.196 HD
BRANCH  17  19
HETATM   19  O1  UNL     1      -0.679   3.498   0.114  1.00  0.00    -0.288 OA
ATOM     20  H1  UNL     1      -0.357   4.389   0.047  1.00  0.00     0.244 HD
ENDBRANCH  17  19
ENDBRANCH   6  17
BRANCH   5  21
HETATM   21  N2  UNL     1      -2.436   2.008   0.465  1.00  0.00    -0.382 N 
ATOM     22  H22 UNL     1      -3.426   1.859   0.660  1.00  0.00     0.157 HD
ATOM     23  H21 UNL     1      -2.118   2.975   0.399  1.00  0.00     0.157 HD
ENDBRANCH   5  21
TORSDOF 5
