REMARK  2 active torsions:
REMARK  status: ('A' for Active; 'I' for Inactive)
REMARK       I    between atoms: C1_2  and  N2_4 
REMARK    1  A    between atoms: N2_4  and  N3_6 
REMARK       I    between atoms: N3_6  and  C2_8 
REMARK    2  A    between atoms: C2_8  and  C3_10 
ROOT
HETATM    1  N3  UNL     1      -0.120  -0.018  -0.165  1.00  0.00    -0.260 N 
ATOM      2  H3  UNL     1       0.093   0.117  -1.153  1.00  0.00     0.190 HD
HETATM    3  C2  UNL     1       0.930  -0.064   0.773  1.00  0.00     0.306 C 
HETATM    4  O2  UNL     1       0.664  -0.221   1.984  1.00  0.00    -0.262 OA
ENDROOT
BRANCH   3   5
HETATM    5  C3  UNL     1       2.300   0.074   0.314  1.00  0.00     0.205 A 
HETATM    6  N4  UNL     1       3.423   0.078   1.089  1.00  0.00    -0.267 N 
HETATM    7  N5  UNL     1       4.441   0.215   0.271  1.00  0.00    -0.225 N 
ATOM      8  H4  UNL     1       3.464  -0.008   2.105  1.00  0.00     0.190 HD
HETATM    9  N6  UNL     1       4.023   0.297  -0.980  1.00  0.00    -0.005 NA
ATOM     10  H5  UNL     1       5.418   0.253   0.561  1.00  0.00     0.205 HD
HETATM   11  N7  UNL     1       2.704   0.212  -0.967  1.00  0.00    -0.262 N 
ATOM     12  H7  UNL     1       2.095   0.245  -1.785  1.00  0.00     0.186 HD
ENDBRANCH   3   5
BRANCH   1  13
HETATM   13  N2  UNL     1      -1.455  -0.155   0.244  1.00  0.00    -0.251 N 
HETATM   14  C1  UNL     1      -2.506  -0.026  -0.679  1.00  0.00     0.347 C 
HETATM   15  N1  UNL     1      -3.856  -0.163  -0.271  1.00  0.00    -0.038 NA
HETATM   16  O1  UNL     1      -2.275   0.214  -1.883  1.00  0.00    -0.249 OA
ATOM     17  H2  UNL     1      -1.665  -0.351   1.223  1.00  0.00     0.191 HD
ENDBRANCH   1  13
TORSDOF 2
