REMARK  3 active torsions:
REMARK  status: ('A' for Active; 'I' for Inactive)
REMARK    1  A    between atoms: N1_1  and  N2_4 
REMARK       I    between atoms: N2_4  and  C1_6 
REMARK    2  A    between atoms: C1_6  and  C2_8 
REMARK       I    between atoms: C2_8  and  N3_10 
REMARK    3  A    between atoms: N3_10  and  C3_12 
ROOT
HETATM    1  C2  UNL     1      -0.462  -0.279  -0.655  1.00  0.00     0.329 C 
HETATM    2  O2  UNL     1      -0.515  -1.473  -1.048  1.00  0.00    -0.261 OA
HETATM    3  N3  UNL     1       0.763   0.441  -0.567  1.00  0.00    -0.149 N 
ATOM      4  H3  UNL     1       0.788   1.418  -0.857  1.00  0.00     0.188 HD
ENDROOT
BRANCH   3   5
HETATM    5  C3  UNL     1       1.838  -0.112  -0.130  1.00  0.00     0.716 A 
HETATM    6  N4  UNL     1       2.015  -1.366   0.296  1.00  0.00    -0.115 N 
HETATM    7  N5  UNL     1       3.267  -1.534   0.660  1.00  0.00    -0.213 N 
ATOM      8  H4  UNL     1       1.290  -2.083   0.333  1.00  0.00     0.207 HD
HETATM    9  N6  UNL     1       3.876  -0.386   0.464  1.00  0.00    -0.213 N 
ATOM     10  H5  UNL     1       3.685  -2.390   1.024  1.00  0.00     0.210 HD
HETATM   11  N7  UNL     1       3.019   0.511  -0.023  1.00  0.00    -0.115 N 
ATOM     12  H6  UNL     1       4.862  -0.207   0.657  1.00  0.00     0.210 HD
ATOM     13  H7  UNL     1       3.222   1.480  -0.266  1.00  0.00     0.207 HD
ENDBRANCH   3   5
BRANCH   1  14
HETATM   14  C1  UNL     1      -1.662   0.438  -0.265  1.00  0.00     0.328 C 
HETATM   15  N2  UNL     1      -2.906  -0.238  -0.336  1.00  0.00    -0.268 N 
ATOM     16  H2  UNL     1      -2.932  -1.206  -0.656  1.00  0.00     0.190 HD
HETATM   17  O1  UNL     1      -1.643   1.626   0.131  1.00  0.00    -0.261 OA
BRANCH  15  18
HETATM   18  N1  UNL     1      -4.115   0.406   0.030  1.00  0.00    -0.342 N 
ATOM     19  H12 UNL     1      -4.071   1.374   0.348  1.00  0.00     0.176 HD
ATOM     20  H11 UNL     1      -5.010  -0.080  -0.021  1.00  0.00     0.176 HD
ENDBRANCH  15  18
ENDBRANCH   1  14
TORSDOF 3
