REMARK  7 active torsions:
REMARK  status: ('A' for Active; 'I' for Inactive)
REMARK    1  A    between atoms: C2_2  and  O1_3 
REMARK    2  A    between atoms: O1_3  and  C3_4 
REMARK       I    between atoms: C3_4  and  N1_6 
REMARK    3  A    between atoms: N1_6  and  C4_8 
REMARK    4  A    between atoms: N2_12  and  C8_13 
REMARK    5  A    between atoms: C13_19  and  C14_20 
REMARK    6  A    between atoms: N3_24  and  C16_25 
REMARK    7  A    between atoms: C20_29  and  C21_30 
ROOT
HETATM    1  C8  UNL     1       1.157  -0.837   1.233  1.00  0.00     0.047 A 
HETATM    2  C9  UNL     1       1.953  -1.118   2.386  1.00  0.00     0.031 A 
HETATM    3  C10 UNL     1       3.283  -1.141   2.238  1.00  0.00     0.020 A 
HETATM    4  C11 UNL     1       3.895  -0.901   1.037  1.00  0.00     0.043 A 
HETATM    5  C12 UNL     1       5.269  -0.936   0.958  1.00  0.00     0.202 A 
HETATM    6  O3  UNL     1       5.918  -1.203   1.999  1.00  0.00    -0.286 OA
HETATM    7  C13 UNL     1       5.874  -0.682  -0.238  1.00  0.00     0.107 A 
HETATM    8  C15 UNL     1       5.109  -0.391  -1.329  1.00  0.00     0.114 A 
HETATM    9  N3  UNL     1       3.730  -0.353  -1.250  1.00  0.00    -0.349 N 
HETATM   10  C19 UNL     1       3.113  -0.615  -0.105  1.00  0.00     0.066 A 
HETATM   11  C20 UNL     1       1.695  -0.594  -0.009  1.00  0.00     0.102 A 
ENDROOT
BRANCH   1  12
HETATM   12  N2  UNL     1      -0.228  -0.762   1.526  1.00  0.00    -0.380 N 
HETATM   13  C7  UNL     1      -0.798  -2.020   1.927  1.00  0.00     0.123 C 
HETATM   14  C6  UNL     1      -2.240  -1.941   2.393  1.00  0.00     0.022 C 
HETATM   15  C5  UNL     1      -3.098  -1.657   1.198  1.00  0.00     0.027 C 
HETATM   16  C4  UNL     1      -3.142  -0.214   0.799  1.00  0.00     0.088 C 
HETATM   17  C23 UNL     1      -2.274   0.687   1.597  1.00  0.00     0.045 C 
HETATM   18  C22 UNL     1      -0.814   0.538   1.548  1.00  0.00     0.125 C 
BRANCH  16  19
HETATM   19  N1  UNL     1      -4.501   0.285   0.745  1.00  0.00    -0.332 N 
HETATM   20  C3  UNL     1      -5.021   0.834  -0.434  1.00  0.00     0.360 C 
HETATM   21  O2  UNL     1      -4.296   0.901  -1.488  1.00  0.00    -0.239 OA
ATOM     22  H1  UNL     1      -5.088   0.236   1.578  1.00  0.00     0.165 HD
BRANCH  20  23
HETATM   23  O1  UNL     1      -6.309   1.331  -0.557  1.00  0.00    -0.304 OA
BRANCH  23  24
HETATM   24  C2  UNL     1      -6.806   1.873  -1.741  1.00  0.00     0.176 C 
HETATM   25  C1  UNL     1      -8.244   2.327  -1.525  1.00  0.00     0.034 C 
ENDBRANCH  23  24
ENDBRANCH  20  23
ENDBRANCH  16  19
ENDBRANCH   1  12
BRANCH  11  26
HETATM   26  C21 UNL     1       0.986  -0.565  -1.268  1.00  0.00     0.421 C 
HETATM   27  F1  UNL     1       0.024   0.331  -1.611  1.00  0.00    -0.166 F 
HETATM   28  F2  UNL     1      -0.154  -1.391  -0.797  1.00  0.00    -0.166 F 
HETATM   29  F3  UNL     1       1.186  -1.652  -2.146  1.00  0.00    -0.166 F 
ENDBRANCH  11  26
BRANCH   9  30
HETATM   30  C16 UNL     1       3.053   0.264  -2.408  1.00  0.00     0.090 A 
HETATM   31  C17 UNL     1       2.784   1.750  -2.459  1.00  0.00     0.028 A 
HETATM   32  C18 UNL     1       4.025   1.361  -3.000  1.00  0.00     0.028 A 
ENDBRANCH   9  30
BRANCH   7  33
HETATM   33  C14 UNL     1       7.348  -0.719  -0.368  1.00  0.00     0.214 C 
HETATM   34  O4  UNL     1       7.880  -0.484  -1.459  1.00  0.00    -0.644 OA
HETATM   35  O5  UNL     1       8.133  -1.017   0.728  1.00  0.00    -0.644 OA
ENDBRANCH   7  33
TORSDOF 7
