REMARK  6 active torsions:
REMARK  status: ('A' for Active; 'I' for Inactive)
REMARK    1  A    between atoms: C2_2  and  C3_3 
REMARK    2  A    between atoms: C3_3  and  C4_4 
REMARK    3  A    between atoms: N1_8  and  N2_10 
REMARK    4  A    between atoms: N2_10  and  C7_12 
REMARK    5  A    between atoms: S1_24  and  C17_25 
REMARK    6  A    between atoms: C18_27  and  O2_28 
ROOT
HETATM    1  C4  UNL     1       2.064  -1.342  -0.012  1.00  0.00     0.146 C 
HETATM    2  C5  UNL     1       0.833  -2.170   0.271  1.00  0.00     0.209 C 
HETATM    3  O1  UNL     1      -0.326  -1.627  -0.322  1.00  0.00    -0.335 OA
HETATM    4  C6  UNL     1      -0.730  -0.339  -0.596  1.00  0.00     0.142 C 
HETATM    5  N1  UNL     1      -1.832  -0.259  -1.254  1.00  0.00    -0.283 N 
ATOM      6  H1  UNL     1      -2.199   0.661  -1.496  1.00  0.00     0.188 HD
HETATM    7  C13 UNL     1      -0.054   0.925  -0.226  1.00  0.00     0.129 C 
HETATM    8  C14 UNL     1       1.389   0.814  -0.528  1.00  0.00     0.139 C 
HETATM    9  C15 UNL     1       2.175   2.074  -0.506  1.00  0.00     0.058 C 
HETATM   10  C16 UNL     1       1.805   2.962   0.625  1.00  0.00     0.115 C 
HETATM   11 BR1  UNL     1       2.960   4.421   0.942  1.00  0.00    -0.080 Br
HETATM   12  S1  UNL     1      -0.026   3.766  -0.120  1.00  0.00    -0.162 SA
HETATM   13  C18 UNL     1      -0.748   2.108  -0.853  1.00  0.00     0.186 C 
HETATM   14  O3  UNL     1       1.957  -0.048   0.441  1.00  0.00    -0.377 OA
ENDROOT
BRANCH   5  15
HETATM   15  N2  UNL     1      -2.537  -1.393  -1.645  1.00  0.00    -0.299 N 
ATOM     16  H2  UNL     1      -2.216  -1.958  -2.431  1.00  0.00     0.187 HD
BRANCH  15  17
HETATM   17  C7  UNL     1      -3.706  -1.748  -0.933  1.00  0.00     0.048 A 
HETATM   18  C8  UNL     1      -4.120  -0.975   0.121  1.00  0.00     0.034 A 
HETATM   19  C9  UNL     1      -5.263  -1.284   0.851  1.00  0.00     0.044 A 
HETATM   20  C10 UNL     1      -6.001  -2.390   0.514  1.00  0.00     0.116 A 
HETATM   21  F1  UNL     1      -7.103  -2.661   1.243  1.00  0.00    -0.206 F 
HETATM   22  C11 UNL     1      -5.611  -3.185  -0.537  1.00  0.00     0.044 A 
HETATM   23  C12 UNL     1      -4.459  -2.852  -1.255  1.00  0.00     0.034 A 
ENDBRANCH  15  17
ENDBRANCH   5  15
BRANCH  13  24
HETATM   24  O2  UNL     1      -0.721   2.044  -2.227  1.00  0.00    -0.385 OA
ATOM     25  H2  UNL     1      -1.158   2.789  -2.622  1.00  0.00     0.211 HD
ENDBRANCH  13  24
BRANCH   1  26
HETATM   26  C3  UNL     1       3.219  -2.000   0.736  1.00  0.00     0.034 C 
BRANCH  26  27
HETATM   27  C2  UNL     1       4.508  -1.217   0.499  1.00  0.00    -0.002 C 
HETATM   28  C1  UNL     1       5.613  -1.902   1.254  1.00  0.00     0.005 C 
ENDBRANCH  26  27
ENDBRANCH   1  26
BRANCH  12  29
HETATM   29  C17 UNL     1      -1.002   4.787   1.280  1.00  0.00     0.181 C 
HETATM   30 CL1  UNL     1      -2.479   5.392   0.549  1.00  0.00    -0.120 Cl
ENDBRANCH  12  29
TORSDOF 6
