REMARK  4 active torsions:
REMARK  status: ('A' for Active; 'I' for Inactive)
REMARK    1  A    between atoms: C2_2  and  O2_4 
REMARK    2  A    between atoms: O2_4  and  C3_5 
REMARK    3  A    between atoms: C3_5  and  C4_6 
REMARK    4  A    between atoms: C4_6  and  N1_7 
ROOT
HETATM    1  C4  UNL     1      -0.148  -0.307  -0.359  1.00  0.00     0.218 C 
HETATM    2  C5  UNL     1      -0.176   0.459   0.949  1.00  0.00     0.070 C 
HETATM    3  C6  UNL     1      -1.434   1.276   1.102  1.00  0.00     0.005 C 
HETATM    4  C7  UNL     1      -2.641   0.349   1.169  1.00  0.00     0.002 C 
HETATM    5  C8  UNL     1      -3.278   0.398  -0.221  1.00  0.00     0.026 C 
HETATM    6  C9  UNL     1      -2.311  -0.284  -1.190  1.00  0.00     0.171 C 
HETATM    7  O5  UNL     1      -1.336  -0.991  -0.542  1.00  0.00    -0.354 OA
ENDROOT
BRANCH   1   8
HETATM    8  C3  UNL     1       1.026  -1.291  -0.233  1.00  0.00     0.246 C 
BRANCH   8   9
HETATM    9  O2  UNL     1       2.176  -0.534  -0.028  1.00  0.00    -0.317 OA
BRANCH   9  10
HETATM   10  C2  UNL     1       3.448  -1.053   0.135  1.00  0.00     0.254 C 
HETATM   11  C1  UNL     1       4.556  -0.093   0.344  1.00  0.00     0.126 C 
HETATM   12  O1  UNL     1       3.561  -2.300   0.092  1.00  0.00    -0.266 OA
ENDBRANCH   9  10
ENDBRANCH   8   9
ENDBRANCH   1   8
BRANCH   1  13
HETATM   13  N1  UNL     1       0.146   0.537  -1.479  1.00  0.00    -0.115 N 
HETATM   14  O3  UNL     1       0.250   1.751  -1.322  1.00  0.00    -0.534 OA
HETATM   15  O4  UNL     1       0.307  -0.012  -2.709  1.00  0.00    -0.534 OA
ENDBRANCH   1  13
TORSDOF 4
