REMARK  9 active torsions:
REMARK  status: ('A' for Active; 'I' for Inactive)
REMARK    1  A    between atoms: C2_2  and  C3_3 
REMARK    2  A    between atoms: C2_2  and  C19_31 
REMARK    3  A    between atoms: C3_3  and  N1_4 
REMARK    4  A    between atoms: C4_9  and  C5_10 
REMARK    5  A    between atoms: C5_10  and  N4_11 
REMARK    6  A    between atoms: N5_14  and  C8_15 
REMARK    7  A    between atoms: C8_15  and  C9_16 
REMARK       I    between atoms: C9_16  and  N6_18 
REMARK    8  A    between atoms: N6_18  and  C10_20 
REMARK    9  A    between atoms: C10_20  and  C11_21 
ROOT
HETATM    1  N1  UNL     1      -4.940   0.216   0.627  1.00  0.00    -0.217 N 
HETATM    2  N2  UNL     1      -4.372   0.646   1.727  1.00  0.00    -0.224 N 
ATOM      3  H2  UNL     1      -4.857   0.801   2.611  1.00  0.00     0.210 HD
HETATM    4  N3  UNL     1      -3.070   0.853   1.528  1.00  0.00    -0.267 N 
ATOM      5  H3  UNL     1      -2.405   1.187   2.226  1.00  0.00     0.190 HD
HETATM    6  C4  UNL     1      -2.787   0.550   0.269  1.00  0.00     0.152 A 
HETATM    7  N7  UNL     1      -3.972   0.153  -0.279  1.00  0.00    -0.265 N 
ATOM      8  H7  UNL     1      -4.096  -0.149  -1.245  1.00  0.00     0.190 HD
ENDROOT
BRANCH   6   9
HETATM    9  C5  UNL     1      -1.554   0.568  -0.534  1.00  0.00     0.137 C 
BRANCH   9  10
HETATM   10  N4  UNL     1      -0.867  -0.661  -0.596  1.00  0.00    -0.384 N 
HETATM   11  C6  UNL     1      -0.390  -1.222   0.614  1.00  0.00     0.137 C 
HETATM   12  C7  UNL     1       1.069  -0.766   0.794  1.00  0.00     0.114 C 
HETATM   13  N5  UNL     1       1.835  -1.243  -0.299  1.00  0.00    -0.285 NA
HETATM   14  C17 UNL     1       1.042  -1.837  -1.361  1.00  0.00     0.114 C 
HETATM   15  C18 UNL     1      -0.110  -0.943  -1.763  1.00  0.00     0.137 C 
BRANCH  13  16
HETATM   16  C8  UNL     1       2.925  -2.098  -0.038  1.00  0.00     0.134 C 
BRANCH  16  17
HETATM   17  C9  UNL     1       4.097  -1.550   0.627  1.00  0.00     0.251 C 
HETATM   18  O1  UNL     1       5.086  -2.323   0.879  1.00  0.00    -0.268 OA
HETATM   19  N6  UNL     1       4.206  -0.199   1.013  1.00  0.00    -0.353 N 
ATOM     20  H6  UNL     1       3.432   0.439   0.826  1.00  0.00     0.163 HD
BRANCH  19  21
HETATM   21  C10 UNL     1       5.402   0.304   1.674  1.00  0.00     0.161 C 
BRANCH  21  22
HETATM   22  C11 UNL     1       6.477   0.496   0.697  1.00  0.00    -0.041 A 
HETATM   23  C12 UNL     1       6.382   1.556  -0.217  1.00  0.00     0.009 A 
HETATM   24  C13 UNL     1       7.383   1.751  -1.137  1.00  0.00     0.001 A 
HETATM   25  C14 UNL     1       8.479   0.919  -1.173  1.00  0.00     0.000 A 
HETATM   26  C15 UNL     1       8.580  -0.135  -0.268  1.00  0.00     0.001 A 
HETATM   27  C16 UNL     1       7.574  -0.323   0.650  1.00  0.00     0.009 A 
ENDBRANCH  21  22
ENDBRANCH  19  21
ENDBRANCH  16  17
ENDBRANCH  13  16
ENDBRANCH   9  10
ENDBRANCH   6   9
BRANCH   1  28
HETATM   28  C3  UNL     1      -6.339  -0.142   0.365  1.00  0.00     0.183 C 
BRANCH  28  29
HETATM   29  C2  UNL     1      -7.053   1.128  -0.116  1.00  0.00     0.074 C 
HETATM   30  C1  UNL     1      -6.982   2.204   0.943  1.00  0.00     0.020 C 
BRANCH  29  31
HETATM   31  C19 UNL     1      -8.422   0.839  -0.555  1.00  0.00     0.125 A 
HETATM   32  N8  UNL     1      -8.902   1.020  -1.793  1.00  0.00    -0.266 N 
HETATM   33  N9  UNL     1     -10.161   0.647  -1.798  1.00  0.00    -0.181 N 
ATOM     34  H8  UNL     1      -8.381   1.384  -2.591  1.00  0.00     0.190 HD
HETATM   35  O2  UNL     1     -10.444   0.252  -0.610  1.00  0.00    -0.140 OA
ATOM     36  H9  UNL     1     -10.795   0.667  -2.596  1.00  0.00     0.218 HD
HETATM   37  N10 UNL     1      -9.425   0.347   0.184  1.00  0.00    -0.226 N 
ATOM     38  H10 UNL     1      -9.393   0.098   1.172  1.00  0.00     0.198 HD
ENDBRANCH  29  31
ENDBRANCH  28  29
ENDBRANCH   1  28
TORSDOF 9
