REMARK  11 active torsions:
REMARK  status: ('A' for Active; 'I' for Inactive)
REMARK    1  A    between atoms: C2_5  and  C3_6 
REMARK    2  A    between atoms: C2_5  and  C14_29 
REMARK    3  A    between atoms: C3_6  and  C4_7 
REMARK    4  A    between atoms: C4_7  and  N3_8 
REMARK    5  A    between atoms: C6_10  and  C7_11 
REMARK    6  A    between atoms: N6_22  and  O1_23 
REMARK       I    between atoms: C14_29  and  N9_31 
REMARK    7  A    between atoms: C15_33  and  C16_34 
REMARK    8  A    between atoms: C16_34  and  O3_35 
REMARK    9  A    between atoms: O3_35  and  C17_36 
REMARK   10  A    between atoms: C17_36  and  C18_37 
REMARK   11  A    between atoms: C18_37  and  O4_38 
ROOT
HETATM    1  N1  UNL     1       2.882   3.331  -1.815  1.00  0.00    -0.172 NA
HETATM    2  C1  UNL     1       3.096   2.500  -1.028  1.00  0.00     0.182 C 
HETATM    3  N2  UNL     1       3.358   1.522  -0.071  1.00  0.00    -0.292 N 
ATOM      4  H2  UNL     1       4.306   1.394   0.284  1.00  0.00     0.178 HD
HETATM    5  C2  UNL     1       2.398   0.779   0.365  1.00  0.00     0.088 C 
ENDROOT
BRANCH   5   6
HETATM    6  C3  UNL     1       1.029   0.928  -0.118  1.00  0.00     0.085 C 
BRANCH   6   7
HETATM    7  C4  UNL     1       0.447  -0.260  -0.807  1.00  0.00     0.156 C 
BRANCH   7   8
HETATM    8  N3  UNL     1      -0.928   0.035  -1.240  1.00  0.00    -0.286 N 
HETATM    9  C5  UNL     1      -2.060  -0.150  -0.574  1.00  0.00     0.146 A 
HETATM   10  C6  UNL     1      -3.104   0.265  -1.360  1.00  0.00     0.114 A 
HETATM   11  N7  UNL     1      -2.538   0.699  -2.510  1.00  0.00    -0.281 N 
HETATM   12  N8  UNL     1      -1.253   0.549  -2.406  1.00  0.00    -0.240 N 
ATOM     13  H7  UNL     1      -3.034   1.078  -3.317  1.00  0.00     0.188 HD
ATOM     14  H8  UNL     1      -0.583   0.797  -3.134  1.00  0.00     0.208 HD
BRANCH  10  15
HETATM   15  C7  UNL     1      -4.541   0.289  -1.133  1.00  0.00     0.177 A 
HETATM   16  N4  UNL     1      -5.375   0.761  -2.098  1.00  0.00    -0.281 N 
HETATM   17  N5  UNL     1      -6.683   0.820  -1.979  1.00  0.00    -0.297 N 
ATOM     18  H4  UNL     1      -4.959   1.090  -2.969  1.00  0.00     0.188 HD
HETATM   19  C8  UNL     1      -7.308   0.406  -0.866  1.00  0.00     0.077 A 
ATOM     20  H5  UNL     1      -7.237   1.190  -2.752  1.00  0.00     0.187 HD
HETATM   21  C9  UNL     1      -8.686   0.469  -0.743  1.00  0.00     0.033 A 
HETATM   22  C13 UNL     1      -6.501  -0.080   0.136  1.00  0.00     0.092 A 
HETATM   23  C10 UNL     1      -9.300   0.036   0.415  1.00  0.00     0.002 A 
HETATM   24  C11 UNL     1      -8.493  -0.452   1.422  1.00  0.00     0.002 A 
HETATM   25  C12 UNL     1      -7.115  -0.512   1.293  1.00  0.00     0.034 A 
HETATM   26  N6  UNL     1      -5.143  -0.131  -0.010  1.00  0.00    -0.202 N 
BRANCH  26  27
HETATM   27  O1  UNL     1      -4.394  -0.627   1.028  1.00  0.00    -0.281 OA
ATOM     28  H1  UNL     1      -4.820  -0.924   1.823  1.00  0.00     0.245 HD
ENDBRANCH  26  27
ENDBRANCH  10  15
ENDBRANCH   7   8
ENDBRANCH   6   7
ENDBRANCH   5   6
BRANCH   5  29
HETATM   29  C14 UNL     1       2.720  -0.229   1.359  1.00  0.00     0.268 C 
HETATM   30  O2  UNL     1       1.863  -1.005   1.853  1.00  0.00    -0.266 OA
HETATM   31  N9  UNL     1       4.050  -0.403   1.844  1.00  0.00    -0.334 N 
HETATM   32  C15 UNL     1       4.757  -1.405   1.467  1.00  0.00     0.090 C 
ATOM     33  H9  UNL     1       4.443   0.275   2.497  1.00  0.00     0.168 HD
BRANCH  32  34
HETATM   34  C16 UNL     1       6.133  -1.584   1.969  1.00  0.00     0.212 C 
BRANCH  34  35
HETATM   35  O3  UNL     1       6.972  -0.572   1.502  1.00  0.00    -0.384 OA
BRANCH  35  36
HETATM   36  C17 UNL     1       6.974  -0.628   0.094  1.00  0.00     0.194 C 
BRANCH  36  37
HETATM   37  C18 UNL     1       7.892   0.482  -0.378  1.00  0.00     0.190 C 
BRANCH  37  38
HETATM   38  O4  UNL     1       7.950   0.497  -1.768  1.00  0.00    -0.399 OA
ATOM     39  H4  UNL     1       8.525   1.193  -2.064  1.00  0.00     0.209 HD
ENDBRANCH  37  38
ENDBRANCH  36  37
ENDBRANCH  35  36
ENDBRANCH  34  35
ENDBRANCH  32  34
ENDBRANCH   5  29
TORSDOF 11
