REMARK  19 active torsions:
REMARK  status: ('A' for Active; 'I' for Inactive)
REMARK    1  A    between atoms: C2_2  and  C3_3 
REMARK    2  A    between atoms: N1_5  and  C5_6 
REMARK    3  A    between atoms: C5_6  and  C6_7 
REMARK       I    between atoms: N3_14  and  C10_15 
REMARK    4  A    between atoms: C10_15  and  C11_17 
REMARK    5  A    between atoms: C11_17  and  C12_18 
REMARK    6  A    between atoms: C11_17  and  N7_26 
REMARK    7  A    between atoms: C12_18  and  C13_19 
REMARK    8  A    between atoms: C13_19  and  C14_20 
REMARK    9  A    between atoms: C14_20  and  N4_21 
REMARK   10  A    between atoms: N7_26  and  S1_28 
REMARK   11  A    between atoms: S1_28  and  C16_31 
REMARK   12  A    between atoms: C16_31  and  C17_32 
REMARK   13  A    between atoms: C17_32  and  C18_33 
REMARK   14  A    between atoms: C18_33  and  C19_34 
REMARK   15  A    between atoms: C19_34  and  C20_35 
REMARK   16  A    between atoms: C20_35  and  C21_36 
REMARK   17  A    between atoms: C21_36  and  C22_37 
REMARK   18  A    between atoms: C24_39  and  C25_40 
REMARK   19  A    between atoms: C25_40  and  O5_41 
ROOT
HETATM    1  C11 UNL     1      -0.093   0.582   0.770  1.00  0.00     0.184 C 
ENDROOT
BRANCH   1   2
HETATM    2  C10 UNL     1      -1.527   0.423   1.100  1.00  0.00     0.244 C 
HETATM    3  N3  UNL     1      -2.609   0.781   0.218  1.00  0.00    -0.334 N 
HETATM    4  C6  UNL     1      -3.956   0.545   0.637  1.00  0.00     0.207 C 
HETATM    5  C9  UNL     1      -2.362   1.395  -1.052  1.00  0.00     0.146 C 
HETATM    6  C7  UNL     1      -4.971   1.167  -0.295  1.00  0.00     0.242 C 
HETATM    7  O1  UNL     1      -6.139   0.746  -0.209  1.00  0.00    -0.271 OA
HETATM    8  N2  UNL     1      -4.608   2.167  -1.209  1.00  0.00    -0.358 N 
HETATM    9  C8  UNL     1      -3.217   2.656  -1.160  1.00  0.00     0.142 C 
ATOM     10  H2  UNL     1      -5.279   2.541  -1.880  1.00  0.00     0.162 HD
HETATM   11  O2  UNL     1      -1.726  -0.078   2.251  1.00  0.00    -0.271 OA
BRANCH   4  12
HETATM   12  C5  UNL     1      -4.365  -0.844   0.998  1.00  0.00     0.308 C 
BRANCH  12  13
HETATM   13  N1  UNL     1      -4.487  -1.677  -0.126  1.00  0.00     0.099 N 
HETATM   14  C4  UNL     1      -3.357  -2.104  -0.872  1.00  0.00     0.284 C 
HETATM   15  C3  UNL     1      -4.155  -3.406  -1.146  1.00  0.00     0.071 C 
HETATM   16  C24 UNL     1      -5.029  -3.006   0.014  1.00  0.00     0.255 C 
BRANCH  15  17
HETATM   17  C2  UNL     1      -4.748  -3.323  -2.475  1.00  0.00    -0.028 C 
HETATM   18  C1  UNL     1      -5.973  -2.916  -2.718  1.00  0.00     0.007 C 
ENDBRANCH  15  17
BRANCH  16  19
HETATM   19  C25 UNL     1      -4.631  -3.784   1.248  1.00  0.00     0.200 C 
BRANCH  19  20
HETATM   20  O5  UNL     1      -5.049  -3.109   2.389  1.00  0.00    -0.399 OA
ATOM     21  H5  UNL     1      -4.799  -3.598   3.164  1.00  0.00     0.209 HD
ENDBRANCH  19  20
ENDBRANCH  16  19
ENDBRANCH  12  13
ENDBRANCH   4  12
ENDBRANCH   1   2
BRANCH   1  22
HETATM   22  C12 UNL     1       0.626   1.538   1.640  1.00  0.00     0.037 C 
BRANCH  22  23
HETATM   23  C13 UNL     1       0.294   2.949   1.788  1.00  0.00     0.022 C 
BRANCH  23  24
HETATM   24  C14 UNL     1      -1.035   3.321   2.379  1.00  0.00     0.122 C 
BRANCH  24  25
HETATM   25  N4  UNL     1      -1.172   4.744   2.558  1.00  0.00    -0.367 N 
HETATM   26  C15 UNL     1      -1.227   5.691   1.760  1.00  0.00     0.196 C 
HETATM   27  N5  UNL     1      -1.154   5.521   0.355  1.00  0.00    -0.067 NA
HETATM   28  N6  UNL     1      -1.370   7.052   2.214  1.00  0.00    -0.067 NA
ATOM     29  H4  UNL     1      -1.237   5.029   3.535  1.00  0.00     0.161 HD
ENDBRANCH  24  25
ENDBRANCH  23  24
ENDBRANCH  22  23
ENDBRANCH   1  22
BRANCH   1  30
HETATM   30  N7  UNL     1       0.520  -0.772   1.119  1.00  0.00    -0.306 N 
ATOM     31  H7  UNL     1       0.486  -1.198   2.045  1.00  0.00     0.173 HD
BRANCH  30  32
HETATM   32  S1  UNL     1       1.263  -1.475  -0.230  1.00  0.00     0.227 S 
HETATM   33  O3  UNL     1       0.198  -1.576  -1.331  1.00  0.00    -0.206 OA
HETATM   34  O4  UNL     1       1.634  -2.914   0.055  1.00  0.00    -0.206 OA
BRANCH  32  35
HETATM   35  C16 UNL     1       2.610  -0.608  -0.925  1.00  0.00     0.163 C 
BRANCH  35  36
HETATM   36  C17 UNL     1       3.795  -0.409  -0.051  1.00  0.00     0.017 C 
BRANCH  36  37
HETATM   37  C18 UNL     1       4.454  -1.682   0.426  1.00  0.00     0.001 C 
BRANCH  37  38
HETATM   38  C19 UNL     1       4.968  -2.559  -0.663  1.00  0.00     0.000 C 
BRANCH  38  39
HETATM   39  C20 UNL     1       6.015  -1.923  -1.542  1.00  0.00     0.000 C 
BRANCH  39  40
HETATM   40  C21 UNL     1       7.241  -1.503  -0.787  1.00  0.00    -0.000 C 
BRANCH  40  41
HETATM   41  C22 UNL     1       8.275  -0.873  -1.702  1.00  0.00    -0.005 C 
HETATM   42  C23 UNL     1       9.481  -0.474  -0.884  1.00  0.00     0.005 C 
ENDBRANCH  40  41
ENDBRANCH  39  40
ENDBRANCH  38  39
ENDBRANCH  37  38
ENDBRANCH  36  37
ENDBRANCH  35  36
ENDBRANCH  32  35
ENDBRANCH  30  32
ENDBRANCH   1  30
TORSDOF 19
