REMARK  8 active torsions:
REMARK  status: ('A' for Active; 'I' for Inactive)
REMARK    1  A    between atoms: N1_1  and  C1_5 
REMARK    2  A    between atoms: C1_5  and  C2_6 
REMARK    3  A    between atoms: C2_6  and  C3_7 
REMARK    4  A    between atoms: C3_7  and  C4_8 
REMARK    5  A    between atoms: C4_8  and  C5_9 
REMARK    6  A    between atoms: C5_9  and  N2_10 
REMARK    7  A    between atoms: C5_9  and  C12_31 
REMARK    8  A    between atoms: N2_10  and  C6_12 
ROOT
HETATM    1  C6  UNL     1      -0.665   0.581  -0.498  1.00  0.00     0.377 C 
HETATM    2  N3  UNL     1      -2.103   0.503  -0.782  1.00  0.00    -0.001 N 
ATOM      3  H31 UNL     1      -2.436  -0.458  -0.853  1.00  0.00     0.284 HD
ATOM      4  H32 UNL     1      -2.331   0.800  -1.731  1.00  0.00     0.284 HD
HETATM    5  C7  UNL     1      -2.802   1.252   0.208  1.00  0.00     0.364 C 
HETATM    6  N4  UNL     1      -1.814   2.044   0.915  1.00  0.00    -0.309 N 
ATOM      7  H4  UNL     1      -1.983   2.904   1.437  1.00  0.00     0.166 HD
HETATM    8  C8  UNL     1      -0.548   1.382   0.738  1.00  0.00     0.270 C 
HETATM    9  O1  UNL     1       0.381   1.549   1.559  1.00  0.00    -0.269 OA
HETATM   10  C9  UNL     1      -3.839   2.151  -0.310  1.00  0.00     0.291 C 
HETATM   11  O2  UNL     1      -3.664   3.402  -0.401  1.00  0.00    -0.268 OA
HETATM   12  N5  UNL     1      -5.079   1.566  -0.714  1.00  0.00    -0.297 N 
ATOM     13  H5  UNL     1      -5.669   2.041  -1.397  1.00  0.00     0.171 HD
HETATM   14  C10 UNL     1      -5.452   0.438  -0.215  1.00  0.00     0.197 C 
HETATM   15  N6  UNL     1      -6.688  -0.103  -0.646  1.00  0.00    -0.063 NA
HETATM   16  N7  UNL     1      -4.693  -0.277   0.731  1.00  0.00    -0.297 N 
ATOM     17  H7  UNL     1      -5.021  -1.168   1.104  1.00  0.00     0.171 HD
HETATM   18  C11 UNL     1      -3.456   0.282   1.149  1.00  0.00     0.291 C 
HETATM   19  O3  UNL     1      -2.929  -0.025   2.272  1.00  0.00    -0.268 OA
ENDROOT
BRANCH   1  20
HETATM   20  N2  UNL     1      -0.211  -0.715  -0.298  1.00  0.00    -0.376 N 
ATOM     21  H2  UNL     1      -0.881  -1.476  -0.408  1.00  0.00     0.156 HD
BRANCH  20  22
HETATM   22  C5  UNL     1       1.103  -1.048   0.044  1.00  0.00     0.168 C 
BRANCH  22  23
HETATM   23  C4  UNL     1       2.147  -0.691  -0.965  1.00  0.00     0.034 C 
BRANCH  23  24
HETATM   24  C3  UNL     1       3.557  -1.035  -0.606  1.00  0.00     0.004 C 
BRANCH  24  25
HETATM   25  C2  UNL     1       4.072  -0.351   0.637  1.00  0.00     0.027 C 
BRANCH  25  26
HETATM   26  C1  UNL     1       4.036   1.171   0.415  1.00  0.00     0.229 C 
BRANCH  26  27
HETATM   27  N1  UNL     1       4.918   1.389  -0.736  1.00  0.00    -0.079 N 
ATOM     28  H13 UNL     1       5.856   1.005  -0.622  1.00  0.00     0.274 HD
ATOM     29  H12 UNL     1       4.672   0.841  -1.560  1.00  0.00     0.274 HD
ATOM     30  H11 UNL     1       4.894   2.398  -0.883  1.00  0.00     0.274 HD
ENDBRANCH  26  27
ENDBRANCH  25  26
ENDBRANCH  24  25
ENDBRANCH  23  24
ENDBRANCH  22  23
BRANCH  22  31
HETATM   31  C12 UNL     1       1.118  -2.538   0.293  1.00  0.00     0.253 C 
HETATM   32  N8  UNL     1       2.035  -3.197   1.131  1.00  0.00    -0.060 NA
HETATM   33  O4  UNL     1       0.246  -3.239  -0.289  1.00  0.00    -0.275 OA
ENDBRANCH  22  31
ENDBRANCH  20  22
ENDBRANCH   1  20
TORSDOF 8
