REMARK  5 active torsions:
REMARK  status: ('A' for Active; 'I' for Inactive)
REMARK    1  A    between atoms: N1_1  and  C1_4 
REMARK    2  A    between atoms: C2_7  and  S1_8 
REMARK    3  A    between atoms: S1_8  and  C3_9 
REMARK    4  A    between atoms: C6_18  and  O3_19 
REMARK    5  A    between atoms: C7_23  and  N6_24 
ROOT
HETATM    1  C1  UNL     1      -0.231   1.827  -0.448  1.00  0.00     0.692 A 
HETATM    2  N2  UNL     1      -1.131   0.832  -0.400  1.00  0.00    -0.169 N 
ATOM      3  H2  UNL     1      -2.115   1.052  -0.552  1.00  0.00     0.186 HD
HETATM    4  C2  UNL     1      -0.781  -0.444  -0.159  1.00  0.00     0.180 A 
HETATM    5  N5  UNL     1       0.522  -0.689   0.034  1.00  0.00    -0.169 N 
ATOM      6  H5  UNL     1       0.809  -1.650   0.218  1.00  0.00     0.186 HD
HETATM    7  C7  UNL     1       1.480   0.269  -0.001  1.00  0.00     0.697 A 
HETATM    8  N7  UNL     1       1.066   1.518  -0.245  1.00  0.00    -0.022 N 
ATOM      9  H7  UNL     1       1.759   2.266  -0.279  1.00  0.00     0.203 HD
ENDROOT
BRANCH   4  10
HETATM   10  S1  UNL     1      -2.000  -1.768  -0.092  1.00  0.00    -0.031 SA
BRANCH  10  11
HETATM   11  C3  UNL     1      -3.631  -1.079  -0.379  1.00  0.00     0.132 A 
HETATM   12  N3  UNL     1      -4.151  -0.981  -1.621  1.00  0.00    -0.309 N 
HETATM   13  C4  UNL     1      -5.387  -0.454  -1.800  1.00  0.00     0.314 A 
ATOM     14  H3  UNL     1      -3.613  -1.304  -2.425  1.00  0.00     0.170 HD
HETATM   15  O1  UNL     1      -5.901  -0.348  -2.951  1.00  0.00    -0.262 OA
HETATM   16  C5  UNL     1      -6.150  -0.005  -0.745  1.00  0.00     0.315 A 
HETATM   17  O2  UNL     1      -7.291   0.477  -0.946  1.00  0.00    -0.262 OA
HETATM   18  N4  UNL     1      -5.638  -0.099   0.508  1.00  0.00    -0.297 N 
HETATM   19  C6  UNL     1      -4.412  -0.623   0.672  1.00  0.00     0.178 A 
ATOM     20  H4  UNL     1      -6.176   0.223   1.313  1.00  0.00     0.171 HD
BRANCH  19  21
HETATM   21  O3  UNL     1      -3.865  -0.728   1.963  1.00  0.00    -0.344 OA
ATOM     22  H3  UNL     1      -4.400  -0.416   2.683  1.00  0.00     0.219 HD
ENDBRANCH  19  21
ENDBRANCH  10  11
ENDBRANCH   4  10
BRANCH   1  23
HETATM   23  N1  UNL     1      -0.621   3.024  -0.681  1.00  0.00    -0.234 N 
ATOM     24  H12 UNL     1      -1.602   3.258  -0.835  1.00  0.00     0.174 HD
ATOM     25  H11 UNL     1       0.063   3.780  -0.717  1.00  0.00     0.174 HD
ENDBRANCH   1  23
BRANCH   7  26
HETATM   26  N6  UNL     1       2.843  -0.051   0.209  1.00  0.00    -0.213 N 
HETATM   27  C8  UNL     1       3.868   0.946   0.225  1.00  0.00     0.167 C 
HETATM   28  C9  UNL     1       4.992   0.643   1.221  1.00  0.00     0.188 C 
HETATM   29  O4  UNL     1       5.361  -0.674   1.254  1.00  0.00    -0.388 OA
HETATM   30  C10 UNL     1       4.769  -1.457   0.268  1.00  0.00     0.188 C 
HETATM   31  C11 UNL     1       3.267  -1.436   0.414  1.00  0.00     0.167 C 
ENDBRANCH   7  26
TORSDOF 5
