REMARK  11 active torsions:
REMARK  status: ('A' for Active; 'I' for Inactive)
REMARK    1  A    between atoms: C2_2  and  O1_3 
REMARK    2  A    between atoms: O1_3  and  C3_4 
REMARK    3  A    between atoms: C3_4  and  C4_6 
REMARK       I    between atoms: N1_11  and  C9_13 
REMARK    4  A    between atoms: C9_13  and  C10_15 
REMARK    5  A    between atoms: C10_15  and  S1_16 
REMARK    6  A    between atoms: S1_16  and  C11_17 
REMARK    7  A    between atoms: C11_17  and  C12_18 
REMARK    8  A    between atoms: C12_18  and  C13_19 
REMARK    9  A    between atoms: C13_19  and  O4_20 
REMARK   10  A    between atoms: O4_20  and  N2_21 
REMARK   11  A    between atoms: C17_27  and  C18_28 
REMARK       I    between atoms: C18_28  and  N4_30 
ROOT
HETATM    1  N2  UNL     1       8.787  -0.972   0.193  1.00  0.00    -0.261 N 
ATOM      2  H2  UNL     1       9.087  -1.213   1.138  1.00  0.00     0.195 HD
HETATM    3  C14 UNL     1       9.667  -0.606  -0.694  1.00  0.00     0.108 C 
HETATM    4  C15 UNL     1      11.097  -0.548  -0.310  1.00  0.00     0.083 C 
HETATM    5  C16 UNL     1       9.260  -0.264  -2.022  1.00  0.00     0.114 C 
HETATM    6  N3  UNL     1       8.922   0.008  -3.097  1.00  0.00    -0.190 NA
ENDROOT
BRANCH   1   7
HETATM    7  O4  UNL     1       7.447  -1.034  -0.143  1.00  0.00    -0.280 OA
BRANCH   7   8
HETATM    8  C13 UNL     1       6.598   0.082   0.128  1.00  0.00     0.202 C 
BRANCH   8   9
HETATM    9  C12 UNL     1       5.196  -0.264  -0.343  1.00  0.00     0.039 C 
BRANCH   9  10
HETATM   10  C11 UNL     1       4.732  -1.505   0.429  1.00  0.00     0.076 C 
BRANCH  10  11
HETATM   11  S1  UNL     1       3.064  -1.973  -0.083  1.00  0.00    -0.160 SA
BRANCH  11  12
HETATM   12  C10 UNL     1       1.935  -0.676   0.434  1.00  0.00     0.176 C 
BRANCH  12  13
HETATM   13  C9  UNL     1       0.513  -0.999   0.026  1.00  0.00     0.231 C 
HETATM   14  N1  UNL     1      -0.455  -0.078   0.366  1.00  0.00    -0.333 N 
HETATM   15  C8  UNL     1      -1.703  -0.151   0.522  1.00  0.00     0.007 C 
ATOM     16  H1  UNL     1      -0.083   0.858   0.524  1.00  0.00     0.168 HD
HETATM   17  C7  UNL     1      -2.462  -1.381   0.351  1.00  0.00     0.087 C 
HETATM   18  C17 UNL     1      -2.459   1.059   0.912  1.00  0.00     0.138 C 
HETATM   19  C5  UNL     1      -3.891  -1.093  -0.041  1.00  0.00    -0.066 C 
HETATM   20  C4  UNL     1      -4.321   0.123  -0.344  1.00  0.00     0.024 C 
HETATM   21  C6  UNL     1      -4.761  -2.302  -0.090  1.00  0.00     0.044 C 
HETATM   22  C19 UNL     1      -3.418   1.312  -0.273  1.00  0.00     0.040 C 
HETATM   23  C20 UNL     1      -4.133   2.607  -0.067  1.00  0.00     0.016 C 
HETATM   24  O3  UNL     1       0.330  -2.077  -0.588  1.00  0.00    -0.272 OA
BRANCH  20  25
HETATM   25  C3  UNL     1      -5.725   0.270  -0.749  1.00  0.00     0.289 C 
HETATM   26  O2  UNL     1      -6.177   1.417  -1.062  1.00  0.00    -0.260 OA
BRANCH  25  27
HETATM   27  O1  UNL     1      -6.637  -0.748  -0.829  1.00  0.00    -0.318 OA
BRANCH  27  28
HETATM   28  C2  UNL     1      -7.965  -0.501  -1.232  1.00  0.00     0.174 C 
HETATM   29  C1  UNL     1      -8.688   0.462  -0.326  1.00  0.00     0.034 C 
ENDBRANCH  27  28
ENDBRANCH  25  27
ENDBRANCH  20  25
BRANCH  18  30
HETATM   30  C18 UNL     1      -1.653   2.229   1.233  1.00  0.00     0.295 C 
HETATM   31  O5  UNL     1      -1.678   2.641   2.445  1.00  0.00    -0.266 OA
HETATM   32  N4  UNL     1      -0.845   2.948   0.328  1.00  0.00    -0.077 N 
HETATM   33  O6  UNL     1      -0.792   2.607  -0.861  1.00  0.00    -0.529 OA
HETATM   34  O7  UNL     1      -0.104   4.043   0.726  1.00  0.00    -0.529 OA
ENDBRANCH  18  30
ENDBRANCH  12  13
ENDBRANCH  11  12
ENDBRANCH  10  11
ENDBRANCH   9  10
ENDBRANCH   8   9
ENDBRANCH   7   8
ENDBRANCH   1   7
TORSDOF 11
