REMARK  17 active torsions:
REMARK  status: ('A' for Active; 'I' for Inactive)
REMARK    1  A    between atoms: C2_2  and  C3_3 
REMARK    2  A    between atoms: C3_3  and  C4_4 
REMARK    3  A    between atoms: C4_4  and  O1_5 
REMARK    4  A    between atoms: C4_4  and  O2_7 
REMARK    5  A    between atoms: O2_7  and  C6_8 
REMARK    6  A    between atoms: C6_8  and  C7_9 
REMARK    7  A    between atoms: C10_13  and  O4_14 
REMARK    8  A    between atoms: O4_14  and  C11_15 
REMARK    9  A    between atoms: C11_15  and  C12_17 
REMARK   10  A    between atoms: C16_21  and  O6_22 
REMARK   11  A    between atoms: O6_22  and  C17_23 
REMARK   12  A    between atoms: C17_23  and  C18_25 
REMARK   13  A    between atoms: C18_25  and  C19_26 
REMARK   14  A    between atoms: C19_26  and  C20_27 
REMARK   15  A    between atoms: C20_27  and  O8_28 
REMARK   16  A    between atoms: C21_30  and  C22_31 
REMARK   17  A    between atoms: C22_31  and  O10_33 
ROOT
HETATM    1  C7  UNL     1       1.523   0.626   0.170  1.00  0.00     0.105 A 
HETATM    2  O3  UNL     1       1.145   1.237   1.349  1.00  0.00    -0.376 OA
HETATM    3  C8  UNL     1       0.552   0.090   1.913  1.00  0.00     0.179 A 
HETATM    4  C9  UNL     1       0.942  -0.658   0.663  1.00  0.00     0.079 A 
HETATM    5  C10 UNL     1      -0.226  -1.000  -0.246  1.00  0.00     0.171 C 
HETATM    6  C16 UNL     1      -0.545   0.253  -1.027  1.00  0.00     0.178 C 
HETATM    7  C21 UNL     1       0.755   1.032  -1.056  1.00  0.00     0.155 C 
ENDROOT
BRANCH   1   8
HETATM    8  C6  UNL     1       3.022   0.618  -0.084  1.00  0.00     0.210 C 
BRANCH   8   9
HETATM    9  O2  UNL     1       3.683  -0.042   0.910  1.00  0.00    -0.358 OA
BRANCH   9  10
HETATM   10  C4  UNL     1       5.059  -0.077   0.722  1.00  0.00     0.259 C 
BRANCH  10  11
HETATM   11  C3  UNL     1       5.585  -1.470   0.737  1.00  0.00     0.060 C 
BRANCH  11  12
HETATM   12  C2  UNL     1       5.000  -2.397  -0.266  1.00  0.00     0.000 C 
HETATM   13  C1  UNL     1       5.224  -1.986  -1.694  1.00  0.00     0.005 C 
ENDBRANCH  11  12
ENDBRANCH  10  11
BRANCH  10  14
HETATM   14  O1  UNL     1       5.690   0.714   1.705  1.00  0.00    -0.366 OA
HETATM   15  C5  UNL     1       6.363   1.794   1.138  1.00  0.00     0.204 C 
ENDBRANCH  10  14
ENDBRANCH   9  10
ENDBRANCH   8   9
ENDBRANCH   1   8
BRANCH   7  16
HETATM   16  C22 UNL     1       0.538   2.497  -1.061  1.00  0.00     0.268 C 
HETATM   17  O9  UNL     1       0.987   3.199  -2.003  1.00  0.00    -0.265 OA
BRANCH  16  18
HETATM   18  O10 UNL     1      -0.154   3.153  -0.054  1.00  0.00    -0.326 OA
HETATM   19  C23 UNL     1      -0.374   4.549  -0.036  1.00  0.00     0.213 C 
ENDBRANCH  16  18
ENDBRANCH   7  16
BRANCH   5  20
HETATM   20  O4  UNL     1      -1.338  -1.477   0.451  1.00  0.00    -0.312 OA
BRANCH  20  21
HETATM   21  C11 UNL     1      -1.835  -2.753   0.233  1.00  0.00     0.267 C 
HETATM   22  O5  UNL     1      -1.256  -3.475  -0.613  1.00  0.00    -0.264 OA
BRANCH  21  23
HETATM   23  C12 UNL     1      -3.010  -3.296   0.949  1.00  0.00     0.037 C 
HETATM   24  C13 UNL     1      -3.284  -4.693   0.482  1.00  0.00     0.025 C 
HETATM   25  C14 UNL     1      -2.779  -3.346   2.455  1.00  0.00     0.025 C 
HETATM   26  C15 UNL     1      -4.228  -2.420   0.722  1.00  0.00     0.025 C 
ENDBRANCH  21  23
ENDBRANCH  20  21
ENDBRANCH   5  20
BRANCH   6  27
HETATM   27  O6  UNL     1      -1.560   1.024  -0.448  1.00  0.00    -0.312 OA
BRANCH  27  28
HETATM   28  C17 UNL     1      -2.754   1.353  -1.067  1.00  0.00     0.259 C 
HETATM   29  O7  UNL     1      -2.937   0.926  -2.235  1.00  0.00    -0.265 OA
BRANCH  28  30
HETATM   30  C18 UNL     1      -3.809   2.167  -0.436  1.00  0.00     0.113 C 
BRANCH  30  31
HETATM   31  C19 UNL     1      -5.002   2.385  -1.301  1.00  0.00     0.036 C 
BRANCH  31  32
HETATM   32  C20 UNL     1      -5.982   3.243  -0.487  1.00  0.00     0.164 C 
BRANCH  32  33
HETATM   33  O8  UNL     1      -7.133   3.517  -1.179  1.00  0.00    -0.401 OA
ATOM     34  H8  UNL     1      -7.739   4.048  -0.676  1.00  0.00     0.209 HD
ENDBRANCH  32  33
ENDBRANCH  31  32
ENDBRANCH  30  31
ENDBRANCH  28  30
ENDBRANCH  27  28
ENDBRANCH   6  27
TORSDOF 17
