REMARK  6 active torsions:
REMARK  status: ('A' for Active; 'I' for Inactive)
REMARK    1  A    between atoms: C2_2  and  C3_4 
REMARK    2  A    between atoms: C3_4  and  C4_5 
REMARK       I    between atoms: C4_5  and  N1_7 
REMARK    3  A    between atoms: N1_7  and  C6_9 
REMARK    4  A    between atoms: C6_9  and  C7_10 
REMARK    5  A    between atoms: C11_15  and  C12_16 
REMARK       I    between atoms: C12_16  and  N2_18 
REMARK    6  A    between atoms: N2_18  and  C13_20 
ROOT
HETATM    1  C7  UNL     1      -1.409  -1.069  -0.002  1.00  0.00    -0.018 A 
HETATM    2  C8  UNL     1      -0.192  -0.376   0.235  1.00  0.00     0.028 A 
HETATM    3  C9  UNL     1       0.941  -1.008   0.542  1.00  0.00     0.042 A 
HETATM    4  C10 UNL     1       2.176  -0.301   0.734  1.00  0.00     0.201 A 
HETATM    5  O3  UNL     1       2.137   0.923   0.621  1.00  0.00    -0.286 OA
HETATM    6  C11 UNL     1       3.334  -0.979   1.022  1.00  0.00     0.098 A 
HETATM    7  C18 UNL     1       3.271  -2.362   1.125  1.00  0.00     0.109 A 
HETATM    8  N3  UNL     1       2.144  -3.059   0.950  1.00  0.00    -0.364 N 
ATOM      9  H3  UNL     1       2.140  -4.075   1.036  1.00  0.00     0.165 HD
HETATM   10  C19 UNL     1       1.020  -2.391   0.659  1.00  0.00     0.048 A 
HETATM   11  C20 UNL     1      -0.213  -3.052   0.426  1.00  0.00     0.054 A 
HETATM   12  C21 UNL     1      -1.376  -2.405   0.108  1.00  0.00     0.044 A 
HETATM   13 CL1  UNL     1      -2.858  -3.377  -0.103  1.00  0.00    -0.084 Cl
ENDROOT
BRANCH   1  14
HETATM   14  C6  UNL     1      -2.501  -0.294  -0.650  1.00  0.00     0.165 C 
BRANCH  14  15
HETATM   15  N1  UNL     1      -3.087   0.740   0.170  1.00  0.00    -0.351 N 
HETATM   16  C4  UNL     1      -4.405   0.428   0.715  1.00  0.00     0.235 C 
HETATM   17  O2  UNL     1      -4.505   0.508   1.991  1.00  0.00    -0.272 OA
HETATM   18  C5  UNL     1      -2.428   1.832   0.774  1.00  0.00     0.153 C 
BRANCH  16  19
HETATM   19  C3  UNL     1      -5.568   0.095  -0.097  1.00  0.00     0.101 C 
HETATM   20  C22 UNL     1      -5.416   0.875  -1.432  1.00  0.00     0.027 C 
HETATM   21  C23 UNL     1      -6.455   1.945  -1.394  1.00  0.00     0.002 C 
HETATM   22  C24 UNL     1      -6.708   2.182   0.087  1.00  0.00     0.002 C 
HETATM   23  C25 UNL     1      -6.826   0.754   0.566  1.00  0.00     0.027 C 
BRANCH  19  24
HETATM   24  C2  UNL     1      -5.963  -1.232  -0.440  1.00  0.00     0.141 C 
HETATM   25  C1  UNL     1      -6.603  -2.213   0.488  1.00  0.00     0.092 C 
HETATM   26  O1  UNL     1      -5.794  -1.665  -1.611  1.00  0.00    -0.297 OA
ENDBRANCH  19  24
ENDBRANCH  16  19
ENDBRANCH  14  15
ENDBRANCH   1  14
BRANCH   6  27
HETATM   27  C12 UNL     1       4.646  -0.352   1.090  1.00  0.00     0.261 C 
HETATM   28  O4  UNL     1       5.052   0.121   2.203  1.00  0.00    -0.267 OA
HETATM   29  N2  UNL     1       5.413  -0.308  -0.050  1.00  0.00    -0.330 N 
ATOM     30  H2  UNL     1       4.909  -0.695  -0.848  1.00  0.00     0.168 HD
BRANCH  29  31
HETATM   31  C13 UNL     1       6.719   0.129  -0.426  1.00  0.00    -0.006 C 
HETATM   32  C14 UNL     1       6.685   0.811  -1.741  1.00  0.00     0.078 C 
HETATM   33  C15 UNL     1       7.962   1.598  -2.016  1.00  0.00     0.173 C 
HETATM   34  O5  UNL     1       8.040   2.543  -0.965  1.00  0.00    -0.390 OA
HETATM   35  C16 UNL     1       8.475   1.850   0.142  1.00  0.00     0.173 C 
HETATM   36  C17 UNL     1       7.612   0.693   0.582  1.00  0.00     0.078 C 
ENDBRANCH  29  31
ENDBRANCH   6  27
TORSDOF 6
