REMARK  6 active torsions:
REMARK  status: ('A' for Active; 'I' for Inactive)
REMARK    1  A    between atoms: C3_4  and  N2_5 
REMARK    2  A    between atoms: C5_7  and  C6_8 
REMARK    3  A    between atoms: C9_13  and  C10_14 
REMARK    4  A    between atoms: N4_17  and  C13_18 
REMARK       I    between atoms: N6_29  and  C22_31 
REMARK       I    between atoms: C22_31  and  N7_33 
REMARK    5  A    between atoms: N7_33  and  C23_34 
REMARK    6  A    between atoms: C23_34  and  C24_35 
ROOT
HETATM    1  N1  UNL     1       1.250  -0.010  -3.637  1.00  0.00    -0.191 NA
HETATM    2  C1  UNL     1       1.587  -0.640  -2.740  1.00  0.00     0.105 C 
HETATM    3  C2  UNL     1       2.004  -1.372  -1.589  1.00  0.00     0.116 A 
HETATM    4  C3  UNL     1       1.129  -1.958  -0.713  1.00  0.00     0.066 A 
HETATM    5  C19 UNL     1       1.457  -2.592   0.377  1.00  0.00     0.049 A 
HETATM    6  C20 UNL     1       2.826  -2.699   0.682  1.00  0.00     0.092 A 
HETATM    7  N5  UNL     1       3.704  -2.134  -0.173  1.00  0.00    -0.351 N 
ATOM      8  H5  UNL     1       4.696  -2.215   0.049  1.00  0.00     0.166 HD
HETATM    9  C21 UNL     1       3.362  -1.455  -1.324  1.00  0.00     0.133 A 
HETATM   10  N6  UNL     1       4.222  -1.039  -2.219  1.00  0.00    -0.281 N 
ATOM     11  H6  UNL     1       4.024  -0.648  -3.140  1.00  0.00     0.173 HD
HETATM   12  C22 UNL     1       5.631  -1.277  -1.557  1.00  0.00     0.394 C 
HETATM   13  O1  UNL     1       6.167  -2.240  -1.988  1.00  0.00    -0.230 OA
HETATM   14  N7  UNL     1       5.759  -0.252  -0.674  1.00  0.00    -0.396 NA
ENDROOT
BRANCH   4  15
HETATM   15  N2  UNL     1      -0.258  -1.713  -1.073  1.00  0.00    -0.308 N 
HETATM   16  C4  UNL     1      -0.846  -2.294  -2.111  1.00  0.00     0.124 A 
HETATM   17  C5  UNL     1      -2.127  -1.787  -2.174  1.00  0.00     0.030 A 
HETATM   18  N3  UNL     1      -2.251  -0.937  -1.172  1.00  0.00    -0.347 N 
HETATM   19  C9  UNL     1      -1.072  -0.882  -0.481  1.00  0.00     0.092 A 
ATOM     20  H3  UNL     1      -3.092  -0.406  -0.948  1.00  0.00     0.167 HD
BRANCH  17  21
HETATM   21  C6  UNL     1      -3.102  -2.166  -3.236  1.00  0.00     0.037 A 
HETATM   22  C7  UNL     1      -2.629  -3.180  -4.249  1.00  0.00     0.011 A 
HETATM   23  C8  UNL     1      -2.762  -1.779  -4.664  1.00  0.00     0.011 A 
ENDBRANCH  17  21
BRANCH  19  24
HETATM   24  C10 UNL     1      -0.918   0.083   0.633  1.00  0.00     0.057 C 
HETATM   25  C11 UNL     1      -1.087  -0.428   2.007  1.00  0.00     0.042 C 
HETATM   26  C12 UNL     1      -2.450  -0.127   2.597  1.00  0.00     0.273 C 
HETATM   27  N4  UNL     1      -2.740   1.304   2.610  1.00  0.00     0.093 N 
HETATM   28  C17 UNL     1      -1.932   2.041   1.713  1.00  0.00     0.273 C 
HETATM   29  C18 UNL     1      -1.817   1.306   0.420  1.00  0.00     0.042 C 
BRANCH  27  30
HETATM   30  C13 UNL     1      -4.153   1.387   2.280  1.00  0.00     0.223 C 
HETATM   31  C14 UNL     1      -4.797   2.701   2.153  1.00  0.00     0.036 C 
HETATM   32  C15 UNL     1      -5.443   2.535   3.500  1.00  0.00     0.004 C 
HETATM   33  C16 UNL     1      -5.035   1.100   3.509  1.00  0.00     0.036 C 
ENDBRANCH  27  30
ENDBRANCH  19  24
ENDBRANCH   4  15
BRANCH  14  34
HETATM   34  C23 UNL     1       5.911   0.765   0.219  1.00  0.00     0.231 C 
BRANCH  34  35
HETATM   35  C24 UNL     1       4.720   1.725  -0.160  1.00  0.00     0.053 A 
HETATM   36  C25 UNL     1       3.959   2.883   0.117  1.00  0.00     0.048 A 
HETATM   37  C26 UNL     1       5.343   3.180   0.174  1.00  0.00     0.177 A 
HETATM   38  F1  UNL     1       6.068   3.752  -0.808  1.00  0.00    -0.249 F 
ENDBRANCH  34  35
ENDBRANCH  14  34
TORSDOF 6
