REMARK  6 active torsions:
REMARK  status: ('A' for Active; 'I' for Inactive)
REMARK    1  A    between atoms: C2_2  and  N1_3 
REMARK    2  A    between atoms: N1_3  and  C3_5 
REMARK    3  A    between atoms: C3_5  and  C4_6 
REMARK    4  A    between atoms: C4_6  and  C5_7 
REMARK    5  A    between atoms: C5_7  and  N2_8 
REMARK    6  A    between atoms: N2_8  and  N3_10 
ROOT
HETATM    1  C5  UNL     1       1.855   0.437   0.175  1.00  0.00     0.142 C 
ENDROOT
BRANCH   1   2
HETATM    2  C4  UNL     1       0.458   0.968   0.305  1.00  0.00     0.041 C 
BRANCH   2   3
HETATM    3  C3  UNL     1      -0.393   0.440  -0.827  1.00  0.00     0.120 C 
BRANCH   3   4
HETATM    4  N1  UNL     1      -1.756   0.893  -0.794  1.00  0.00    -0.399 N 
ATOM      5  H1  UNL     1      -2.061   1.533  -1.527  1.00  0.00     0.158 HD
BRANCH   4   6
HETATM    6  C2  UNL     1      -2.710   0.512   0.189  1.00  0.00     0.072 C 
HETATM    7  C1  UNL     1      -3.784  -0.170  -0.158  1.00  0.00     0.029 C 
ENDBRANCH   4   6
ENDBRANCH   3   4
ENDBRANCH   2   3
ENDBRANCH   1   2
BRANCH   1   8
HETATM    8  N2  UNL     1       1.918  -0.998   0.225  1.00  0.00    -0.323 N 
ATOM      9  H2  UNL     1       1.078  -1.562   0.353  1.00  0.00     0.181 HD
BRANCH   8  10
HETATM   10  N3  UNL     1       3.189  -1.593   0.090  1.00  0.00    -0.254 N 
HETATM   11  N4  UNL     1       4.193  -1.249   0.791  1.00  0.00    -0.331 N 
ATOM     12  H42 UNL     1       4.055  -0.507   1.478  1.00  0.00     0.178 HD
ATOM     13  H41 UNL     1       5.113  -1.679   0.693  1.00  0.00     0.178 HD
ATOM     14  H3  UNL     1       3.309  -2.333  -0.601  1.00  0.00     0.207 HD
ENDBRANCH   8  10
ENDBRANCH   1   8
TORSDOF 6
