REMARK  7 active torsions:
REMARK  status: ('A' for Active; 'I' for Inactive)
REMARK    1  A    between atoms: C2_2  and  C3_3 
REMARK    2  A    between atoms: C3_3  and  C4_4 
REMARK    3  A    between atoms: C4_4  and  N1_5 
REMARK    4  A    between atoms: N1_5  and  N2_6 
REMARK    5  A    between atoms: N2_6  and  C5_7 
REMARK    6  A    between atoms: C5_7  and  C6_8 
REMARK    7  A    between atoms: C6_8  and  O1_9 
ROOT
HETATM    1  N1  UNL     1       0.138   0.245   0.574  1.00  0.00    -0.148 NA
ENDROOT
BRANCH   1   2
HETATM    2  C4  UNL     1      -0.999  -0.518   0.034  1.00  0.00     0.134 C 
BRANCH   2   3
HETATM    3  C3  UNL     1      -2.241   0.253   0.436  1.00  0.00     0.043 C 
BRANCH   3   4
HETATM    4  C2  UNL     1      -3.429  -0.487  -0.093  1.00  0.00    -0.036 C 
HETATM    5  C1  UNL     1      -4.253   0.085  -0.939  1.00  0.00     0.007 C 
ENDBRANCH   3   4
ENDBRANCH   2   3
ENDBRANCH   1   2
BRANCH   1   6
HETATM    6  N2  UNL     1       1.280  -0.461   0.207  1.00  0.00    -0.147 NA
BRANCH   6   7
HETATM    7  C5  UNL     1       2.356   0.471  -0.171  1.00  0.00     0.156 C 
BRANCH   7   8
HETATM    8  C6  UNL     1       3.558  -0.368  -0.556  1.00  0.00     0.181 C 
BRANCH   8   9
HETATM    9  O1  UNL     1       4.605   0.502  -0.923  1.00  0.00    -0.400 OA
ATOM     10  H1  UNL     1       5.358  -0.024  -1.164  1.00  0.00     0.209 HD
ENDBRANCH   8   9
ENDBRANCH   7   8
ENDBRANCH   6   7
ENDBRANCH   1   6
TORSDOF 7
