REMARK  13 active torsions:
REMARK  status: ('A' for Active; 'I' for Inactive)
REMARK    1  A    between atoms: C7_7  and  N1_8 
REMARK    2  A    between atoms: N1_8  and  C8_10 
REMARK    3  A    between atoms: C8_10  and  N2_12 
REMARK    4  A    between atoms: N2_12  and  C9_14 
REMARK    5  A    between atoms: C9_14  and  C10_15 
REMARK    6  A    between atoms: C10_15  and  C11_16 
REMARK    7  A    between atoms: C11_16  and  C12_17 
REMARK    8  A    between atoms: C12_17  and  C13_18 
REMARK    9  A    between atoms: C13_18  and  C14_19 
REMARK   10  A    between atoms: C14_19  and  C15_20 
REMARK   11  A    between atoms: C15_20  and  C16_21 
REMARK   12  A    between atoms: C16_21  and  N3_22 
REMARK   13  A    between atoms: N3_22  and  N4_23 
REMARK       I    between atoms: N3_22  and  C17_26 
ROOT
HETATM    1  C8  UNL     1      -1.526   0.361   0.860  1.00  0.00     0.168 C 
HETATM    2  S1  UNL     1      -1.243  -1.210   0.542  1.00  0.00    -0.041 SA
ENDROOT
BRANCH   1   3
HETATM    3  N1  UNL     1      -2.719   1.058   0.611  1.00  0.00    -0.354 N 
ATOM      4  H1  UNL     1      -2.773   2.043   0.870  1.00  0.00     0.163 HD
BRANCH   3   5
HETATM    5  C7  UNL     1      -3.853   0.447   0.013  1.00  0.00     0.056 C 
HETATM    6  C2  UNL     1      -3.654  -0.046  -1.352  1.00  0.00    -0.057 C 
HETATM    7  C1  UNL     1      -2.626   0.246  -2.080  1.00  0.00     0.017 C 
HETATM    8  C3  UNL     1      -4.739  -0.896  -1.907  1.00  0.00     0.017 C 
HETATM    9  C4  UNL     1      -5.110  -1.947  -0.886  1.00  0.00     0.014 C 
HETATM   10  C21 UNL     1      -5.937   0.080  -2.016  1.00  0.00     0.014 C 
HETATM   11  C5  UNL     1      -5.575  -1.347   0.397  1.00  0.00    -0.003 C 
HETATM   12  C6  UNL     1      -4.417  -0.569   0.983  1.00  0.00     0.041 C 
HETATM   13  C22 UNL     1      -6.705  -0.355   0.233  1.00  0.00    -0.040 C 
HETATM   14  C20 UNL     1      -6.183   0.728  -0.690  1.00  0.00    -0.003 C 
HETATM   15  C23 UNL     1      -7.920  -0.963  -0.430  1.00  0.00     0.015 C 
HETATM   16  C24 UNL     1      -7.107   0.159   1.578  1.00  0.00     0.015 C 
HETATM   17  C19 UNL     1      -5.006   1.474  -0.150  1.00  0.00     0.041 C 
ENDBRANCH   3   5
ENDBRANCH   1   3
BRANCH   1  18
HETATM   18  N2  UNL     1      -0.440   1.075   1.472  1.00  0.00    -0.367 N 
ATOM     19  H2  UNL     1      -0.591   2.055   1.710  1.00  0.00     0.161 HD
BRANCH  18  20
HETATM   20  C9  UNL     1       0.842   0.506   1.772  1.00  0.00     0.122 C 
BRANCH  20  21
HETATM   21  C10 UNL     1       1.665   0.214   0.541  1.00  0.00     0.020 C 
BRANCH  21  22
HETATM   22  C11 UNL     1       2.982  -0.394   0.945  1.00  0.00     0.002 C 
BRANCH  22  23
HETATM   23  C12 UNL     1       3.823  -0.685  -0.277  1.00  0.00     0.000 C 
BRANCH  23  24
HETATM   24  C13 UNL     1       4.132   0.564  -1.073  1.00  0.00     0.000 C 
BRANCH  24  25
HETATM   25  C14 UNL     1       4.888   1.576  -0.267  1.00  0.00     0.002 C 
BRANCH  25  26
HETATM   26  C15 UNL     1       6.189   1.029   0.229  1.00  0.00     0.022 C 
BRANCH  26  27
HETATM   27  C16 UNL     1       7.073   0.616  -0.924  1.00  0.00     0.151 C 
BRANCH  27  28
HETATM   28  N3  UNL     1       8.328   0.096  -0.349  1.00  0.00    -0.268 N 
HETATM   29  C17 UNL     1       8.443  -1.273  -0.041  1.00  0.00     0.233 C 
HETATM   30  C18 UNL     1       9.694  -1.811   0.535  1.00  0.00     0.119 C 
HETATM   31  O1  UNL     1       7.494  -2.064  -0.247  1.00  0.00    -0.272 OA
BRANCH  28  32
HETATM   32  N4  UNL     1       9.383   0.981  -0.122  1.00  0.00    -0.340 N 
ATOM     33  H42 UNL     1       9.300   1.973  -0.345  1.00  0.00     0.177 HD
ATOM     34  H41 UNL     1      10.251   0.621   0.276  1.00  0.00     0.177 HD
ENDBRANCH  28  32
ENDBRANCH  27  28
ENDBRANCH  26  27
ENDBRANCH  25  26
ENDBRANCH  24  25
ENDBRANCH  23  24
ENDBRANCH  22  23
ENDBRANCH  21  22
ENDBRANCH  20  21
ENDBRANCH  18  20
ENDBRANCH   1  18
TORSDOF 13
