REMARK  10 active torsions:
REMARK  status: ('A' for Active; 'I' for Inactive)
REMARK    1  A    between atoms: C1_2  and  C2_3 
REMARK       I    between atoms: C1_2  and  N3_17 
REMARK    2  A    between atoms: C2_3  and  N1_4 
REMARK    3  A    between atoms: N3_17  and  C12_19 
REMARK    4  A    between atoms: C12_19  and  C13_20 
REMARK    5  A    between atoms: C13_20  and  C14_21 
REMARK    6  A    between atoms: C14_21  and  C15_22 
REMARK    7  A    between atoms: C15_22  and  C16_23 
REMARK    8  A    between atoms: C16_23  and  C17_24 
REMARK    9  A    between atoms: C17_24  and  C18_25 
REMARK   10  A    between atoms: C18_25  and  C19_26 
ROOT
HETATM    1  O1  UNL     1      -1.397   0.545   2.572  1.00  0.00    -0.271 OA
HETATM    2  C1  UNL     1      -2.093   0.377   1.565  1.00  0.00     0.239 C 
HETATM    3  N3  UNL     1      -1.568   0.154   0.297  1.00  0.00    -0.339 N 
ATOM      4  H3  UNL     1      -2.270   0.013  -0.429  1.00  0.00     0.167 HD
ENDROOT
BRANCH   3   5
HETATM    5  C12 UNL     1      -0.244   0.089  -0.161  1.00  0.00     0.064 C 
BRANCH   5   6
HETATM    6  C13 UNL     1       0.637   1.268  -0.202  1.00  0.00     0.044 C 
BRANCH   6   7
HETATM    7  C14 UNL     1       0.891   1.970   1.074  1.00  0.00     0.005 C 
BRANCH   7   8
HETATM    8  C15 UNL     1       1.876   3.134   0.895  1.00  0.00     0.000 C 
BRANCH   8   9
HETATM    9  C16 UNL     1       3.215   2.659   0.393  1.00  0.00     0.000 C 
BRANCH   9  10
HETATM   10  C17 UNL     1       3.846   1.684   1.331  1.00  0.00     0.000 C 
BRANCH  10  11
HETATM   11  C18 UNL     1       5.198   1.229   0.872  1.00  0.00     0.007 C 
BRANCH  11  12
HETATM   12  C19 UNL     1       5.162   0.550  -0.442  1.00  0.00     0.016 C 
HETATM   13  C20 UNL     1       4.318  -0.682  -0.457  1.00  0.00     0.009 C 
HETATM   14  C21 UNL     1       5.173  -1.943  -0.377  1.00  0.00     0.033 C 
HETATM   15  C22 UNL     1       6.279  -1.958  -1.392  1.00  0.00     0.186 C 
HETATM   16  C23 UNL     1       7.593  -1.859  -0.628  1.00  0.00     0.035 C 
HETATM   17  N4  UNL     1       6.323  -0.678  -2.114  1.00  0.00    -0.066 N 
HETATM   18  C24 UNL     1       7.468  -0.436  -0.084  1.00  0.00     0.035 C 
HETATM   19  C25 UNL     1       6.543   0.267  -1.008  1.00  0.00     0.190 C 
ATOM     20  H42 UNL     1       7.002  -0.628  -2.873  1.00  0.00     0.278 HD
ATOM     21  H41 UNL     1       5.514  -0.481  -2.703  1.00  0.00     0.278 HD
ENDBRANCH  11  12
ENDBRANCH  10  11
ENDBRANCH   9  10
ENDBRANCH   8   9
ENDBRANCH   7   8
ENDBRANCH   6   7
ENDBRANCH   5   6
ENDBRANCH   3   5
BRANCH   2  22
HETATM   22  C2  UNL     1      -3.581   0.433   1.819  1.00  0.00     0.231 C 
BRANCH  22  23
HETATM   23  N1  UNL     1      -4.331   0.227   0.600  1.00  0.00    -0.320 N 
HETATM   24  C3  UNL     1      -4.667   1.362  -0.180  1.00  0.00     0.319 C 
HETATM   25  O2  UNL     1      -4.307   2.539   0.174  1.00  0.00    -0.247 OA
HETATM   26  N2  UNL     1      -5.417   1.152  -1.368  1.00  0.00    -0.333 N 
HETATM   27  C4  UNL     1      -6.199  -0.065  -1.482  1.00  0.00     0.040 A 
ATOM     28  H2  UNL     1      -5.406   1.839  -2.122  1.00  0.00     0.165 HD
HETATM   29  C5  UNL     1      -7.597   0.032  -1.018  1.00  0.00     0.034 A 
HETATM   30  C6  UNL     1      -7.226  -0.147  -2.517  1.00  0.00     0.034 A 
HETATM   31  C7  UNL     1      -5.326  -1.239  -1.107  1.00  0.00     0.037 C 
HETATM   32  C8  UNL     1      -6.183  -2.479  -0.978  1.00  0.00     0.009 C 
HETATM   33  C11 UNL     1      -4.700  -1.100   0.234  1.00  0.00     0.096 C 
HETATM   34  C9  UNL     1      -6.311  -2.785   0.486  1.00  0.00     0.002 C 
HETATM   35  C10 UNL     1      -5.744  -1.582   1.219  1.00  0.00     0.026 C 
ENDBRANCH  22  23
ENDBRANCH   2  22
TORSDOF 10
