REMARK  13 active torsions:
REMARK  status: ('A' for Active; 'I' for Inactive)
REMARK    1  A    between atoms: N1_2  and  C4_5 
REMARK    2  A    between atoms: C4_5  and  C5_6 
REMARK    3  A    between atoms: C5_6  and  C6_7 
REMARK    4  A    between atoms: C6_7  and  C7_8 
REMARK    5  A    between atoms: C7_8  and  C8_9 
REMARK    6  A    between atoms: C8_9  and  C9_10 
REMARK    7  A    between atoms: C9_10  and  C10_11 
REMARK    8  A    between atoms: C10_11  and  C11_12 
REMARK    9  A    between atoms: C11_12  and  N2_13 
REMARK       I    between atoms: N2_13  and  C12_14 
REMARK   10  A    between atoms: C12_14  and  O2_16 
REMARK   11  A    between atoms: O2_16  and  C13_17 
REMARK   12  A    between atoms: C21_25  and  N3_26 
REMARK   13  A    between atoms: N3_26  and  C22_28 
ROOT
HETATM    1  O2  UNL     1      -3.253   0.449   0.118  1.00  0.00    -0.284 OA
ENDROOT
BRANCH   1   2
HETATM    2  C12 UNL     1      -1.990   0.421   0.795  1.00  0.00     0.439 C 
HETATM    3  N2  UNL     1      -0.810   0.513   0.049  1.00  0.00    -0.363 NA
HETATM    4  O1  UNL     1      -2.095   0.320   2.019  1.00  0.00    -0.221 OA
BRANCH   3   5
HETATM    5  C11 UNL     1       0.313   0.601  -0.660  1.00  0.00     0.161 C 
BRANCH   5   6
HETATM    6  C10 UNL     1       1.394  -0.465  -0.579  1.00  0.00     0.060 C 
BRANCH   6   7
HETATM    7  C9  UNL     1       2.531  -0.123  -1.527  1.00  0.00     0.006 C 
BRANCH   7   8
HETATM    8  C8  UNL     1       3.209   1.170  -1.230  1.00  0.00     0.000 C 
BRANCH   8   9
HETATM    9  C7  UNL     1       3.847   1.197   0.108  1.00  0.00     0.000 C 
BRANCH   9  10
HETATM   10  C6  UNL     1       4.941   0.147   0.222  1.00  0.00     0.002 C 
BRANCH  10  11
HETATM   11  C5  UNL     1       5.998   0.393  -0.779  1.00  0.00     0.028 C 
BRANCH  11  12
HETATM   12  C4  UNL     1       7.135  -0.547  -0.713  1.00  0.00     0.236 C 
BRANCH  12  13
HETATM   13  N1  UNL     1       7.946  -0.596   0.436  1.00  0.00    -0.079 N 
HETATM   14  C1  UNL     1       9.350  -0.644  -0.051  1.00  0.00     0.271 C 
HETATM   15  C2  UNL     1       7.708  -1.868   1.129  1.00  0.00     0.271 C 
HETATM   16  C3  UNL     1       7.808   0.455   1.397  1.00  0.00     0.271 C 
ENDBRANCH  12  13
ENDBRANCH  11  12
ENDBRANCH  10  11
ENDBRANCH   9  10
ENDBRANCH   8   9
ENDBRANCH   7   8
ENDBRANCH   6   7
ENDBRANCH   5   6
ENDBRANCH   3   5
ENDBRANCH   1   2
BRANCH   1  17
HETATM   17  C13 UNL     1      -4.475   0.368   0.824  1.00  0.00     0.167 C 
HETATM   18  C14 UNL     1      -5.072   1.771   0.730  1.00  0.00     0.019 C 
HETATM   19  C15 UNL     1      -6.254   1.826   1.635  1.00  0.00     0.012 C 
HETATM   20  C19 UNL     1      -5.380   2.068  -0.710  1.00  0.00     0.012 C 
HETATM   21  C16 UNL     1      -7.259   0.822   1.171  1.00  0.00    -0.011 C 
HETATM   22  C17 UNL     1      -7.668   1.177  -0.244  1.00  0.00     0.009 C 
HETATM   23  C23 UNL     1      -6.695  -0.584   1.129  1.00  0.00     0.038 C 
HETATM   24  C18 UNL     1      -6.466   1.095  -1.134  1.00  0.00    -0.011 C 
HETATM   25  C20 UNL     1      -5.826  -0.287  -1.151  1.00  0.00     0.038 C 
HETATM   26  C21 UNL     1      -5.442  -0.637   0.267  1.00  0.00     0.060 C 
BRANCH  26  27
HETATM   27  N3  UNL     1      -4.886  -1.956   0.298  1.00  0.00    -0.358 N 
ATOM     28  H3  UNL     1      -3.941  -2.021   0.676  1.00  0.00     0.162 HD
BRANCH  27  29
HETATM   29  C22 UNL     1      -5.447  -3.167  -0.113  1.00  0.00     0.181 C 
HETATM   30  N4  UNL     1      -6.733  -3.341  -0.671  1.00  0.00    -0.070 NA
HETATM   31  S1  UNL     1      -4.560  -4.551   0.046  1.00  0.00    -0.044 SA
ENDBRANCH  27  29
ENDBRANCH  26  27
ENDBRANCH   1  17
TORSDOF 13
