REMARK  10 active torsions:
REMARK  status: ('A' for Active; 'I' for Inactive)
REMARK    1  A    between atoms: C2_2  and  C3_3 
REMARK    2  A    between atoms: C3_3  and  C4_4 
REMARK    3  A    between atoms: C4_4  and  C5_5 
REMARK    4  A    between atoms: C5_5  and  C6_6 
REMARK    5  A    between atoms: C6_6  and  N1_7 
REMARK       I    between atoms: N1_7  and  C7_9 
REMARK       I    between atoms: C7_9  and  N2_11 
REMARK    6  A    between atoms: N2_11  and  C8_13 
REMARK    7  A    between atoms: C8_13  and  C9_14 
REMARK    8  A    between atoms: C9_14  and  C10_15 
REMARK    9  A    between atoms: C10_15  and  N3_16 
REMARK       I    between atoms: N3_16  and  C11_18 
REMARK   10  A    between atoms: C11_18  and  C12_20 
ROOT
HETATM    1  N3  UNL     1      -1.130  -1.085  -0.974  1.00  0.00    -0.361 N 
ATOM      2  H3  UNL     1      -1.253  -2.030  -1.337  1.00  0.00     0.162 HD
HETATM    3  C11 UNL     1      -2.306  -0.318  -0.707  1.00  0.00     0.223 C 
HETATM    4  O2  UNL     1      -2.082   0.827  -0.268  1.00  0.00    -0.273 OA
ENDROOT
BRANCH   1   5
HETATM    5  C10 UNL     1       0.209  -0.619  -0.768  1.00  0.00     0.124 C 
BRANCH   5   6
HETATM    6  C9  UNL     1       0.542  -0.251   0.648  1.00  0.00     0.039 C 
BRANCH   6   7
HETATM    7  C8  UNL     1       1.967   0.218   0.743  1.00  0.00     0.126 C 
BRANCH   7   8
HETATM    8  N2  UNL     1       2.918  -0.765   0.341  1.00  0.00    -0.343 N 
HETATM    9  C7  UNL     1       4.350  -0.472   0.369  1.00  0.00     0.316 C 
HETATM   10  N1  UNL     1       5.235  -1.460  -0.032  1.00  0.00    -0.343 N 
HETATM   11  O1  UNL     1       4.673   0.659   0.756  1.00  0.00    -0.247 OA
ATOM     12  H1  UNL     1       4.765  -2.327  -0.292  1.00  0.00     0.164 HD
ATOM     13  H2  UNL     1       2.596  -1.682   0.031  1.00  0.00     0.164 HD
BRANCH  10  14
HETATM   14  C6  UNL     1       6.640  -1.540  -0.163  1.00  0.00     0.124 C 
BRANCH  14  15
HETATM   15  C5  UNL     1       7.331  -0.698  -1.143  1.00  0.00     0.020 C 
BRANCH  15  16
HETATM   16  C4  UNL     1       7.369   0.768  -1.041  1.00  0.00     0.002 C 
BRANCH  16  17
HETATM   17  C3  UNL     1       8.054   1.299   0.206  1.00  0.00    -0.000 C 
BRANCH  17  18
HETATM   18  C2  UNL     1       9.495   0.825   0.242  1.00  0.00    -0.005 C 
HETATM   19  C1  UNL     1      10.210   1.335   1.473  1.00  0.00     0.005 C 
ENDBRANCH  17  18
ENDBRANCH  16  17
ENDBRANCH  15  16
ENDBRANCH  14  15
ENDBRANCH  10  14
ENDBRANCH   7   8
ENDBRANCH   6   7
ENDBRANCH   5   6
ENDBRANCH   1   5
BRANCH   3  20
HETATM   20  C12 UNL     1      -3.589  -0.937  -0.968  1.00  0.00     0.091 C 
HETATM   21  C13 UNL     1      -4.879  -0.303  -0.746  1.00  0.00     0.009 C 
HETATM   22  C14 UNL     1      -5.115   1.140  -0.727  1.00  0.00     0.007 C 
HETATM   23  C22 UNL     1      -5.014  -1.010   0.578  1.00  0.00    -0.001 C 
HETATM   24  C15 UNL     1      -6.056   1.570  -1.878  1.00  0.00     0.013 C 
HETATM   25  C18 UNL     1      -5.819   1.719   0.437  1.00  0.00     0.021 C 
HETATM   26  C16 UNL     1      -7.401   1.191  -1.258  1.00  0.00     0.079 C 
HETATM   27  C17 UNL     1      -7.274   1.879   0.057  1.00  0.00     0.135 C 
HETATM   28  O3  UNL     1      -8.092   2.450   0.722  1.00  0.00    -0.297 OA
HETATM   29  C19 UNL     1      -5.339   3.157   0.698  1.00  0.00     0.024 C 
HETATM   30  C20 UNL     1      -5.771   0.990   1.711  1.00  0.00     0.018 C 
HETATM   31  C21 UNL     1      -4.792  -0.154   1.767  1.00  0.00     0.007 C 
HETATM   32  C23 UNL     1      -3.933  -1.939   0.140  1.00  0.00    -0.031 C 
HETATM   33  C24 UNL     1      -4.454  -3.269  -0.373  1.00  0.00     0.016 C 
HETATM   34  C25 UNL     1      -2.884  -2.110   1.188  1.00  0.00     0.016 C 
ENDBRANCH   3  20
TORSDOF 10
