REMARK  13 active torsions:
REMARK  status: ('A' for Active; 'I' for Inactive)
REMARK    1  A    between atoms: C2_2  and  C3_3 
REMARK    2  A    between atoms: C5_5  and  C7_7 
REMARK    3  A    between atoms: C7_7  and  C8_8 
REMARK    4  A    between atoms: C8_8  and  C9_9 
REMARK    5  A    between atoms: C9_9  and  C10_10 
REMARK    6  A    between atoms: C10_10  and  O1_11 
REMARK    7  A    between atoms: C10_10  and  C11_13 
REMARK    8  A    between atoms: C11_13  and  C14_16 
REMARK    9  A    between atoms: C21_24  and  C22_25 
REMARK   10  A    between atoms: C22_25  and  O3_26 
REMARK   11  A    between atoms: C25_31  and  O5_32 
REMARK   12  A    between atoms: C27_35  and  O6_36 
REMARK   13  A    between atoms: O6_36  and  C28_37 
ROOT
HETATM    1  C3  UNL     1      -1.158  -1.027   0.945  1.00  0.00    -0.018 C 
HETATM    2  C4  UNL     1      -0.597   0.128   0.571  1.00  0.00    -0.015 C 
HETATM    3  C5  UNL     1       0.806   0.358   0.613  1.00  0.00    -0.054 C 
HETATM    4  C6  UNL     1       1.772   0.291   1.668  1.00  0.00     0.049 C 
HETATM    5  C16 UNL     1      -1.422   1.243  -0.006  1.00  0.00    -0.041 C 
HETATM    6  C17 UNL     1      -1.488   2.381   0.589  1.00  0.00    -0.022 C 
HETATM    7  C18 UNL     1      -0.863   2.828   1.850  1.00  0.00     0.036 C 
HETATM    8  C19 UNL     1      -2.346   1.118  -1.204  1.00  0.00     0.082 C 
HETATM    9  C20 UNL     1      -3.394   2.142  -1.142  1.00  0.00     0.024 C 
HETATM   10  C21 UNL     1      -4.480   1.815  -2.191  1.00  0.00     0.039 C 
HETATM   11  C23 UNL     1      -4.963   0.444  -1.875  1.00  0.00     0.127 C 
HETATM   12  C24 UNL     1      -6.160   0.031  -2.697  1.00  0.00     0.040 C 
HETATM   13  O4  UNL     1      -3.916  -0.438  -2.075  1.00  0.00    -0.349 OA
HETATM   14  C25 UNL     1      -2.909  -0.321  -1.154  1.00  0.00     0.172 C 
HETATM   15  C26 UNL     1      -3.453  -0.592   0.186  1.00  0.00     0.106 C 
HETATM   16  C27 UNL     1      -2.574  -1.489   1.070  1.00  0.00     0.171 C 
ENDROOT
BRANCH   1  17
HETATM   17  C2  UNL     1      -0.206  -1.996   1.352  1.00  0.00     0.000 C 
HETATM   18  C1  UNL     1      -0.529  -3.204   1.772  1.00  0.00     0.012 C 
ENDBRANCH   1  17
BRANCH   3  19
HETATM   19  C7  UNL     1       1.369   0.344  -0.778  1.00  0.00    -0.019 C 
BRANCH  19  20
HETATM   20  C8  UNL     1       2.795   0.529  -1.039  1.00  0.00     0.030 C 
BRANCH  20  21
HETATM   21  C9  UNL     1       3.787  -0.498  -0.644  1.00  0.00     0.036 C 
BRANCH  21  22
HETATM   22  C10 UNL     1       5.193  -0.006  -1.087  1.00  0.00     0.133 C 
BRANCH  22  23
HETATM   23  O1  UNL     1       5.132   0.144  -2.467  1.00  0.00    -0.394 OA
ATOM     24  H1  UNL     1       5.991   0.445  -2.738  1.00  0.00     0.210 HD
ENDBRANCH  22  23
BRANCH  22  25
HETATM   25  C11 UNL     1       6.220  -1.019  -0.679  1.00  0.00     0.038 C 
HETATM   26  C12 UNL     1       7.603  -0.589  -1.090  1.00  0.00     0.025 C 
HETATM   27  C13 UNL     1       5.952  -2.386  -1.244  1.00  0.00     0.025 C 
BRANCH  25  28
HETATM   28  C14 UNL     1       6.238  -1.163   0.822  1.00  0.00     0.133 C 
HETATM   29  C15 UNL     1       6.559   0.045   1.652  1.00  0.00     0.091 C 
HETATM   30  O2  UNL     1       6.009  -2.194   1.395  1.00  0.00    -0.297 OA
ENDBRANCH  25  28
ENDBRANCH  22  25
ENDBRANCH  21  22
ENDBRANCH  20  21
ENDBRANCH  19  20
ENDBRANCH   3  19
BRANCH  16  31
HETATM   31  O6  UNL     1      -3.024  -1.283   2.411  1.00  0.00    -0.311 OA
BRANCH  31  32
HETATM   32  C28 UNL     1      -3.752  -2.108   3.195  1.00  0.00     0.255 C 
HETATM   33  C29 UNL     1      -4.150  -1.759   4.610  1.00  0.00     0.126 C 
HETATM   34  O7  UNL     1      -4.121  -3.220   2.739  1.00  0.00    -0.266 OA
ENDBRANCH  31  32
ENDBRANCH  16  31
BRANCH  14  35
HETATM   35  O5  UNL     1      -1.862  -1.138  -1.560  1.00  0.00    -0.365 OA
ATOM     36  H5  UNL     1      -2.208  -2.022  -1.529  1.00  0.00     0.213 HD
ENDBRANCH  14  35
BRANCH  10  37
HETATM   37  C22 UNL     1      -5.570   2.858  -2.150  1.00  0.00     0.171 C 
BRANCH  37  38
HETATM   38  O3  UNL     1      -6.186   2.928  -0.921  1.00  0.00    -0.400 OA
ATOM     39  H3  UNL     1      -6.872   3.585  -0.895  1.00  0.00     0.209 HD
ENDBRANCH  37  38
ENDBRANCH  10  37
TORSDOF 13
