REMARK  3 active torsions:
REMARK  status: ('A' for Active; 'I' for Inactive)
REMARK    1  A    between atoms: C3_4  and  O1_5 
REMARK    2  A    between atoms: O1_5  and  C4_6 
REMARK    3  A    between atoms: C4_6  and  C5_7 
ROOT
HETATM    1  F1  UNL     1       3.681   1.983   0.060  1.00  0.00    -0.186 F 
HETATM    2  C1  UNL     1       2.974   0.832   0.272  1.00  0.00     0.190 A 
HETATM    3  C2  UNL     1       1.705   0.568  -0.202  1.00  0.00     0.099 A 
HETATM    4  C3  UNL     1       1.372  -0.694   0.239  1.00  0.00     0.088 A 
HETATM    5  C8  UNL     1       2.443  -1.165   0.967  1.00  0.00     0.127 A 
HETATM    6  N1  UNL     1       3.406  -0.228   0.978  1.00  0.00    -0.340 N 
ATOM      7  H1  UNL     1       4.311  -0.307   1.443  1.00  0.00     0.167 HD
ENDROOT
BRANCH   4   8
HETATM    8  O1  UNL     1       0.194  -1.392   0.013  1.00  0.00    -0.349 OA
BRANCH   8   9
HETATM    9  C4  UNL     1      -0.896  -0.930  -0.718  1.00  0.00     0.180 C 
BRANCH   9  10
HETATM   10  C5  UNL     1      -1.500   0.334  -0.144  1.00  0.00     0.010 A 
HETATM   11  C6  UNL     1      -2.696   0.917  -0.874  1.00  0.00     0.007 A 
HETATM   12  C7  UNL     1      -2.945   0.151   0.379  1.00  0.00     0.007 A 
ENDBRANCH   9  10
ENDBRANCH   8   9
ENDBRANCH   4   8
TORSDOF 3
