REMARK  6 active torsions:
REMARK  status: ('A' for Active; 'I' for Inactive)
REMARK    1  A    between atoms: S1_2  and  C2_3 
REMARK    2  A    between atoms: C2_3  and  C3_4 
REMARK    3  A    between atoms: C3_4  and  N1_5 
REMARK    4  A    between atoms: C12_14  and  O1_15 
REMARK    5  A    between atoms: C12_14  and  C13_17 
REMARK    6  A    between atoms: C13_17  and  O2_18 
ROOT
HETATM    1  C2  UNL     1       2.437  -1.060   0.905  1.00  0.00     0.044 C 
HETATM    2  C8  UNL     1       1.240  -0.710   1.431  1.00  0.00     0.068 C 
HETATM    3  C9  UNL     1       1.172  -0.423   2.875  1.00  0.00     0.066 C 
HETATM    4  C10 UNL     1       0.082   0.640   3.047  1.00  0.00     0.012 C 
HETATM    5  C11 UNL     1      -1.219   0.013   2.655  1.00  0.00     0.072 C 
HETATM    6  C12 UNL     1      -1.147  -0.795   1.397  1.00  0.00     0.199 C 
HETATM    7  O3  UNL     1       0.083  -0.606   0.704  1.00  0.00    -0.314 OA
ENDROOT
BRANCH   6   8
HETATM    8  O1  UNL     1      -1.205  -2.150   1.771  1.00  0.00    -0.363 OA
ATOM      9  H1  UNL     1      -1.159  -2.663   0.973  1.00  0.00     0.213 HD
ENDBRANCH   6   8
BRANCH   6  10
HETATM   10  C13 UNL     1      -2.349  -0.517   0.559  1.00  0.00     0.118 C 
HETATM   11  C14 UNL     1      -2.501  -1.501  -0.603  1.00  0.00     0.044 C 
HETATM   12  C15 UNL     1      -3.570  -0.926  -1.497  1.00  0.00     0.009 C 
HETATM   13  C16 UNL     1      -3.444   0.552  -1.712  1.00  0.00    -0.006 C 
HETATM   14  C17 UNL     1      -1.963   0.898  -1.477  1.00  0.00     0.014 C 
HETATM   15  C19 UNL     1      -3.677   1.366  -0.468  1.00  0.00    -0.037 C 
HETATM   16  C18 UNL     1      -2.341   0.863   0.014  1.00  0.00     0.034 C 
HETATM   17  C20 UNL     1      -4.872   1.131   0.337  1.00  0.00     0.015 C 
HETATM   18  C21 UNL     1      -3.537   2.852  -0.828  1.00  0.00     0.015 C 
BRANCH  10  19
HETATM   19  O2  UNL     1      -3.464  -0.796   1.373  1.00  0.00    -0.384 OA
ATOM     20  H2  UNL     1      -4.230  -0.619   0.839  1.00  0.00     0.210 HD
ENDBRANCH  10  19
ENDBRANCH   6  10
BRANCH   1  21
HETATM   21  S1  UNL     1       3.780  -1.136   1.995  1.00  0.00    -0.131 SA
HETATM   22  C1  UNL     1       5.198  -2.101   1.543  1.00  0.00     0.095 C 
ENDBRANCH   1  21
BRANCH   1  23
HETATM   23  C3  UNL     1       2.414  -1.435  -0.505  1.00  0.00     0.106 C 
BRANCH  23  24
HETATM   24  N1  UNL     1       3.049  -0.666  -1.450  1.00  0.00    -0.389 N 
HETATM   25  C4  UNL     1       4.409  -0.508  -1.651  1.00  0.00     0.122 C 
HETATM   26  C5  UNL     1       4.808   0.821  -0.991  1.00  0.00     0.021 C 
HETATM   27  C6  UNL     1       3.477   1.515  -0.811  1.00  0.00     0.021 C 
HETATM   28  C7  UNL     1       2.538   0.688  -1.655  1.00  0.00     0.122 C 
ENDBRANCH  23  24
ENDBRANCH   1  23
TORSDOF 6
