REMARK  8 active torsions:
REMARK  status: ('A' for Active; 'I' for Inactive)
REMARK    1  A    between atoms: C1_2  and  C2_4 
REMARK    2  A    between atoms: N2_8  and  C6_9 
REMARK    3  A    between atoms: C6_9  and  C7_10 
REMARK    4  A    between atoms: N3_11  and  C8_13 
REMARK    5  A    between atoms: C11_20  and  C12_21 
REMARK    6  A    between atoms: C12_21  and  C13_23 
REMARK    7  A    between atoms: C13_23  and  S1_24 
REMARK    8  A    between atoms: S1_24  and  C14_25 
ROOT
HETATM    1  C8  UNL     1      -0.754  -0.646   1.189  1.00  0.00     0.048 A 
HETATM    2  C9  UNL     1       0.164  -1.096   2.114  1.00  0.00     0.119 A 
HETATM    3  N4  UNL     1       1.486  -0.965   1.921  1.00  0.00    -0.349 N 
ATOM      4  H4  UNL     1       2.126  -1.314   2.635  1.00  0.00     0.167 HD
HETATM    5  C10 UNL     1       2.001  -0.382   0.804  1.00  0.00     0.116 A 
HETATM    6  N5  UNL     1       3.261  -0.141   0.398  1.00  0.00    -0.339 N 
ATOM      7  H5  UNL     1       4.099  -0.388   0.924  1.00  0.00     0.167 HD
HETATM    8  C11 UNL     1       3.261   0.480  -0.815  1.00  0.00     0.081 A 
HETATM    9  C21 UNL     1       1.920   0.613  -1.142  1.00  0.00     0.048 A 
HETATM   10  C22 UNL     1       1.123   0.084  -0.150  1.00  0.00     0.013 A 
HETATM   11  C23 UNL     1      -0.246  -0.055   0.057  1.00  0.00     0.046 A 
ENDROOT
BRANCH   8  12
HETATM   12  C12 UNL     1       4.423   0.907  -1.575  1.00  0.00     0.185 C 
HETATM   13  O2  UNL     1       4.244   1.464  -2.680  1.00  0.00    -0.290 OA
BRANCH  12  14
HETATM   14  C13 UNL     1       5.782   0.694  -1.067  1.00  0.00     0.166 C 
BRANCH  14  15
HETATM   15  S1  UNL     1       6.486  -0.882  -1.620  1.00  0.00    -0.097 SA
BRANCH  15  16
HETATM   16  C14 UNL     1       8.144  -1.000  -0.908  1.00  0.00     0.113 A 
HETATM   17  N6  UNL     1       8.760  -0.130  -0.127  1.00  0.00    -0.344 N 
HETATM   18  C15 UNL     1       9.968  -0.379   0.301  1.00  0.00     0.050 A 
ATOM     19  H6  UNL     1       8.292   0.736   0.141  1.00  0.00     0.167 HD
HETATM   20  C16 UNL     1      10.736   0.459   1.138  1.00  0.00     0.032 A 
HETATM   21  C20 UNL     1      10.544  -1.558  -0.092  1.00  0.00     0.035 A 
HETATM   22  C17 UNL     1      11.982   0.081   1.513  1.00  0.00     0.026 A 
HETATM   23  C18 UNL     1      12.576  -1.095   1.130  1.00  0.00     0.035 A 
HETATM   24 CL1  UNL     1      14.174  -1.475   1.672  1.00  0.00    -0.084 Cl
HETATM   25  C19 UNL     1      11.839  -1.921   0.314  1.00  0.00     0.045 A 
HETATM   26  S2  UNL     1       9.310  -2.239  -1.058  1.00  0.00    -0.063 SA
ENDBRANCH  15  16
ENDBRANCH  14  15
ENDBRANCH  12  14
ENDBRANCH   8  12
BRANCH   1  27
HETATM   27  N3  UNL     1      -2.138  -0.767   1.368  1.00  0.00    -0.367 N 
HETATM   28  C7  UNL     1      -3.031  -0.818   0.466  1.00  0.00     0.091 C 
ATOM     29  H3  UNL     1      -2.466  -0.820   2.332  1.00  0.00     0.165 HD
BRANCH  28  30
HETATM   30  C6  UNL     1      -4.478  -0.946   0.728  1.00  0.00     0.317 C 
BRANCH  30  31
HETATM   31  N2  UNL     1      -5.206   0.260   0.512  1.00  0.00     0.093 N 
HETATM   32  C5  UNL     1      -5.310   0.709  -0.835  1.00  0.00     0.273 C 
HETATM   33  C4  UNL     1      -6.062   2.014  -0.845  1.00  0.00     0.031 C 
HETATM   34  C3  UNL     1      -7.541   1.869  -0.817  1.00  0.00     0.015 C 
HETATM   35  C2  UNL     1      -8.060   0.474  -0.831  1.00  0.00     0.076 C 
HETATM   36  C25 UNL     1      -7.495  -0.388   0.267  1.00  0.00     0.044 C 
HETATM   37  C24 UNL     1      -6.500   0.310   1.137  1.00  0.00     0.273 C 
BRANCH  35  38
HETATM   38  C1  UNL     1      -9.534   0.506  -0.679  1.00  0.00     0.235 C 
HETATM   39  N1  UNL     1     -10.298  -0.679  -0.651  1.00  0.00    -0.062 NA
HETATM   40  O1  UNL     1     -10.123   1.608  -0.572  1.00  0.00    -0.277 OA
ENDBRANCH  35  38
ENDBRANCH  30  31
ENDBRANCH  28  30
ENDBRANCH   1  27
TORSDOF 8
