REMARK  11 active torsions:
REMARK  status: ('A' for Active; 'I' for Inactive)
REMARK    1  A    between atoms: S1_2  and  C2_3 
REMARK    2  A    between atoms: C2_3  and  N1_5 
REMARK    3  A    between atoms: N1_5  and  C3_7 
REMARK    4  A    between atoms: C3_7  and  C4_8 
REMARK    5  A    between atoms: C9_18  and  C10_19 
REMARK    6  A    between atoms: C10_19  and  N4_20 
REMARK    7  A    between atoms: N4_20  and  C11_23 
REMARK    8  A    between atoms: C11_23  and  C12_24 
REMARK    9  A    between atoms: C16_29  and  O2_30 
REMARK   10  A    between atoms: O2_30  and  C17_31 
REMARK   11  A    between atoms: C17_31  and  C18_33 
ROOT
HETATM    1  C10 UNL     1      -0.617   0.316  -0.327  1.00  0.00     0.240 C 
ENDROOT
BRANCH   1   2
HETATM    2  C9  UNL     1      -1.962   0.021  -0.882  1.00  0.00     0.048 A 
HETATM    3  C3  UNL     1      -3.203   0.174  -0.095  1.00  0.00     0.104 A 
HETATM    4  C7  UNL     1      -3.640   1.315  -1.034  1.00  0.00     0.041 A 
HETATM    5  C8  UNL     1      -2.435   1.051  -1.876  1.00  0.00     0.012 A 
BRANCH   3   6
HETATM    6  N1  UNL     1      -3.065   0.618   1.258  1.00  0.00    -0.358 N 
ATOM      7  H1  UNL     1      -2.166   0.390   1.683  1.00  0.00     0.162 HD
BRANCH   6   8
HETATM    8  C2  UNL     1      -3.931   1.301   2.093  1.00  0.00     0.135 C 
HETATM    9  S2  UNL     1      -3.210   1.566   3.664  1.00  0.00    -0.053 SA
BRANCH   8  10
HETATM   10  S1  UNL     1      -5.522   1.952   1.981  1.00  0.00    -0.105 SA
HETATM   11  C1  UNL     1      -6.514   1.876   0.560  1.00  0.00     0.098 C 
ENDBRANCH   8  10
ENDBRANCH   6   8
ENDBRANCH   3   6
BRANCH   3  12
HETATM   12  C4  UNL     1      -4.186  -0.930  -0.222  1.00  0.00     0.177 A 
HETATM   13  N2  UNL     1      -4.669  -1.577  -1.286  1.00  0.00    -0.325 N 
HETATM   14  C5  UNL     1      -5.547  -2.495  -0.893  1.00  0.00     0.100 A 
ATOM     15  H2  UNL     1      -4.404  -1.394  -2.254  1.00  0.00     0.169 HD
HETATM   16  C6  UNL     1      -6.395  -3.423  -1.714  1.00  0.00     0.091 C 
HETATM   17  N3  UNL     1      -5.602  -2.418   0.465  1.00  0.00    -0.247 N 
HETATM   18  O1  UNL     1      -4.801  -1.498   0.837  1.00  0.00    -0.220 OA
ATOM     19  H3  UNL     1      -6.181  -2.994   1.076  1.00  0.00     0.196 HD
ENDBRANCH   3  12
ENDBRANCH   1   2
BRANCH   1  20
HETATM   20  N4  UNL     1      -0.081  -0.501   0.680  1.00  0.00    -0.071 N 
ATOM     21  H42 UNL     1      -0.822  -0.884   1.267  1.00  0.00     0.277 HD
ATOM     22  H41 UNL     1       0.286  -1.367   0.285  1.00  0.00     0.277 HD
BRANCH  20  23
HETATM   23  C11 UNL     1       0.920   0.159   1.485  1.00  0.00     0.270 C 
BRANCH  23  24
HETATM   24  C12 UNL     1       2.113   0.647   0.817  1.00  0.00    -0.029 A 
HETATM   25  C13 UNL     1       2.183   2.071   0.682  1.00  0.00     0.028 A 
HETATM   26  C14 UNL     1       3.234   2.716   0.099  1.00  0.00     0.014 A 
HETATM   27 BR1  UNL     1       3.270   4.605  -0.043  1.00  0.00    -0.051 Br
HETATM   28  C15 UNL     1       4.277   1.937  -0.382  1.00  0.00     0.056 A 
HETATM   29  C16 UNL     1       4.254   0.556  -0.275  1.00  0.00     0.081 A 
HETATM   30  C22 UNL     1       3.175  -0.041   0.317  1.00  0.00     0.046 A 
BRANCH  29  31
HETATM   31  O2  UNL     1       5.373  -0.111  -0.796  1.00  0.00    -0.275 OA
BRANCH  31  32
HETATM   32  C17 UNL     1       6.404  -0.489   0.064  1.00  0.00     0.300 C 
HETATM   33  O3  UNL     1       6.251  -0.221   1.292  1.00  0.00    -0.259 OA
BRANCH  32  34
HETATM   34  C18 UNL     1       7.611  -1.151  -0.379  1.00  0.00     0.064 A 
HETATM   35  C19 UNL     1       8.648  -1.581   0.457  1.00  0.00     0.044 A 
HETATM   36  C20 UNL     1       9.644  -2.132  -0.338  1.00  0.00     0.142 A 
HETATM   37  O4  UNL     1       9.236  -2.048  -1.574  1.00  0.00    -0.334 OA
HETATM   38  C21 UNL     1       8.058  -1.481  -1.640  1.00  0.00     0.159 A 
ENDBRANCH  32  34
ENDBRANCH  31  32
ENDBRANCH  29  31
ENDBRANCH  23  24
ENDBRANCH  20  23
ENDBRANCH   1  20
TORSDOF 11
