REMARK  7 active torsions:
REMARK  status: ('A' for Active; 'I' for Inactive)
REMARK    1  A    between atoms: C2_2  and  C3_3 
REMARK    2  A    between atoms: C3_3  and  C4_4 
REMARK    3  A    between atoms: C4_4  and  C5_5 
REMARK    4  A    between atoms: C5_5  and  C6_6 
REMARK    5  A    between atoms: C6_6  and  C7_7 
REMARK    6  A    between atoms: C7_7  and  N1_8 
REMARK    7  A    between atoms: N1_8  and  C8_11 
ROOT
HETATM    1  C7  UNL     1       0.689  -0.499  -1.251  1.00  0.00     0.232 C 
ENDROOT
BRANCH   1   2
HETATM    2  C6  UNL     1       0.142  -1.267  -0.095  1.00  0.00     0.027 C 
BRANCH   2   3
HETATM    3  C5  UNL     1      -1.037  -0.551   0.533  1.00  0.00     0.002 C 
BRANCH   3   4
HETATM    4  C4  UNL     1      -2.121  -0.399  -0.506  1.00  0.00     0.004 C 
BRANCH   4   5
HETATM    5  C3  UNL     1      -3.326   0.318   0.099  1.00  0.00     0.026 C 
BRANCH   5   6
HETATM    6  C2  UNL     1      -3.850  -0.476   1.243  1.00  0.00    -0.037 C 
HETATM    7  C1  UNL     1      -5.081  -0.959   1.248  1.00  0.00     0.007 C 
ENDBRANCH   5   6
ENDBRANCH   4   5
ENDBRANCH   3   4
ENDBRANCH   2   3
ENDBRANCH   1   2
BRANCH   1   8
HETATM    8  N1  UNL     1       1.139   0.796  -0.855  1.00  0.00    -0.071 N 
ATOM      9  H12 UNL     1       1.312   1.405  -1.655  1.00  0.00     0.277 HD
ATOM     10  H11 UNL     1       0.399   1.342  -0.413  1.00  0.00     0.277 HD
BRANCH   8  11
HETATM   11  C8  UNL     1       2.296   0.667  -0.012  1.00  0.00     0.185 C 
HETATM   12  C9  UNL     1       3.497   0.028  -0.679  1.00  0.00     0.033 C 
HETATM   13  C10 UNL     1       4.347   0.986   0.169  1.00  0.00     0.004 C 
HETATM   14  C11 UNL     1       3.149   1.941   0.070  1.00  0.00     0.033 C 
ENDBRANCH   8  11
ENDBRANCH   1   8
TORSDOF 7
