REMARK  6 active torsions:
REMARK  status: ('A' for Active; 'I' for Inactive)
REMARK    1  A    between atoms: N1_1  and  C1_4 
REMARK    2  A    between atoms: C2_7  and  N3_8 
REMARK    3  A    between atoms: C5_11  and  N4_12 
REMARK    4  A    between atoms: C14_29  and  S1_30 
REMARK    5  A    between atoms: S1_30  and  C15_31 
REMARK    6  A    between atoms: C15_31  and  C16_32 
ROOT
HETATM    1  C1  UNL     1       1.550  -2.944  -0.984  1.00  0.00     0.678 A 
HETATM    2  N2  UNL     1       0.364  -2.372  -0.929  1.00  0.00    -0.177 N 
ATOM      3  H2  UNL     1      -0.356  -2.690  -1.578  1.00  0.00     0.185 HD
HETATM    4  C2  UNL     1       0.051  -1.385  -0.057  1.00  0.00     0.121 A 
HETATM    5  C13 UNL     1       1.034  -0.972   0.806  1.00  0.00     0.086 A 
HETATM    6  C14 UNL     1       2.296  -1.579   0.748  1.00  0.00     0.090 A 
HETATM    7  N11 UNL     1       2.529  -2.540  -0.132  1.00  0.00    -0.186 N 
ATOM      8  H11 UNL     1       3.448  -2.980  -0.171  1.00  0.00     0.185 HD
ENDROOT
BRANCH   4   9
HETATM    9  N3  UNL     1      -1.242  -0.809  -0.042  1.00  0.00    -0.367 N 
HETATM   10  C3  UNL     1      -2.268  -1.253  -0.949  1.00  0.00     0.126 C 
HETATM   11  C4  UNL     1      -3.557  -1.558  -0.239  1.00  0.00     0.045 C 
HETATM   12  C5  UNL     1      -3.912  -0.521   0.813  1.00  0.00     0.099 C 
HETATM   13  C11 UNL     1      -2.988   0.639   0.653  1.00  0.00     0.045 C 
HETATM   14  C12 UNL     1      -1.539   0.238   0.898  1.00  0.00     0.126 C 
BRANCH  12  15
HETATM   15  N4  UNL     1      -5.291  -0.148   0.642  1.00  0.00    -0.278 N 
HETATM   16  C6  UNL     1      -6.310  -1.051   0.777  1.00  0.00     0.329 A 
HETATM   17  O1  UNL     1      -6.188  -2.291   1.061  1.00  0.00    -0.246 OA
HETATM   18  N5  UNL     1      -7.442  -0.381   0.554  1.00  0.00    -0.301 N 
HETATM   19  C7  UNL     1      -7.169   0.913   0.283  1.00  0.00     0.149 A 
ATOM     20  H5  UNL     1      -8.377  -0.787   0.584  1.00  0.00     0.171 HD
HETATM   21  C8  UNL     1      -8.000   1.988  -0.010  1.00  0.00     0.277 A 
HETATM   22  C10 UNL     1      -5.801   1.056   0.340  1.00  0.00     0.145 A 
HETATM   23  O2  UNL     1      -9.252   1.852  -0.061  1.00  0.00    -0.266 OA
HETATM   24  N6  UNL     1      -7.402   3.176  -0.237  1.00  0.00    -0.318 N 
HETATM   25  C9  UNL     1      -6.061   3.291  -0.175  1.00  0.00     0.185 A 
ATOM     26  H6  UNL     1      -7.970   3.994  -0.457  1.00  0.00     0.169 HD
HETATM   27  N7  UNL     1      -5.241   2.276   0.104  1.00  0.00    -0.336 N 
ATOM     28  H7  UNL     1      -4.230   2.409   0.139  1.00  0.00     0.168 HD
ENDBRANCH  12  15
ENDBRANCH   4   9
BRANCH   1  29
HETATM   29  N1  UNL     1       1.759  -3.881  -1.851  1.00  0.00    -0.234 N 
ATOM     30  H12 UNL     1       1.024  -4.184  -2.490  1.00  0.00     0.174 HD
ATOM     31  H11 UNL     1       2.677  -4.324  -1.894  1.00  0.00     0.174 HD
ENDBRANCH   1  29
BRANCH   6  32
HETATM   32  S1  UNL     1       3.504  -1.052   1.911  1.00  0.00    -0.104 SA
BRANCH  32  33
HETATM   33  C15 UNL     1       5.177  -1.572   1.608  1.00  0.00     0.158 C 
BRANCH  33  34
HETATM   34  C16 UNL     1       5.784  -0.799   0.465  1.00  0.00     0.097 C 
HETATM   35  N8  UNL     1       6.305   0.345   0.773  1.00  0.00    -0.343 N 
HETATM   36  C17 UNL     1       6.914   1.229  -0.112  1.00  0.00     0.069 A 
ATOM     37  H8  UNL     1       6.266   0.624   1.753  1.00  0.00     0.167 HD
HETATM   38  C18 UNL     1       7.465   2.396   0.412  1.00  0.00     0.034 A 
HETATM   39  C21 UNL     1       7.075   1.067  -1.469  1.00  0.00     0.117 A 
HETATM   40  C19 UNL     1       8.117   3.302  -0.390  1.00  0.00     0.019 A 
HETATM   41  C20 UNL     1       8.258   3.097  -1.757  1.00  0.00     0.089 A 
HETATM   42  N9  UNL     1       7.715   1.964  -2.228  1.00  0.00    -0.357 N 
ATOM     43  H9  UNL     1       7.795   1.775  -3.227  1.00  0.00     0.166 HD
HETATM   44  S2  UNL     1       6.342  -0.401  -2.199  1.00  0.00     0.007 SA
HETATM   45  N10 UNL     1       5.778  -1.361  -0.827  1.00  0.00    -0.314 N 
ATOM     46  H10 UNL     1       5.450  -2.316  -0.969  1.00  0.00     0.175 HD
ENDBRANCH  33  34
ENDBRANCH  32  33
ENDBRANCH   6  32
TORSDOF 6
