REMARK  11 active torsions:
REMARK  status: ('A' for Active; 'I' for Inactive)
REMARK    1  A    between atoms: N1_1  and  C1_5 
REMARK    2  A    between atoms: C1_5  and  C2_6 
REMARK    3  A    between atoms: C2_6  and  C3_7 
REMARK    4  A    between atoms: C3_7  and  C4_8 
REMARK    5  A    between atoms: C4_8  and  C5_9 
REMARK    6  A    between atoms: C5_9  and  C6_10 
REMARK    7  A    between atoms: C7_11  and  C8_12 
REMARK    8  A    between atoms: C8_12  and  C9_13 
REMARK    9  A    between atoms: C9_13  and  C10_14 
REMARK   10  A    between atoms: C10_14  and  C11_15 
REMARK   11  A    between atoms: C11_15  and  C12_16 
ROOT
HETATM    1  C5  UNL     1       1.826  -0.040  -1.914  1.00  0.00     0.027 C 
ENDROOT
BRANCH   1   2
HETATM    2  C4  UNL     1       2.886   0.940  -1.559  1.00  0.00     0.004 C 
BRANCH   2   3
HETATM    3  C3  UNL     1       4.232   0.524  -1.211  1.00  0.00     0.002 C 
BRANCH   3   4
HETATM    4  C2  UNL     1       4.599  -0.205   0.005  1.00  0.00     0.027 C 
BRANCH   4   5
HETATM    5  C1  UNL     1       4.412   0.553   1.294  1.00  0.00     0.229 C 
BRANCH   5   6
HETATM    6  N1  UNL     1       3.068   0.944   1.503  1.00  0.00    -0.079 N 
ATOM      7  H13 UNL     1       2.713   1.477   0.709  1.00  0.00     0.274 HD
ATOM      8  H12 UNL     1       2.441   0.141   1.455  1.00  0.00     0.274 HD
ATOM      9  H11 UNL     1       2.941   1.457   2.375  1.00  0.00     0.274 HD
ENDBRANCH   5   6
ENDBRANCH   4   5
ENDBRANCH   3   4
ENDBRANCH   2   3
ENDBRANCH   1   2
BRANCH   1  10
HETATM   10  C6  UNL     1       1.411  -1.066  -0.977  1.00  0.00    -0.031 C 
HETATM   11  C7  UNL     1       0.239  -1.248  -0.441  1.00  0.00    -0.031 C 
BRANCH  11  12
HETATM   12  C8  UNL     1      -0.927  -0.405  -0.701  1.00  0.00     0.027 C 
BRANCH  12  13
HETATM   13  C9  UNL     1      -1.453   0.254   0.576  1.00  0.00     0.004 C 
BRANCH  13  14
HETATM   14  C10 UNL     1      -2.647   1.116   0.290  1.00  0.00     0.001 C 
BRANCH  14  15
HETATM   15  C11 UNL     1      -3.811   0.381  -0.304  1.00  0.00     0.004 C 
BRANCH  15  16
HETATM   16  C12 UNL     1      -4.337  -0.711   0.557  1.00  0.00    -0.014 A 
HETATM   17  C13 UNL     1      -4.866  -0.485   1.911  1.00  0.00     0.005 A 
HETATM   18  C14 UNL     1      -5.844  -0.664   0.810  1.00  0.00     0.005 A 
ENDBRANCH  15  16
ENDBRANCH  14  15
ENDBRANCH  13  14
ENDBRANCH  12  13
ENDBRANCH  11  12
ENDBRANCH   1  10
TORSDOF 11
