REMARK  5 active torsions:
REMARK  status: ('A' for Active; 'I' for Inactive)
REMARK    1  A    between atoms: C1_2  and  C2_4 
REMARK    2  A    between atoms: C2_4  and  C3_5 
REMARK    3  A    between atoms: C3_5  and  N2_6 
REMARK    4  A    between atoms: C3_5  and  C4_10 
REMARK    5  A    between atoms: C4_10  and  C5_12 
ROOT
HETATM    1  C3  UNL     1      -0.574  -0.068   1.135  1.00  0.00     0.267 C 
ENDROOT
BRANCH   1   2
HETATM    2  C2  UNL     1      -2.008  -0.076   0.671  1.00  0.00     0.140 C 
BRANCH   2   3
HETATM    3  C1  UNL     1      -2.166  -0.552  -0.712  1.00  0.00     0.233 C 
HETATM    4  N1  UNL     1      -3.485  -0.597  -1.245  1.00  0.00    -0.062 NA
HETATM    5  O1  UNL     1      -1.236  -0.921  -1.460  1.00  0.00    -0.277 OA
ENDBRANCH   2   3
ENDBRANCH   1   2
BRANCH   1   6
HETATM    6  N2  UNL     1       0.034  -1.362   1.102  1.00  0.00    -0.067 N 
ATOM      7  H23 UNL     1      -0.516  -2.036   1.634  1.00  0.00     0.275 HD
ATOM      8  H22 UNL     1      -0.045  -1.777   0.174  1.00  0.00     0.275 HD
ATOM      9  H21 UNL     1       1.004  -1.357   1.416  1.00  0.00     0.275 HD
ENDBRANCH   1   6
BRANCH   1  10
HETATM   10  C4  UNL     1       0.227   0.970   0.444  1.00  0.00     0.207 C 
HETATM   11  O2  UNL     1      -0.183   2.153   0.393  1.00  0.00    -0.288 OA
BRANCH  10  12
HETATM   12  C5  UNL     1       1.501   0.676  -0.195  1.00  0.00     0.097 A 
HETATM   13  C6  UNL     1       2.342   1.536  -0.866  1.00  0.00     0.122 A 
HETATM   14  N3  UNL     1       3.430   0.881  -1.316  1.00  0.00    -0.360 N 
HETATM   15  C7  UNL     1       3.287  -0.401  -0.934  1.00  0.00     0.180 A 
ATOM     16  H3  UNL     1       4.208   1.278  -1.842  1.00  0.00     0.166 HD
HETATM   17  N4  UNL     1       2.134  -0.531  -0.262  1.00  0.00    -0.348 N 
ATOM     18  H4  UNL     1       1.783  -1.401   0.139  1.00  0.00     0.167 HD
ENDBRANCH  10  12
ENDBRANCH   1  10
TORSDOF 5
