REMARK  5 active torsions:
REMARK  status: ('A' for Active; 'I' for Inactive)
REMARK    1  A    between atoms: C1_2  and  C2_4 
REMARK    2  A    between atoms: C4_6  and  N2_7 
REMARK    3  A    between atoms: N2_7  and  C5_9 
REMARK    4  A    between atoms: C5_9  and  N3_10 
REMARK    5  A    between atoms: N3_10  and  O2_12 
ROOT
HETATM    1  C2  UNL     1      -1.203  -0.075   0.436  1.00  0.00     0.116 A 
HETATM    2  C3  UNL     1       0.014   0.295  -0.129  1.00  0.00     0.085 A 
HETATM    3  C4  UNL     1       0.937  -0.668   0.204  1.00  0.00     0.119 A 
HETATM    4  N4  UNL     1       0.309  -1.587   0.941  1.00  0.00    -0.285 N 
ATOM      5  H4  UNL     1       0.732  -2.427   1.337  1.00  0.00     0.188 HD
HETATM    6  N5  UNL     1      -0.975  -1.216   1.072  1.00  0.00    -0.294 N 
ATOM      7  H5  UNL     1      -1.679  -1.741   1.590  1.00  0.00     0.187 HD
ENDROOT
BRANCH   3   8
HETATM    8  N2  UNL     1       2.171  -0.656  -0.148  1.00  0.00    -0.357 N 
ATOM      9  H2  UNL     1       2.776  -1.421   0.151  1.00  0.00     0.162 HD
BRANCH   8  10
HETATM   10  C5  UNL     1       2.734   0.409  -0.957  1.00  0.00     0.269 C 
BRANCH  10  11
HETATM   11  N3  UNL     1       3.264   1.478  -0.135  1.00  0.00    -0.287 N 
ATOM     12  H3  UNL     1       2.687   2.263   0.166  1.00  0.00     0.189 HD
BRANCH  11  13
HETATM   13  O2  UNL     1       4.430   1.386   0.174  1.00  0.00    -0.293 OA
ATOM     14  H2  UNL     1       4.778   2.087   0.713  1.00  0.00     0.244 HD
ENDBRANCH  11  13
ENDBRANCH  10  11
ENDBRANCH   8  10
ENDBRANCH   3   8
BRANCH   1  15
HETATM   15  C1  UNL     1      -2.408   0.713   0.290  1.00  0.00     0.282 C 
HETATM   16  N1  UNL     1      -3.588   0.226   0.916  1.00  0.00    -0.056 NA
HETATM   17  O1  UNL     1      -2.455   1.790  -0.356  1.00  0.00    -0.269 OA
ENDBRANCH   1  15
TORSDOF 5
