REMARK  4 active torsions:
REMARK  status: ('A' for Active; 'I' for Inactive)
REMARK    1  A    between atoms: C2_2  and  C5_5 
REMARK    2  A    between atoms: C5_5  and  N1_6 
REMARK       I    between atoms: N1_6  and  C6_8 
REMARK       I    between atoms: C6_8  and  N2_10 
REMARK    3  A    between atoms: N2_10  and  C7_12 
REMARK    4  A    between atoms: C7_12  and  C8_13 
ROOT
HETATM    1  N1  UNL     1       2.559   0.991  -0.549  1.00  0.00    -0.322 N 
ATOM      2  H1  UNL     1       2.135   1.736   0.004  1.00  0.00     0.169 HD
HETATM    3  C6  UNL     1       1.680   0.009  -0.957  1.00  0.00     0.319 C 
HETATM    4  O1  UNL     1       1.893  -1.008  -1.663  1.00  0.00    -0.247 OA
HETATM    5  N2  UNL     1       0.285   0.120  -0.536  1.00  0.00    -0.342 N 
ATOM      6  H2  UNL     1       0.005   0.913   0.042  1.00  0.00     0.164 HD
ENDROOT
BRANCH   5   7
HETATM    7  C7  UNL     1      -0.710  -0.856  -0.911  1.00  0.00     0.133 C 
BRANCH   7   8
HETATM    8  C8  UNL     1      -2.027  -0.444  -0.316  1.00  0.00    -0.023 C 
HETATM    9  C9  UNL     1      -3.058  -1.476  -0.718  1.00  0.00     0.015 C 
HETATM   10  C10 UNL     1      -4.428  -1.092  -0.213  1.00  0.00    -0.013 C 
HETATM   11  C11 UNL     1      -4.790   0.266  -0.766  1.00  0.00     0.009 C 
HETATM   12  C15 UNL     1      -4.411  -1.014   1.282  1.00  0.00     0.009 C 
HETATM   13  C12 UNL     1      -3.798   1.276  -0.283  1.00  0.00    -0.013 C 
HETATM   14  C13 UNL     1      -3.657   1.304   1.209  1.00  0.00     0.009 C 
HETATM   15  C17 UNL     1      -2.429   0.893  -0.858  1.00  0.00     0.015 C 
HETATM   16  C14 UNL     1      -3.318  -0.080   1.740  1.00  0.00    -0.013 C 
HETATM   17  C16 UNL     1      -1.973  -0.451   1.203  1.00  0.00     0.015 C 
ENDBRANCH   7   8
ENDBRANCH   5   7
BRANCH   1  18
HETATM   18  C5  UNL     1       3.939   1.138  -0.767  1.00  0.00     0.074 C 
BRANCH  18  19
HETATM   19  C2  UNL     1       4.800   0.099  -0.145  1.00  0.00    -0.019 C 
HETATM   20  C1  UNL     1       4.526   0.107   1.354  1.00  0.00     0.020 C 
HETATM   21  C3  UNL     1       6.259   0.701  -0.320  1.00  0.00     0.020 C 
HETATM   22  C4  UNL     1       4.774  -1.229  -0.769  1.00  0.00     0.020 C 
ENDBRANCH  18  19
ENDBRANCH   1  18
TORSDOF 4
