REMARK  1 active torsions:
REMARK  status: ('A' for Active; 'I' for Inactive)
REMARK    1  A    between atoms: C4_5  and  C5_6 
ROOT
HETATM    1  C1  UNL     1      -1.684  -0.886   0.849  1.00  0.00     0.020 C 
HETATM    2  C2  UNL     1      -2.588   0.134   0.171  1.00  0.00     0.012 C 
HETATM    3  C3  UNL     1      -1.870   1.479   0.182  1.00  0.00     0.076 C 
HETATM    4  S1  UNL     1      -0.097   1.225   0.344  1.00  0.00    -0.144 SA
HETATM    5  C4  UNL     1       0.574   0.023  -0.786  1.00  0.00     0.143 C 
HETATM    6  N1  UNL     1       0.383  -1.335  -0.405  1.00  0.00    -0.408 N 
ATOM      7  H1  UNL     1       1.158  -1.990  -0.300  1.00  0.00     0.154 HD
HETATM    8  C8  UNL     1      -0.983  -1.712  -0.180  1.00  0.00     0.115 C 
ENDROOT
BRANCH   5   9
HETATM    9  C5  UNL     1       2.100   0.233  -0.833  1.00  0.00     0.018 A 
HETATM   10  C6  UNL     1       2.832   0.066   0.508  1.00  0.00     0.008 A 
HETATM   11  C7  UNL     1       2.657   1.430  -0.153  1.00  0.00     0.008 A 
ENDBRANCH   5   9
TORSDOF 1
