REMARK  3 active torsions:
REMARK  status: ('A' for Active; 'I' for Inactive)
REMARK    1  A    between atoms: N1_1  and  C1_4 
REMARK    2  A    between atoms: C5_13  and  N4_14 
REMARK    3  A    between atoms: N6_19  and  C6_20 
ROOT
HETATM    1  C1  UNL     1       2.362   0.080   0.412  1.00  0.00     0.679 A 
HETATM    2  N2  UNL     1       1.972  -1.194   0.276  1.00  0.00    -0.154 N 
ATOM      3  H2  UNL     1       2.659  -1.948   0.284  1.00  0.00     0.187 HD
HETATM    4  C2  UNL     1       0.652  -1.470   0.128  1.00  0.00     0.290 A 
HETATM    5  O1  UNL     1       0.350  -2.672   0.005  1.00  0.00    -0.265 OA
HETATM    6  C3  UNL     1      -0.329  -0.519   0.109  1.00  0.00     0.158 A 
HETATM    7  C4  UNL     1       0.120   0.798   0.255  1.00  0.00     0.128 A 
HETATM    8  N3  UNL     1       1.432   1.055   0.400  1.00  0.00    -0.186 N 
ATOM      9  H3  UNL     1       1.734   2.024   0.505  1.00  0.00     0.184 HD
HETATM   10  C5  UNL     1      -0.996   1.593   0.210  1.00  0.00     0.144 A 
HETATM   11  N5  UNL     1      -2.071   0.819   0.047  1.00  0.00    -0.274 N 
ATOM     12  H5  UNL     1      -3.036   1.142  -0.020  1.00  0.00     0.189 HD
HETATM   13  N6  UNL     1      -1.662  -0.463  -0.014  1.00  0.00    -0.222 N 
ENDROOT
BRANCH   1  14
HETATM   14  N1  UNL     1       3.607   0.387   0.555  1.00  0.00    -0.234 N 
ATOM     15  H12 UNL     1       4.311  -0.351   0.564  1.00  0.00     0.174 HD
ATOM     16  H11 UNL     1       3.904   1.357   0.659  1.00  0.00     0.174 HD
ENDBRANCH   1  14
BRANCH  10  17
HETATM   17  N4  UNL     1      -0.946   2.882   0.316  1.00  0.00    -0.383 N 
ATOM     18  H42 UNL     1      -0.124   3.474   0.441  1.00  0.00     0.157 HD
ATOM     19  H41 UNL     1      -1.776   3.473   0.283  1.00  0.00     0.157 HD
ENDBRANCH  10  17
BRANCH  13  20
HETATM   20  C6  UNL     1      -2.524  -1.552  -0.181  1.00  0.00     0.376 C 
HETATM   21  O2  UNL     1      -2.274  -2.761  -0.252  1.00  0.00    -0.281 OA
ENDBRANCH  13  20
TORSDOF 3
