REMARK  3 active torsions:
REMARK  status: ('A' for Active; 'I' for Inactive)
REMARK    1  A    between atoms: N1_1  and  C1_4 
REMARK    2  A    between atoms: C2_7  and  N3_8 
REMARK    3  A    between atoms: N4_11  and  N5_12 
ROOT
HETATM    1  C1  UNL     1       3.101  -0.239  -0.506  1.00  0.00     0.694 A 
HETATM    2  N2  UNL     1       2.281   0.412  -1.329  1.00  0.00    -0.021 N 
ATOM      3  H2  UNL     1       2.666   0.912  -2.131  1.00  0.00     0.203 HD
HETATM    4  C2  UNL     1       0.931   0.420  -1.115  1.00  0.00     0.716 A 
HETATM    5  N4  UNL     1       0.374  -0.219  -0.079  1.00  0.00    -0.031 N 
HETATM    6  C6  UNL     1       1.208  -0.869   0.739  1.00  0.00     0.374 A 
HETATM    7  O1  UNL     1       0.827  -1.498   1.734  1.00  0.00    -0.244 OA
HETATM    8  N7  UNL     1       2.568  -0.888   0.539  1.00  0.00    -0.139 N 
ATOM      9  H7  UNL     1       3.172  -1.396   1.186  1.00  0.00     0.189 HD
ENDROOT
BRANCH   5  10
HETATM   10  N5  UNL     1      -1.002  -0.194   0.181  1.00  0.00    -0.276 N 
HETATM   11  C3  UNL     1      -1.937   0.791  -0.395  1.00  0.00     0.173 C 
HETATM   12  C4  UNL     1      -3.081   0.784   0.600  1.00  0.00     0.255 C 
HETATM   13  N6  UNL     1      -2.601  -0.047   1.716  1.00  0.00    -0.056 N 
HETATM   14  C5  UNL     1      -1.853  -1.043   0.956  1.00  0.00     0.375 C 
ATOM     15  H62 UNL     1      -2.087   0.439   2.451  1.00  0.00     0.279 HD
ATOM     16  H61 UNL     1      -3.315  -0.406   2.350  1.00  0.00     0.279 HD
ENDBRANCH   5  10
BRANCH   4  17
HETATM   17  N3  UNL     1       0.212   1.056  -1.973  1.00  0.00    -0.232 N 
ATOM     18  H32 UNL     1       0.636   1.543  -2.762  1.00  0.00     0.174 HD
ATOM     19  H31 UNL     1      -0.795   1.062  -1.813  1.00  0.00     0.174 HD
ENDBRANCH   4  17
BRANCH   1  20
HETATM   20  N1  UNL     1       4.394  -0.261  -0.689  1.00  0.00    -0.234 N 
ATOM     21  H12 UNL     1       4.800   0.233  -1.484  1.00  0.00     0.174 HD
ATOM     22  H11 UNL     1       5.022  -0.760  -0.059  1.00  0.00     0.174 HD
ENDBRANCH   1  20
TORSDOF 3
