REMARK  2 active torsions:
REMARK  status: ('A' for Active; 'I' for Inactive)
REMARK    1  A    between atoms: N3_4  and  C2_6 
REMARK    2  A    between atoms: N4_9  and  N5_10 
ROOT
HETATM    1  C2  UNL     1      -0.990  -0.716   0.808  1.00  0.00     0.087 C 
HETATM    2  C3  UNL     1      -0.617   0.738   1.127  1.00  0.00     0.046 C 
HETATM    3  C4  UNL     1       0.915   0.846   1.208  1.00  0.00     0.146 C 
HETATM    4  N4  UNL     1       1.414   0.435  -0.087  1.00  0.00    -0.309 N 
HETATM    5  C7  UNL     1       0.474  -0.021  -1.078  1.00  0.00     0.146 C 
HETATM    6  C8  UNL     1      -0.484  -1.075  -0.549  1.00  0.00     0.046 C 
ENDROOT
BRANCH   4   7
HETATM    7  N5  UNL     1       2.759   0.474  -0.385  1.00  0.00    -0.191 N 
HETATM    8  C5  UNL     1       3.652  -0.498  -0.202  1.00  0.00     0.177 A 
HETATM    9  C6  UNL     1       4.898  -0.048  -0.636  1.00  0.00     0.135 A 
HETATM   10 CL1  UNL     1       6.413  -0.939  -0.616  1.00  0.00    -0.062 Cl
HETATM   11  N6  UNL     1       4.675   1.215  -1.071  1.00  0.00    -0.271 N 
HETATM   12  N7  UNL     1       3.391   1.511  -0.914  1.00  0.00     0.001 NA
ATOM     13  H6  UNL     1       5.382   1.840  -1.458  1.00  0.00     0.185 HD
ENDBRANCH   4   7
BRANCH   1  14
HETATM   14  N3  UNL     1      -2.391  -0.874   1.009  1.00  0.00    -0.362 N 
HETATM   15  C1  UNL     1      -3.287  -0.308   0.309  1.00  0.00     0.197 C 
HETATM   16  N1  UNL     1      -4.698  -0.542   0.605  1.00  0.00    -0.067 NA
HETATM   17  N2  UNL     1      -3.086   0.572  -0.783  1.00  0.00    -0.067 NA
ATOM     18  H3  UNL     1      -2.696  -1.484   1.768  1.00  0.00     0.162 HD
ENDBRANCH   1  14
TORSDOF 2
