REMARK  1 active torsions:
REMARK  status: ('A' for Active; 'I' for Inactive)
REMARK    1  A    between atoms: C6_6  and  N1_7 
ROOT
HETATM    1  C1  UNL     1      -1.238  -0.452  -1.269  1.00  0.00     0.045 C 
HETATM    2  C2  UNL     1      -0.780   0.159   0.038  1.00  0.00     0.056 C 
HETATM    3  C3  UNL     1      -1.967   0.870   0.670  1.00  0.00     0.045 C 
HETATM    4  C4  UNL     1      -0.219  -0.910   0.940  1.00  0.00     0.041 C 
HETATM    5  C5  UNL     1       1.267  -0.601   0.905  1.00  0.00     0.064 C 
HETATM    6  C6  UNL     1       1.334   0.231  -0.385  1.00  0.00     0.319 C 
HETATM    7  O1  UNL     1       0.261   1.087  -0.166  1.00  0.00    -0.349 OA
ENDROOT
BRANCH   6   8
HETATM    8  N1  UNL     1       2.602   0.869  -0.412  1.00  0.00    -0.053 N 
ATOM      9  H13 UNL     1       2.790   1.418   0.427  1.00  0.00     0.277 HD
ATOM     10  H12 UNL     1       3.379   0.215  -0.319  1.00  0.00     0.277 HD
ATOM     11  H11 UNL     1       2.646   1.421  -1.268  1.00  0.00     0.277 HD
ENDBRANCH   6   8
TORSDOF 1
