REMARK  7 active torsions:
REMARK  status: ('A' for Active; 'I' for Inactive)
REMARK    1  A    between atoms: C2_2  and  C3_3 
REMARK    2  A    between atoms: C6_6  and  C7_7 
REMARK    3  A    between atoms: C7_7  and  C8_8 
REMARK    4  A    between atoms: C8_8  and  C9_9 
REMARK    5  A    between atoms: C11_13  and  N2_14 
REMARK    6  A    between atoms: N3_17  and  C12_18 
REMARK    7  A    between atoms: C12_18  and  C13_19 
ROOT
HETATM    1  C9  UNL     1      -0.385  -1.789   0.319  1.00  0.00     0.044 A 
HETATM    2  C10 UNL     1      -0.160  -2.401   1.512  1.00  0.00     0.149 A 
HETATM    3  N1  UNL     1       1.202  -2.457   1.661  1.00  0.00    -0.121 N 
HETATM    4  S1  UNL     1       2.478  -2.950   2.646  1.00  0.00     0.046 SA
HETATM    5  C11 UNL     1       3.773  -2.428   1.668  1.00  0.00     0.177 A 
HETATM    6  N3  UNL     1       3.146  -1.893   0.620  1.00  0.00    -0.159 N 
HETATM    7  C19 UNL     1       1.824  -1.911   0.624  1.00  0.00     0.699 A 
HETATM    8  N4  UNL     1       0.795  -1.501  -0.205  1.00  0.00    -0.193 N 
ATOM      9  H4  UNL     1       0.929  -1.037  -1.103  1.00  0.00     0.184 HD
ENDROOT
BRANCH   1  10
HETATM   10  C8  UNL     1      -1.690  -1.467  -0.347  1.00  0.00     0.064 C 
BRANCH  10  11
HETATM   11  C7  UNL     1      -2.821  -1.946   0.536  1.00  0.00     0.045 C 
BRANCH  11  12
HETATM   12  C6  UNL     1      -4.099  -1.621  -0.132  1.00  0.00    -0.046 A 
HETATM   13  C5  UNL     1      -4.631  -0.310  -0.155  1.00  0.00    -0.012 A 
HETATM   14  C4  UNL     1      -4.083   0.798   0.404  1.00  0.00     0.027 A 
HETATM   15  C23 UNL     1      -5.820  -0.148  -0.807  1.00  0.00     0.016 A 
HETATM   16  C3  UNL     1      -4.765   1.971   0.265  1.00  0.00    -0.016 A 
HETATM   17  S2  UNL     1      -6.142   1.517  -0.631  1.00  0.00    -0.094 SA
HETATM   18  C22 UNL     1      -6.496  -1.214  -1.430  1.00  0.00     0.020 A 
HETATM   19  C21 UNL     1      -5.980  -2.492  -1.409  1.00  0.00     0.002 A 
HETATM   20  C20 UNL     1      -4.771  -2.635  -0.741  1.00  0.00     0.008 A 
BRANCH  16  21
HETATM   21  C2  UNL     1      -4.375   3.334   0.787  1.00  0.00     0.041 C 
HETATM   22  C1  UNL     1      -3.066   3.211   1.513  1.00  0.00     0.010 C 
ENDBRANCH  16  21
ENDBRANCH  11  12
ENDBRANCH  10  11
ENDBRANCH   1  10
BRANCH   6  23
HETATM   23  C12 UNL     1       3.952  -1.323  -0.489  1.00  0.00     0.157 C 
BRANCH  23  24
HETATM   24  C13 UNL     1       4.314   0.105  -0.275  1.00  0.00     0.038 C 
HETATM   25  C14 UNL     1       3.120   1.019  -0.132  1.00  0.00     0.009 C 
HETATM   26  C15 UNL     1       3.475   2.461   0.059  1.00  0.00     0.001 C 
HETATM   27  C16 UNL     1       4.652   2.885  -0.765  1.00  0.00     0.003 C 
HETATM   28  C17 UNL     1       4.778   1.944  -1.940  1.00  0.00     0.037 C 
HETATM   29  C18 UNL     1       5.126   0.541  -1.497  1.00  0.00     0.175 C 
HETATM   30  F1  UNL     1       6.479   0.373  -1.288  1.00  0.00    -0.249 F 
ENDBRANCH  23  24
ENDBRANCH   6  23
BRANCH   5  31
HETATM   31  N2  UNL     1       5.069  -2.517   1.871  1.00  0.00    -0.378 N 
ATOM     32  H22 UNL     1       5.549  -2.926   2.673  1.00  0.00     0.158 HD
ATOM     33  H21 UNL     1       5.844  -2.205   1.286  1.00  0.00     0.158 HD
ENDBRANCH   5  31
TORSDOF 7
