REMARK  8 active torsions:
REMARK  status: ('A' for Active; 'I' for Inactive)
REMARK    1  A    between atoms: C2_2  and  C3_3 
REMARK    2  A    between atoms: C3_3  and  O1_4 
REMARK    3  A    between atoms: O1_4  and  C4_5 
REMARK    4  A    between atoms: C5_7  and  O3_8 
REMARK    5  A    between atoms: C9_14  and  O5_15 
REMARK    6  A    between atoms: C13_19  and  C14_20 
REMARK    7  A    between atoms: C14_20  and  C15_21 
REMARK    8  A    between atoms: C15_21  and  C16_22 
ROOT
HETATM    1  C4  UNL     1       2.586  -0.266  -0.059  1.00  0.00     0.272 C 
HETATM    2  O2  UNL     1       3.568  -0.802  -0.960  1.00  0.00    -0.328 OA
HETATM    3  C5  UNL     1       3.255  -2.000  -1.482  1.00  0.00     0.297 C 
HETATM    4  C6  UNL     1       1.905  -2.102  -2.085  1.00  0.00     0.138 A 
HETATM    5  C7  UNL     1       1.652  -2.706  -3.410  1.00  0.00     0.212 A 
HETATM    6  O4  UNL     1       1.666  -3.544  -2.356  1.00  0.00    -0.369 OA
HETATM    7  C8  UNL     1       0.797  -1.419  -1.306  1.00  0.00     0.070 C 
HETATM    8  C9  UNL     1       0.174  -2.406  -0.445  1.00  0.00     0.133 C 
HETATM    9  C11 UNL     1      -1.349  -2.418  -0.433  1.00  0.00     0.015 C 
HETATM   10  C12 UNL     1      -1.932  -3.263  -1.548  1.00  0.00     0.013 C 
HETATM   11  C13 UNL     1      -1.957  -1.044  -0.444  1.00  0.00    -0.008 C 
HETATM   12  C17 UNL     1      -1.661  -0.258   0.776  1.00  0.00     0.015 C 
HETATM   13  C18 UNL     1      -0.618   0.799   0.762  1.00  0.00    -0.034 C 
HETATM   14  C19 UNL     1       0.020   0.725   2.173  1.00  0.00     0.016 C 
HETATM   15  C20 UNL     1      -1.312   2.155   0.878  1.00  0.00     0.010 C 
HETATM   16  C21 UNL     1      -2.609   2.240   1.526  1.00  0.00     0.014 C 
HETATM   17  C22 UNL     1      -2.747   3.784   1.566  1.00  0.00     0.079 C 
HETATM   18  C23 UNL     1      -2.007   4.238   0.356  1.00  0.00     0.135 C 
HETATM   19  O6  UNL     1      -1.875   5.376   0.010  1.00  0.00    -0.297 OA
HETATM   20  C24 UNL     1      -1.467   2.976  -0.329  1.00  0.00     0.021 C 
HETATM   21  C25 UNL     1      -2.456   2.646  -1.358  1.00  0.00     0.024 C 
HETATM   22  C26 UNL     1      -0.129   3.292  -0.922  1.00  0.00     0.018 C 
HETATM   23  C27 UNL     1       0.884   2.312  -0.354  1.00  0.00     0.007 C 
HETATM   24  C28 UNL     1       0.321   0.879  -0.345  1.00  0.00     0.007 C 
HETATM   25  C29 UNL     1       1.286  -0.100  -0.811  1.00  0.00     0.019 C 
HETATM   26  C30 UNL     1       1.806   0.563  -2.134  1.00  0.00     0.021 C 
ENDROOT
BRANCH   1  27
HETATM   27  O1  UNL     1       3.241   0.934   0.221  1.00  0.00    -0.360 OA
BRANCH  27  28
HETATM   28  C3  UNL     1       3.795   0.957   1.469  1.00  0.00     0.170 C 
BRANCH  28  29
HETATM   29  C2  UNL     1       4.501   2.289   1.748  1.00  0.00     0.022 C 
HETATM   30  C1  UNL     1       5.099   2.291   3.120  1.00  0.00     0.007 C 
ENDBRANCH  28  29
ENDBRANCH  27  28
ENDBRANCH   1  27
BRANCH   3  31
HETATM   31  O3  UNL     1       4.167  -2.222  -2.547  1.00  0.00    -0.368 OA
ATOM     32  H3  UNL     1       3.946  -3.069  -2.916  1.00  0.00     0.212 HD
ENDBRANCH   3  31
BRANCH   8  33
HETATM   33  O5  UNL     1       0.697  -2.587   0.828  1.00  0.00    -0.390 OA
HETATM   34  C10 UNL     1       1.176  -3.849   1.099  1.00  0.00     0.202 C 
ENDBRANCH   8  33
BRANCH  11  35
HETATM   35  C14 UNL     1      -3.458  -1.236  -0.533  1.00  0.00     0.006 C 
BRANCH  35  36
HETATM   36  C15 UNL     1      -3.999  -2.002   0.616  1.00  0.00     0.015 C 
BRANCH  36  37
HETATM   37  C16 UNL     1      -5.505  -2.187   0.533  1.00  0.00     0.114 C 
HETATM   38 CL1  UNL     1      -6.001  -3.111   1.961  1.00  0.00    -0.130 Cl
ENDBRANCH  36  37
ENDBRANCH  35  36
ENDBRANCH  11  35
TORSDOF 8
