REMARK  4 active torsions:
REMARK  status: ('A' for Active; 'I' for Inactive)
REMARK    1  A    between atoms: C2_2  and  C4_4 
REMARK    2  A    between atoms: C7_7  and  O1_8 
REMARK    3  A    between atoms: C7_7  and  C8_10 
REMARK    4  A    between atoms: C11_13  and  O2_14 
ROOT
HETATM    1  C4  UNL     1       0.465   0.475  -1.320  1.00  0.00     0.048 C 
HETATM    2  C5  UNL     1       1.732   1.201  -0.966  1.00  0.00     0.015 C 
HETATM    3  C6  UNL     1       2.805   0.239  -0.625  1.00  0.00     0.048 C 
HETATM    4  C7  UNL     1       2.753  -0.387   0.727  1.00  0.00     0.129 C 
HETATM    5  C11 UNL     1       1.376  -0.903   1.057  1.00  0.00     0.296 C 
HETATM    6  O3  UNL     1       0.400   0.017   0.992  1.00  0.00    -0.346 OA
HETATM    7  C12 UNL     1      -0.388   0.098  -0.132  1.00  0.00     0.072 C 
HETATM    8  C13 UNL     1      -1.303   1.280   0.140  1.00  0.00     0.039 C 
HETATM    9  C14 UNL     1      -2.457   0.933   1.064  1.00  0.00     0.004 C 
HETATM   10  C15 UNL     1      -3.342  -0.009   0.238  1.00  0.00     0.009 C 
HETATM   11  C16 UNL     1      -2.560  -1.255   0.018  1.00  0.00    -0.045 C 
HETATM   12  C17 UNL     1      -2.679  -2.109   1.279  1.00  0.00     0.015 C 
HETATM   13  C18 UNL     1      -3.314  -2.081  -1.037  1.00  0.00     0.015 C 
HETATM   14  C19 UNL     1      -1.164  -1.119  -0.454  1.00  0.00     0.047 C 
ENDROOT
BRANCH   1  15
HETATM   15  C2  UNL     1      -0.214   1.243  -2.363  1.00  0.00    -0.086 C 
HETATM   16  C1  UNL     1       0.135   2.518  -2.677  1.00  0.00     0.014 C 
HETATM   17  C3  UNL     1      -1.298   0.689  -3.209  1.00  0.00     0.043 C 
ENDBRANCH   1  15
BRANCH   5  18
HETATM   18  O2  UNL     1       1.424  -1.447   2.325  1.00  0.00    -0.368 OA
ATOM     19  H2  UNL     1       0.556  -1.772   2.533  1.00  0.00     0.212 HD
ENDBRANCH   5  18
BRANCH   4  20
HETATM   20  O1  UNL     1       3.693  -1.403   0.779  1.00  0.00    -0.380 OA
ATOM     21  H1  UNL     1       3.660  -1.802   1.641  1.00  0.00     0.211 HD
ENDBRANCH   4  20
BRANCH   4  22
HETATM   22  C8  UNL     1       3.239   0.670   1.710  1.00  0.00    -0.054 C 
HETATM   23  C9  UNL     1       3.469   1.844   1.651  1.00  0.00     0.017 C 
HETATM   24  C10 UNL     1       3.425   0.012   3.147  1.00  0.00     0.046 C 
ENDBRANCH   4  22
TORSDOF 4
