REMARK  5 active torsions:
REMARK  status: ('A' for Active; 'I' for Inactive)
REMARK    1  A    between atoms: N1_2  and  C2_4 
REMARK    2  A    between atoms: C2_4  and  C3_5 
REMARK    3  A    between atoms: C3_5  and  N2_6 
REMARK       I    between atoms: N2_6  and  C4_8 
REMARK       I    between atoms: C4_8  and  N4_15 
REMARK    4  A    between atoms: N3_9  and  C5_11 
REMARK    5  A    between atoms: N4_15  and  C9_17 
ROOT
HETATM    1  N2  UNL     1      -1.356   0.289  -0.574  1.00  0.00    -0.225 N 
ATOM      2  H2  UNL     1      -1.208   0.950   0.189  1.00  0.00     0.177 HD
HETATM    3  C4  UNL     1      -0.585  -0.894  -0.543  1.00  0.00     0.670 C 
HETATM    4  N3  UNL     1      -0.858  -1.869   0.157  1.00  0.00    -0.218 N 
ATOM      5  H3  UNL     1      -0.146  -2.580  -0.011  1.00  0.00     0.178 HD
HETATM    6  N4  UNL     1       0.609  -0.970  -1.390  1.00  0.00    -0.222 N 
ATOM      7  H4  UNL     1       0.629  -1.616  -2.179  1.00  0.00     0.178 HD
ENDROOT
BRANCH   1   8
HETATM    8  C3  UNL     1      -2.321   0.658  -1.561  1.00  0.00     0.157 C 
BRANCH   8   9
HETATM    9  C2  UNL     1      -2.622   2.142  -1.439  1.00  0.00     0.133 C 
BRANCH   9  10
HETATM   10  N1  UNL     1      -3.107   2.449  -0.136  1.00  0.00    -0.424 N 
HETATM   11  C1  UNL     1      -4.408   1.958   0.187  1.00  0.00     0.139 C 
ATOM     12  H1  UNL     1      -2.555   2.990   0.530  1.00  0.00     0.152 HD
ENDBRANCH   9  10
ENDBRANCH   8   9
ENDBRANCH   1   8
BRANCH   4  13
HETATM   13  C5  UNL     1      -1.748  -2.376   1.078  1.00  0.00     0.036 C 
HETATM   14  C6  UNL     1      -2.798  -1.452   1.634  1.00  0.00     0.038 C 
HETATM   15  C7  UNL     1      -2.545  -3.503   0.383  1.00  0.00     0.038 C 
HETATM   16  C8  UNL     1      -1.076  -3.016   2.303  1.00  0.00     0.038 C 
ENDBRANCH   4  13
BRANCH   6  17
HETATM   17  C9  UNL     1       1.772  -0.128  -1.115  1.00  0.00     0.099 C 
HETATM   18  C10 UNL     1       1.436   1.350  -1.214  1.00  0.00     0.026 C 
HETATM   19  C11 UNL     1       2.777   2.088  -1.194  1.00  0.00     0.002 C 
HETATM   20  C12 UNL     1       3.140   2.285   0.244  1.00  0.00     0.000 C 
HETATM   21  C13 UNL     1       4.085   1.266   0.804  1.00  0.00     0.004 C 
HETATM   22  C14 UNL     1       3.691  -0.160   0.527  1.00  0.00    -0.017 C 
HETATM   23  C15 UNL     1       4.639  -0.762  -0.462  1.00  0.00     0.010 C 
HETATM   24  C16 UNL     1       2.255  -0.385   0.269  1.00  0.00     0.030 C 
ENDBRANCH   6  17
TORSDOF 5
