REMARK  15 active torsions:
REMARK  status: ('A' for Active; 'I' for Inactive)
REMARK    1  A    between atoms: C2_2  and  O1_3 
REMARK    2  A    between atoms: O1_3  and  C3_4 
REMARK    3  A    between atoms: C3_4  and  C4_5 
REMARK    4  A    between atoms: C6_7  and  C7_8 
REMARK       I    between atoms: C7_8  and  N1_10 
REMARK    5  A    between atoms: N2_17  and  C13_18 
REMARK    6  A    between atoms: C13_18  and  O3_19 
REMARK    7  A    between atoms: C14_21  and  C15_22 
REMARK    8  A    between atoms: C14_21  and  N3_27 
REMARK    9  A    between atoms: C15_22  and  C16_23 
REMARK   10  A    between atoms: C16_23  and  C17_24 
REMARK       I    between atoms: N3_27  and  C18_29 
REMARK   11  A    between atoms: C18_29  and  C19_31 
REMARK   12  A    between atoms: C19_31  and  N4_32 
REMARK   13  A    between atoms: C19_31  and  C25_41 
REMARK       I    between atoms: N4_32  and  C20_34 
REMARK   14  A    between atoms: C20_34  and  O8_36 
REMARK   15  A    between atoms: O8_36  and  C21_37 
ROOT
HETATM    1  C13 UNL     1      -0.861  -1.070  -0.185  1.00  0.00     0.162 C 
HETATM    2  C14 UNL     1       0.090  -2.015  -0.715  1.00  0.00     0.063 C 
ENDROOT
BRANCH   2   3
HETATM    3  C15 UNL     1      -0.207  -3.458  -0.741  1.00  0.00     0.072 C 
BRANCH   3   4
HETATM    4  C16 UNL     1       0.953  -4.255  -1.329  1.00  0.00     0.119 C 
BRANCH   4   5
HETATM    5  C17 UNL     1       0.622  -5.715  -1.358  1.00  0.00     0.172 C 
HETATM    6  O4  UNL     1      -0.488  -6.082  -0.968  1.00  0.00    -0.648 OA
HETATM    7  O5  UNL     1       1.553  -6.639  -1.818  1.00  0.00    -0.648 OA
ENDBRANCH   4   5
ENDBRANCH   3   4
ENDBRANCH   2   3
BRANCH   2   8
HETATM    8  N3  UNL     1       1.435  -1.677  -0.259  1.00  0.00    -0.325 N 
HETATM    9  C18 UNL     1       2.306  -0.776  -0.907  1.00  0.00     0.245 C 
HETATM   10  O6  UNL     1       1.840  -0.237  -1.962  1.00  0.00    -0.271 OA
ATOM     11  H3  UNL     1       1.771  -2.126   0.593  1.00  0.00     0.169 HD
BRANCH   9  12
HETATM   12  C19 UNL     1       3.664  -0.420  -0.472  1.00  0.00     0.182 C 
BRANCH  12  13
HETATM   13  N4  UNL     1       3.949   1.000  -0.746  1.00  0.00    -0.323 N 
HETATM   14  C20 UNL     1       4.445   1.849   0.274  1.00  0.00     0.362 C 
HETATM   15  O7  UNL     1       4.652   1.381   1.415  1.00  0.00    -0.238 OA
ATOM     16  H4  UNL     1       3.787   1.376  -1.680  1.00  0.00     0.165 HD
BRANCH  14  17
HETATM   17  O8  UNL     1       4.693   3.171   0.014  1.00  0.00    -0.294 OA
BRANCH  17  18
HETATM   18  C21 UNL     1       5.190   4.023   1.021  1.00  0.00     0.061 C 
HETATM   19  C22 UNL     1       5.313   5.425   0.404  1.00  0.00     0.046 C 
HETATM   20  C23 UNL     1       6.592   3.627   1.441  1.00  0.00     0.046 C 
HETATM   21  C24 UNL     1       4.284   4.149   2.214  1.00  0.00     0.046 C 
ENDBRANCH  17  18
ENDBRANCH  14  17
ENDBRANCH  12  13
BRANCH  12  22
HETATM   22  C25 UNL     1       4.712  -1.172  -1.294  1.00  0.00     0.009 C 
HETATM   23  C26 UNL     1       4.548  -2.674  -1.151  1.00  0.00     0.012 C 
HETATM   24  C27 UNL     1       6.118  -0.800  -0.928  1.00  0.00     0.012 C 
ENDBRANCH  12  22
ENDBRANCH   9  12
ENDBRANCH   2   8
BRANCH   1  25
HETATM   25  N2  UNL     1      -2.267  -1.138   0.032  1.00  0.00    -0.346 N 
HETATM   26  C6  UNL     1      -3.049  -0.021   0.512  1.00  0.00     0.179 C 
HETATM   27  C5  UNL     1      -4.328  -0.589   0.998  1.00  0.00     0.043 C 
HETATM   28  C4  UNL     1      -4.426  -1.957   0.380  1.00  0.00     0.030 C 
HETATM   29  C28 UNL     1      -3.081  -2.283  -0.154  1.00  0.00     0.132 C 
BRANCH  26  30
HETATM   30  C7  UNL     1      -3.219   0.957  -0.589  1.00  0.00     0.243 C 
HETATM   31  O2  UNL     1      -2.781   0.609  -1.758  1.00  0.00    -0.271 OA
HETATM   32  N1  UNL     1      -3.817   2.213  -0.451  1.00  0.00    -0.340 N 
HETATM   33  C8  UNL     1      -4.306   2.715   0.829  1.00  0.00     0.200 C 
HETATM   34  C12 UNL     1      -4.026   3.131  -1.523  1.00  0.00     0.146 C 
HETATM   35  S1  UNL     1      -4.348   4.540   0.562  1.00  0.00    -0.138 SA
HETATM   36  C9  UNL     1      -3.616   4.511  -1.124  1.00  0.00     0.018 C 
HETATM   37  C10 UNL     1      -4.334   5.498  -2.027  1.00  0.00     0.028 C 
HETATM   38  C11 UNL     1      -2.150   4.722  -1.029  1.00  0.00     0.028 C 
ENDBRANCH  26  30
BRANCH  28  39
HETATM   39  C3  UNL     1      -4.927  -2.900   1.460  1.00  0.00     0.173 C 
BRANCH  39  40
HETATM   40  O1  UNL     1      -5.067  -4.183   0.989  1.00  0.00    -0.391 OA
BRANCH  40  41
HETATM   41  C2  UNL     1      -5.555  -4.947   2.053  1.00  0.00     0.163 C 
HETATM   42  C1  UNL     1      -4.539  -4.876   3.171  1.00  0.00     0.033 C 
ENDBRANCH  40  41
ENDBRANCH  39  40
ENDBRANCH  28  39
ENDBRANCH   1  25
BRANCH   1  43
HETATM   43  O3  UNL     1      -0.341   0.073   0.164  1.00  0.00    -0.345 OA
ATOM     44  H3  UNL     1       0.597   0.118   0.019  1.00  0.00     0.219 HD
ENDBRANCH   1  43
TORSDOF 15
