REMARK  2 active torsions:
REMARK  status: ('A' for Active; 'I' for Inactive)
REMARK    1  A    between atoms: C15_17  and  O3_19 
REMARK    2  A    between atoms: C19_23  and  O4_24 
ROOT
HETATM    1  C1  UNL     1       4.761   2.206   1.731  1.00  0.00     0.015 C 
HETATM    2  C2  UNL     1       4.116   1.323   0.646  1.00  0.00     0.037 C 
HETATM    3  C3  UNL     1       5.196   0.942  -0.295  1.00  0.00     0.014 C 
HETATM    4  C4  UNL     1       5.090  -0.393  -0.927  1.00  0.00     0.072 C 
HETATM    5  C5  UNL     1       3.923  -1.223  -0.487  1.00  0.00     0.196 C 
HETATM    6  C6  UNL     1       4.277  -2.701  -0.705  1.00  0.00     0.082 C 
HETATM    7  O1  UNL     1       2.834  -0.961  -1.252  1.00  0.00    -0.198 OA
HETATM    8  O2  UNL     1       2.339   0.232  -1.197  1.00  0.00    -0.197 OA
HETATM    9  C7  UNL     1       1.453   0.331  -0.169  1.00  0.00     0.204 C 
HETATM   10  C8  UNL     1       0.587   1.590  -0.215  1.00  0.00     0.073 C 
HETATM   11  C9  UNL     1      -0.490   1.142   0.786  1.00  0.00     0.015 C 
HETATM   12  C10 UNL     1      -0.729  -0.293   0.576  1.00  0.00    -0.028 C 
HETATM   13  C11 UNL     1      -0.574  -1.080   1.887  1.00  0.00     0.016 C 
HETATM   14  C12 UNL     1      -2.069  -0.683   0.015  1.00  0.00     0.033 C 
HETATM   15  C13 UNL     1      -3.176  -0.750   0.998  1.00  0.00     0.012 C 
HETATM   16  C14 UNL     1      -4.180   0.344   1.004  1.00  0.00     0.042 C 
HETATM   17  C15 UNL     1      -5.326   0.118   0.027  1.00  0.00     0.072 C 
HETATM   18  C16 UNL     1      -5.963   1.457  -0.233  1.00  0.00     0.050 C 
HETATM   19  C17 UNL     1      -4.877  -0.564  -1.208  1.00  0.00     0.009 C 
HETATM   20  C18 UNL     1      -3.689  -0.625  -1.749  1.00  0.00     0.010 C 
HETATM   21  C19 UNL     1      -2.407  -0.028  -1.297  1.00  0.00     0.080 C 
HETATM   22  C20 UNL     1      -1.309  -0.241  -2.289  1.00  0.00     0.043 C 
HETATM   23  C21 UNL     1      -0.068  -0.858  -1.794  1.00  0.00     0.014 C 
HETATM   24  C22 UNL     1       0.334  -0.703  -0.402  1.00  0.00     0.060 C 
HETATM   25  O5  UNL     1       1.973   0.273   1.081  1.00  0.00    -0.322 OA
HETATM   26  C23 UNL     1       3.326   0.209   1.233  1.00  0.00     0.271 C 
HETATM   27  O6  UNL     1       3.758  -1.057   0.861  1.00  0.00    -0.322 OA
ENDROOT
BRANCH  21  28
HETATM   28  O4  UNL     1      -2.645   1.338  -1.203  1.00  0.00    -0.385 OA
ATOM     29  H4  UNL     1      -2.858   1.751  -2.031  1.00  0.00     0.211 HD
ENDBRANCH  21  28
BRANCH  17  30
HETATM   30  O3  UNL     1      -6.297  -0.696   0.609  1.00  0.00    -0.386 OA
ATOM     31  H3  UNL     1      -7.012  -0.837  -0.001  1.00  0.00     0.211 HD
ENDBRANCH  17  30
TORSDOF 2
