REMARK  6 active torsions:
REMARK  status: ('A' for Active; 'I' for Inactive)
REMARK    1  A    between atoms: N1_2  and  C2_5 
REMARK    2  A    between atoms: C2_5  and  C3_6 
REMARK    3  A    between atoms: C3_6  and  O1_7 
REMARK    4  A    between atoms: C3_6  and  C8_12 
REMARK    5  A    between atoms: O1_7  and  C4_8 
REMARK    6  A    between atoms: C11_15  and  C12_16 
ROOT
HETATM    1  C8  UNL     1       0.299  -0.181  -0.450  1.00  0.00     0.016 C 
HETATM    2  C9  UNL     1       1.406   0.707  -0.964  1.00  0.00     0.008 C 
HETATM    3  C10 UNL     1       2.566  -0.170  -1.344  1.00  0.00     0.011 C 
HETATM    4  C11 UNL     1       3.008  -1.094  -0.257  1.00  0.00     0.043 C 
HETATM    5  C15 UNL     1       1.937  -1.642   0.595  1.00  0.00     0.011 C 
HETATM    6  C16 UNL     1       0.768  -0.731   0.876  1.00  0.00     0.008 C 
ENDROOT
BRANCH   1   7
HETATM    7  C3  UNL     1      -1.033   0.483  -0.397  1.00  0.00     0.152 C 
BRANCH   7   8
HETATM    8  C2  UNL     1      -1.486   0.932  -1.795  1.00  0.00     0.264 C 
BRANCH   8   9
HETATM    9  N1  UNL     1      -1.742  -0.188  -2.650  1.00  0.00    -0.077 N 
HETATM   10  C1  UNL     1      -2.167   0.180  -3.963  1.00  0.00     0.267 C 
ATOM     11  H12 UNL     1      -2.413  -0.824  -2.219  1.00  0.00     0.276 HD
ATOM     12  H11 UNL     1      -0.928  -0.802  -2.693  1.00  0.00     0.276 HD
ENDBRANCH   8   9
ENDBRANCH   7   8
BRANCH   7  13
HETATM   13  O1  UNL     1      -2.057  -0.257   0.108  1.00  0.00    -0.374 OA
BRANCH  13  14
HETATM   14  C4  UNL     1      -2.805   0.273   1.111  1.00  0.00     0.050 C 
HETATM   15  C5  UNL     1      -2.089   0.647   2.367  1.00  0.00     0.045 C 
HETATM   16  C6  UNL     1      -3.640   1.465   0.699  1.00  0.00     0.045 C 
HETATM   17  C7  UNL     1      -3.825  -0.809   1.507  1.00  0.00     0.045 C 
ENDBRANCH  13  14
ENDBRANCH   7  13
ENDBRANCH   1   7
BRANCH   4  18
HETATM   18  C12 UNL     1       4.043  -0.420   0.612  1.00  0.00     0.054 A 
HETATM   19  N2  UNL     1       3.904   0.640   1.394  1.00  0.00    -0.363 N 
HETATM   20  C13 UNL     1       4.916   1.078   2.070  1.00  0.00     0.095 A 
ATOM     21  H2  UNL     1       3.001   1.110   1.463  1.00  0.00     0.165 HD
HETATM   22  C14 UNL     1       6.109   0.409   1.940  1.00  0.00     0.068 A 
HETATM   23  S1  UNL     1       5.685  -0.826   0.836  1.00  0.00    -0.087 SA
ENDBRANCH   4  18
TORSDOF 6
