REMARK  7 active torsions:
REMARK  status: ('A' for Active; 'I' for Inactive)
REMARK    1  A    between atoms: C3_3  and  N1_4 
REMARK    2  A    between atoms: N1_4  and  C4_6 
REMARK    3  A    between atoms: C4_6  and  C5_7 
REMARK    4  A    between atoms: C14_16  and  N2_17 
REMARK       I    between atoms: N2_17  and  C15_19 
REMARK       I    between atoms: C15_19  and  N3_21 
REMARK    5  A    between atoms: N3_21  and  C16_23 
REMARK    6  A    between atoms: C19_26  and  C20_27 
REMARK    7  A    between atoms: C20_27  and  C21_29 
ROOT
HETATM    1  N2  UNL     1       0.766  -0.839  -0.373  1.00  0.00    -0.308 N 
ATOM      2  H2  UNL     1       0.779  -1.628  -1.019  1.00  0.00     0.170 HD
HETATM    3  C15 UNL     1      -0.489  -0.241  -0.111  1.00  0.00     0.325 C 
HETATM    4  O1  UNL     1      -0.713   0.734   0.633  1.00  0.00    -0.247 OA
HETATM    5  N3  UNL     1      -1.668  -0.790  -0.748  1.00  0.00    -0.309 N 
ATOM      6  H3  UNL     1      -1.596  -1.589  -1.378  1.00  0.00     0.170 HD
ENDROOT
BRANCH   1   7
HETATM    7  C14 UNL     1       1.986  -0.444   0.174  1.00  0.00     0.044 A 
HETATM    8  C2  UNL     1       3.136  -1.235  -0.080  1.00  0.00    -0.009 A 
HETATM    9  C1  UNL     1       3.016  -2.470  -0.862  1.00  0.00     0.053 C 
HETATM   10  C3  UNL     1       4.376  -0.913   0.409  1.00  0.00     0.036 A 
HETATM   11  C11 UNL     1       4.477   0.229   1.176  1.00  0.00     0.030 A 
HETATM   12  C12 UNL     1       3.379   1.016   1.440  1.00  0.00     0.005 A 
HETATM   13  C13 UNL     1       2.144   0.678   0.940  1.00  0.00     0.030 A 
BRANCH  10  14
HETATM   14  N1  UNL     1       5.520  -1.682   0.146  1.00  0.00    -0.385 N 
ATOM     15  H1  UNL     1       5.397  -2.490  -0.464  1.00  0.00     0.160 HD
BRANCH  14  16
HETATM   16  C4  UNL     1       6.841  -1.450   0.644  1.00  0.00     0.158 C 
BRANCH  16  17
HETATM   17  C5  UNL     1       7.445  -0.237   0.083  1.00  0.00    -0.041 A 
HETATM   18  C6  UNL     1       8.492   0.347   0.792  1.00  0.00     0.009 A 
HETATM   19  C7  UNL     1       9.098   1.462   0.305  1.00  0.00     0.001 A 
HETATM   20  C8  UNL     1       8.723   2.047  -0.865  1.00  0.00     0.000 A 
HETATM   21  C9  UNL     1       7.677   1.464  -1.572  1.00  0.00     0.001 A 
HETATM   22  C10 UNL     1       7.041   0.326  -1.100  1.00  0.00     0.009 A 
ENDBRANCH  16  17
ENDBRANCH  14  16
ENDBRANCH  10  14
ENDBRANCH   1   7
BRANCH   5  23
HETATM   23  C16 UNL     1      -2.933  -0.188  -0.474  1.00  0.00     0.036 A 
HETATM   24  C17 UNL     1      -4.019  -1.029  -0.181  1.00  0.00     0.030 A 
HETATM   25  C18 UNL     1      -5.254  -0.494   0.077  1.00  0.00     0.018 A 
HETATM   26  C19 UNL     1      -5.490   0.860   0.062  1.00  0.00     0.015 A 
HETATM   27  C27 UNL     1      -4.415   1.674  -0.228  1.00  0.00     0.018 A 
HETATM   28  C28 UNL     1      -3.173   1.163  -0.488  1.00  0.00     0.030 A 
BRANCH  26  29
HETATM   29  C20 UNL     1      -6.772   1.474   0.331  1.00  0.00     0.192 C 
HETATM   30  O2  UNL     1      -6.747   2.704   0.714  1.00  0.00    -0.287 OA
BRANCH  29  31
HETATM   31  C21 UNL     1      -8.080   0.883   0.230  1.00  0.00     0.015 A 
HETATM   32  C22 UNL     1      -8.363  -0.163  -0.602  1.00  0.00     0.015 A 
HETATM   33  C23 UNL     1      -9.628  -0.753  -0.661  1.00  0.00     0.001 A 
HETATM   34  C24 UNL     1     -10.639  -0.287   0.129  1.00  0.00     0.000 A 
HETATM   35  C25 UNL     1     -10.397   0.765   0.978  1.00  0.00     0.001 A 
HETATM   36  C26 UNL     1      -9.147   1.335   1.026  1.00  0.00     0.015 A 
ENDBRANCH  29  31
ENDBRANCH  26  29
ENDBRANCH   5  23
TORSDOF 7
