REMARK  7 active torsions:
REMARK  status: ('A' for Active; 'I' for Inactive)
REMARK    1  A    between atoms: C2_2  and  C3_3 
REMARK    2  A    between atoms: C2_2  and  N7_20 
REMARK    3  A    between atoms: C2_2  and  C10_32 
REMARK    4  A    between atoms: C3_3  and  N1_4 
REMARK    5  A    between atoms: C5_10  and  N4_11 
REMARK    6  A    between atoms: N7_20  and  C8_22 
REMARK    7  A    between atoms: N10_28  and  N11_29 
ROOT
HETATM    1  C1  UNL     1      -0.270  -0.807  -1.497  1.00  0.00     0.053 C 
HETATM    2  C2  UNL     1      -0.899  -0.506  -0.113  1.00  0.00     0.149 C 
ENDROOT
BRANCH   2   3
HETATM    3  C3  UNL     1      -0.071   0.480   0.637  1.00  0.00     0.195 C 
BRANCH   3   4
HETATM    4  N1  UNL     1       1.279   0.113   0.918  1.00  0.00    -0.257 N 
HETATM    5  N2  UNL     1       1.786  -0.482   1.985  1.00  0.00    -0.238 N 
HETATM    6  N3  UNL     1       3.072  -0.646   1.922  1.00  0.00    -0.279 N 
ATOM      7  H2  UNL     1       1.222  -0.783   2.780  1.00  0.00     0.208 HD
HETATM    8  C4  UNL     1       3.488  -0.138   0.747  1.00  0.00     0.139 A 
ATOM      9  H3  UNL     1       3.660  -1.081   2.633  1.00  0.00     0.189 HD
HETATM   10  C5  UNL     1       4.742  -0.049   0.181  1.00  0.00     0.132 A 
HETATM   11  C7  UNL     1       2.349   0.348   0.103  1.00  0.00     0.157 A 
HETATM   12  N5  UNL     1       4.878   0.521  -1.028  1.00  0.00    -0.337 N 
HETATM   13  C6  UNL     1       3.762   0.987  -1.638  1.00  0.00     0.183 A 
ATOM     14  H5  UNL     1       5.793   0.600  -1.472  1.00  0.00     0.168 HD
HETATM   15  N6  UNL     1       2.541   0.902  -1.089  1.00  0.00    -0.335 N 
ATOM     16  H6  UNL     1       1.740   1.272  -1.600  1.00  0.00     0.168 HD
BRANCH  10  17
HETATM   17  N4  UNL     1       5.768  -0.510   0.808  1.00  0.00    -0.383 N 
ATOM     18  H42 UNL     1       5.665  -0.943   1.726  1.00  0.00     0.157 HD
ATOM     19  H41 UNL     1       6.696  -0.444   0.389  1.00  0.00     0.157 HD
ENDBRANCH  10  17
ENDBRANCH   3   4
ENDBRANCH   2   3
BRANCH   2  20
HETATM   20  N7  UNL     1      -2.152   0.100  -0.403  1.00  0.00    -0.202 N 
ATOM     21  H7  UNL     1      -2.276   0.271  -1.401  1.00  0.00     0.179 HD
BRANCH  20  22
HETATM   22  C8  UNL     1      -3.124   0.469   0.258  1.00  0.00     0.716 A 
HETATM   23  N8  UNL     1      -3.327   0.411   1.573  1.00  0.00    -0.184 N 
HETATM   24  C9  UNL     1      -4.554   0.938   1.869  1.00  0.00     0.217 A 
ATOM     25  H8  UNL     1      -2.669   0.032   2.254  1.00  0.00     0.185 HD
HETATM   26  N9  UNL     1      -5.064   1.305   0.696  1.00  0.00    -0.260 N 
HETATM   27  N10 UNL     1      -4.235   1.040  -0.296  1.00  0.00    -0.026 N 
ATOM     28  H9  UNL     1      -5.981   1.737   0.578  1.00  0.00     0.190 HD
BRANCH  27  29
HETATM   29  N11 UNL     1      -4.508   1.317  -1.628  1.00  0.00    -0.309 N 
ATOM     30 2H11 UNL     1      -3.867   1.112  -2.395  1.00  0.00     0.179 HD
ATOM     31 1H11 UNL     1      -5.337   1.743  -2.042  1.00  0.00     0.179 HD
ENDBRANCH  27  29
ENDBRANCH  20  22
ENDBRANCH   2  20
BRANCH   2  32
HETATM   32  C10 UNL     1      -0.987  -1.807   0.548  1.00  0.00     0.204 C 
HETATM   33  O1  UNL     1      -2.040  -2.350   0.972  1.00  0.00    -0.646 OA
HETATM   34  O2  UNL     1       0.162  -2.550   0.745  1.00  0.00    -0.646 OA
ENDBRANCH   2  32
TORSDOF 7
