REMARK  6 active torsions:
REMARK  status: ('A' for Active; 'I' for Inactive)
REMARK    1  A    between atoms: C4_5  and  C5_6 
REMARK    2  A    between atoms: C5_6  and  N1_7 
REMARK    3  A    between atoms: N1_7  and  C6_9 
REMARK    4  A    between atoms: C9_12  and  S1_13 
REMARK    5  A    between atoms: S1_13  and  C10_14 
REMARK    6  A    between atoms: C10_14  and  C11_15 
ROOT
HETATM    1  C6  UNL     1       1.044   0.301  -0.679  1.00  0.00     0.028 A 
HETATM    2  C7  UNL     1       0.691   1.469  -1.285  1.00  0.00     0.030 A 
HETATM    3  C8  UNL     1      -0.552   1.708  -1.821  1.00  0.00     0.021 A 
HETATM    4  C9  UNL     1      -1.502   0.681  -1.731  1.00  0.00     0.001 A 
HETATM    5  C16 UNL     1      -1.173  -0.491  -1.133  1.00  0.00     0.021 A 
HETATM    6  C17 UNL     1       0.109  -0.692  -0.598  1.00  0.00     0.030 A 
ENDROOT
BRANCH   1   7
HETATM    7  N1  UNL     1       2.335   0.117  -0.151  1.00  0.00    -0.386 N 
ATOM      8  H1  UNL     1       3.005   0.881  -0.238  1.00  0.00     0.160 HD
BRANCH   7   9
HETATM    9  C5  UNL     1       2.765  -1.096   0.509  1.00  0.00     0.158 C 
BRANCH   9  10
HETATM   10  C4  UNL     1       4.169  -0.976   0.937  1.00  0.00    -0.040 A 
HETATM   11  C3  UNL     1       5.181  -1.360   0.108  1.00  0.00     0.012 A 
HETATM   12  C2  UNL     1       6.523  -1.271   0.455  1.00  0.00     0.043 A 
HETATM   13  C1  UNL     1       6.798  -0.765   1.703  1.00  0.00     0.116 A 
HETATM   14  F1  UNL     1       8.120  -0.680   2.040  1.00  0.00    -0.206 F 
HETATM   15  C19 UNL     1       5.790  -0.371   2.559  1.00  0.00     0.043 A 
HETATM   16  C18 UNL     1       4.468  -0.476   2.174  1.00  0.00     0.012 A 
ENDBRANCH   9  10
ENDBRANCH   7   9
ENDBRANCH   1   7
BRANCH   4  17
HETATM   17  S1  UNL     1      -3.059   0.968  -2.454  1.00  0.00    -0.125 SA
BRANCH  17  18
HETATM   18  C10 UNL     1      -4.357  -0.165  -2.092  1.00  0.00     0.119 C 
BRANCH  18  19
HETATM   19  C11 UNL     1      -4.940  -0.104  -0.745  1.00  0.00    -0.033 A 
HETATM   20  C12 UNL     1      -5.932   0.866  -0.533  1.00  0.00     0.011 A 
HETATM   21  C13 UNL     1      -6.504   0.914   0.718  1.00  0.00     0.018 A 
HETATM   22  C14 UNL     1      -6.116   0.043   1.722  1.00  0.00     0.087 A 
HETATM   23  N2  UNL     1      -5.153  -0.876   1.466  1.00  0.00    -0.375 N 
HETATM   24  C15 UNL     1      -4.562  -0.958   0.242  1.00  0.00     0.095 A 
ATOM     25  H2  UNL     1      -4.866  -1.518   2.204  1.00  0.00     0.164 HD
ENDBRANCH  18  19
ENDBRANCH  17  18
ENDBRANCH   4  17
TORSDOF 6
