REMARK  16 active torsions:
REMARK  status: ('A' for Active; 'I' for Inactive)
REMARK    1  A    between atoms: O1_2  and  C2_3 
REMARK    2  A    between atoms: C5_6  and  C6_7 
REMARK    3  A    between atoms: N1_9  and  C8_10 
REMARK    4  A    between atoms: C8_10  and  O2_11 
REMARK    5  A    between atoms: O2_11  and  C9_12 
REMARK    6  A    between atoms: C9_12  and  C10_14 
REMARK    7  A    between atoms: C10_14  and  N2_15 
REMARK    8  A    between atoms: C12_17  and  C13_18 
REMARK    9  A    between atoms: C13_18  and  N3_19 
REMARK   10  A    between atoms: N3_19  and  C14_21 
REMARK   11  A    between atoms: N5_25  and  C16_26 
REMARK   12  A    between atoms: C16_26  and  O4_27 
REMARK   13  A    between atoms: C16_26  and  C17_29 
REMARK   14  A    between atoms: C20_37  and  C21_38 
REMARK   15  A    between atoms: C23_49  and  N13_50 
REMARK   16  A    between atoms: C25_61  and  N17_62 
ROOT
HETATM    1  C9  UNL     1      -1.837   2.450  -0.670  1.00  0.00     0.280 C 
HETATM    2  O3  UNL     1      -2.953   2.991  -0.474  1.00  0.00    -0.263 OA
ENDROOT
BRANCH   1   3
HETATM    3  O2  UNL     1      -1.424   1.411   0.095  1.00  0.00    -0.299 OA
BRANCH   3   4
HETATM    4  C8  UNL     1      -2.118   0.829   1.128  1.00  0.00     0.324 C 
BRANCH   4   5
HETATM    5  N1  UNL     1      -3.395   0.252   0.745  1.00  0.00    -0.261 N 
HETATM    6  C7  UNL     1      -4.633   0.734   0.753  1.00  0.00     0.141 A 
HETATM    7  C6  UNL     1      -5.508  -0.214   0.259  1.00  0.00     0.074 A 
HETATM    8  N12 UNL     1      -4.768  -1.240  -0.029  1.00  0.00    -0.282 N 
HETATM    9  N11 UNL     1      -3.497  -0.997   0.248  1.00  0.00    -0.018 NA
ATOM     10  H12 UNL     1      -5.119  -2.116  -0.417  1.00  0.00     0.184 HD
BRANCH   7  11
HETATM   11  C5  UNL     1      -6.907   0.050   0.146  1.00  0.00     0.008 A 
HETATM   12  C4  UNL     1      -7.325   1.389  -0.133  1.00  0.00     0.017 A 
HETATM   13  C3  UNL     1      -8.637   1.721  -0.301  1.00  0.00     0.039 A 
HETATM   14  C2  UNL     1      -9.634   0.790  -0.212  1.00  0.00     0.083 A 
HETATM   15  C26 UNL     1      -9.291  -0.504   0.055  1.00  0.00     0.056 A 
HETATM   16  C22 UNL     1      -7.943  -0.823   0.228  1.00  0.00     0.037 A 
HETATM   17  C25 UNL     1     -10.388  -1.351   0.073  1.00  0.00     0.128 C 
HETATM   18  C23 UNL     1      -7.522  -2.087   0.662  1.00  0.00     0.127 C 
HETATM   19  N14 UNL     1      -7.975  -3.278   0.248  1.00  0.00    -0.176 N 
HETATM   20  C24 UNL     1      -9.247  -3.507  -0.195  1.00  0.00     0.679 C 
ATOM     21  H14 UNL     1      -7.327  -4.066   0.265  1.00  0.00     0.186 HD
HETATM   22  N15 UNL     1      -9.439  -4.635  -0.783  1.00  0.00    -0.234 N 
HETATM   23  N16 UNL     1     -10.349  -2.700  -0.100  1.00  0.00    -0.176 N 
ATOM     24 2H15 UNL     1      -8.618  -5.236  -0.854  1.00  0.00     0.174 HD
ATOM     25 1H15 UNL     1     -10.389  -4.806  -1.114  1.00  0.00     0.174 HD
ATOM     26  H16 UNL     1     -11.253  -3.168  -0.167  1.00  0.00     0.186 HD
BRANCH  14  27
HETATM   27  O1  UNL     1     -10.978   1.084  -0.379  1.00  0.00    -0.355 OA
HETATM   28  C1  UNL     1     -11.292   2.458  -0.659  1.00  0.00     0.210 C 
ENDBRANCH  14  27
BRANCH  18  29
HETATM   29  N13 UNL     1      -6.635  -2.009   1.598  1.00  0.00    -0.384 N 
ATOM     30 2H13 UNL     1      -6.290  -1.102   1.913  1.00  0.00     0.157 HD
ATOM     31 1H13 UNL     1      -6.329  -2.929   1.914  1.00  0.00     0.157 HD
ENDBRANCH  18  29
BRANCH  17  32
HETATM   32  N17 UNL     1     -11.511  -0.775   0.264  1.00  0.00    -0.384 N 
ATOM     33 2H17 UNL     1     -12.318  -1.398   0.277  1.00  0.00     0.157 HD
ATOM     34 1H17 UNL     1     -11.540   0.236   0.394  1.00  0.00     0.157 HD
ENDBRANCH  17  32
ENDBRANCH   7  11
ENDBRANCH   4   5
ENDBRANCH   3   4
ENDBRANCH   1   3
BRANCH   1  35
HETATM   35  C10 UNL     1      -0.940   2.966  -1.778  1.00  0.00     0.260 C 
BRANCH  35  36
HETATM   36  N2  UNL     1       0.278   2.198  -1.736  1.00  0.00    -0.278 N 
HETATM   37  C11 UNL     1       1.348   2.559  -1.009  1.00  0.00     0.140 A 
HETATM   38  C12 UNL     1       2.323   1.608  -1.194  1.00  0.00     0.061 A 
HETATM   39  N9  UNL     1       1.790   0.710  -2.031  1.00  0.00    -0.287 N 
HETATM   40  N10 UNL     1       0.546   1.072  -2.359  1.00  0.00    -0.240 N 
ATOM     41  H9  UNL     1       2.264  -0.128  -2.369  1.00  0.00     0.188 HD
ATOM     42  H10 UNL     1      -0.083   0.565  -2.982  1.00  0.00     0.208 HD
BRANCH  38  43
HETATM   43  C13 UNL     1       3.694   1.582  -0.596  1.00  0.00     0.181 C 
BRANCH  43  44
HETATM   44  N3  UNL     1       4.327   0.311  -0.779  1.00  0.00    -0.372 N 
ATOM     45  H3  UNL     1       3.823  -0.405  -1.303  1.00  0.00     0.161 HD
BRANCH  44  46
HETATM   46  C14 UNL     1       5.601  -0.010  -0.280  1.00  0.00     0.119 C 
HETATM   47  N4  UNL     1       5.797  -1.150   0.344  1.00  0.00    -0.352 N 
HETATM   48  C15 UNL     1       7.203  -1.247   0.760  1.00  0.00     0.401 C 
ATOM     49  H4  UNL     1       5.083  -1.858   0.513  1.00  0.00     0.162 HD
HETATM   50  N5  UNL     1       7.825  -0.356  -0.120  1.00  0.00     0.158 N 
HETATM   51  C20 UNL     1       6.901   0.751  -0.306  1.00  0.00     0.394 C 
BRANCH  50  52
HETATM   52  C16 UNL     1       9.169   0.046   0.045  1.00  0.00     0.384 C 
BRANCH  52  53
HETATM   53  O4  UNL     1       9.530   0.887  -1.064  1.00  0.00    -0.366 OA
ATOM     54  H4  UNL     1      10.434   1.157  -0.953  1.00  0.00     0.212 HD
ENDBRANCH  52  53
BRANCH  52  55
HETATM   55  C17 UNL     1      10.138  -1.083  -0.033  1.00  0.00     0.161 C 
HETATM   56  C18 UNL     1      11.597  -0.653   0.018  1.00  0.00     0.152 C 
HETATM   57  N6  UNL     1      12.248  -1.931   0.353  1.00  0.00    -0.363 N 
HETATM   58  C19 UNL     1      11.392  -2.727   0.908  1.00  0.00     0.184 C 
ATOM     59  H6  UNL     1      13.227  -2.155   0.174  1.00  0.00     0.162 HD
HETATM   60  N7  UNL     1      11.714  -4.049   1.350  1.00  0.00    -0.064 NA
HETATM   61  N8  UNL     1      10.104  -2.057   1.004  1.00  0.00    -0.354 N 
ATOM     62  H8  UNL     1       9.349  -2.243   1.664  1.00  0.00     0.162 HD
ENDBRANCH  52  55
ENDBRANCH  50  52
BRANCH  51  63
HETATM   63  C21 UNL     1       6.868   1.688   0.837  1.00  0.00     0.215 C 
HETATM   64  O5  UNL     1       6.308   2.827   0.673  1.00  0.00    -0.646 OA
HETATM   65  O6  UNL     1       7.390   1.436   2.072  1.00  0.00    -0.646 OA
ENDBRANCH  51  63
ENDBRANCH  44  46
ENDBRANCH  43  44
ENDBRANCH  38  43
ENDBRANCH  35  36
ENDBRANCH   1  35
TORSDOF 16
