REMARK  6 active torsions:
REMARK  status: ('A' for Active; 'I' for Inactive)
REMARK    1  A    between atoms: C2_2  and  N1_3 
REMARK       I    between atoms: N1_3  and  C3_5 
REMARK    2  A    between atoms: C3_5  and  C4_7 
REMARK    3  A    between atoms: C5_11  and  S1_12 
REMARK    4  A    between atoms: S1_12  and  C6_13 
REMARK    5  A    between atoms: C6_13  and  C7_14 
REMARK    6  A    between atoms: C9_18  and  C10_19 
REMARK       I    between atoms: C10_19  and  N4_21 
ROOT
HETATM    1  C4  UNL     1       2.899  -0.324  -0.636  1.00  0.00     0.300 C 
HETATM    2  N2  UNL     1       1.834   0.393  -1.301  1.00  0.00    -0.043 N 
ATOM      3  H21 UNL     1       2.179   0.868  -2.135  1.00  0.00     0.280 HD
ATOM      4  H22 UNL     1       1.545   1.205  -0.756  1.00  0.00     0.280 HD
HETATM    5  C5  UNL     1       0.718  -0.437  -1.611  1.00  0.00     0.287 C 
HETATM    6  C16 UNL     1       0.177  -1.009  -0.312  1.00  0.00     0.099 C 
HETATM    7  N5  UNL     1       1.133  -1.653   0.496  1.00  0.00    -0.393 N 
ATOM      8  H5  UNL     1       0.852  -2.412   1.117  1.00  0.00     0.159 HD
HETATM    9  C17 UNL     1       2.481  -1.244   0.443  1.00  0.00     0.116 C 
HETATM   10  C18 UNL     1       3.329  -2.519   0.316  1.00  0.00     0.034 C 
ENDROOT
BRANCH   5  11
HETATM   11  S1  UNL     1      -0.582   0.385  -2.486  1.00  0.00    -0.111 SA
BRANCH  11  12
HETATM   12  C6  UNL     1      -1.500   1.610  -1.580  1.00  0.00     0.102 A 
HETATM   13  C8  UNL     1      -2.870   1.916  -2.218  1.00  0.00     0.047 A 
HETATM   14  C9  UNL     1      -2.754   1.258  -0.856  1.00  0.00     0.107 A 
BRANCH  12  15
HETATM   15  C7  UNL     1      -0.815   2.860  -1.193  1.00  0.00     0.251 C 
HETATM   16  N3  UNL     1       0.506   3.112  -1.586  1.00  0.00    -0.061 NA
HETATM   17  O2  UNL     1      -1.444   3.700  -0.503  1.00  0.00    -0.275 OA
ENDBRANCH  12  15
BRANCH  14  18
HETATM   18  C10 UNL     1      -3.287  -0.100  -0.822  1.00  0.00     0.226 C 
HETATM   19  O3  UNL     1      -3.123  -0.893  -1.785  1.00  0.00    -0.273 OA
HETATM   20  N4  UNL     1      -4.007  -0.561   0.308  1.00  0.00    -0.351 N 
HETATM   21  C11 UNL     1      -4.599  -1.895   0.498  1.00  0.00     0.130 C 
HETATM   22  C15 UNL     1      -4.346   0.138   1.541  1.00  0.00     0.130 C 
HETATM   23  C12 UNL     1      -5.982  -1.527   1.019  1.00  0.00     0.010 A 
HETATM   24  C13 UNL     1      -6.139  -1.366   2.518  1.00  0.00     0.013 A 
HETATM   25  C14 UNL     1      -5.821  -0.197   1.685  1.00  0.00     0.010 A 
ENDBRANCH  14  18
ENDBRANCH  11  12
ENDBRANCH   5  11
BRANCH   1  26
HETATM   26  C3  UNL     1       3.824   0.706  -0.061  1.00  0.00     0.250 C 
HETATM   27  N1  UNL     1       4.978   0.315   0.669  1.00  0.00    -0.360 N 
ATOM     28  H1  UNL     1       5.177  -0.676   0.803  1.00  0.00     0.162 HD
HETATM   29  O1  UNL     1       3.607   1.946  -0.207  1.00  0.00    -0.271 OA
BRANCH  27  30
HETATM   30  C2  UNL     1       5.869   1.300   1.222  1.00  0.00     0.118 C 
HETATM   31  C1  UNL     1       7.005   0.626   1.949  1.00  0.00     0.026 C 
ENDBRANCH  27  30
ENDBRANCH   1  26
TORSDOF 6
