REMARK  6 active torsions:
REMARK  status: ('A' for Active; 'I' for Inactive)
REMARK    1  A    between atoms: C3_3  and  C4_4 
REMARK    2  A    between atoms: C4_4  and  O1_7 
REMARK    3  A    between atoms: O1_7  and  C7_8 
REMARK    4  A    between atoms: C7_8  and  C8_10 
REMARK    5  A    between atoms: C8_10  and  S1_11 
REMARK    6  A    between atoms: S1_11  and  C9_12 
ROOT
HETATM    1  C1  UNL     1      -4.310  -0.740  -2.284  1.00  0.00     0.112 C 
HETATM    2  C2  UNL     1      -3.300  -0.367  -1.298  1.00  0.00    -0.108 C 
HETATM    3  C3  UNL     1      -2.442  -0.079  -0.500  1.00  0.00    -0.069 C 
ENDROOT
BRANCH   3   4
HETATM    4  C4  UNL     1      -1.349   0.261   0.462  1.00  0.00     0.126 C 
HETATM    5  C5  UNL     1      -1.929   0.395   1.835  1.00  0.00     0.061 C 
HETATM    6  C6  UNL     1      -0.799   1.609   0.045  1.00  0.00     0.061 C 
BRANCH   4   7
HETATM    7  O1  UNL     1      -0.384  -0.712   0.302  1.00  0.00    -0.297 OA
BRANCH   7   8
HETATM    8  C7  UNL     1       0.824  -0.860   0.930  1.00  0.00     0.270 C 
HETATM    9  O2  UNL     1       1.140  -0.018   1.770  1.00  0.00    -0.264 OA
BRANCH   8  10
HETATM   10  C8  UNL     1       1.754  -1.986   0.632  1.00  0.00     0.193 C 
BRANCH  10  11
HETATM   11  S1  UNL     1       2.567  -1.843  -0.956  1.00  0.00    -0.081 SA
BRANCH  11  12
HETATM   12  C9  UNL     1       3.676  -0.444  -0.912  1.00  0.00     0.176 A 
HETATM   13  N1  UNL     1       4.972  -0.478  -0.543  1.00  0.00    -0.263 N 
HETATM   14  N2  UNL     1       5.472   0.729  -0.638  1.00  0.00    -0.226 N 
ATOM     15  H1  UNL     1       5.481  -1.308  -0.239  1.00  0.00     0.190 HD
HETATM   16  N3  UNL     1       4.530   1.539  -1.058  1.00  0.00    -0.226 N 
ATOM     17  H2  UNL     1       6.433   0.994  -0.422  1.00  0.00     0.210 HD
HETATM   18  N4  UNL     1       3.438   0.832  -1.226  1.00  0.00    -0.263 N 
ATOM     19  H3  UNL     1       4.629   2.540  -1.224  1.00  0.00     0.210 HD
ATOM     20  H4  UNL     1       2.543   1.201  -1.548  1.00  0.00     0.190 HD
ENDBRANCH  11  12
ENDBRANCH  10  11
ENDBRANCH   8  10
ENDBRANCH   7   8
ENDBRANCH   4   7
ENDBRANCH   3   4
TORSDOF 6
