REMARK  2 active torsions:
REMARK  status: ('A' for Active; 'I' for Inactive)
REMARK    1  A    between atoms: C4_4  and  N1_5 
REMARK    2  A    between atoms: N1_5  and  N2_7 
ROOT
HETATM    1  N1  UNL     1       0.136  -0.830  -0.371  1.00  0.00    -0.279 N 
ATOM      2  H1  UNL     1      -0.077  -1.827  -0.340  1.00  0.00     0.189 HD
ENDROOT
BRANCH   1   3
HETATM    3  C4  UNL     1       1.416  -0.420   0.045  1.00  0.00     0.165 A 
HETATM    4  C3  UNL     1       2.539  -0.294  -0.739  1.00  0.00     0.069 A 
HETATM    5  C2  UNL     1       3.575   0.135   0.075  1.00  0.00     0.006 A 
HETATM    6  C1  UNL     1       4.974   0.413  -0.305  1.00  0.00     0.054 C 
HETATM    7  C10 UNL     1       3.016   0.247   1.328  1.00  0.00     0.237 A 
HETATM    8  O3  UNL     1       1.737  -0.091   1.268  1.00  0.00    -0.265 OA
HETATM    9  F1  UNL     1       3.639   0.635   2.462  1.00  0.00    -0.177 F 
ENDBRANCH   1   3
BRANCH   1  10
HETATM   10  N2  UNL     1      -0.864   0.037  -0.824  1.00  0.00    -0.299 N 
HETATM   11  C5  UNL     1      -2.032   0.095  -0.292  1.00  0.00     0.080 C 
HETATM   12  C6  UNL     1      -3.121   1.001  -0.743  1.00  0.00     0.071 C 
HETATM   13  C9  UNL     1      -2.598  -0.650   0.827  1.00  0.00     0.241 C 
HETATM   14  C7  UNL     1      -4.340   0.093  -0.568  1.00  0.00     0.093 C 
HETATM   15  C8  UNL     1      -4.057  -0.534   0.745  1.00  0.00     0.201 C 
HETATM   16  O1  UNL     1      -4.832  -0.913   1.646  1.00  0.00    -0.289 OA
HETATM   17  O2  UNL     1      -1.916  -1.267   1.686  1.00  0.00    -0.282 OA
ATOM     18  H2  UNL     1      -0.657   0.651  -1.612  1.00  0.00     0.186 HD
ENDBRANCH   1  10
TORSDOF 2
