REMARK  10 active torsions:
REMARK  status: ('A' for Active; 'I' for Inactive)
REMARK    1  A    between atoms: C4_6  and  N2_7 
REMARK       I    between atoms: N2_7  and  C5_9 
REMARK    2  A    between atoms: C5_9  and  C6_11 
REMARK    3  A    between atoms: C6_11  and  C9_14 
REMARK    4  A    between atoms: C9_14  and  N3_15 
REMARK       I    between atoms: N3_15  and  C10_17 
REMARK    5  A    between atoms: C10_17  and  C11_19 
REMARK    6  A    between atoms: C11_19  and  C12_20 
REMARK    7  A    between atoms: C12_20  and  C13_21 
REMARK    8  A    between atoms: C13_21  and  C14_22 
REMARK    9  A    between atoms: C13_21  and  C18_26 
REMARK   10  A    between atoms: C14_22  and  C15_23 
ROOT
HETATM    1  N2  UNL     1      -2.376   0.220  -1.241  1.00  0.00    -0.310 N 
ATOM      2  H2  UNL     1      -1.985  -0.668  -1.555  1.00  0.00     0.170 HD
HETATM    3  C5  UNL     1      -1.631   1.417  -1.373  1.00  0.00     0.233 C 
HETATM    4  O1  UNL     1      -1.958   2.337  -2.194  1.00  0.00    -0.272 OA
ENDROOT
BRANCH   3   5
HETATM    5  C6  UNL     1      -0.417   1.617  -0.524  1.00  0.00     0.050 C 
HETATM    6  C7  UNL     1       0.216   2.944  -0.828  1.00  0.00     0.027 C 
HETATM    7  C8  UNL     1      -0.821   1.629   0.940  1.00  0.00     0.027 C 
BRANCH   5   8
HETATM    8  C9  UNL     1       0.602   0.529  -0.798  1.00  0.00     0.141 C 
BRANCH   8   9
HETATM    9  N3  UNL     1       1.786   0.679  -0.005  1.00  0.00    -0.360 N 
HETATM   10  C10 UNL     1       2.824  -0.272  -0.160  1.00  0.00     0.217 C 
HETATM   11  O2  UNL     1       2.741  -1.240  -0.967  1.00  0.00    -0.274 OA
ATOM     12  H3  UNL     1       1.879   1.451   0.655  1.00  0.00     0.162 HD
BRANCH  10  13
HETATM   13  C11 UNL     1       4.052  -0.126   0.655  1.00  0.00     0.103 C 
BRANCH  13  14
HETATM   14  C12 UNL     1       5.047  -1.233   0.362  1.00  0.00     0.024 C 
BRANCH  14  15
HETATM   15  C13 UNL     1       6.285  -1.023   1.231  1.00  0.00     0.087 C 
BRANCH  15  16
HETATM   16  C14 UNL     1       6.950   0.275   0.975  1.00  0.00     0.019 C 
BRANCH  16  17
HETATM   17  C15 UNL     1       7.430   0.538  -0.401  1.00  0.00    -0.022 C 
HETATM   18  C16 UNL     1       8.069   1.947  -0.452  1.00  0.00     0.009 C 
HETATM   19  C17 UNL     1       8.545  -0.389  -0.856  1.00  0.00     0.009 C 
ENDBRANCH  16  17
ENDBRANCH  15  16
BRANCH  15  20
HETATM   20  C18 UNL     1       7.146  -2.214   1.173  1.00  0.00     0.177 C 
HETATM   21  O3  UNL     1       6.815  -3.238   0.479  1.00  0.00    -0.648 OA
HETATM   22  O4  UNL     1       8.350  -2.249   1.882  1.00  0.00    -0.648 OA
ENDBRANCH  15  20
ENDBRANCH  14  15
ENDBRANCH  13  14
ENDBRANCH  10  13
ENDBRANCH   8   9
ENDBRANCH   5   8
ENDBRANCH   3   5
BRANCH   1  23
HETATM   23  C4  UNL     1      -3.546   0.265  -0.723  1.00  0.00     0.136 A 
HETATM   24  C3  UNL     1      -4.254  -0.937  -0.607  1.00  0.00     0.088 A 
HETATM   25  N1  UNL     1      -3.967  -2.207  -0.938  1.00  0.00    -0.356 N 
HETATM   26  C21 UNL     1      -5.518  -0.949  -0.056  1.00  0.00     0.011 A 
HETATM   27  C2  UNL     1      -4.976  -3.041  -0.632  1.00  0.00     0.012 A 
ATOM     28  H1  UNL     1      -3.091  -2.502  -1.369  1.00  0.00     0.166 HD
HETATM   29  C1  UNL     1      -5.021  -4.530  -0.854  1.00  0.00     0.068 C 
HETATM   30  C22 UNL     1      -5.961  -2.253  -0.073  1.00  0.00    -0.027 A 
HETATM   31  C23 UNL     1      -7.279  -2.696   0.432  1.00  0.00     0.051 C 
HETATM   32  C20 UNL     1      -6.062   0.263   0.379  1.00  0.00    -0.018 A 
HETATM   33  C19 UNL     1      -5.338   1.438   0.251  1.00  0.00     0.019 A 
HETATM   34  C24 UNL     1      -7.297   0.621   1.019  1.00  0.00     0.026 A 
HETATM   35  N4  UNL     1      -4.111   1.424  -0.288  1.00  0.00    -0.343 N 
HETATM   36  C27 UNL     1      -6.248   2.532   0.783  1.00  0.00     0.063 C 
ATOM     37  H4  UNL     1      -3.591   2.298  -0.374  1.00  0.00     0.167 HD
HETATM   38  C26 UNL     1      -7.505   1.944   0.206  1.00  0.00     0.000 A 
HETATM   39  C25 UNL     1      -8.546   1.141   0.669  1.00  0.00     0.015 A 
ENDBRANCH   1  23
TORSDOF 10
