REMARK  10 active torsions:
REMARK  status: ('A' for Active; 'I' for Inactive)
REMARK    1  A    between atoms: C2_2  and  C3_3 
REMARK    2  A    between atoms: C3_3  and  C4_4 
REMARK    3  A    between atoms: C4_4  and  C5_5 
REMARK    4  A    between atoms: C4_4  and  N2_9 
REMARK    5  A    between atoms: C5_5  and  N1_6 
REMARK    6  A    between atoms: C7_11  and  C8_12 
REMARK    7  A    between atoms: C8_12  and  C9_13 
REMARK    8  A    between atoms: C9_13  and  C11_15 
REMARK    9  A    between atoms: C17_21  and  O1_22 
REMARK   10  A    between atoms: C24_30  and  O2_31 
ROOT
HETATM    1  C11 UNL     1      -0.429   0.920  -0.807  1.00  0.00    -0.005 C 
HETATM    2  C12 UNL     1       0.326   1.479  -1.997  1.00  0.00     0.006 C 
HETATM    3  C13 UNL     1       0.452   0.219  -2.836  1.00  0.00     0.010 C 
HETATM    4  C14 UNL     1       0.465  -0.927  -1.816  1.00  0.00    -0.037 C 
HETATM    5  C15 UNL     1      -0.877  -1.634  -1.963  1.00  0.00     0.015 C 
HETATM    6  C16 UNL     1       1.529  -1.917  -2.050  1.00  0.00     0.041 C 
HETATM    7  C17 UNL     1       2.683  -1.862  -1.074  1.00  0.00     0.124 C 
HETATM    8  C18 UNL     1       2.942  -0.377  -0.846  1.00  0.00     0.027 C 
HETATM    9  C19 UNL     1       1.799   0.073   0.070  1.00  0.00    -0.002 C 
HETATM   10  C20 UNL     1       1.964  -0.565   1.430  1.00  0.00     0.006 C 
HETATM   11  C21 UNL     1       3.344  -0.683   1.942  1.00  0.00     0.006 C 
HETATM   12  C22 UNL     1       4.386  -1.100   0.963  1.00  0.00    -0.004 C 
HETATM   13  C23 UNL     1       5.754  -0.974   1.538  1.00  0.00     0.037 C 
HETATM   14  C24 UNL     1       6.143   0.408   1.942  1.00  0.00     0.118 C 
HETATM   15  C25 UNL     1       5.775   1.465   0.935  1.00  0.00     0.032 C 
HETATM   16  C26 UNL     1       4.459   1.231   0.272  1.00  0.00     0.012 C 
HETATM   17  C27 UNL     1       4.281  -0.166  -0.221  1.00  0.00    -0.034 C 
HETATM   18  C28 UNL     1       5.333  -0.435  -1.269  1.00  0.00     0.016 C 
HETATM   19  C29 UNL     1       0.450  -0.263  -0.459  1.00  0.00     0.003 C 
ENDROOT
BRANCH   1  20
HETATM   20  C9  UNL     1      -0.716   1.888   0.249  1.00  0.00    -0.010 C 
HETATM   21  C10 UNL     1      -1.545   3.023  -0.336  1.00  0.00     0.010 C 
BRANCH  20  22
HETATM   22  C8  UNL     1      -1.506   1.295   1.378  1.00  0.00     0.049 C 
BRANCH  22  23
HETATM   23  C7  UNL     1      -2.812   0.768   0.948  1.00  0.00     0.056 C 
HETATM   24  N2  UNL     1      -3.840   1.502   1.041  1.00  0.00    -0.393 N 
ATOM     25  H2  UNL     1      -3.711   2.441   1.417  1.00  0.00     0.159 HD
BRANCH  24  26
HETATM   26  C4  UNL     1      -5.178   1.121   0.660  1.00  0.00     0.118 C 
BRANCH  26  27
HETATM   27  C3  UNL     1      -5.171  -0.156  -0.081  1.00  0.00     0.030 C 
BRANCH  27  28
HETATM   28  C2  UNL     1      -6.551  -0.374  -0.708  1.00  0.00    -0.002 C 
HETATM   29  C1  UNL     1      -6.498  -1.693  -1.448  1.00  0.00     0.005 C 
ENDBRANCH  27  28
ENDBRANCH  26  27
BRANCH  26  30
HETATM   30  C5  UNL     1      -6.123   1.247   1.792  1.00  0.00     0.080 C 
BRANCH  30  31
HETATM   31  N1  UNL     1      -6.028   0.421   2.904  1.00  0.00    -0.405 N 
HETATM   32  C6  UNL     1      -6.344  -0.950   2.893  1.00  0.00     0.145 C 
ATOM     33  H1  UNL     1      -5.710   0.833   3.781  1.00  0.00     0.158 HD
ENDBRANCH  30  31
ENDBRANCH  26  30
ENDBRANCH  24  26
ENDBRANCH  22  23
ENDBRANCH  20  22
ENDBRANCH   1  20
BRANCH   7  34
HETATM   34  O1  UNL     1       3.744  -2.510  -1.675  1.00  0.00    -0.395 OA
ATOM     35  H1  UNL     1       4.469  -2.475  -1.062  1.00  0.00     0.210 HD
ENDBRANCH   7  34
BRANCH  14  36
HETATM   36  O2  UNL     1       7.530   0.454   2.083  1.00  0.00    -0.396 OA
ATOM     37  H2  UNL     1       7.778   1.334   2.340  1.00  0.00     0.210 HD
ENDBRANCH  14  36
TORSDOF 10
