REMARK  7 active torsions:
REMARK  status: ('A' for Active; 'I' for Inactive)
REMARK    1  A    between atoms: C4_4  and  C5_5 
REMARK    2  A    between atoms: C5_5  and  C6_7 
REMARK    3  A    between atoms: C6_7  and  C7_8 
REMARK    4  A    between atoms: C7_8  and  C8_9 
REMARK    5  A    between atoms: C11_14  and  C12_15 
REMARK    6  A    between atoms: C12_15  and  C13_16 
REMARK    7  A    between atoms: C15_18  and  O4_19 
ROOT
HETATM    1  C13 UNL     1      -1.443  -1.116   1.058  1.00  0.00     0.132 A 
HETATM    2  C14 UNL     1      -1.215  -2.298   1.891  1.00  0.00     0.087 A 
HETATM    3  C15 UNL     1      -2.492  -1.494   2.021  1.00  0.00     0.116 A 
HETATM    4  C16 UNL     1      -3.700  -2.149   1.487  1.00  0.00     0.212 C 
HETATM    5  O5  UNL     1      -3.925  -2.072   0.145  1.00  0.00    -0.349 OA
HETATM    6  C17 UNL     1      -3.938  -0.804  -0.385  1.00  0.00     0.197 C 
HETATM    7  C18 UNL     1      -4.780   0.109   0.473  1.00  0.00     0.071 C 
HETATM    8  C19 UNL     1      -5.518   1.120  -0.414  1.00  0.00     0.006 C 
HETATM    9  C20 UNL     1      -4.510   1.649  -1.402  1.00  0.00     0.000 C 
HETATM   10  C21 UNL     1      -4.243   0.525  -2.400  1.00  0.00     0.006 C 
HETATM   11  C22 UNL     1      -4.557  -0.834  -1.766  1.00  0.00     0.071 C 
HETATM   12  O6  UNL     1      -2.644  -0.318  -0.551  1.00  0.00    -0.200 OA
HETATM   13  O7  UNL     1      -1.818  -1.307  -0.283  1.00  0.00    -0.223 OA
ENDROOT
BRANCH   1  14
HETATM   14  C12 UNL     1      -0.680   0.174   1.266  1.00  0.00     0.049 C 
BRANCH  14  15
HETATM   15  C11 UNL     1       0.793   0.038   1.116  1.00  0.00    -0.008 C 
HETATM   16  C2  UNL     1       1.435   1.382   1.344  1.00  0.00    -0.014 C 
HETATM   17  C1  UNL     1       0.644   2.503   0.704  1.00  0.00     0.010 C 
HETATM   18  C3  UNL     1       2.797   1.357   0.683  1.00  0.00     0.016 C 
HETATM   19  C4  UNL     1       3.446  -0.013   0.811  1.00  0.00     0.056 C 
HETATM   20  C9  UNL     1       2.679  -1.067   0.066  1.00  0.00     0.013 C 
HETATM   21  C10 UNL     1       1.268  -0.514  -0.184  1.00  0.00     0.006 C 
BRANCH  19  22
HETATM   22  C5  UNL     1       4.839   0.134   0.299  1.00  0.00     0.131 C 
HETATM   23  O1  UNL     1       5.767  -0.107   1.052  1.00  0.00    -0.298 OA
BRANCH  22  24
HETATM   24  C6  UNL     1       5.133   0.559  -1.086  1.00  0.00     0.089 C 
BRANCH  24  25
HETATM   25  C7  UNL     1       6.596   0.570  -1.414  1.00  0.00     0.120 C 
BRANCH  25  26
HETATM   26  C8  UNL     1       7.261  -0.727  -1.327  1.00  0.00     0.172 C 
HETATM   27  O2  UNL     1       6.646  -1.764  -1.060  1.00  0.00    -0.648 OA
HETATM   28  O3  UNL     1       8.640  -0.768  -1.557  1.00  0.00    -0.648 OA
ENDBRANCH  25  26
ENDBRANCH  24  25
ENDBRANCH  22  24
ENDBRANCH  19  22
ENDBRANCH  14  15
ENDBRANCH   1  14
BRANCH   3  29
HETATM   29  O4  UNL     1      -2.643  -0.745   3.204  1.00  0.00    -0.384 OA
ATOM     30  H4  UNL     1      -3.319  -0.989   3.825  1.00  0.00     0.210 HD
ENDBRANCH   3  29
TORSDOF 7
