REMARK  10 active torsions:
REMARK  status: ('A' for Active; 'I' for Inactive)
REMARK    1  A    between atoms: C2_2  and  C3_3 
REMARK    2  A    between atoms: C3_3  and  C4_4 
REMARK    3  A    between atoms: C4_4  and  C5_5 
REMARK    4  A    between atoms: C5_5  and  O2_7 
REMARK    5  A    between atoms: O2_7  and  C6_8 
REMARK    6  A    between atoms: C7_9  and  O3_10 
REMARK    7  A    between atoms: C15_19  and  O4_20 
REMARK    8  A    between atoms: C19_25  and  O5_27 
REMARK    9  A    between atoms: O5_27  and  C21_28 
REMARK   10  A    between atoms: C21_28  and  C22_30 
ROOT
HETATM    1  C6  UNL     1       0.832   0.478  -0.007  1.00  0.00     0.195 C 
HETATM    2  C7  UNL     1       0.113  -0.708  -0.342  1.00  0.00     0.151 C 
HETATM    3  C8  UNL     1      -0.760  -1.801  -0.462  1.00  0.00     0.044 C 
HETATM    4  C9  UNL     1      -2.170  -1.284  -0.029  1.00  0.00    -0.027 C 
HETATM    5  C10 UNL     1      -3.050  -1.193  -1.201  1.00  0.00     0.019 C 
HETATM    6  C11 UNL     1      -3.684  -2.521  -0.780  1.00  0.00    -0.040 C 
HETATM    7  C12 UNL     1      -3.111  -3.726  -1.481  1.00  0.00     0.015 C 
HETATM    8  C13 UNL     1      -5.167  -2.504  -0.893  1.00  0.00     0.015 C 
HETATM    9  C14 UNL     1      -3.073  -2.281   0.574  1.00  0.00     0.031 C 
HETATM   10  C15 UNL     1      -3.875  -1.458   1.543  1.00  0.00     0.124 C 
HETATM   11  C16 UNL     1      -3.574  -0.003   1.285  1.00  0.00     0.037 C 
HETATM   12  C17 UNL     1      -2.068  -0.142   0.934  1.00  0.00    -0.000 C 
HETATM   13  C18 UNL     1      -1.597   1.156   0.596  1.00  0.00     0.046 C 
HETATM   14  C19 UNL     1      -0.160   1.571   0.428  1.00  0.00     0.096 C 
HETATM   15  C20 UNL     1       0.309   2.090   1.795  1.00  0.00     0.049 C 
ENDROOT
BRANCH   1  16
HETATM   16  O2  UNL     1       1.803   0.263   1.018  1.00  0.00    -0.310 OA
BRANCH  16  17
HETATM   17  C5  UNL     1       3.161   0.314   0.889  1.00  0.00     0.259 C 
HETATM   18  O1  UNL     1       3.625   0.572  -0.261  1.00  0.00    -0.265 OA
BRANCH  17  19
HETATM   19  C4  UNL     1       4.071   0.084   2.030  1.00  0.00     0.111 C 
BRANCH  19  20
HETATM   20  C3  UNL     1       5.490   0.037   1.554  1.00  0.00     0.009 C 
BRANCH  20  21
HETATM   21  C2  UNL     1       5.715  -1.131   0.652  1.00  0.00    -0.004 C 
HETATM   22  C1  UNL     1       7.192  -1.072   0.233  1.00  0.00     0.005 C 
ENDBRANCH  20  21
ENDBRANCH  19  20
ENDBRANCH  17  19
ENDBRANCH  16  17
ENDBRANCH   1  16
BRANCH   2  23
HETATM   23  O3  UNL     1      -0.604   0.016  -1.325  1.00  0.00    -0.393 OA
ATOM     24  H3  UNL     1      -1.083  -0.774  -1.548  1.00  0.00     0.210 HD
ENDBRANCH   2  23
BRANCH  14  25
HETATM   25  O5  UNL     1      -0.243   2.633  -0.492  1.00  0.00    -0.308 OA
BRANCH  25  26
HETATM   26  C21 UNL     1       0.694   3.488  -0.937  1.00  0.00     0.259 C 
HETATM   27  O6  UNL     1       1.846   3.343  -0.474  1.00  0.00    -0.265 OA
BRANCH  26  28
HETATM   28  C22 UNL     1       0.446   4.574  -1.932  1.00  0.00     0.106 C 
HETATM   29  C23 UNL     1       1.420   4.435  -3.091  1.00  0.00     0.015 C 
ENDBRANCH  26  28
ENDBRANCH  25  26
ENDBRANCH  14  25
BRANCH  10  30
HETATM   30  O4  UNL     1      -5.199  -1.750   1.616  1.00  0.00    -0.395 OA
ATOM     31  H4  UNL     1      -5.706  -1.230   2.228  1.00  0.00     0.210 HD
ENDBRANCH  10  30
TORSDOF 10
