REMARK  7 active torsions:
REMARK  status: ('A' for Active; 'I' for Inactive)
REMARK    1  A    between atoms: C2_2  and  C3_3 
REMARK    2  A    between atoms: C3_3  and  C4_4 
REMARK    3  A    between atoms: C4_4  and  N1_5 
REMARK    4  A    between atoms: N1_5  and  C5_7 
REMARK    5  A    between atoms: C7_11  and  C8_12 
REMARK    6  A    between atoms: C11_15  and  C12_16 
REMARK    7  A    between atoms: C16_30  and  C17_31 
ROOT
HETATM    1  C5  UNL     1      -2.205  -0.422  -0.304  1.00  0.00     0.130 A 
HETATM    2  N2  UNL     1      -1.592  -1.619  -0.374  1.00  0.00    -0.350 N 
ATOM      3  H2  UNL     1      -2.129  -2.481  -0.470  1.00  0.00     0.166 HD
HETATM    4  C6  UNL     1      -0.255  -1.640  -0.313  1.00  0.00     0.104 A 
HETATM    5  C7  UNL     1       0.548  -0.534  -0.184  1.00  0.00     0.022 A 
HETATM    6  C15 UNL     1      -0.085   0.712  -0.112  1.00  0.00     0.077 A 
HETATM    7  N7  UNL     1       0.385   1.967   0.009  1.00  0.00    -0.343 N 
ATOM      8  H7  UNL     1       1.365   2.242   0.076  1.00  0.00     0.167 HD
HETATM    9  C16 UNL     1      -0.680   2.793   0.025  1.00  0.00     0.085 A 
HETATM   10  N8  UNL     1      -1.801   2.042  -0.087  1.00  0.00    -0.341 N 
ATOM     11  H8  UNL     1      -2.754   2.405  -0.103  1.00  0.00     0.167 HD
HETATM   12  C20 UNL     1      -1.463   0.744  -0.174  1.00  0.00     0.105 A 
ENDROOT
BRANCH   5  13
HETATM   13  C8  UNL     1       2.002  -0.613  -0.109  1.00  0.00     0.020 A 
HETATM   14  C9  UNL     1       2.731   0.045   0.862  1.00  0.00     0.017 A 
HETATM   15  C10 UNL     1       4.105  -0.035   0.940  1.00  0.00     0.019 A 
HETATM   16  C11 UNL     1       4.826  -0.798   0.021  1.00  0.00     0.052 A 
HETATM   17  C13 UNL     1       4.108  -1.452  -0.944  1.00  0.00     0.169 A 
HETATM   18  F1  UNL     1       4.751  -2.205  -1.860  1.00  0.00    -0.202 F 
HETATM   19  C14 UNL     1       2.716  -1.367  -1.017  1.00  0.00     0.167 A 
HETATM   20  F2  UNL     1       2.038  -2.033  -1.997  1.00  0.00    -0.202 F 
BRANCH  16  21
HETATM   21  C12 UNL     1       6.279  -0.865   0.121  1.00  0.00     0.144 A 
HETATM   22  N3  UNL     1       7.055  -0.255   1.030  1.00  0.00    -0.270 N 
HETATM   23  N4  UNL     1       8.328  -0.554   0.797  1.00  0.00    -0.007 NA
ATOM     24  H3  UNL     1       6.719   0.345   1.783  1.00  0.00     0.185 HD
HETATM   25  N5  UNL     1       8.370  -1.355  -0.260  1.00  0.00    -0.007 NA
HETATM   26  N6  UNL     1       7.110  -1.547  -0.676  1.00  0.00    -0.270 N 
ATOM     27  H6  UNL     1       6.830  -2.120  -1.472  1.00  0.00     0.185 HD
ENDBRANCH  16  21
ENDBRANCH   5  13
BRANCH   1  28
HETATM   28  N1  UNL     1      -3.467  -0.309  -0.355  1.00  0.00    -0.374 N 
ATOM     29  H1  UNL     1      -3.831   0.642  -0.295  1.00  0.00     0.161 HD
BRANCH  28  30
HETATM   30  C4  UNL     1      -4.445  -1.342  -0.486  1.00  0.00     0.121 C 
BRANCH  30  31
HETATM   31  C3  UNL     1      -4.978  -1.819   0.847  1.00  0.00     0.019 C 
BRANCH  31  32
HETATM   32  C2  UNL     1      -5.996  -2.896   0.576  1.00  0.00    -0.003 C 
HETATM   33  C1  UNL     1      -5.397  -4.053  -0.160  1.00  0.00     0.005 C 
ENDBRANCH  31  32
ENDBRANCH  30  31
ENDBRANCH  28  30
ENDBRANCH   1  28
BRANCH   9  34
HETATM   34  C17 UNL     1      -0.612   4.259   0.142  1.00  0.00     0.045 C 
HETATM   35  C18 UNL     1       0.088   4.745   1.371  1.00  0.00     0.017 C 
HETATM   36  C19 UNL     1       0.050   4.783  -1.122  1.00  0.00     0.017 C 
ENDBRANCH   9  34
TORSDOF 7
