REMARK  10 active torsions:
REMARK  status: ('A' for Active; 'I' for Inactive)
REMARK    1  A    between atoms: C2_2  and  C3_3 
REMARK    2  A    between atoms: C8_11  and  N2_12 
REMARK    3  A    between atoms: C10_14  and  C11_15 
REMARK    4  A    between atoms: C11_15  and  S1_16 
REMARK    5  A    between atoms: S1_16  and  C12_17 
REMARK    6  A    between atoms: C12_17  and  C13_18 
REMARK    7  A    between atoms: C13_18  and  N3_19 
REMARK    8  A    between atoms: C14_27  and  C15_28 
REMARK    9  A    between atoms: C15_28  and  O1_29 
REMARK   10  A    between atoms: C16_32  and  C17_33 
ROOT
HETATM    1  C3  UNL     1      -3.104   2.270   0.026  1.00  0.00     0.017 A 
HETATM    2  N1  UNL     1      -4.292   1.701  -0.138  1.00  0.00    -0.349 N 
ATOM      3  H1  UNL     1      -5.183   2.167   0.034  1.00  0.00     0.166 HD
HETATM    4  C4  UNL     1      -4.168   0.434  -0.560  1.00  0.00     0.113 A 
HETATM    5 CL1  UNL     1      -5.499  -0.621  -0.907  1.00  0.00    -0.064 Cl
HETATM    6  C5  UNL     1      -2.804   0.130  -0.688  1.00  0.00     0.022 A 
HETATM    7  C6  UNL     1      -2.159   1.293  -0.318  1.00  0.00    -0.021 A 
HETATM    8  C7  UNL     1      -0.724   1.704  -0.232  1.00  0.00     0.071 C 
HETATM    9  C8  UNL     1       0.170   0.640  -0.808  1.00  0.00     0.144 C 
HETATM   10  C14 UNL     1      -0.207  -0.645  -0.099  1.00  0.00     0.171 C 
HETATM   11  O2  UNL     1      -0.957  -1.439  -0.887  1.00  0.00    -0.367 OA
HETATM   12  C16 UNL     1      -2.270  -1.156  -1.133  1.00  0.00     0.196 C 
ENDROOT
BRANCH   9  13
HETATM   13  N2  UNL     1       1.552   0.966  -0.778  1.00  0.00    -0.280 N 
HETATM   14  C9  UNL     1       2.246   1.736   0.089  1.00  0.00     0.139 A 
HETATM   15  C10 UNL     1       3.564   1.754  -0.299  1.00  0.00     0.053 A 
HETATM   16  N4  UNL     1       3.652   0.996  -1.394  1.00  0.00    -0.288 N 
HETATM   17  N5  UNL     1       2.455   0.544  -1.655  1.00  0.00    -0.240 N 
ATOM     18  H4  UNL     1       4.499   0.805  -1.929  1.00  0.00     0.188 HD
ATOM     19  H5  UNL     1       2.238  -0.065  -2.444  1.00  0.00     0.208 HD
BRANCH  15  20
HETATM   20  C11 UNL     1       4.738   2.438   0.300  1.00  0.00     0.134 C 
BRANCH  20  21
HETATM   21  S1  UNL     1       5.487   1.284   1.512  1.00  0.00    -0.161 SA
BRANCH  21  22
HETATM   22  C12 UNL     1       6.165  -0.164   0.632  1.00  0.00     0.101 C 
BRANCH  22  23
HETATM   23  C13 UNL     1       6.769  -1.071   1.673  1.00  0.00     0.239 C 
BRANCH  23  24
HETATM   24  N3  UNL     1       7.829  -0.398   2.405  1.00  0.00    -0.079 N 
ATOM     25  H33 UNL     1       8.539  -0.023   1.776  1.00  0.00     0.274 HD
ATOM     26  H32 UNL     1       7.504   0.478   2.814  1.00  0.00     0.274 HD
ATOM     27  H31 UNL     1       8.238  -1.012   3.110  1.00  0.00     0.274 HD
ENDBRANCH  23  24
ENDBRANCH  22  23
ENDBRANCH  21  22
ENDBRANCH  20  21
ENDBRANCH  15  20
ENDBRANCH   9  13
BRANCH  10  28
HETATM   28  C15 UNL     1       1.068  -1.352   0.394  1.00  0.00     0.198 C 
BRANCH  28  29
HETATM   29  O1  UNL     1       0.754  -2.479   1.127  1.00  0.00    -0.398 OA
ATOM     30  H1  UNL     1       1.541  -2.915   1.431  1.00  0.00     0.209 HD
ENDBRANCH  28  29
ENDBRANCH  10  28
BRANCH   1  31
HETATM   31  C2  UNL     1      -2.830   3.662   0.482  1.00  0.00     0.053 C 
HETATM   32  C1  UNL     1      -2.420   4.572  -0.633  1.00  0.00     0.011 C 
ENDBRANCH   1  31
BRANCH  12  33
HETATM   33  C17 UNL     1      -3.105  -2.351  -0.820  1.00  0.00     0.022 A 
HETATM   34  C18 UNL     1      -3.426  -2.829   0.438  1.00  0.00     0.033 A 
HETATM   35  C19 UNL     1      -3.079  -2.255   1.773  1.00  0.00     0.070 C 
HETATM   36  N6  UNL     1      -4.147  -3.959   0.207  1.00  0.00    -0.304 N 
HETATM   37  N7  UNL     1      -4.271  -4.175  -1.088  1.00  0.00    -0.304 N 
ATOM     38  H6  UNL     1      -4.538  -4.557   0.935  1.00  0.00     0.186 HD
HETATM   39  C20 UNL     1      -3.635  -3.192  -1.752  1.00  0.00     0.033 A 
ATOM     40  H7  UNL     1      -4.767  -4.957  -1.516  1.00  0.00     0.186 HD
HETATM   41  C21 UNL     1      -3.572  -3.121  -3.254  1.00  0.00     0.070 C 
ENDBRANCH  12  33
TORSDOF 10
