REMARK  0 active torsions:
REMARK  status: ('A' for Active; 'I' for Inactive)
ROOT
HETATM    1  O1  UNL     1       3.338   0.156   0.087  1.00  0.00    -0.247 OA
HETATM    2  C1  UNL     1       2.092   0.016   0.127  1.00  0.00     0.326 A 
HETATM    3  N1  UNL     1       1.477  -1.165   0.295  1.00  0.00    -0.291 N 
ATOM      4  H1  UNL     1       1.925  -2.074   0.409  1.00  0.00     0.172 HD
HETATM    5  C2  UNL     1       0.157  -0.917   0.284  1.00  0.00     0.158 A 
HETATM    6  N2  UNL     1      -0.896  -1.728   0.410  1.00  0.00    -0.269 N 
ATOM      7  H2  UNL     1      -0.761  -2.730   0.542  1.00  0.00     0.190 HD
HETATM    8  N3  UNL     1      -2.102  -1.224   0.363  1.00  0.00    -0.238 N 
ATOM      9  H3  UNL     1      -2.895  -1.858   0.461  1.00  0.00     0.208 HD
HETATM   10  N4  UNL     1      -2.343   0.052   0.197  1.00  0.00    -0.250 N 
ATOM     11  H4  UNL     1      -3.304   0.393   0.168  1.00  0.00     0.192 HD
HETATM   12  C3  UNL     1      -1.326   0.904   0.066  1.00  0.00     0.291 A 
HETATM   13  O2  UNL     1      -1.526   2.122  -0.094  1.00  0.00    -0.264 OA
HETATM   14  C4  UNL     1      -0.036   0.432   0.107  1.00  0.00     0.152 A 
HETATM   15  N5  UNL     1       1.192   1.003   0.010  1.00  0.00    -0.301 N 
ATOM     16  H5  UNL     1       1.392   1.994  -0.126  1.00  0.00     0.171 HD
ENDROOT
TORSDOF 0
