REMARK  14 active torsions:
REMARK  status: ('A' for Active; 'I' for Inactive)
REMARK    1  A    between atoms: O1_2  and  C2_3 
REMARK    2  A    between atoms: C4_5  and  C5_6 
REMARK    3  A    between atoms: C5_6  and  C23_27 
REMARK    4  A    between atoms: C6_7  and  C7_8 
REMARK    5  A    between atoms: C7_8  and  C8_9 
REMARK    6  A    between atoms: C12_14  and  C13_15 
REMARK    7  A    between atoms: C13_15  and  C14_17 
REMARK    8  A    between atoms: C15_18  and  C16_19 
REMARK    9  A    between atoms: C21_24  and  O3_25 
REMARK   10  A    between atoms: C23_27  and  C24_28 
REMARK   11  A    between atoms: C24_28  and  C25_29 
REMARK   12  A    between atoms: C31_35  and  O4_36 
REMARK   13  A    between atoms: C33_39  and  C34_40 
REMARK   14  A    between atoms: C34_40  and  O5_41 
ROOT
HETATM    1  C8  UNL     1       0.774   0.796   1.181  1.00  0.00    -0.001 A 
HETATM    2  C9  UNL     1       1.410  -0.385   1.396  1.00  0.00     0.054 A 
HETATM    3  C10 UNL     1       0.733  -1.438   2.081  1.00  0.00     0.100 C 
HETATM    4  N1  UNL     1       0.188  -2.273   2.655  1.00  0.00    -0.191 NA
HETATM    5  C11 UNL     1       2.748  -0.592   1.057  1.00  0.00     0.039 A 
HETATM    6  C12 UNL     1       3.508   0.388   0.483  1.00  0.00     0.018 A 
HETATM    7  C20 UNL     1       2.881   1.599   0.256  1.00  0.00     0.053 A 
HETATM    8  C21 UNL     1       1.565   1.794   0.592  1.00  0.00     0.077 A 
ENDROOT
BRANCH   1   9
HETATM    9  C7  UNL     1      -0.647   1.110   1.378  1.00  0.00     0.070 C 
BRANCH   9  10
HETATM   10  C6  UNL     1      -1.460   1.307   0.189  1.00  0.00    -0.014 C 
HETATM   11  C5  UNL     1      -2.515   0.666  -0.169  1.00  0.00    -0.048 C 
BRANCH  11  12
HETATM   12  C4  UNL     1      -3.137  -0.457   0.581  1.00  0.00     0.007 A 
HETATM   13  C3  UNL     1      -4.206  -0.160   1.422  1.00  0.00     0.054 A 
HETATM   14  C2  UNL     1      -4.846  -1.170   2.091  1.00  0.00     0.102 A 
HETATM   15  C31 UNL     1      -4.370  -2.462   1.878  1.00  0.00     0.108 A 
HETATM   16  C30 UNL     1      -3.315  -2.754   1.046  1.00  0.00     0.015 A 
HETATM   17  C29 UNL     1      -2.674  -1.731   0.375  1.00  0.00     0.089 A 
HETATM   18  C32 UNL     1      -2.638  -4.012   0.658  1.00  0.00     0.082 C 
HETATM   19  O7  UNL     1      -1.640  -2.295  -0.408  1.00  0.00    -0.339 OA
HETATM   20  C33 UNL     1      -2.046  -3.608  -0.692  1.00  0.00     0.198 C 
BRANCH  14  21
HETATM   21  O1  UNL     1      -5.934  -0.969   2.960  1.00  0.00    -0.353 OA
HETATM   22  C1  UNL     1      -6.361   0.366   3.116  1.00  0.00     0.210 C 
ENDBRANCH  14  21
BRANCH  15  23
HETATM   23  O4  UNL     1      -5.037  -3.491   2.575  1.00  0.00    -0.357 OA
ATOM     24  H4  UNL     1      -4.712  -4.372   2.430  1.00  0.00     0.217 HD
ENDBRANCH  15  23
BRANCH  20  25
HETATM   25  C34 UNL     1      -0.911  -4.529  -1.077  1.00  0.00     0.211 A 
HETATM   26  C35 UNL     1      -1.338  -6.002  -1.058  1.00  0.00     0.242 A 
HETATM   27  O6  UNL     1      -0.476  -5.430  -0.125  1.00  0.00    -0.346 OA
BRANCH  25  28
HETATM   28  O5  UNL     1      -0.152  -4.213  -2.176  1.00  0.00    -0.362 OA
ATOM     29  H5  UNL     1       0.561  -4.792  -2.418  1.00  0.00     0.213 HD
ENDBRANCH  25  28
ENDBRANCH  20  25
ENDBRANCH  11  12
BRANCH  11  30
HETATM   30  C23 UNL     1      -3.342   1.046  -1.373  1.00  0.00     0.043 C 
BRANCH  30  31
HETATM   31  C24 UNL     1      -3.092   2.404  -1.919  1.00  0.00     0.032 C 
BRANCH  31  32
HETATM   32  C25 UNL     1      -3.429   3.437  -0.930  1.00  0.00    -0.024 C 
HETATM   33  C26 UNL     1      -4.351   4.357  -1.132  1.00  0.00    -0.091 C 
HETATM   34  C27 UNL     1      -4.631   5.383  -0.052  1.00  0.00     0.042 C 
HETATM   35  C28 UNL     1      -5.142   4.437  -2.368  1.00  0.00     0.042 C 
ENDBRANCH  31  32
ENDBRANCH  30  31
ENDBRANCH  11  30
ENDBRANCH   9  10
ENDBRANCH   1   9
BRANCH   8  36
HETATM   36  O3  UNL     1       1.025   3.035   0.329  1.00  0.00    -0.355 OA
HETATM   37  C22 UNL     1       1.769   4.078  -0.262  1.00  0.00     0.210 C 
ENDBRANCH   8  36
BRANCH   6  38
HETATM   38  C13 UNL     1       4.915   0.225   0.145  1.00  0.00     0.182 C 
HETATM   39  O2  UNL     1       5.443   1.170  -0.491  1.00  0.00    -0.288 OA
BRANCH  38  40
HETATM   40  C14 UNL     1       5.647  -0.952   0.519  1.00  0.00     0.055 C 
HETATM   41  C15 UNL     1       6.886  -1.249   0.269  1.00  0.00     0.004 C 
BRANCH  41  42
HETATM   42  C16 UNL     1       7.822  -0.451  -0.459  1.00  0.00     0.002 C 
HETATM   43  C17 UNL     1       9.083  -0.896  -0.633  1.00  0.00    -0.088 C 
HETATM   44  C18 UNL     1      10.082  -0.107  -1.379  1.00  0.00     0.043 C 
HETATM   45  C19 UNL     1       9.474  -2.219  -0.042  1.00  0.00     0.043 C 
ENDBRANCH  41  42
ENDBRANCH  38  40
ENDBRANCH   6  38
TORSDOF 14
