REMARK  15 active torsions:
REMARK  status: ('A' for Active; 'I' for Inactive)
REMARK    1  A    between atoms: C2_2  and  C3_3 
REMARK    2  A    between atoms: C3_3  and  C4_4 
REMARK    3  A    between atoms: C3_3  and  C25_36 
REMARK    4  A    between atoms: C5_5  and  C6_6 
REMARK    5  A    between atoms: C10_12  and  C11_13 
REMARK    6  A    between atoms: C13_15  and  C14_16 
REMARK    7  A    between atoms: C14_16  and  O3_17 
REMARK    8  A    between atoms: C14_16  and  C15_19 
REMARK    9  A    between atoms: C15_19  and  S1_20 
REMARK   10  A    between atoms: S1_20  and  C16_21 
REMARK   11  A    between atoms: N2_26  and  C19_27 
REMARK   12  A    between atoms: C19_27  and  C20_28 
REMARK   13  A    between atoms: C24_33  and  O5_34 
REMARK   14  A    between atoms: C25_36  and  C26_37 
REMARK   15  A    between atoms: C25_36  and  C30_41 
ROOT
HETATM    1  C6  UNL     1      -0.790   0.881  -1.709  1.00  0.00     0.137 C 
HETATM    2  C7  UNL     1      -0.248   2.137  -1.204  1.00  0.00     0.269 C 
HETATM    3  O1  UNL     1      -0.786   3.222  -1.531  1.00  0.00    -0.264 OA
HETATM    4  O2  UNL     1       0.854   2.217  -0.364  1.00  0.00    -0.315 OA
HETATM    5  C8  UNL     1       1.193   1.133   0.427  1.00  0.00     0.138 C 
HETATM    6  C9  UNL     1       0.595   1.266   1.813  1.00  0.00     0.041 C 
HETATM    7  C10 UNL     1       0.935  -0.201  -0.182  1.00  0.00     0.073 C 
HETATM    8  C24 UNL     1      -0.258  -0.344  -1.049  1.00  0.00     0.146 C 
ENDROOT
BRANCH   7   9
HETATM    9  C11 UNL     1       2.180  -0.837  -0.761  1.00  0.00    -0.076 C 
HETATM   10  C12 UNL     1       2.660  -0.335  -2.077  1.00  0.00     0.044 C 
HETATM   11  C13 UNL     1       2.817  -1.802  -0.120  1.00  0.00     0.008 C 
BRANCH  11  12
HETATM   12  C14 UNL     1       4.024  -2.519  -0.536  1.00  0.00     0.151 C 
BRANCH  12  13
HETATM   13  O3  UNL     1       4.798  -1.733  -1.382  1.00  0.00    -0.391 OA
ATOM     14  H3  UNL     1       5.581  -2.198  -1.652  1.00  0.00     0.210 HD
ENDBRANCH  12  13
BRANCH  12  15
HETATM   15  C15 UNL     1       4.875  -2.874   0.677  1.00  0.00     0.118 C 
BRANCH  15  16
HETATM   16  S1  UNL     1       6.357  -3.777   0.243  1.00  0.00    -0.091 SA
BRANCH  16  17
HETATM   17  C16 UNL     1       7.542  -2.866  -0.695  1.00  0.00     0.146 A 
HETATM   18  N1  UNL     1       7.503  -2.796  -2.064  1.00  0.00    -0.345 N 
HETATM   19  C17 UNL     1       8.532  -2.085  -2.511  1.00  0.00     0.107 A 
ATOM     20  H1  UNL     1       6.789  -3.226  -2.652  1.00  0.00     0.167 HD
HETATM   21  C18 UNL     1       9.247  -1.688  -1.422  1.00  0.00     0.110 A 
HETATM   22  N2  UNL     1       8.616  -2.182  -0.314  1.00  0.00    -0.330 N 
BRANCH  22  23
HETATM   23  C19 UNL     1       9.101  -1.961   1.016  1.00  0.00     0.195 C 
BRANCH  23  24
HETATM   24  C20 UNL     1       8.612  -0.706   1.622  1.00  0.00     0.070 A 
HETATM   25  C21 UNL     1       7.548  -0.513   2.458  1.00  0.00     0.036 A 
HETATM   26  C22 UNL     1       7.489   0.833   2.760  1.00  0.00     0.027 A 
HETATM   27  C23 UNL     1       8.531   1.418   2.091  1.00  0.00     0.142 A 
HETATM   28  O4  UNL     1       9.163   0.480   1.438  1.00  0.00    -0.325 OA
ENDBRANCH  23  24
ENDBRANCH  22  23
ENDBRANCH  16  17
ENDBRANCH  15  16
ENDBRANCH  12  15
ENDBRANCH  11  12
ENDBRANCH   7   9
BRANCH   8  29
HETATM   29  O5  UNL     1       0.058  -1.310  -2.038  1.00  0.00    -0.394 OA
ATOM     30  H5  UNL     1       0.397  -2.091  -1.617  1.00  0.00     0.210 HD
ENDBRANCH   8  29
BRANCH   1  31
HETATM   31  C5  UNL     1      -2.264   0.801  -1.775  1.00  0.00    -0.013 C 
HETATM   32  C4  UNL     1      -3.147   1.584  -1.254  1.00  0.00    -0.021 C 
BRANCH  32  33
HETATM   33  C3  UNL     1      -4.685   1.320  -1.447  1.00  0.00     0.037 C 
BRANCH  33  34
HETATM   34  C2  UNL     1      -5.004   2.327  -2.430  1.00  0.00     0.008 C 
HETATM   35  C1  UNL     1      -6.373   2.431  -3.033  1.00  0.00     0.006 C 
ENDBRANCH  33  34
BRANCH  33  36
HETATM   36  C25 UNL     1      -5.132   1.218  -0.035  1.00  0.00    -0.065 C 
BRANCH  36  37
HETATM   37  C26 UNL     1      -4.542  -0.038   0.481  1.00  0.00     0.006 C 
HETATM   38  C27 UNL     1      -4.811  -1.111   1.127  1.00  0.00    -0.087 C 
HETATM   39  C28 UNL     1      -3.634  -2.125   1.370  1.00  0.00     0.043 C 
HETATM   40  C29 UNL     1      -6.005  -1.745   1.682  1.00  0.00     0.043 C 
ENDBRANCH  36  37
BRANCH  36  41
HETATM   41  C30 UNL     1      -6.467   1.531   0.420  1.00  0.00    -0.027 C 
HETATM   42  C31 UNL     1      -6.881   3.008   0.136  1.00  0.00     0.019 C 
HETATM   43  C32 UNL     1      -6.349   1.610   1.977  1.00  0.00     0.019 C 
HETATM   44  C33 UNL     1      -7.639   0.709   0.113  1.00  0.00     0.019 C 
ENDBRANCH  36  41
ENDBRANCH  33  36
ENDBRANCH  32  33
ENDBRANCH   1  31
TORSDOF 15
