REMARK  4 active torsions:
REMARK  status: ('A' for Active; 'I' for Inactive)
REMARK    1  A    between atoms: C2_2  and  C3_3 
REMARK    2  A    between atoms: C3_3  and  N1_4 
REMARK    3  A    between atoms: N1_4  and  C4_6 
REMARK    4  A    between atoms: C9_11  and  N2_12 
ROOT
HETATM    1  C1  UNL     1      -0.419   1.172  -2.585  1.00  0.00     0.016 C 
HETATM    2  C2  UNL     1      -0.018   0.655  -1.221  1.00  0.00    -0.028 C 
HETATM    3  C12 UNL     1       0.239   1.747  -0.218  1.00  0.00     0.016 C 
HETATM    4  C13 UNL     1       1.298   1.308   0.802  1.00  0.00     0.072 C 
HETATM    5  C14 UNL     1       2.646   1.149   0.147  1.00  0.00     0.200 C 
HETATM    6  C15 UNL     1       2.385   0.962  -1.340  1.00  0.00     0.072 C 
HETATM    7  C16 UNL     1       1.293  -0.112  -1.436  1.00  0.00     0.016 C 
HETATM    8  O3  UNL     1       3.506   2.177   0.434  1.00  0.00    -0.197 OA
HETATM    9  O4  UNL     1       4.176   1.752   1.506  1.00  0.00    -0.197 OA
HETATM   10  C17 UNL     1       4.538   0.492   1.108  1.00  0.00     0.200 C 
HETATM   11  C18 UNL     1       5.564   0.581   0.005  1.00  0.00     0.071 C 
HETATM   12  C19 UNL     1       5.705  -0.820  -0.546  1.00  0.00     0.006 C 
HETATM   13  C20 UNL     1       6.393  -1.642   0.499  1.00  0.00     0.000 C 
HETATM   14  C21 UNL     1       6.212  -1.202   1.903  1.00  0.00     0.006 C 
HETATM   15  C22 UNL     1       4.955  -0.440   2.207  1.00  0.00     0.071 C 
HETATM   16  O5  UNL     1       3.337   0.018   0.567  1.00  0.00    -0.313 OA
ENDROOT
BRANCH   2  17
HETATM   17  C3  UNL     1      -1.088  -0.307  -0.701  1.00  0.00     0.129 C 
BRANCH  17  18
HETATM   18  N1  UNL     1      -2.347   0.370  -0.598  1.00  0.00    -0.387 N 
ATOM     19  H1  UNL     1      -2.400   1.347  -0.885  1.00  0.00     0.159 HD
BRANCH  18  20
HETATM   20  C4  UNL     1      -3.520  -0.259  -0.115  1.00  0.00     0.063 A 
HETATM   21  C5  UNL     1      -3.497  -1.570   0.305  1.00  0.00     0.032 A 
HETATM   22  C6  UNL     1      -4.641  -2.174   0.780  1.00  0.00     0.012 A 
HETATM   23  C7  UNL     1      -5.825  -1.494   0.847  1.00  0.00    -0.028 A 
HETATM   24  C8  UNL     1      -5.870  -0.192   0.433  1.00  0.00     0.070 A 
HETATM   25  C11 UNL     1      -7.179  -1.924   1.319  1.00  0.00     0.060 C 
HETATM   26  C9  UNL     1      -4.727   0.412  -0.041  1.00  0.00     0.155 A 
HETATM   27  N3  UNL     1      -7.189   0.296   0.592  1.00  0.00    -0.387 N 
HETATM   28  C10 UNL     1      -8.096  -0.793   0.898  1.00  0.00     0.124 C 
ATOM     29  H3  UNL     1      -7.463   1.275   0.504  1.00  0.00     0.159 HD
BRANCH  26  30
HETATM   30  N2  UNL     1      -4.795   1.772  -0.468  1.00  0.00    -0.111 N 
HETATM   31  O1  UNL     1      -4.758   2.038  -1.686  1.00  0.00    -0.532 OA
HETATM   32  O2  UNL     1      -4.900   2.772   0.458  1.00  0.00    -0.532 OA
ENDBRANCH  26  30
ENDBRANCH  18  20
ENDBRANCH  17  18
ENDBRANCH   2  17
TORSDOF 4
