REMARK  14 active torsions:
REMARK  status: ('A' for Active; 'I' for Inactive)
REMARK    1  A    between atoms: O1_2  and  C2_3 
REMARK    2  A    between atoms: C9_11  and  C10_12 
REMARK    3  A    between atoms: C10_12  and  O3_13 
REMARK    4  A    between atoms: C10_12  and  C11_15 
REMARK    5  A    between atoms: C12_17  and  O4_18 
REMARK    6  A    between atoms: C15_22  and  O5_23 
REMARK    7  A    between atoms: C17_26  and  C18_27 
REMARK    8  A    between atoms: C17_26  and  C23_32 
REMARK    9  A    between atoms: C18_27  and  C19_28 
REMARK   10  A    between atoms: C23_32  and  C24_33 
REMARK   11  A    between atoms: C25_34  and  C27_36 
REMARK   12  A    between atoms: C27_36  and  C28_37 
REMARK   13  A    between atoms: C28_37  and  C29_38 
REMARK   14  A    between atoms: C34_44  and  O7_45 
ROOT
HETATM    1  C2  UNL     1      -4.119   2.672   0.856  1.00  0.00     0.155 C 
HETATM    2  C3  UNL     1      -3.584   2.271   2.217  1.00  0.00     0.015 C 
HETATM    3  C4  UNL     1      -4.658   1.916   3.203  1.00  0.00     0.012 C 
HETATM    4  C5  UNL     1      -2.631   1.118   1.967  1.00  0.00     0.035 C 
HETATM    5  C6  UNL     1      -2.407   1.008   0.508  1.00  0.00     0.115 C 
HETATM    6  C7  UNL     1      -2.934  -0.263  -0.015  1.00  0.00     0.179 C 
HETATM    7  O2  UNL     1      -3.874  -0.400  -0.812  1.00  0.00    -0.291 OA
HETATM    8  C8  UNL     1      -2.254  -1.485   0.456  1.00  0.00     0.037 A 
HETATM    9  C9  UNL     1      -3.002  -2.589   0.772  1.00  0.00     0.042 A 
HETATM   10  C12 UNL     1      -2.315  -3.808   0.964  1.00  0.00     0.088 A 
HETATM   11  C13 UNL     1      -0.921  -3.780   0.823  1.00  0.00     0.006 A 
HETATM   12  C14 UNL     1      -0.194  -5.092   1.028  1.00  0.00     0.054 C 
HETATM   13  C15 UNL     1      -0.225  -2.652   0.517  1.00  0.00     0.082 A 
HETATM   14  C16 UNL     1      -0.859  -1.425   0.316  1.00  0.00     0.007 A 
HETATM   15  C17 UNL     1      -0.074  -0.219   0.038  1.00  0.00     0.059 C 
HETATM   16  C33 UNL     1      -0.947   1.002   0.218  1.00  0.00     0.159 C 
HETATM   17  O6  UNL     1      -0.450   2.090   0.119  1.00  0.00    -0.295 OA
HETATM   18  C34 UNL     1      -3.083   2.212  -0.134  1.00  0.00     0.171 C 
ENDROOT
BRANCH  15  19
HETATM   19  C18 UNL     1       0.365  -0.039  -1.381  1.00  0.00     0.050 C 
BRANCH  19  20
HETATM   20  C19 UNL     1       1.193  -1.001  -2.044  1.00  0.00    -0.023 C 
HETATM   21  C20 UNL     1       0.738  -1.632  -3.143  1.00  0.00    -0.091 C 
HETATM   22  C21 UNL     1       1.542  -2.634  -3.873  1.00  0.00     0.042 C 
HETATM   23  C22 UNL     1      -0.624  -1.311  -3.650  1.00  0.00     0.042 C 
ENDBRANCH  19  20
ENDBRANCH  15  19
BRANCH  15  24
HETATM   24  C23 UNL     1       0.994  -0.010   1.087  1.00  0.00     0.050 C 
BRANCH  24  25
HETATM   25  C24 UNL     1       1.893   1.125   0.933  1.00  0.00    -0.023 C 
HETATM   26  C25 UNL     1       3.202   0.951   0.816  1.00  0.00    -0.087 C 
HETATM   27  C26 UNL     1       3.837  -0.371   0.837  1.00  0.00     0.043 C 
BRANCH  26  28
HETATM   28  C27 UNL     1       4.050   2.157   0.687  1.00  0.00     0.037 C 
BRANCH  28  29
HETATM   29  C28 UNL     1       4.817   2.323  -0.557  1.00  0.00     0.031 C 
BRANCH  29  30
HETATM   30  C29 UNL     1       5.781   1.320  -0.957  1.00  0.00    -0.024 C 
HETATM   31  C30 UNL     1       7.093   1.612  -1.061  1.00  0.00    -0.091 C 
HETATM   32  C31 UNL     1       7.570   2.989  -0.761  1.00  0.00     0.042 C 
HETATM   33  C32 UNL     1       8.072   0.552  -1.483  1.00  0.00     0.042 C 
ENDBRANCH  29  30
ENDBRANCH  28  29
ENDBRANCH  26  28
ENDBRANCH  24  25
ENDBRANCH  15  24
BRANCH  13  34
HETATM   34  O5  UNL     1       1.134  -2.773   0.411  1.00  0.00    -0.359 OA
ATOM     35  H5  UNL     1       1.620  -1.985   0.197  1.00  0.00     0.217 HD
ENDBRANCH  13  34
BRANCH   9  36
HETATM   36  C10 UNL     1      -4.419  -2.622   1.030  1.00  0.00     0.071 C 
BRANCH  36  37
HETATM   37  O3  UNL     1      -4.931  -3.782   1.333  1.00  0.00    -0.363 OA
ATOM     38  H3  UNL     1      -5.865  -3.804   1.503  1.00  0.00     0.217 HD
ENDBRANCH  36  37
BRANCH  36  39
HETATM   39  C11 UNL     1      -5.441  -1.593   1.046  1.00  0.00     0.179 C 
HETATM   40 CL1  UNL     1      -6.859  -2.210   2.073  1.00  0.00    -0.123 Cl
ENDBRANCH  36  39
ENDBRANCH   9  36
BRANCH  18  41
HETATM   41  O7  UNL     1      -3.530   1.866  -1.370  1.00  0.00    -0.391 OA
ATOM     42  H7  UNL     1      -2.876   1.576  -1.995  1.00  0.00     0.210 HD
ENDBRANCH  18  41
BRANCH  10  43
HETATM   43  O4  UNL     1      -2.872  -4.967   1.262  1.00  0.00    -0.359 OA
ATOM     44  H4  UNL     1      -2.410  -5.787   1.391  1.00  0.00     0.217 HD
ENDBRANCH  10  43
BRANCH   1  45
HETATM   45  O1  UNL     1      -5.389   2.312   0.597  1.00  0.00    -0.388 OA
HETATM   46  C1  UNL     1      -6.313   3.298   0.383  1.00  0.00     0.202 C 
ENDBRANCH   1  45
TORSDOF 14
