REMARK  12 active torsions:
REMARK  status: ('A' for Active; 'I' for Inactive)
REMARK    1  A    between atoms: C2_2  and  C3_3 
REMARK    2  A    between atoms: C3_3  and  O1_4 
REMARK    3  A    between atoms: O1_4  and  C4_5 
REMARK    4  A    between atoms: C9_10  and  O2_11 
REMARK    5  A    between atoms: O2_11  and  C10_12 
REMARK    6  A    between atoms: C10_12  and  C11_14 
REMARK    7  A    between atoms: C13_16  and  C14_17 
REMARK    8  A    between atoms: C14_17  and  C15_18 
REMARK    9  A    between atoms: C15_18  and  C16_20 
REMARK   10  A    between atoms: C19_24  and  C20_25 
REMARK   11  A    between atoms: C20_25  and  C21_26 
REMARK   12  A    between atoms: C25_30  and  O6_31 
ROOT
HETATM    1  C4  UNL     1      -5.154   1.549   0.352  1.00  0.00     0.160 C 
HETATM    2  C5  UNL     1      -4.957   0.063  -0.163  1.00  0.00     0.079 C 
HETATM    3  C6  UNL     1      -3.489  -0.131  -0.055  1.00  0.00     0.012 A 
HETATM    4  C7  UNL     1      -2.697   0.598   0.819  1.00  0.00     0.081 A 
HETATM    5  C8  UNL     1      -1.353   0.327   0.827  1.00  0.00     0.075 A 
HETATM    6  C9  UNL     1      -0.742  -0.632   0.012  1.00  0.00     0.091 A 
HETATM    7  C19 UNL     1      -1.534  -1.346  -0.845  1.00  0.00     0.013 A 
HETATM    8  C25 UNL     1      -2.902  -1.080  -0.863  1.00  0.00     0.084 A 
HETATM    9  O7  UNL     1      -3.235   1.585   1.677  1.00  0.00    -0.338 OA
HETATM   10  C26 UNL     1      -4.672   1.584   1.766  1.00  0.00     0.087 C 
HETATM   11  C27 UNL     1      -5.006   0.319   2.549  1.00  0.00     0.049 C 
HETATM   12  C28 UNL     1      -5.209   2.765   2.503  1.00  0.00     0.049 C 
ENDROOT
BRANCH   6  13
HETATM   13  O2  UNL     1       0.654  -0.814   0.115  1.00  0.00    -0.276 OA
BRANCH  13  14
HETATM   14  C10 UNL     1       1.537   0.051  -0.505  1.00  0.00     0.293 C 
HETATM   15  O3  UNL     1       1.064   1.004  -1.168  1.00  0.00    -0.262 OA
BRANCH  14  16
HETATM   16  C11 UNL     1       3.011  -0.064  -0.443  1.00  0.00     0.221 C 
HETATM   17  C12 UNL     1       3.660   1.122   0.225  1.00  0.00     0.049 C 
HETATM   18  C13 UNL     1       5.042   0.570   0.490  1.00  0.00     0.019 C 
HETATM   19  C18 UNL     1       4.825  -0.902   0.413  1.00  0.00     0.173 C 
HETATM   20  O5  UNL     1       3.450  -1.110   0.321  1.00  0.00    -0.375 OA
BRANCH  18  21
HETATM   21  C14 UNL     1       5.965   1.105  -0.570  1.00  0.00     0.085 C 
BRANCH  21  22
HETATM   22  C15 UNL     1       7.355   0.627  -0.416  1.00  0.00     0.127 C 
HETATM   23  O4  UNL     1       7.636  -0.123   0.485  1.00  0.00    -0.298 OA
BRANCH  22  24
HETATM   24  C16 UNL     1       8.407   1.063  -1.361  1.00  0.00     0.074 C 
HETATM   25  C17 UNL     1       9.755   0.464  -1.036  1.00  0.00     0.013 C 
ENDBRANCH  22  24
ENDBRANCH  21  22
ENDBRANCH  18  21
ENDBRANCH  14  16
ENDBRANCH  13  14
ENDBRANCH   6  13
BRANCH   7  26
HETATM   26  C20 UNL     1      -1.001  -2.410  -1.732  1.00  0.00     0.072 C 
BRANCH  26  27
HETATM   27  C21 UNL     1      -0.755  -3.681  -1.031  1.00  0.00    -0.020 C 
HETATM   28  C22 UNL     1       0.409  -4.283  -1.106  1.00  0.00    -0.091 C 
HETATM   29  C23 UNL     1       0.661  -5.588  -0.383  1.00  0.00     0.042 C 
HETATM   30  C24 UNL     1       1.522  -3.741  -1.920  1.00  0.00     0.042 C 
ENDBRANCH  26  27
ENDBRANCH   7  26
BRANCH   8  31
HETATM   31  O6  UNL     1      -3.675  -1.840  -1.763  1.00  0.00    -0.359 OA
ATOM     32  H6  UNL     1      -3.270  -2.494  -2.320  1.00  0.00     0.217 HD
ENDBRANCH   8  31
BRANCH   1  33
HETATM   33  O1  UNL     1      -6.374   1.970   0.055  1.00  0.00    -0.379 OA
BRANCH  33  34
HETATM   34  C3  UNL     1      -6.798   2.612  -0.995  1.00  0.00     0.195 C 
BRANCH  34  35
HETATM   35  C2  UNL     1      -6.208   3.891  -1.379  1.00  0.00    -0.011 C 
HETATM   36  C1  UNL     1      -5.256   4.587  -0.845  1.00  0.00     0.009 C 
ENDBRANCH  34  35
ENDBRANCH  33  34
ENDBRANCH   1  33
TORSDOF 12
