REMARK  9 active torsions:
REMARK  status: ('A' for Active; 'I' for Inactive)
REMARK    1  A    between atoms: N1_1  and  C1_5 
REMARK    2  A    between atoms: C1_5  and  C2_6 
REMARK       I    between atoms: C2_6  and  N2_8 
REMARK    3  A    between atoms: N2_8  and  C3_10 
REMARK    4  A    between atoms: C4_15  and  N5_16 
REMARK    5  A    between atoms: N5_16  and  C5_18 
REMARK    6  A    between atoms: C5_18  and  C6_24 
REMARK    7  A    between atoms: N6_19  and  N7_21 
REMARK    8  A    between atoms: C6_24  and  N8_25 
REMARK    9  A    between atoms: C6_24  and  N9_29 
ROOT
HETATM    1  C3  UNL     1       2.146  -0.135   0.502  1.00  0.00     0.114 C 
HETATM    2  N3  UNL     1       1.389   0.567   1.278  1.00  0.00    -0.289 N 
ATOM      3  H3  UNL     1       1.690   1.524   1.462  1.00  0.00     0.188 HD
HETATM    4  N4  UNL     1       0.219   0.164   1.884  1.00  0.00    -0.294 N 
ATOM      5  H4  UNL     1       0.166   0.405   2.874  1.00  0.00     0.184 HD
HETATM    6  C4  UNL     1      -0.939  -0.527   1.397  1.00  0.00     0.314 C 
HETATM    7  N10 UNL     1      -0.665  -1.465   0.345  1.00  0.00    -0.279 N 
ATOM      8  H10 UNL     1      -1.226  -1.551  -0.502  1.00  0.00     0.176 HD
HETATM    9  S1  UNL     1       0.718  -2.425   0.680  1.00  0.00     0.236 S 
HETATM   10  O2  UNL     1       0.880  -2.759   2.113  1.00  0.00    -0.205 OA
HETATM   11  O3  UNL     1       0.595  -3.717  -0.096  1.00  0.00    -0.205 OA
HETATM   12  C7  UNL     1       2.090  -1.509   0.017  1.00  0.00     0.240 C 
ENDROOT
BRANCH   6  13
HETATM   13  N5  UNL     1      -1.875   0.442   0.883  1.00  0.00    -0.336 N 
ATOM     14  H5  UNL     1      -1.634   1.433   0.919  1.00  0.00     0.164 HD
BRANCH  13  15
HETATM   15  C5  UNL     1      -3.138   0.049   0.322  1.00  0.00     0.153 C 
HETATM   16  N6  UNL     1      -3.834  -0.829   0.925  1.00  0.00    -0.292 N 
ATOM     17  H6  UNL     1      -3.456  -1.216   1.790  1.00  0.00     0.187 HD
BRANCH  16  18
HETATM   18  N7  UNL     1      -5.056  -1.296   0.501  1.00  0.00    -0.344 N 
ATOM     19  H72 UNL     1      -5.418  -0.897  -0.365  1.00  0.00     0.176 HD
ATOM     20  H71 UNL     1      -5.614  -2.000   0.984  1.00  0.00     0.176 HD
ENDBRANCH  16  18
BRANCH  15  21
HETATM   21  C6  UNL     1      -3.523   0.720  -0.939  1.00  0.00     0.445 C 
BRANCH  21  22
HETATM   22  N8  UNL     1      -4.778   0.314  -1.479  1.00  0.00    -0.043 N 
ATOM     23  H83 UNL     1      -4.799  -0.699  -1.599  1.00  0.00     0.277 HD
ATOM     24  H82 UNL     1      -5.514   0.426  -0.782  1.00  0.00     0.277 HD
ATOM     25  H81 UNL     1      -5.043   0.777  -2.348  1.00  0.00     0.277 HD
ENDBRANCH  21  22
BRANCH  21  26
HETATM   26  N9  UNL     1      -3.455   2.162  -0.712  1.00  0.00    -0.043 N 
ATOM     27  H93 UNL     1      -4.014   2.465   0.085  1.00  0.00     0.277 HD
ATOM     28  H92 UNL     1      -2.546   2.466  -0.362  1.00  0.00     0.277 HD
ATOM     29  H91 UNL     1      -3.720   2.625  -1.581  1.00  0.00     0.277 HD
ENDBRANCH  21  26
ENDBRANCH  15  21
ENDBRANCH  13  15
ENDBRANCH   6  13
BRANCH   1  30
HETATM   30  N2  UNL     1       3.310   0.563   0.013  1.00  0.00    -0.313 N 
HETATM   31  C2  UNL     1       4.290   0.108  -0.831  1.00  0.00     0.248 C 
HETATM   32  O1  UNL     1       4.320  -1.032  -1.325  1.00  0.00    -0.271 OA
ATOM     33  H2  UNL     1       3.418   1.523   0.339  1.00  0.00     0.170 HD
BRANCH  31  34
HETATM   34  C1  UNL     1       5.425   1.007  -1.214  1.00  0.00     0.332 C 
BRANCH  34  35
HETATM   35  N1  UNL     1       5.261   2.281  -0.575  1.00  0.00    -0.071 N 
ATOM     36  H13 UNL     1       4.353   2.699  -0.776  1.00  0.00     0.274 HD
ATOM     37  H12 UNL     1       5.161   2.195   0.436  1.00  0.00     0.274 HD
ATOM     38  H11 UNL     1       6.034   2.893  -0.836  1.00  0.00     0.274 HD
ENDBRANCH  34  35
ENDBRANCH  31  34
ENDBRANCH   1  30
TORSDOF 9
