REMARK  5 active torsions:
REMARK  status: ('A' for Active; 'I' for Inactive)
REMARK    1  A    between atoms: N1_1  and  N2_4 
REMARK    2  A    between atoms: N2_4  and  C1_5 
REMARK    3  A    between atoms: C1_5  and  C2_6 
REMARK       I    between atoms: C2_6  and  N3_8 
REMARK    4  A    between atoms: C10_25  and  C11_26 
REMARK    5  A    between atoms: C12_31  and  O4_32 
ROOT
HETATM    1  C2  UNL     1       2.998   0.657  -1.149  1.00  0.00     0.238 C 
HETATM    2  O1  UNL     1       3.471   0.047  -2.173  1.00  0.00    -0.272 OA
HETATM    3  N3  UNL     1       1.875   1.472  -1.171  1.00  0.00    -0.324 N 
ATOM      4  H3  UNL     1       1.977   2.450  -0.902  1.00  0.00     0.169 HD
HETATM    5  C3  UNL     1       0.680   1.037  -1.525  1.00  0.00     0.089 C 
HETATM    6  C4  UNL     1       0.644  -0.391  -1.895  1.00  0.00     0.293 C 
HETATM    7  N4  UNL     1       1.126  -1.236  -0.849  1.00  0.00    -0.068 N 
ATOM      8  H41 UNL     1       0.722  -0.988   0.054  1.00  0.00     0.277 HD
ATOM      9  H42 UNL     1       2.106  -1.051  -0.634  1.00  0.00     0.277 HD
HETATM   10  C5  UNL     1       0.901  -2.626  -1.173  1.00  0.00     0.251 C 
HETATM   11  C6  UNL     1      -0.342  -3.184  -0.514  1.00  0.00     0.141 C 
HETATM   12  N5  UNL     1      -1.562  -2.730  -1.135  1.00  0.00    -0.418 N 
ATOM     13  H5  UNL     1      -1.680  -2.688  -2.147  1.00  0.00     0.153 HD
HETATM   14  C7  UNL     1      -2.590  -2.345  -0.226  1.00  0.00     0.133 C 
HETATM   15  C8  UNL     1      -2.784  -0.853  -0.188  1.00  0.00     0.140 C 
HETATM   16  N6  UNL     1      -1.949  -0.247   0.828  1.00  0.00    -0.375 N 
ATOM     17  H6  UNL     1      -1.239  -0.861   1.227  1.00  0.00     0.160 HD
HETATM   18  C9  UNL     1      -1.967   1.047   1.343  1.00  0.00     0.146 C 
HETATM   19  N7  UNL     1      -2.178   1.117   2.790  1.00  0.00    -0.080 NA
HETATM   20  C10 UNL     1      -1.771   2.211   0.674  1.00  0.00     0.152 C 
HETATM   21  N8  UNL     1      -1.473   2.307  -0.717  1.00  0.00    -0.327 N 
ATOM     22  H8  UNL     1      -2.262   2.670  -1.251  1.00  0.00     0.168 HD
HETATM   23  C12 UNL     1      -0.379   2.031  -1.530  1.00  0.00     0.165 C 
ENDROOT
BRANCH  23  24
HETATM   24  O4  UNL     1      -0.197   2.847  -2.588  1.00  0.00    -0.345 OA
ATOM     25  H4  UNL     1      -0.890   3.497  -2.591  1.00  0.00     0.219 HD
ENDBRANCH  23  24
BRANCH   1  26
HETATM   26  C1  UNL     1       3.797   0.401   0.098  1.00  0.00     0.237 C 
BRANCH  26  27
HETATM   27  N2  UNL     1       3.258   1.077   1.230  1.00  0.00    -0.139 NA
BRANCH  27  28
HETATM   28  N1  UNL     1       3.985   0.852   2.402  1.00  0.00    -0.348 N 
ATOM     29  H12 UNL     1       4.816   0.261   2.428  1.00  0.00     0.172 HD
ATOM     30  H11 UNL     1       3.599   1.336   3.213  1.00  0.00     0.172 HD
ENDBRANCH  27  28
ENDBRANCH  26  27
ENDBRANCH   1  26
BRANCH  20  31
HETATM   31  C11 UNL     1      -1.869   3.414   1.521  1.00  0.00     0.230 C 
HETATM   32  O2  UNL     1      -2.099   3.327   2.730  1.00  0.00    -0.643 OA
HETATM   33  O3  UNL     1      -1.711   4.668   0.992  1.00  0.00    -0.643 OA
ENDBRANCH  20  31
TORSDOF 5
