REMARK  15 active torsions:
REMARK  status: ('A' for Active; 'I' for Inactive)
REMARK    1  A    between atoms: C2_2  and  C3_3 
REMARK    2  A    between atoms: C3_3  and  C4_4 
REMARK    3  A    between atoms: C4_4  and  C6_6 
REMARK    4  A    between atoms: N1_8  and  C8_9 
REMARK    5  A    between atoms: C8_9  and  C9_10 
REMARK    6  A    between atoms: C9_10  and  C10_11 
REMARK    7  A    between atoms: C10_11  and  C11_12 
REMARK    8  A    between atoms: C11_12  and  C12_13 
REMARK    9  A    between atoms: C12_13  and  C13_14 
REMARK       I    between atoms: C13_14  and  N2_16 
REMARK   10  A    between atoms: N2_16  and  C14_17 
REMARK   11  A    between atoms: N2_16  and  C21_27 
REMARK   12  A    between atoms: C14_17  and  O2_18 
REMARK   13  A    between atoms: C14_17  and  C15_20 
REMARK   14  A    between atoms: C15_20  and  N3_21 
REMARK   15  A    between atoms: C31_38  and  O4_39 
ROOT
HETATM    1  C13 UNL     1      -0.838   1.493   0.360  1.00  0.00     0.222 C 
HETATM    2  O1  UNL     1      -0.526   2.713   0.337  1.00  0.00    -0.273 OA
HETATM    3  N2  UNL     1      -2.141   1.046  -0.104  1.00  0.00    -0.319 N 
ENDROOT
BRANCH   3   4
HETATM    4  C14 UNL     1      -3.019   2.079  -0.588  1.00  0.00     0.240 C 
BRANCH   4   5
HETATM    5  O2  UNL     1      -3.283   2.007  -1.958  1.00  0.00    -0.375 OA
ATOM      6  H2  UNL     1      -3.862   2.689  -2.277  1.00  0.00     0.212 HD
ENDBRANCH   4   5
BRANCH   4   7
HETATM    7  C15 UNL     1      -4.278   2.261   0.190  1.00  0.00     0.170 C 
BRANCH   7   8
HETATM    8  N3  UNL     1      -4.984   3.470  -0.125  1.00  0.00    -0.408 N 
HETATM    9  C16 UNL     1      -4.349   4.683   0.266  1.00  0.00     0.117 C 
HETATM   10  C17 UNL     1      -5.420   5.728   0.520  1.00  0.00     0.019 C 
HETATM   11  C18 UNL     1      -6.742   5.227   0.035  1.00  0.00     0.003 C 
HETATM   12  C19 UNL     1      -6.663   4.609  -1.357  1.00  0.00     0.019 C 
HETATM   13  C20 UNL     1      -5.593   3.521  -1.412  1.00  0.00     0.117 C 
ENDBRANCH   7   8
ENDBRANCH   4   7
ENDBRANCH   3   4
BRANCH   3  14
HETATM   14  C21 UNL     1      -2.394  -0.349  -0.038  1.00  0.00     0.093 C 
HETATM   15  C22 UNL     1      -2.708  -1.048  -1.309  1.00  0.00     0.031 C 
HETATM   16  C23 UNL     1      -3.271  -2.421  -1.017  1.00  0.00    -0.001 C 
HETATM   17  C24 UNL     1      -3.049  -3.396  -2.119  1.00  0.00     0.006 C 
HETATM   18  C33 UNL     1      -2.824  -2.999   0.300  1.00  0.00     0.066 A 
HETATM   19  C25 UNL     1      -2.833  -4.812  -1.732  1.00  0.00     0.008 C 
HETATM   20  C26 UNL     1      -4.087  -5.550  -1.301  1.00  0.00     0.083 C 
HETATM   21  C27 UNL     1      -4.369  -5.078   0.109  1.00  0.00     0.156 C 
HETATM   22  O3  UNL     1      -5.087  -5.817   0.837  1.00  0.00    -0.293 OA
HETATM   23  C28 UNL     1      -3.922  -3.861   0.773  1.00  0.00     0.000 A 
HETATM   24  C29 UNL     1      -4.126  -3.066   1.794  1.00  0.00    -0.039 A 
HETATM   25  C30 UNL     1      -5.093  -3.037   2.965  1.00  0.00     0.047 C 
HETATM   26  C31 UNL     1      -3.067  -2.130   1.467  1.00  0.00     0.091 A 
HETATM   27  C32 UNL     1      -3.463  -0.740   0.996  1.00  0.00     0.068 C 
BRANCH  26  28
HETATM   28  O4  UNL     1      -2.053  -2.156   2.408  1.00  0.00    -0.384 OA
ATOM     29  H4  UNL     1      -1.360  -1.543   2.194  1.00  0.00     0.211 HD
ENDBRANCH  26  28
ENDBRANCH   3  14
BRANCH   1  30
HETATM   30  C12 UNL     1       0.175   0.540   0.877  1.00  0.00     0.103 C 
BRANCH  30  31
HETATM   31  C11 UNL     1       1.397   1.295   1.365  1.00  0.00     0.009 C 
BRANCH  31  32
HETATM   32  C10 UNL     1       2.445   0.356   1.892  1.00  0.00     0.002 C 
BRANCH  32  33
HETATM   33  C9  UNL     1       3.628   1.108   2.364  1.00  0.00     0.020 C 
BRANCH  33  34
HETATM   34  C8  UNL     1       4.348   1.851   1.305  1.00  0.00     0.127 C 
BRANCH  34  35
HETATM   35  N1  UNL     1       4.929   0.985   0.322  1.00  0.00    -0.332 N 
HETATM   36  C7  UNL     1       6.285   0.336   0.502  1.00  0.00     0.153 C 
HETATM   37  C6  UNL     1       6.724   0.323  -0.913  1.00  0.00     0.108 C 
HETATM   38  N4  UNL     1       5.546  -0.260  -1.545  1.00  0.00    -0.336 N 
HETATM   39  C34 UNL     1       4.476   0.513  -0.926  1.00  0.00     0.318 C 
ATOM     40  H4  UNL     1       5.487  -1.008  -2.235  1.00  0.00     0.164 HD
HETATM   41  O5  UNL     1       3.367   0.687  -1.478  1.00  0.00    -0.247 OA
BRANCH  37  42
HETATM   42  C4  UNL     1       8.008  -0.256  -1.292  1.00  0.00     0.006 C 
HETATM   43  C5  UNL     1       8.154   0.021  -2.824  1.00  0.00     0.012 C 
BRANCH  42  44
HETATM   44  C3  UNL     1       8.328  -1.668  -1.057  1.00  0.00     0.006 C 
BRANCH  44  45
HETATM   45  C2  UNL     1       8.289  -2.216   0.319  1.00  0.00    -0.004 C 
HETATM   46  C1  UNL     1       9.205  -1.511   1.282  1.00  0.00     0.005 C 
ENDBRANCH  44  45
ENDBRANCH  42  44
ENDBRANCH  37  42
ENDBRANCH  34  35
ENDBRANCH  33  34
ENDBRANCH  32  33
ENDBRANCH  31  32
ENDBRANCH  30  31
ENDBRANCH   1  30
TORSDOF 15
