REMARK  13 active torsions:
REMARK  status: ('A' for Active; 'I' for Inactive)
REMARK    1  A    between atoms: C5_8  and  C6_9 
REMARK    2  A    between atoms: C6_9  and  C7_10 
REMARK       I    between atoms: C7_10  and  N3_12 
REMARK    3  A    between atoms: N3_12  and  C8_14 
REMARK    4  A    between atoms: C8_14  and  C9_15 
REMARK    5  A    between atoms: C8_14  and  C16_22 
REMARK    6  A    between atoms: C9_15  and  C10_16 
REMARK       I    between atoms: C16_22  and  N4_24 
REMARK    7  A    between atoms: N4_24  and  C17_26 
REMARK    8  A    between atoms: C17_26  and  C18_27 
REMARK    9  A    between atoms: C17_26  and  C27_39 
REMARK   10  A    between atoms: C18_27  and  N5_28 
REMARK       I    between atoms: N5_28  and  C19_30 
REMARK   11  A    between atoms: C19_30  and  C20_32 
REMARK   12  A    between atoms: C20_32  and  C21_33 
REMARK   13  A    between atoms: C27_39  and  C28_40 
ROOT
HETATM    1  C8  UNL     1      -2.523   0.291  -0.232  1.00  0.00     0.177 C 
ENDROOT
BRANCH   1   2
HETATM    2  N3  UNL     1      -3.570  -0.400   0.498  1.00  0.00    -0.347 N 
HETATM    3  C7  UNL     1      -4.444  -1.328  -0.093  1.00  0.00     0.224 C 
HETATM    4  O1  UNL     1      -4.266  -1.517  -1.353  1.00  0.00    -0.273 OA
ATOM      5  H3  UNL     1      -3.677  -0.201   1.493  1.00  0.00     0.163 HD
BRANCH   3   6
HETATM    6  C6  UNL     1      -5.513  -2.081   0.589  1.00  0.00     0.162 C 
BRANCH   6   7
HETATM    7  C5  UNL     1      -6.057  -1.499   1.806  1.00  0.00     0.043 A 
HETATM    8  C2  UNL     1      -6.907  -0.440   1.954  1.00  0.00     0.029 A 
HETATM    9  C1  UNL     1      -7.496   0.434   0.922  1.00  0.00     0.070 C 
HETATM   10  N1  UNL     1      -7.183  -0.252   3.278  1.00  0.00    -0.354 N 
HETATM   11  C3  UNL     1      -6.503  -1.194   3.954  1.00  0.00     0.183 A 
ATOM     12  H1  UNL     1      -7.789   0.465   3.677  1.00  0.00     0.166 HD
HETATM   13  N2  UNL     1      -5.822  -1.947   3.050  1.00  0.00    -0.349 N 
HETATM   14  C4  UNL     1      -4.980  -3.067   3.448  1.00  0.00     0.156 C 
ENDBRANCH   6   7
ENDBRANCH   3   6
ENDBRANCH   1   2
BRANCH   1  15
HETATM   15  C9  UNL     1      -2.729   1.762  -0.105  1.00  0.00     0.039 C 
BRANCH  15  16
HETATM   16  C10 UNL     1      -3.983   2.349  -0.626  1.00  0.00    -0.012 C 
HETATM   17  C11 UNL     1      -4.234   2.185  -2.076  1.00  0.00     0.005 C 
HETATM   18  C12 UNL     1      -5.353   3.051  -2.612  1.00  0.00     0.000 C 
HETATM   19  C13 UNL     1      -5.138   4.508  -2.282  1.00  0.00     0.000 C 
HETATM   20  C14 UNL     1      -3.814   4.640  -1.511  1.00  0.00     0.000 C 
HETATM   21  C15 UNL     1      -3.989   3.819  -0.271  1.00  0.00     0.005 C 
ENDBRANCH  15  16
ENDBRANCH   1  15
BRANCH   1  22
HETATM   22  C16 UNL     1      -1.208   0.028   0.456  1.00  0.00     0.244 C 
HETATM   23  O2  UNL     1      -1.200   0.020   1.722  1.00  0.00    -0.271 OA
HETATM   24  N4  UNL     1      -0.026  -0.204  -0.236  1.00  0.00    -0.331 N 
ATOM     25  H4  UNL     1      -0.043  -0.207  -1.256  1.00  0.00     0.168 HD
BRANCH  24  26
HETATM   26  C17 UNL     1       1.221  -0.440   0.442  1.00  0.00     0.007 C 
BRANCH  26  27
HETATM   27  C18 UNL     1       2.413   0.204  -0.139  1.00  0.00     0.175 C 
BRANCH  27  28
HETATM   28  N5  UNL     1       3.653  -0.003   0.524  1.00  0.00    -0.356 N 
HETATM   29  C19 UNL     1       4.827   0.572  -0.026  1.00  0.00     0.218 C 
HETATM   30  O3  UNL     1       4.787   1.265  -1.092  1.00  0.00    -0.274 OA
ATOM     31  H5  UNL     1       3.698  -0.555   1.380  1.00  0.00     0.162 HD
BRANCH  29  32
HETATM   32  C20 UNL     1       6.143   0.383   0.621  1.00  0.00     0.107 C 
BRANCH  32  33
HETATM   33  C21 UNL     1       7.297   0.843  -0.246  1.00  0.00    -0.006 C 
HETATM   34  C22 UNL     1       7.331   0.049  -1.538  1.00  0.00     0.005 C 
HETATM   35  C23 UNL     1       8.301  -1.110  -1.354  1.00  0.00     0.000 C 
HETATM   36  C24 UNL     1       9.731  -0.603  -1.351  1.00  0.00     0.000 C 
HETATM   37  C25 UNL     1       9.761   0.695  -0.548  1.00  0.00     0.000 C 
HETATM   38  C26 UNL     1       8.614   0.723   0.441  1.00  0.00     0.005 C 
ENDBRANCH  32  33
ENDBRANCH  29  32
ENDBRANCH  27  28
ENDBRANCH  26  27
BRANCH  26  39
HETATM   39  C27 UNL     1       1.351  -1.875   0.866  1.00  0.00     0.058 C 
BRANCH  39  40
HETATM   40  C28 UNL     1       1.260  -2.904  -0.209  1.00  0.00    -0.017 C 
HETATM   41  C29 UNL     1       1.405  -4.318   0.409  1.00  0.00     0.010 C 
HETATM   42  C30 UNL     1       2.276  -2.841  -1.299  1.00  0.00     0.010 C 
ENDBRANCH  39  40
ENDBRANCH  26  39
ENDBRANCH  24  26
ENDBRANCH   1  22
TORSDOF 13
