REMARK  4 active torsions:
REMARK  status: ('A' for Active; 'I' for Inactive)
REMARK    1  A    between atoms: C6_6  and  N1_7 
REMARK    2  A    between atoms: N1_7  and  C7_9 
REMARK    3  A    between atoms: C9_15  and  N4_16 
REMARK    4  A    between atoms: N4_16  and  N5_18 
ROOT
HETATM    1  C7  UNL     1      -1.347  -0.914  -0.011  1.00  0.00     0.693 A 
HETATM    2  N2  UNL     1      -1.193  -2.006  -0.787  1.00  0.00    -0.187 N 
ATOM      3  H2  UNL     1      -2.009  -2.412  -1.245  1.00  0.00     0.185 HD
HETATM    4  C8  UNL     1       0.014  -2.570  -0.969  1.00  0.00     0.215 A 
HETATM    5  N3  UNL     1       1.120  -2.075  -0.388  1.00  0.00    -0.185 N 
ATOM      6  H3  UNL     1       2.032  -2.509  -0.532  1.00  0.00     0.185 HD
HETATM    7  C9  UNL     1       0.982  -0.986   0.390  1.00  0.00     0.712 A 
HETATM    8  N6  UNL     1      -0.230  -0.430   0.564  1.00  0.00    -0.021 N 
ATOM      9  H6  UNL     1      -0.306   0.395   1.158  1.00  0.00     0.203 HD
ENDROOT
BRANCH   7  10
HETATM   10  N4  UNL     1       2.039  -0.482   0.968  1.00  0.00    -0.132 N 
ATOM     11  H4  UNL     1       1.950   0.344   1.560  1.00  0.00     0.205 HD
BRANCH  10  12
HETATM   12  N5  UNL     1       3.286  -1.068   0.778  1.00  0.00    -0.295 N 
HETATM   13  C10 UNL     1       4.267  -0.404   0.257  1.00  0.00     0.004 C 
HETATM   14  C11 UNL     1       4.053   1.001  -0.142  1.00  0.00     0.054 C 
HETATM   15  C15 UNL     1       5.556  -1.122   0.098  1.00  0.00     0.054 C 
HETATM   16  C12 UNL     1       5.264   1.862   0.008  1.00  0.00     0.006 C 
HETATM   17  C13 UNL     1       6.544   1.100   0.159  1.00  0.00     0.001 C 
HETATM   18  C14 UNL     1       6.492  -0.183  -0.644  1.00  0.00     0.006 C 
ATOM     19  H5  UNL     1       3.430  -2.039   1.054  1.00  0.00     0.186 HD
ENDBRANCH  10  12
ENDBRANCH   7  10
BRANCH   1  20
HETATM   20  N1  UNL     1      -2.486  -0.342   0.191  1.00  0.00    -0.221 N 
ATOM     21  H1  UNL     1      -2.568   0.482   0.786  1.00  0.00     0.178 HD
BRANCH  20  22
HETATM   22  C6  UNL     1      -3.644  -0.919  -0.462  1.00  0.00     0.099 C 
HETATM   23  C5  UNL     1      -4.618  -1.460   0.584  1.00  0.00     0.026 C 
HETATM   24  C4  UNL     1      -4.722  -0.415   1.660  1.00  0.00     0.002 C 
HETATM   25  C3  UNL     1      -4.791   0.986   1.151  1.00  0.00     0.004 C 
HETATM   26  C2  UNL     1      -5.085   1.129  -0.303  1.00  0.00    -0.017 C 
HETATM   27  C1  UNL     1      -4.644   2.530  -0.739  1.00  0.00     0.010 C 
HETATM   28  C16 UNL     1      -4.428   0.152  -1.196  1.00  0.00     0.030 C 
ENDBRANCH  20  22
ENDBRANCH   1  20
TORSDOF 4
