REMARK  5 active torsions:
REMARK  status: ('A' for Active; 'I' for Inactive)
REMARK    1  A    between atoms: C2_2  and  O1_3 
REMARK    2  A    between atoms: C2_2  and  N1_5 
REMARK    3  A    between atoms: N1_5  and  C3_7 
REMARK    4  A    between atoms: C11_16  and  O2_17 
REMARK    5  A    between atoms: O2_17  and  C12_18 
REMARK       I    between atoms: C12_18  and  N3_20 
ROOT
HETATM    1  C3  UNL     1      -1.656  -0.446   1.015  1.00  0.00     0.079 C 
HETATM    2  C4  UNL     1      -2.182   0.880   0.653  1.00  0.00     0.025 C 
HETATM    3  C5  UNL     1      -1.304   2.068   0.869  1.00  0.00     0.002 C 
HETATM    4  C6  UNL     1      -1.077   2.956  -0.303  1.00  0.00     0.001 C 
HETATM    5  C7  UNL     1      -0.767   2.382  -1.607  1.00  0.00     0.019 C 
HETATM    6  C8  UNL     1       0.694   1.994  -1.849  1.00  0.00     0.095 C 
HETATM    7  C9  UNL     1       1.508   2.526  -0.788  1.00  0.00     0.064 C 
HETATM    8  N2  UNL     1       2.174   2.952   0.046  1.00  0.00    -0.197 NA
HETATM    9  C10 UNL     1       0.846   0.588  -2.206  1.00  0.00     0.052 C 
HETATM   10  C11 UNL     1       1.275  -0.472  -1.311  1.00  0.00     0.138 C 
HETATM   11  C15 UNL     1       0.140  -1.255  -0.617  1.00  0.00     0.013 C 
HETATM   12  C16 UNL     1      -0.946  -1.598  -1.588  1.00  0.00     0.012 C 
HETATM   13  C17 UNL     1      -0.220  -0.730   0.703  1.00  0.00     0.031 C 
ENDROOT
BRANCH  10  14
HETATM   14  O2  UNL     1       2.218  -0.201  -0.313  1.00  0.00    -0.298 OA
BRANCH  14  15
HETATM   15  C12 UNL     1       3.458  -0.819  -0.233  1.00  0.00     0.362 C 
HETATM   16  O3  UNL     1       3.717  -1.661  -1.127  1.00  0.00    -0.238 OA
HETATM   17  N3  UNL     1       4.430  -0.574   0.762  1.00  0.00    -0.337 N 
HETATM   18  C13 UNL     1       5.687  -1.322   0.676  1.00  0.00     0.154 C 
HETATM   19  C14 UNL     1       4.244   0.364   1.851  1.00  0.00     0.154 C 
ENDBRANCH  14  15
ENDBRANCH  10  14
BRANCH   1  20
HETATM   20  N1  UNL     1      -2.487  -1.536   0.665  1.00  0.00    -0.393 N 
ATOM     21  H1  UNL     1      -2.141  -2.217  -0.011  1.00  0.00     0.156 HD
BRANCH  20  22
HETATM   22  C2  UNL     1      -3.773  -1.721   1.212  1.00  0.00     0.209 C 
HETATM   23  C1  UNL     1      -4.840  -0.727   0.879  1.00  0.00     0.062 C 
BRANCH  22  24
HETATM   24  O1  UNL     1      -4.291  -3.008   0.860  1.00  0.00    -0.378 OA
ATOM     25  H1  UNL     1      -3.613  -3.639   1.071  1.00  0.00     0.212 HD
ENDBRANCH  22  24
ENDBRANCH  20  22
ENDBRANCH   1  20
TORSDOF 5
