REMARK  7 active torsions:
REMARK  status: ('A' for Active; 'I' for Inactive)
REMARK    1  A    between atoms: O1_2  and  C2_3 
REMARK    2  A    between atoms: C2_3  and  O2_4 
REMARK    3  A    between atoms: O2_4  and  C3_5 
REMARK    4  A    between atoms: C3_5  and  C4_7 
REMARK    5  A    between atoms: C4_7  and  O4_8 
REMARK    6  A    between atoms: C9_14  and  O5_15 
REMARK    7  A    between atoms: C11_17  and  O6_18 
ROOT
HETATM    1  C4  UNL     1       1.792   0.363  -0.228  1.00  0.00     0.176 C 
HETATM    2  C5  UNL     1       0.451  -0.189  -0.649  1.00  0.00     0.066 C 
HETATM    3  C6  UNL     1      -0.427  -0.314   0.540  1.00  0.00     0.081 C 
HETATM    4  C7  UNL     1      -1.883  -0.355   0.275  1.00  0.00    -0.013 A 
HETATM    5  C8  UNL     1      -2.705  -0.890  -0.691  1.00  0.00     0.050 A 
HETATM    6  C9  UNL     1      -4.084  -0.770  -0.667  1.00  0.00     0.102 A 
HETATM    7  C11 UNL     1      -4.677  -0.080   0.379  1.00  0.00     0.104 A 
HETATM    8  C13 UNL     1      -3.846   0.451   1.341  1.00  0.00     0.077 A 
HETATM    9  C14 UNL     1      -2.463   0.333   1.320  1.00  0.00     0.081 A 
HETATM   10  O7  UNL     1      -1.440   0.792   2.187  1.00  0.00    -0.319 OA
HETATM   11  C15 UNL     1      -0.356   0.996   1.302  1.00  0.00     0.276 C 
HETATM   12  O8  UNL     1       0.857   1.243   1.833  1.00  0.00    -0.346 OA
HETATM   13  C16 UNL     1       1.733   1.470   0.769  1.00  0.00     0.097 C 
HETATM   14  C17 UNL     1       3.131   1.717   1.282  1.00  0.00     0.049 C 
HETATM   15  C18 UNL     1       1.298   2.732   0.012  1.00  0.00     0.049 C 
ENDROOT
BRANCH   1  16
HETATM   16  C3  UNL     1       2.651  -0.726   0.353  1.00  0.00     0.298 C 
HETATM   17  O3  UNL     1       2.294  -1.360   1.373  1.00  0.00    -0.262 OA
BRANCH  16  18
HETATM   18  O2  UNL     1       3.867  -1.058  -0.226  1.00  0.00    -0.293 OA
BRANCH  18  19
HETATM   19  C2  UNL     1       4.685  -2.084   0.314  1.00  0.00     0.347 C 
BRANCH  19  20
HETATM   20  O1  UNL     1       5.844  -2.263  -0.398  1.00  0.00    -0.371 OA
HETATM   21  C1  UNL     1       6.642  -1.126  -0.443  1.00  0.00     0.204 C 
ENDBRANCH  19  20
ENDBRANCH  18  19
ENDBRANCH  16  18
ENDBRANCH   1  16
BRANCH   1  22
HETATM   22  O4  UNL     1       2.463   0.884  -1.360  1.00  0.00    -0.377 OA
ATOM     23  H4  UNL     1       1.920   1.572  -1.727  1.00  0.00     0.211 HD
ENDBRANCH   1  22
BRANCH   6  24
HETATM   24  O5  UNL     1      -4.894  -1.313  -1.646  1.00  0.00    -0.353 OA
HETATM   25  C10 UNL     1      -4.419  -2.028  -2.746  1.00  0.00     0.210 C 
ENDBRANCH   6  24
BRANCH   7  26
HETATM   26  O6  UNL     1      -6.050   0.045   0.414  1.00  0.00    -0.353 OA
HETATM   27  C12 UNL     1      -6.631   0.761   1.504  1.00  0.00     0.210 C 
ENDBRANCH   7  26
TORSDOF 7
