REMARK  8 active torsions:
REMARK  status: ('A' for Active; 'I' for Inactive)
REMARK    1  A    between atoms: C2_2  and  O1_3 
REMARK    2  A    between atoms: O1_3  and  C3_4 
REMARK    3  A    between atoms: C3_4  and  C4_6 
REMARK    4  A    between atoms: C6_11  and  C7_12 
REMARK    5  A    between atoms: C7_12  and  O6_13 
REMARK    6  A    between atoms: C7_12  and  C10_17 
REMARK    7  A    between atoms: O6_13  and  C8_14 
REMARK    8  A    between atoms: C10_17  and  O8_18 
ROOT
HETATM    1  C7  UNL     1      -0.109   0.317  -0.082  1.00  0.00     0.231 C 
ENDROOT
BRANCH   1   2
HETATM    2  C6  UNL     1       0.727   1.107   0.831  1.00  0.00     0.132 A 
HETATM    3  C4  UNL     1       2.023   0.851   1.172  1.00  0.00     0.189 A 
HETATM    4  O3  UNL     1       2.392   1.819   2.009  1.00  0.00    -0.246 OA
HETATM    5  C5  UNL     1       1.403   2.633   2.191  1.00  0.00     0.417 A 
HETATM    6  O4  UNL     1       1.429   3.658   2.931  1.00  0.00    -0.229 OA
HETATM    7  O5  UNL     1       0.402   2.194   1.476  1.00  0.00    -0.254 OA
BRANCH   3   8
HETATM    8  C3  UNL     1       2.937  -0.212   0.790  1.00  0.00     0.320 C 
HETATM    9  O2  UNL     1       2.655  -1.171   0.032  1.00  0.00    -0.257 OA
BRANCH   8  10
HETATM   10  O1  UNL     1       4.237  -0.209   1.279  1.00  0.00    -0.316 OA
BRANCH  10  11
HETATM   11  C2  UNL     1       5.187  -1.188   0.968  1.00  0.00     0.175 C 
HETATM   12  C1  UNL     1       5.513  -1.302  -0.498  1.00  0.00     0.034 C 
ENDBRANCH  10  11
ENDBRANCH   8  10
ENDBRANCH   3   8
ENDBRANCH   1   2
BRANCH   1  13
HETATM   13  O6  UNL     1       0.143   0.919  -1.372  1.00  0.00    -0.306 OA
BRANCH  13  14
HETATM   14  C8  UNL     1       0.547   0.331  -2.508  1.00  0.00     0.255 C 
HETATM   15  C9  UNL     1       0.757   1.187  -3.724  1.00  0.00     0.126 C 
HETATM   16  O7  UNL     1       0.745  -0.890  -2.563  1.00  0.00    -0.266 OA
ENDBRANCH  13  14
ENDBRANCH   1  13
BRANCH   1  17
HETATM   17  C10 UNL     1      -1.583   0.503   0.095  1.00  0.00     0.120 C 
HETATM   18  C11 UNL     1      -2.267  -0.140  -1.057  1.00  0.00    -0.050 C 
HETATM   19  C12 UNL     1      -2.780   0.646  -2.221  1.00  0.00     0.046 C 
HETATM   20  C13 UNL     1      -2.445  -1.452  -1.041  1.00  0.00    -0.021 C 
HETATM   21  C14 UNL     1      -1.999  -2.298   0.064  1.00  0.00     0.028 C 
HETATM   22  C15 UNL     1      -2.074  -1.590   1.372  1.00  0.00     0.016 C 
HETATM   23  C16 UNL     1      -2.232  -0.086   1.283  1.00  0.00    -0.009 C 
HETATM   24  C17 UNL     1      -1.859   0.470   2.633  1.00  0.00     0.018 C 
HETATM   25  C18 UNL     1      -3.720   0.192   1.180  1.00  0.00     0.018 C 
BRANCH  17  26
HETATM   26  O8  UNL     1      -1.873   1.865   0.052  1.00  0.00    -0.381 OA
ATOM     27  H8  UNL     1      -2.809   1.983   0.164  1.00  0.00     0.211 HD
ENDBRANCH  17  26
ENDBRANCH   1  17
TORSDOF 8
