REMARK  13 active torsions:
REMARK  status: ('A' for Active; 'I' for Inactive)
REMARK    1  A    between atoms: C2_7  and  N3_8 
REMARK    2  A    between atoms: C4_10  and  O1_11 
REMARK    3  A    between atoms: C5_13  and  O2_14 
REMARK    4  A    between atoms: C6_16  and  C7_17 
REMARK    5  A    between atoms: C7_17  and  O3_18 
REMARK    6  A    between atoms: N5_26  and  C12_27 
REMARK    7  A    between atoms: C12_27  and  C13_28 
REMARK    8  A    between atoms: C13_28  and  C14_29 
REMARK    9  A    between atoms: C14_29  and  N6_30 
REMARK       I    between atoms: N6_30  and  C15_32 
REMARK   10  A    between atoms: C15_32  and  C16_34 
REMARK   11  A    between atoms: N7_36  and  C18_37 
REMARK   12  A    between atoms: C21_40  and  N8_41 
REMARK   13  A    between atoms: N11_50  and  O5_51 
ROOT
HETATM    1  C14 UNL     1      -0.223  -0.321   1.626  1.00  0.00     0.124 C 
ENDROOT
BRANCH   1   2
HETATM    2  C13 UNL     1      -1.347  -1.150   1.099  1.00  0.00     0.040 C 
BRANCH   2   3
HETATM    3  C12 UNL     1      -1.577  -1.045  -0.372  1.00  0.00     0.131 C 
BRANCH   3   4
HETATM    4  N5  UNL     1      -1.895   0.319  -0.797  1.00  0.00    -0.342 N 
HETATM    5  C8  UNL     1      -3.158   0.794  -0.847  1.00  0.00     0.137 A 
HETATM    6  N4  UNL     1      -4.359   0.216  -0.553  1.00  0.00    -0.175 N 
HETATM    7  C9  UNL     1      -3.064   2.094  -1.287  1.00  0.00     0.054 A 
HETATM    8  C2  UNL     1      -5.495   0.919  -0.689  1.00  0.00     0.684 A 
ATOM      9  H4  UNL     1      -4.394  -0.751  -0.230  1.00  0.00     0.186 HD
HETATM   10  N2  UNL     1      -5.396   2.195  -1.122  1.00  0.00    -0.176 N 
HETATM   11  C1  UNL     1      -4.236   2.800  -1.422  1.00  0.00     0.128 A 
ATOM     12  H2  UNL     1      -6.257   2.732  -1.228  1.00  0.00     0.186 HD
HETATM   13  N1  UNL     1      -4.172   4.016  -1.832  1.00  0.00    -0.384 N 
ATOM     14  H12 UNL     1      -5.041   4.540  -1.932  1.00  0.00     0.157 HD
ATOM     15  H11 UNL     1      -3.290   4.476  -2.060  1.00  0.00     0.157 HD
HETATM   16  C10 UNL     1      -1.723   2.372  -1.494  1.00  0.00     0.036 A 
HETATM   17  C11 UNL     1      -1.001   1.240  -1.179  1.00  0.00     0.093 A 
BRANCH   8  18
HETATM   18  N3  UNL     1      -6.774   0.343  -0.389  1.00  0.00    -0.206 N 
HETATM   19  C3  UNL     1      -8.059   0.980  -0.494  1.00  0.00     0.176 C 
HETATM   20  C4  UNL     1      -9.081  -0.137  -0.559  1.00  0.00     0.167 C 
HETATM   21  C5  UNL     1      -8.347  -1.426  -0.342  1.00  0.00     0.174 C 
HETATM   22  C6  UNL     1      -6.956  -0.997   0.072  1.00  0.00     0.157 C 
BRANCH  20  23
HETATM   23  O1  UNL     1     -10.020   0.031   0.454  1.00  0.00    -0.391 OA
ATOM     24  H1  UNL     1     -10.661  -0.669   0.413  1.00  0.00     0.210 HD
ENDBRANCH  20  23
BRANCH  21  25
HETATM   25  O2  UNL     1      -8.302  -2.187  -1.527  1.00  0.00    -0.391 OA
ATOM     26  H2  UNL     1      -7.837  -3.004  -1.389  1.00  0.00     0.210 HD
ENDBRANCH  21  25
BRANCH  22  27
HETATM   27  C7  UNL     1      -6.916  -1.003   1.588  1.00  0.00     0.192 C 
BRANCH  27  28
HETATM   28  O3  UNL     1      -5.702  -0.526   2.073  1.00  0.00    -0.399 OA
ATOM     29  H3  UNL     1      -5.677  -0.530   3.023  1.00  0.00     0.209 HD
ENDBRANCH  27  28
ENDBRANCH  22  27
ENDBRANCH   8  18
ENDBRANCH   3   4
ENDBRANCH   2   3
ENDBRANCH   1   2
BRANCH   1  30
HETATM   30  N6  UNL     1       1.034  -0.667   1.033  1.00  0.00    -0.356 N 
HETATM   31  C15 UNL     1       2.236  -0.019   1.375  1.00  0.00     0.271 C 
HETATM   32  O4  UNL     1       2.194   0.901   2.238  1.00  0.00    -0.266 OA
ATOM     33  H6  UNL     1       1.059  -1.411   0.336  1.00  0.00     0.162 HD
BRANCH  31  34
HETATM   34  C16 UNL     1       3.504  -0.398   0.750  1.00  0.00     0.134 A 
HETATM   35  C17 UNL     1       4.735   0.158   1.001  1.00  0.00     0.155 A 
HETATM   36  N7  UNL     1       5.619  -0.502   0.198  1.00  0.00    -0.245 N 
HETATM   37  N12 UNL     1       4.918  -1.400  -0.486  1.00  0.00    -0.235 N 
HETATM   38  N13 UNL     1       3.654  -1.348  -0.165  1.00  0.00    -0.279 N 
ATOM     39  H12 UNL     1       5.315  -2.044  -1.170  1.00  0.00     0.209 HD
ATOM     40  H13 UNL     1       2.913  -1.934  -0.549  1.00  0.00     0.189 HD
BRANCH  36  41
HETATM   41  C18 UNL     1       7.014  -0.290   0.094  1.00  0.00     0.128 A 
HETATM   42  C19 UNL     1       7.913  -1.337   0.066  1.00  0.00     0.056 A 
HETATM   43  C20 UNL     1       9.288  -1.123  -0.036  1.00  0.00     0.056 A 
HETATM   44  C21 UNL     1      10.214  -2.140  -0.066  1.00  0.00     0.114 A 
HETATM   45  C23 UNL     1       9.729   0.187  -0.111  1.00  0.00     0.151 A 
HETATM   46  N9  UNL     1      11.520  -1.787  -0.169  1.00  0.00    -0.338 N 
HETATM   47  C22 UNL     1      11.936  -0.520  -0.240  1.00  0.00     0.183 A 
ATOM     48  H9  UNL     1      12.221  -2.528  -0.193  1.00  0.00     0.168 HD
HETATM   49  N10 UNL     1      11.043   0.474  -0.211  1.00  0.00    -0.336 N 
ATOM     50  H10 UNL     1      11.353   1.444  -0.264  1.00  0.00     0.168 HD
HETATM   51  N11 UNL     1       8.851   1.207  -0.084  1.00  0.00    -0.168 N 
HETATM   52  C24 UNL     1       7.507   0.990   0.017  1.00  0.00     0.302 A 
HETATM   53  O6  UNL     1       6.750   1.996   0.035  1.00  0.00    -0.263 OA
BRANCH  44  54
HETATM   54  N8  UNL     1       9.858  -3.360  -0.001  1.00  0.00    -0.385 N 
ATOM     55  H82 UNL     1       8.876  -3.625   0.076  1.00  0.00     0.157 HD
ATOM     56  H81 UNL     1      10.545  -4.114  -0.023  1.00  0.00     0.157 HD
ENDBRANCH  44  54
BRANCH  51  57
HETATM   57  O5  UNL     1       9.330   2.488  -0.160  1.00  0.00    -0.278 OA
ATOM     58  H5  UNL     1       8.710   3.208  -0.141  1.00  0.00     0.245 HD
ENDBRANCH  51  57
ENDBRANCH  36  41
ENDBRANCH  31  34
ENDBRANCH   1  30
TORSDOF 13
