REMARK  7 active torsions:
REMARK  status: ('A' for Active; 'I' for Inactive)
REMARK    1  A    between atoms: C2_2  and  N1_3 
REMARK    2  A    between atoms: C2_2  and  C8_23 
REMARK    3  A    between atoms: N1_3  and  C3_5 
REMARK    4  A    between atoms: C3_5  and  C5_7 
REMARK    5  A    between atoms: C5_7  and  N3_10 
REMARK    6  A    between atoms: N3_10  and  N4_12 
REMARK    7  A    between atoms: N4_12  and  C7_14 
ROOT
HETATM    1  C5  UNL     1       1.543   0.100  -0.031  1.00  0.00     0.128 C 
HETATM    2  C6  UNL     1       1.722  -1.202   0.512  1.00  0.00     0.116 C 
HETATM    3  N2  UNL     1       1.849  -2.261   0.961  1.00  0.00    -0.190 NA
ENDROOT
BRANCH   1   4
HETATM    4  C3  UNL     1       0.615   0.317  -1.159  1.00  0.00     0.140 C 
HETATM    5  C4  UNL     1       0.588   1.774  -1.541  1.00  0.00     0.039 C 
BRANCH   4   6
HETATM    6  N1  UNL     1      -0.647  -0.290  -1.007  1.00  0.00    -0.382 N 
ATOM      7  H1  UNL     1      -0.788  -1.094  -1.619  1.00  0.00     0.160 HD
BRANCH   6   8
HETATM    8  C2  UNL     1      -1.634  -0.042  -0.270  1.00  0.00     0.021 C 
HETATM    9  C1  UNL     1      -1.703   1.069   0.718  1.00  0.00     0.069 C 
BRANCH   8  10
HETATM   10  C8  UNL     1      -2.816  -0.901  -0.376  1.00  0.00     0.097 A 
HETATM   11  C9  UNL     1      -4.002  -0.833   0.313  1.00  0.00     0.148 A 
HETATM   12  N9  UNL     1      -4.321   0.124   1.302  1.00  0.00    -0.080 NA
HETATM   13  N10 UNL     1      -4.781  -1.836  -0.130  1.00  0.00    -0.284 N 
HETATM   14  N11 UNL     1      -4.133  -2.520  -1.061  1.00  0.00    -0.264 N 
ATOM     15  H10 UNL     1      -5.725  -2.039   0.200  1.00  0.00     0.188 HD
HETATM   16  C10 UNL     1      -2.920  -1.983  -1.247  1.00  0.00     0.275 A 
ATOM     17  H11 UNL     1      -4.501  -3.330  -1.559  1.00  0.00     0.190 HD
HETATM   18  O1  UNL     1      -2.068  -2.402  -2.059  1.00  0.00    -0.266 OA
ENDBRANCH   8  10
ENDBRANCH   6   8
ENDBRANCH   4   6
ENDBRANCH   1   4
BRANCH   1  19
HETATM   19  N3  UNL     1       2.189   1.088   0.455  1.00  0.00    -0.278 N 
ATOM     20  H3  UNL     1       2.035   2.005   0.036  1.00  0.00     0.188 HD
BRANCH  19  21
HETATM   21  N4  UNL     1       3.083   1.006   1.508  1.00  0.00    -0.129 N 
ATOM     22  H4  UNL     1       2.740   1.183   2.452  1.00  0.00     0.205 HD
BRANCH  21  23
HETATM   23  C7  UNL     1       4.340   0.714   1.350  1.00  0.00     0.728 A 
HETATM   24  N5  UNL     1       5.212   0.635   2.371  1.00  0.00    -0.114 N 
HETATM   25  N6  UNL     1       6.393   0.319   1.843  1.00  0.00    -0.213 N 
ATOM     26  H5  UNL     1       5.008   0.788   3.359  1.00  0.00     0.207 HD
HETATM   27  N7  UNL     1       6.279   0.203   0.544  1.00  0.00    -0.213 N 
ATOM     28  H6  UNL     1       7.256   0.187   2.371  1.00  0.00     0.210 HD
HETATM   29  N8  UNL     1       5.021   0.444   0.230  1.00  0.00    -0.114 N 
ATOM     30  H7  UNL     1       7.028  -0.031  -0.108  1.00  0.00     0.210 HD
ATOM     31  H8  UNL     1       4.631   0.427  -0.712  1.00  0.00     0.207 HD
ENDBRANCH  21  23
ENDBRANCH  19  21
ENDBRANCH   1  19
TORSDOF 7
