REMARK  5 active torsions:
REMARK  status: ('A' for Active; 'I' for Inactive)
REMARK    1  A    between atoms: S1_2  and  C2_3 
REMARK    2  A    between atoms: C2_3  and  C3_4 
REMARK    3  A    between atoms: C3_4  and  N1_5 
REMARK       I    between atoms: N1_5  and  C4_7 
REMARK    4  A    between atoms: C4_7  and  O2_9 
REMARK    5  A    between atoms: O2_9  and  C5_10 
ROOT
HETATM    1  C5  UNL     1       2.224   0.593   0.469  1.00  0.00     0.134 C 
HETATM    2  C6  UNL     1       1.643  -0.786   0.220  1.00  0.00     0.038 C 
HETATM    3  C7  UNL     1       0.431  -0.720  -0.684  1.00  0.00     0.077 C 
HETATM    4  C8  UNL     1      -0.669   0.121  -0.062  1.00  0.00     0.230 C 
HETATM    5  C9  UNL     1      -0.093   1.376   0.574  1.00  0.00     0.077 C 
HETATM    6  C10 UNL     1       1.285   1.685   0.035  1.00  0.00     0.038 C 
HETATM    7  O3  UNL     1      -1.335  -0.576   0.939  1.00  0.00    -0.195 OA
HETATM    8  O4  UNL     1      -2.315   0.188   1.374  1.00  0.00    -0.194 OA
HETATM    9  C11 UNL     1      -3.232   0.286   0.329  1.00  0.00     0.237 C 
HETATM   10  O5  UNL     1      -2.627   1.035  -0.687  1.00  0.00    -0.194 OA
HETATM   11  O6  UNL     1      -1.564   0.415  -1.090  1.00  0.00    -0.195 OA
HETATM   12  C12 UNL     1      -3.544  -1.081  -0.177  1.00  0.00     0.055 C 
HETATM   13  C13 UNL     1      -4.366  -1.865   0.818  1.00  0.00     0.015 C 
HETATM   14  C14 UNL     1      -5.653  -1.156   1.104  1.00  0.00    -0.013 C 
HETATM   15  C15 UNL     1      -6.438  -0.985  -0.166  1.00  0.00     0.009 C 
HETATM   16  C16 UNL     1      -5.620  -0.151  -1.119  1.00  0.00    -0.013 C 
HETATM   17  C17 UNL     1      -4.376  -0.922  -1.454  1.00  0.00     0.015 C 
HETATM   18  C18 UNL     1      -5.331   1.192  -0.509  1.00  0.00     0.015 C 
HETATM   19  C19 UNL     1      -4.487   1.009   0.735  1.00  0.00     0.055 C 
HETATM   20  C20 UNL     1      -5.320   0.189   1.706  1.00  0.00     0.015 C 
ENDROOT
BRANCH   1  21
HETATM   21  O2  UNL     1       3.427   0.668  -0.257  1.00  0.00    -0.299 OA
BRANCH  21  22
HETATM   22  C4  UNL     1       4.674   0.828   0.329  1.00  0.00     0.360 C 
HETATM   23  N1  UNL     1       5.871   0.899  -0.438  1.00  0.00    -0.336 N 
ATOM     24  H1  UNL     1       5.837   0.832  -1.455  1.00  0.00     0.164 HD
HETATM   25  O1  UNL     1       4.705   0.912   1.601  1.00  0.00    -0.239 OA
BRANCH  23  26
HETATM   26  C3  UNL     1       7.136   1.067   0.244  1.00  0.00     0.135 C 
BRANCH  26  27
HETATM   27  C2  UNL     1       8.290   1.119  -0.741  1.00  0.00     0.093 C 
BRANCH  27  28
HETATM   28  S1  UNL     1       8.265  -0.468  -1.643  1.00  0.00    -0.172 SA
HETATM   29  C1  UNL     1       8.655  -1.805  -0.473  1.00  0.00     0.089 C 
ENDBRANCH  27  28
ENDBRANCH  26  27
ENDBRANCH  23  26
ENDBRANCH  21  22
ENDBRANCH   1  21
TORSDOF 5
