REMARK  12 active torsions:
REMARK  status: ('A' for Active; 'I' for Inactive)
REMARK    1  A    between atoms: C2_2  and  C3_3 
REMARK    2  A    between atoms: C3_3  and  C4_4 
REMARK    3  A    between atoms: C4_4  and  C5_5 
REMARK    4  A    between atoms: C5_5  and  C6_6 
REMARK    5  A    between atoms: C6_6  and  C7_7 
REMARK    6  A    between atoms: C7_7  and  C8_8 
REMARK    7  A    between atoms: C8_8  and  C9_9 
REMARK    8  A    between atoms: C9_9  and  C10_10 
REMARK    9  A    between atoms: C10_10  and  C11_11 
REMARK   10  A    between atoms: C11_11  and  C12_12 
REMARK   11  A    between atoms: C21_21  and  O1_22 
REMARK   12  A    between atoms: C24_26  and  O2_27 
ROOT
HETATM    1  C12 UNL     1      -0.618  -2.079  -0.050  1.00  0.00    -0.014 C 
HETATM    2  C13 UNL     1      -0.328  -1.096  -1.103  1.00  0.00     0.009 C 
HETATM    3  C14 UNL     1      -1.698  -0.657  -1.594  1.00  0.00    -0.010 C 
HETATM    4  C15 UNL     1      -1.829   0.832  -1.649  1.00  0.00     0.005 C 
HETATM    5  C16 UNL     1      -2.460   1.482  -0.489  1.00  0.00     0.006 C 
HETATM    6  C17 UNL     1      -3.527   0.740   0.207  1.00  0.00    -0.003 C 
HETATM    7  C18 UNL     1      -3.892  -0.470  -0.625  1.00  0.00     0.024 C 
HETATM    8  C19 UNL     1      -2.716  -1.354  -0.762  1.00  0.00    -0.003 C 
HETATM    9  C20 UNL     1      -2.017  -1.731   0.483  1.00  0.00     0.010 C 
HETATM   10  C21 UNL     1      -5.061  -0.994   0.107  1.00  0.00     0.134 C 
HETATM   11  C22 UNL     1      -5.815   0.274   0.495  1.00  0.00     0.012 C 
HETATM   12  C23 UNL     1      -6.134   0.224   1.960  1.00  0.00     0.021 C 
HETATM   13  C24 UNL     1      -7.024   0.499  -0.372  1.00  0.00     0.129 C 
HETATM   14  C25 UNL     1      -6.640   1.495  -1.426  1.00  0.00     0.033 C 
HETATM   15  C26 UNL     1      -5.266   2.008  -1.092  1.00  0.00     0.008 C 
HETATM   16  C27 UNL     1      -4.877   1.434   0.226  1.00  0.00     0.003 C 
ENDROOT
BRANCH   1  17
HETATM   17  C11 UNL     1       0.340  -2.361   1.020  1.00  0.00     0.005 C 
BRANCH  17  18
HETATM   18  C10 UNL     1       0.780  -1.344   1.973  1.00  0.00     0.000 C 
BRANCH  18  19
HETATM   19  C9  UNL     1       1.509  -0.142   1.534  1.00  0.00     0.000 C 
BRANCH  19  20
HETATM   20  C8  UNL     1       2.819  -0.414   0.818  1.00  0.00     0.000 C 
BRANCH  20  21
HETATM   21  C7  UNL     1       3.468   0.891   0.416  1.00  0.00     0.000 C 
BRANCH  21  22
HETATM   22  C6  UNL     1       4.772   0.675  -0.305  1.00  0.00     0.000 C 
BRANCH  22  23
HETATM   23  C5  UNL     1       5.780  -0.055   0.522  1.00  0.00     0.000 C 
BRANCH  23  24
HETATM   24  C4  UNL     1       7.084  -0.264  -0.200  1.00  0.00     0.000 C 
BRANCH  24  25
HETATM   25  C3  UNL     1       7.724   1.052  -0.599  1.00  0.00    -0.000 C 
BRANCH  25  26
HETATM   26  C2  UNL     1       9.024   0.806  -1.317  1.00  0.00    -0.005 C 
HETATM   27  C1  UNL     1      10.006   0.050  -0.435  1.00  0.00     0.005 C 
ENDBRANCH  25  26
ENDBRANCH  24  25
ENDBRANCH  23  24
ENDBRANCH  22  23
ENDBRANCH  21  22
ENDBRANCH  20  21
ENDBRANCH  19  20
ENDBRANCH  18  19
ENDBRANCH  17  18
ENDBRANCH   1  17
BRANCH  10  28
HETATM   28  O1  UNL     1      -5.887  -1.750  -0.739  1.00  0.00    -0.394 OA
ATOM     29  H1  UNL     1      -6.640  -2.087  -0.268  1.00  0.00     0.210 HD
ENDBRANCH  10  28
BRANCH  13  30
HETATM   30  O2  UNL     1      -8.070   1.005   0.433  1.00  0.00    -0.395 OA
ATOM     31  H2  UNL     1      -8.833   1.147  -0.114  1.00  0.00     0.210 HD
ENDBRANCH  13  30
TORSDOF 12
