REMARK  8 active torsions:
REMARK  status: ('A' for Active; 'I' for Inactive)
REMARK    1  A    between atoms: C2_2  and  C3_3 
REMARK    2  A    between atoms: C3_3  and  C4_4 
REMARK    3  A    between atoms: C3_3  and  C20_31 
REMARK    4  A    between atoms: C5_8  and  C6_9 
REMARK    5  A    between atoms: N2_11  and  C8_12 
REMARK    6  A    between atoms: C8_12  and  C9_13 
REMARK    7  A    between atoms: C20_31  and  O2_32 
REMARK    8  A    between atoms: C20_31  and  C21_34 
ROOT
HETATM    1  C4  UNL     1      -1.241  -0.622  -0.827  1.00  0.00     0.329 C 
HETATM    2  N1  UNL     1      -0.306  -0.405   0.257  1.00  0.00    -0.038 N 
ATOM      3  H11 UNL     1      -0.704  -0.523   1.189  1.00  0.00     0.281 HD
ATOM      4  H12 UNL     1      -0.024   0.567   0.385  1.00  0.00     0.281 HD
HETATM    5  C5  UNL     1       0.801  -1.326  -0.057  1.00  0.00     0.247 C 
HETATM    6  C15 UNL     1       0.254  -2.703   0.039  1.00  0.00     0.051 C 
HETATM    7  C16 UNL     1      -0.063  -3.124   1.447  1.00  0.00     0.010 C 
HETATM    8  C17 UNL     1      -1.496  -3.563   1.408  1.00  0.00     0.003 C 
HETATM    9  C18 UNL     1      -1.695  -4.018  -0.010  1.00  0.00     0.032 C 
HETATM   10  C19 UNL     1      -0.979  -2.927  -0.778  1.00  0.00     0.130 C 
HETATM   11  O1  UNL     1      -1.826  -1.852  -0.856  1.00  0.00    -0.353 OA
ENDROOT
BRANCH   5  12
HETATM   12  C6  UNL     1       2.002  -1.100   0.734  1.00  0.00     0.075 A 
HETATM   13  C7  UNL     1       3.281  -1.121   0.183  1.00  0.00     0.140 A 
HETATM   14  N2  UNL     1       4.148  -0.872   1.173  1.00  0.00    -0.283 N 
HETATM   15  N3  UNL     1       3.455  -0.707   2.261  1.00  0.00    -0.240 N 
HETATM   16  N4  UNL     1       2.166  -0.834   2.048  1.00  0.00    -0.287 N 
ATOM     17  H3  UNL     1       3.865  -0.503   3.172  1.00  0.00     0.208 HD
ATOM     18  H4  UNL     1       1.426  -0.748   2.745  1.00  0.00     0.188 HD
BRANCH  14  19
HETATM   19  C8  UNL     1       5.605  -0.812   0.980  1.00  0.00     0.188 C 
BRANCH  19  20
HETATM   20  C9  UNL     1       5.938   0.585   0.656  1.00  0.00    -0.037 A 
HETATM   21  C10 UNL     1       6.235   1.463   1.664  1.00  0.00     0.011 A 
HETATM   22  C11 UNL     1       6.547   2.775   1.348  1.00  0.00     0.026 A 
HETATM   23  C12 UNL     1       6.561   3.205   0.034  1.00  0.00     0.055 A 
HETATM   24 CL1  UNL     1       6.962   4.873  -0.309  1.00  0.00    -0.083 Cl
HETATM   25  C13 UNL     1       6.263   2.327  -0.984  1.00  0.00     0.056 A 
HETATM   26 CL2  UNL     1       6.282   2.872  -2.644  1.00  0.00    -0.083 Cl
HETATM   27  C14 UNL     1       5.952   1.010  -0.644  1.00  0.00     0.034 A 
ENDBRANCH  19  20
ENDBRANCH  14  19
ENDBRANCH   5  12
BRANCH   1  28
HETATM   28  C3  UNL     1      -2.313   0.442  -0.920  1.00  0.00     0.075 C 
BRANCH  28  29
HETATM   29  C2  UNL     1      -3.234   0.130  -2.074  1.00  0.00     0.007 C 
HETATM   30  C1  UNL     1      -2.422   0.084  -3.389  1.00  0.00     0.006 C 
ENDBRANCH  28  29
BRANCH  28  31
HETATM   31  C20 UNL     1      -3.067   0.610   0.344  1.00  0.00     0.159 C 
BRANCH  31  32
HETATM   32  O2  UNL     1      -3.767  -0.576   0.624  1.00  0.00    -0.390 OA
ATOM     33  H2  UNL     1      -4.251  -0.468   1.435  1.00  0.00     0.210 HD
ENDBRANCH  31  32
BRANCH  31  34
HETATM   34  C21 UNL     1      -3.924   1.797   0.337  1.00  0.00    -0.029 A 
HETATM   35  C22 UNL     1      -3.484   3.028   0.838  1.00  0.00     0.011 A 
HETATM   36  C23 UNL     1      -4.313   4.125   0.844  1.00  0.00     0.024 A 
HETATM   37  C24 UNL     1      -5.599   4.059   0.363  1.00  0.00     0.034 A 
HETATM   38 CL3  UNL     1      -6.640   5.477   0.383  1.00  0.00    -0.084 Cl
HETATM   39  C25 UNL     1      -6.047   2.860  -0.132  1.00  0.00     0.024 A 
HETATM   40  C26 UNL     1      -5.209   1.772  -0.133  1.00  0.00     0.011 A 
ENDBRANCH  31  34
ENDBRANCH  28  31
ENDBRANCH   1  28
TORSDOF 8
