REMARK  9 active torsions:
REMARK  status: ('A' for Active; 'I' for Inactive)
REMARK    1  A    between atoms: N1_2  and  C3_4 
REMARK    2  A    between atoms: N1_2  and  C5_10 
REMARK    3  A    between atoms: C3_4  and  C4_5 
REMARK    4  A    between atoms: C4_5  and  O1_6 
REMARK    5  A    between atoms: O1_6  and  N2_7 
REMARK    6  A    between atoms: C5_10  and  C6_11 
REMARK    7  A    between atoms: C9_14  and  C10_15 
REMARK    8  A    between atoms: C10_15  and  N3_16 
REMARK    9  A    between atoms: N3_16  and  N4_18 
REMARK       I    between atoms: N4_18  and  C11_20 
ROOT
HETATM    1  C6  UNL     1      -0.115   0.655   0.149  1.00  0.00    -0.031 A 
HETATM    2  C7  UNL     1       1.025   0.058   0.601  1.00  0.00     0.010 A 
HETATM    3  C8  UNL     1       2.241   0.097  -0.103  1.00  0.00     0.015 A 
HETATM    4  C9  UNL     1       2.258   0.774  -1.326  1.00  0.00    -0.002 A 
HETATM    5  C12 UNL     1       1.058   1.395  -1.817  1.00  0.00     0.023 A 
HETATM    6 BR1  UNL     1       1.072   2.282  -3.448  1.00  0.00    -0.050 Br
HETATM    7  C13 UNL     1      -0.030   1.306  -1.054  1.00  0.00     0.028 A 
ENDROOT
BRANCH   1   8
HETATM    8  C5  UNL     1      -1.310   0.697   1.060  1.00  0.00     0.275 C 
BRANCH   8   9
HETATM    9  N1  UNL     1      -2.278  -0.380   0.864  1.00  0.00    -0.069 N 
HETATM   10  C1  UNL     1      -1.686  -1.545   0.288  1.00  0.00     0.272 C 
HETATM   11  C2  UNL     1      -2.719  -0.785   2.227  1.00  0.00     0.272 C 
BRANCH   9  12
HETATM   12  C3  UNL     1      -3.264   0.149   0.038  1.00  0.00     0.265 C 
BRANCH  12  13
HETATM   13  C4  UNL     1      -4.740  -0.285   0.297  1.00  0.00     0.228 C 
BRANCH  13  14
HETATM   14  O1  UNL     1      -5.366   0.488  -0.766  1.00  0.00    -0.286 OA
BRANCH  14  15
HETATM   15  N2  UNL     1      -6.051  -0.313  -1.595  1.00  0.00    -0.311 N 
ATOM     16  H22 UNL     1      -6.115  -1.325  -1.483  1.00  0.00     0.184 HD
ATOM     17  H21 UNL     1      -6.490   0.229  -2.340  1.00  0.00     0.184 HD
ENDBRANCH  14  15
ENDBRANCH  13  14
ENDBRANCH  12  13
ENDBRANCH   9  12
ENDBRANCH   8   9
ENDBRANCH   1   8
BRANCH   4  18
HETATM   18  C10 UNL     1       3.397   0.796  -2.109  1.00  0.00     0.120 C 
BRANCH  18  19
HETATM   19  N3  UNL     1       4.686   0.535  -1.865  1.00  0.00    -0.309 N 
ATOM     20  H3  UNL     1       5.372   0.605  -2.617  1.00  0.00     0.186 HD
BRANCH  19  21
HETATM   21  N4  UNL     1       5.088   0.171  -0.597  1.00  0.00    -0.274 N 
HETATM   22  C11 UNL     1       5.932  -0.587  -0.209  1.00  0.00     0.200 C 
HETATM   23  N5  UNL     1       5.638  -0.238   1.530  1.00  0.00    -0.062 NA
HETATM   24  N6  UNL     1       6.872  -1.439  -0.011  1.00  0.00    -0.372 N 
ATOM     25  H62 UNL     1       7.039  -1.637  -0.998  1.00  0.00     0.158 HD
ATOM     26  H61 UNL     1       7.590  -2.084   0.319  1.00  0.00     0.158 HD
ATOM     27  H4  UNL     1       4.570   0.633   0.151  1.00  0.00     0.189 HD
ENDBRANCH  19  21
ENDBRANCH  18  19
ENDBRANCH   4  18
TORSDOF 9
