REMARK  22 active torsions:
REMARK  status: ('A' for Active; 'I' for Inactive)
REMARK    1  A    between atoms: C3_3  and  O1_4 
REMARK    2  A    between atoms: C4_6  and  O2_7 
REMARK    3  A    between atoms: C5_9  and  C6_10 
REMARK    4  A    between atoms: C6_10  and  O3_11 
REMARK    5  A    between atoms: C7_13  and  O4_14 
REMARK    6  A    between atoms: C10_18  and  C11_19 
REMARK    7  A    between atoms: C10_18  and  C12_22 
REMARK    8  A    between atoms: C11_19  and  O5_20 
REMARK    9  A    between atoms: C12_22  and  C13_23 
REMARK   10  A    between atoms: C17_27  and  O6_28 
REMARK   11  A    between atoms: C19_31  and  O7_32 
REMARK   12  A    between atoms: C20_34  and  O8_35 
REMARK   13  A    between atoms: C21_37  and  C22_38 
REMARK   14  A    between atoms: C22_38  and  C24_40 
REMARK   15  A    between atoms: C24_40  and  C25_41 
REMARK   16  A    between atoms: C25_41  and  C26_42 
REMARK   17  A    between atoms: C26_42  and  C28_44 
REMARK   18  A    between atoms: C28_44  and  O9_45 
REMARK   19  A    between atoms: C28_44  and  C29_47 
REMARK   20  A    between atoms: C29_47  and  C30_48 
REMARK   21  A    between atoms: C30_48  and  C31_49 
REMARK   22  A    between atoms: C31_49  and  C32_50 
ROOT
HETATM    1  C1  UNL     1       0.772   3.263  -0.926  1.00  0.00     0.022 C 
HETATM    2  C2  UNL     1       0.184   2.791   0.194  1.00  0.00    -0.027 C 
HETATM    3  C3  UNL     1       0.052   3.720   1.269  1.00  0.00     0.180 C 
HETATM    4  C4  UNL     1      -0.648   3.173   2.407  1.00  0.00     0.167 C 
HETATM    5  C5  UNL     1      -1.131   1.785   2.488  1.00  0.00     0.071 C 
HETATM    6  C7  UNL     1      -2.338   1.855   3.377  1.00  0.00     0.135 C 
HETATM    7  C8  UNL     1      -3.635   2.077   2.759  1.00  0.00     0.034 C 
HETATM    8  C9  UNL     1      -3.705   0.874   1.891  1.00  0.00     0.017 C 
HETATM    9  C10 UNL     1      -2.723   0.934   0.679  1.00  0.00     0.018 C 
HETATM   10  C20 UNL     1      -1.308   0.999   1.173  1.00  0.00     0.110 C 
HETATM   11  C21 UNL     1      -0.259   1.325   0.170  1.00  0.00    -0.012 C 
ENDROOT
BRANCH   9  12
HETATM   12  C11 UNL     1      -3.197   2.304   0.061  1.00  0.00     0.177 C 
BRANCH  12  13
HETATM   13  O5  UNL     1      -2.573   2.626  -1.112  1.00  0.00    -0.400 OA
ATOM     14  H5  UNL     1      -2.859   3.452  -1.485  1.00  0.00     0.209 HD
ENDBRANCH  12  13
ENDBRANCH   9  12
BRANCH   9  15
HETATM   15  C12 UNL     1      -3.432  -0.009  -0.170  1.00  0.00     0.022 C 
BRANCH  15  16
HETATM   16  C13 UNL     1      -3.791  -1.420   0.011  1.00  0.00     0.019 C 
HETATM   17  C14 UNL     1      -4.767  -1.970  -1.018  1.00  0.00    -0.010 C 
HETATM   18  C15 UNL     1      -6.053  -1.238  -1.201  1.00  0.00     0.010 C 
HETATM   19  C16 UNL     1      -4.272  -2.424  -2.322  1.00  0.00     0.036 C 
HETATM   20  C17 UNL     1      -3.606  -3.768  -2.100  1.00  0.00     0.120 C 
HETATM   21  C18 UNL     1      -3.060  -3.775  -0.685  1.00  0.00     0.063 C 
HETATM   22  C19 UNL     1      -2.612  -2.367  -0.301  1.00  0.00     0.125 C 
BRANCH  20  23
HETATM   23  O6  UNL     1      -2.623  -3.987  -3.033  1.00  0.00    -0.395 OA
ATOM     24  H6  UNL     1      -2.206  -4.829  -2.894  1.00  0.00     0.210 HD
ENDBRANCH  20  23
BRANCH  22  25
HETATM   25  O7  UNL     1      -1.991  -1.935  -1.490  1.00  0.00    -0.395 OA
ATOM     26  H7  UNL     1      -1.266  -2.518  -1.682  1.00  0.00     0.210 HD
ENDBRANCH  22  25
ENDBRANCH  15  16
ENDBRANCH   9  15
BRANCH  10  27
HETATM   27  O8  UNL     1      -1.138  -0.296   1.687  1.00  0.00    -0.383 OA
ATOM     28  H8  UNL     1      -1.247  -0.780   0.877  1.00  0.00     0.211 HD
ENDBRANCH  10  27
BRANCH   5  29
HETATM   29  C6  UNL     1      -0.202   1.108   3.508  1.00  0.00     0.182 C 
BRANCH  29  30
HETATM   30  O3  UNL     1      -0.448  -0.187   3.805  1.00  0.00    -0.400 OA
ATOM     31  H3  UNL     1       0.126  -0.605   4.436  1.00  0.00     0.209 HD
ENDBRANCH  29  30
ENDBRANCH   5  29
BRANCH  11  32
HETATM   32  C22 UNL     1       1.019   0.654  -0.111  1.00  0.00    -0.074 C 
HETATM   33  C23 UNL     1       2.128   0.793   0.882  1.00  0.00     0.044 C 
BRANCH  32  34
HETATM   34  C24 UNL     1       1.100  -0.685  -0.714  1.00  0.00     0.035 C 
BRANCH  34  35
HETATM   35  C25 UNL     1       2.414  -1.267  -1.077  1.00  0.00     0.011 C 
BRANCH  35  36
HETATM   36  C26 UNL     1       3.182  -0.743  -2.210  1.00  0.00     0.011 C 
HETATM   37  C27 UNL     1       3.688   0.624  -2.313  1.00  0.00     0.012 C 
BRANCH  36  38
HETATM   38  C28 UNL     1       4.333  -1.712  -2.519  1.00  0.00     0.132 C 
BRANCH  38  39
HETATM   39  O9  UNL     1       5.058  -1.235  -3.601  1.00  0.00    -0.394 OA
ATOM     40  H9  UNL     1       5.770  -1.834  -3.792  1.00  0.00     0.210 HD
ENDBRANCH  38  39
BRANCH  38  41
HETATM   41  C29 UNL     1       5.284  -1.846  -1.369  1.00  0.00     0.116 C 
BRANCH  41  42
HETATM   42  C30 UNL     1       6.578  -1.862  -1.517  1.00  0.00    -0.150 C 
BRANCH  42  43
HETATM   43  C31 UNL     1       7.947  -1.878  -1.673  1.00  0.00     0.089 C 
BRANCH  43  44
HETATM   44  C32 UNL     1       8.776  -2.017  -0.441  1.00  0.00     0.120 C 
HETATM   45  N1  UNL     1       8.860  -1.010   0.540  1.00  0.00    -0.089 NA
HETATM   46  S1  UNL     1       9.602  -3.435  -0.262  1.00  0.00    -0.063 SA
ENDBRANCH  43  44
ENDBRANCH  42  43
ENDBRANCH  41  42
ENDBRANCH  38  41
ENDBRANCH  36  38
ENDBRANCH  35  36
ENDBRANCH  34  35
ENDBRANCH  32  34
ENDBRANCH  11  32
BRANCH   6  47
HETATM   47  O4  UNL     1      -2.155   2.709   4.445  1.00  0.00    -0.395 OA
ATOM     48  H4  UNL     1      -2.919   2.753   5.008  1.00  0.00     0.210 HD
ENDBRANCH   6  47
BRANCH   4  49
HETATM   49  O2  UNL     1      -1.598   4.155   2.830  1.00  0.00    -0.392 OA
ATOM     50  H2  UNL     1      -2.059   3.795   3.579  1.00  0.00     0.210 HD
ENDBRANCH   4  49
BRANCH   3  51
HETATM   51  O1  UNL     1       1.253   4.428   1.577  1.00  0.00    -0.388 OA
ATOM     52  H1  UNL     1       1.165   5.047   2.293  1.00  0.00     0.210 HD
ENDBRANCH   3  51
TORSDOF 22
