REMARK  17 active torsions:
REMARK  status: ('A' for Active; 'I' for Inactive)
REMARK    1  A    between atoms: C2_2  and  C3_3 
REMARK    2  A    between atoms: C3_3  and  C5_5 
REMARK    3  A    between atoms: C5_5  and  C6_6 
REMARK    4  A    between atoms: C6_6  and  C7_7 
REMARK    5  A    between atoms: C7_7  and  C8_8 
REMARK    6  A    between atoms: C8_8  and  C9_9 
REMARK    7  A    between atoms: C9_9  and  N1_10 
REMARK    8  A    between atoms: N1_10  and  C10_11 
REMARK    9  A    between atoms: N1_10  and  C30_42 
REMARK   10  A    between atoms: C10_11  and  C11_12 
REMARK   11  A    between atoms: C11_12  and  C12_13 
REMARK   12  A    between atoms: C12_13  and  N2_14 
REMARK   13  A    between atoms: N2_14  and  C13_17 
REMARK   14  A    between atoms: C13_17  and  C14_18 
REMARK   15  A    between atoms: C14_18  and  C15_19 
REMARK   16  A    between atoms: C15_19  and  N3_20 
REMARK   17  A    between atoms: C32_48  and  O6_49 
ROOT
HETATM    1  N3  UNL     1      -5.285   0.856  -0.027  1.00  0.00    -0.342 N 
HETATM    2  C16 UNL     1      -5.516  -0.419   0.551  1.00  0.00     0.230 C 
HETATM    3  O1  UNL     1      -4.879  -0.950   1.468  1.00  0.00    -0.273 OA
HETATM    4  C17 UNL     1      -6.676  -1.001  -0.156  1.00  0.00     0.126 A 
HETATM    5  C18 UNL     1      -7.867  -0.038  -0.069  1.00  0.00    -0.035 A 
HETATM    6  C19 UNL     1      -8.845   0.331   0.734  1.00  0.00     0.022 C 
HETATM    7  C20 UNL     1      -9.078  -0.248   2.084  1.00  0.00     0.060 C 
HETATM    8  C21 UNL     1      -9.742   1.352   0.302  1.00  0.00     0.095 C 
HETATM    9  N4  UNL     1     -10.461   2.191  -0.066  1.00  0.00    -0.192 NA
HETATM   10  C22 UNL     1      -7.015  -0.085  -1.234  1.00  0.00     0.058 A 
HETATM   11  C23 UNL     1      -5.799   0.772  -1.402  1.00  0.00     0.126 C 
HETATM   12  C24 UNL     1      -4.774   0.025  -2.181  1.00  0.00     0.003 C 
HETATM   13  C25 UNL     1      -5.133  -0.874  -3.079  1.00  0.00     0.050 C 
HETATM   14  C26 UNL     1      -6.522  -1.206  -3.379  1.00  0.00     0.177 C 
HETATM   15  O2  UNL     1      -6.866  -1.983  -4.291  1.00  0.00    -0.291 OA
HETATM   16  C27 UNL     1      -7.567  -0.587  -2.555  1.00  0.00     0.201 C 
HETATM   17  C28 UNL     1      -8.428   0.402  -3.235  1.00  0.00     0.251 C 
HETATM   18  O3  UNL     1      -8.306   1.604  -3.641  1.00  0.00    -0.271 OA
HETATM   19  N5  UNL     1      -9.484  -0.554  -3.257  1.00  0.00    -0.295 N 
ATOM     20  H5  UNL     1     -10.376  -0.619  -3.747  1.00  0.00     0.171 HD
HETATM   21  C29 UNL     1      -8.796  -1.387  -2.319  1.00  0.00     0.251 C 
HETATM   22  O4  UNL     1      -9.053  -2.370  -1.589  1.00  0.00    -0.271 OA
ENDROOT
BRANCH   1  23
HETATM   23  C15 UNL     1      -4.687   2.022   0.543  1.00  0.00     0.128 C 
BRANCH  23  24
HETATM   24  C14 UNL     1      -3.213   2.166   0.361  1.00  0.00     0.047 C 
BRANCH  24  25
HETATM   25  C13 UNL     1      -2.393   1.041   0.905  1.00  0.00     0.234 C 
BRANCH  25  26
HETATM   26  N2  UNL     1      -0.957   1.307   0.758  1.00  0.00    -0.075 N 
ATOM     27  H22 UNL     1      -0.678   2.173   1.219  1.00  0.00     0.277 HD
ATOM     28  H21 UNL     1      -0.710   1.563  -0.198  1.00  0.00     0.277 HD
BRANCH  26  29
HETATM   29  C12 UNL     1      -0.191   0.161   1.234  1.00  0.00     0.234 C 
BRANCH  29  30
HETATM   30  C11 UNL     1       1.276   0.500   1.233  1.00  0.00     0.047 C 
BRANCH  30  31
HETATM   31  C10 UNL     1       2.018  -0.743   1.723  1.00  0.00     0.125 C 
BRANCH  31  32
HETATM   32  N1  UNL     1       3.424  -0.514   1.817  1.00  0.00    -0.371 N 
BRANCH  32  33
HETATM   33  C9  UNL     1       4.174  -0.318   0.556  1.00  0.00     0.127 C 
BRANCH  33  34
HETATM   34  C8  UNL     1       4.247  -1.577  -0.235  1.00  0.00     0.046 C 
BRANCH  34  35
HETATM   35  C7  UNL     1       4.942  -1.503  -1.516  1.00  0.00    -0.029 C 
BRANCH  35  36
HETATM   36  C6  UNL     1       6.348  -1.180  -1.682  1.00  0.00    -0.030 C 
BRANCH  36  37
HETATM   37  C5  UNL     1       6.935   0.100  -1.260  1.00  0.00     0.031 C 
BRANCH  37  38
HETATM   38  C3  UNL     1       8.433   0.026  -1.697  1.00  0.00    -0.016 C 
HETATM   39  C4  UNL     1       8.574  -0.311  -3.140  1.00  0.00     0.010 C 
BRANCH  38  40
HETATM   40  C2  UNL     1       9.122   1.300  -1.305  1.00  0.00    -0.000 C 
HETATM   41  C1  UNL     1       8.939   1.588   0.160  1.00  0.00     0.005 C 
ENDBRANCH  38  40
ENDBRANCH  37  38
ENDBRANCH  36  37
ENDBRANCH  35  36
ENDBRANCH  34  35
ENDBRANCH  33  34
ENDBRANCH  32  33
BRANCH  32  42
HETATM   42  C30 UNL     1       4.197  -0.450   3.016  1.00  0.00     0.128 A 
HETATM   43  S1  UNL     1       5.917  -0.213   3.132  1.00  0.00    -0.007 SA
HETATM   44  C31 UNL     1       6.059  -0.248   4.827  1.00  0.00     0.292 A 
HETATM   45  O5  UNL     1       7.102  -0.126   5.568  1.00  0.00    -0.260 OA
HETATM   46  N6  UNL     1       4.808  -0.436   5.231  1.00  0.00    -0.296 N 
HETATM   47  C32 UNL     1       3.864  -0.539   4.336  1.00  0.00     0.178 A 
ATOM     48  H6  UNL     1       4.589  -0.499   6.225  1.00  0.00     0.171 HD
BRANCH  47  49
HETATM   49  O6  UNL     1       2.501  -0.742   4.717  1.00  0.00    -0.344 OA
ATOM     50  H6  UNL     1       2.269  -0.804   5.636  1.00  0.00     0.219 HD
ENDBRANCH  47  49
ENDBRANCH  32  42
ENDBRANCH  31  32
ENDBRANCH  30  31
ENDBRANCH  29  30
ENDBRANCH  26  29
ENDBRANCH  25  26
ENDBRANCH  24  25
ENDBRANCH  23  24
ENDBRANCH   1  23
TORSDOF 17
