REMARK  4 active torsions:
REMARK  status: ('A' for Active; 'I' for Inactive)
REMARK    1  A    between atoms: O1_2  and  C2_3 
REMARK    2  A    between atoms: C5_11  and  N4_12 
REMARK    3  A    between atoms: N4_12  and  C6_14 
REMARK    4  A    between atoms: C7_19  and  N7_20 
ROOT
HETATM    1  N4  UNL     1       0.213  -0.480  -0.842  1.00  0.00    -0.200 N 
ATOM      2  H4  UNL     1      -0.212  -0.920  -1.658  1.00  0.00     0.180 HD
ENDROOT
BRANCH   1   3
HETATM    3  C5  UNL     1      -0.604   0.162   0.215  1.00  0.00     0.235 A 
HETATM    4  C2  UNL     1      -1.984  -0.371   0.206  1.00  0.00     0.202 A 
HETATM    5  C3  UNL     1      -3.014   0.656   0.149  1.00  0.00     0.099 A 
HETATM    6  N1  UNL     1      -2.766   1.894   0.110  1.00  0.00    -0.342 N 
HETATM    7  C4  UNL     1      -1.422   2.404   0.117  1.00  0.00     0.189 A 
ATOM      8  H1  UNL     1      -3.544   2.553   0.072  1.00  0.00     0.167 HD
HETATM    9  N2  UNL     1      -1.227   3.812   0.070  1.00  0.00    -0.064 NA
HETATM   10  N3  UNL     1      -0.488   1.559   0.166  1.00  0.00    -0.340 N 
ATOM     11  H3  UNL     1       0.461   1.934   0.171  1.00  0.00     0.164 HD
BRANCH   4  12
HETATM   12  O1  UNL     1      -2.173  -1.231   1.309  1.00  0.00    -0.382 OA
HETATM   13  C1  UNL     1      -2.379  -2.544   0.929  1.00  0.00     0.202 C 
ENDBRANCH   4  12
ENDBRANCH   1   3
BRANCH   1  14
HETATM   14  C6  UNL     1       1.489  -0.451  -0.673  1.00  0.00     0.709 A 
HETATM   15  N5  UNL     1       2.192   0.085   0.340  1.00  0.00    -0.117 N 
HETATM   16  N6  UNL     1       3.492  -0.090   0.151  1.00  0.00    -0.118 N 
ATOM     17  H5  UNL     1       1.781   0.561   1.143  1.00  0.00     0.206 HD
HETATM   18  C7  UNL     1       3.615  -0.754  -1.010  1.00  0.00     0.705 A 
ATOM     19  H6  UNL     1       4.247   0.218   0.764  1.00  0.00     0.206 HD
HETATM   20  N8  UNL     1       2.406  -0.973  -1.508  1.00  0.00    -0.020 N 
ATOM     21  H8  UNL     1       2.204  -1.458  -2.382  1.00  0.00     0.203 HD
BRANCH  18  22
HETATM   22  N7  UNL     1       4.737  -1.122  -1.555  1.00  0.00    -0.233 N 
ATOM     23  H72 UNL     1       5.667  -0.954  -1.172  1.00  0.00     0.174 HD
ATOM     24  H71 UNL     1       4.830  -1.626  -2.437  1.00  0.00     0.174 HD
ENDBRANCH  18  22
ENDBRANCH   1  14
TORSDOF 4
