REMARK  2 active torsions:
REMARK  status: ('A' for Active; 'I' for Inactive)
REMARK    1  A    between atoms: C2_2  and  C3_3 
REMARK    2  A    between atoms: C5_5  and  N1_6 
ROOT
HETATM    1  C3  UNL     1       1.014   0.129  -0.669  1.00  0.00     0.034 C 
HETATM    2  C4  UNL     1      -0.082   1.008  -0.121  1.00  0.00     0.051 C 
HETATM    3  C5  UNL     1      -1.337   0.143  -0.182  1.00  0.00     0.143 C 
HETATM    4  C6  UNL     1      -0.944  -0.941  -1.203  1.00  0.00     0.068 C 
HETATM    5  C7  UNL     1       0.401  -1.240  -0.501  1.00  0.00     0.111 C 
HETATM    6  N2  UNL     1      -0.080  -1.452   0.834  1.00  0.00    -0.326 N 
HETATM    7  N3  UNL     1       0.463  -2.171   1.686  1.00  0.00    -0.347 N 
ATOM      8  H31 UNL     1       0.121  -2.322   2.635  1.00  0.00     0.176 HD
ATOM      9  H32 UNL     1       1.323  -2.692   1.515  1.00  0.00     0.176 HD
HETATM   10  C8  UNL     1      -1.294  -0.716   1.075  1.00  0.00     0.181 C 
ENDROOT
BRANCH   3  11
HETATM   11  N1  UNL     1      -2.532   0.802  -0.444  1.00  0.00    -0.069 N 
ATOM     12  H13 UNL     1      -2.665   1.553   0.233  1.00  0.00     0.275 HD
ATOM     13  H12 UNL     1      -2.445   1.341  -1.305  1.00  0.00     0.275 HD
ATOM     14  H11 UNL     1      -3.371   0.224  -0.485  1.00  0.00     0.275 HD
ENDBRANCH   3  11
BRANCH   1  15
HETATM   15  C2  UNL     1       2.330   0.296  -0.050  1.00  0.00    -0.030 C 
HETATM   16  C1  UNL     1       2.687   1.144   0.878  1.00  0.00     0.007 C 
ENDBRANCH   1  15
TORSDOF 2
