REMARK  13 active torsions:
REMARK  status: ('A' for Active; 'I' for Inactive)
REMARK    1  A    between atoms: C2_2  and  C3_3 
REMARK    2  A    between atoms: C3_3  and  N1_4 
REMARK    3  A    between atoms: N1_4  and  C4_5 
REMARK       I    between atoms: N1_4  and  C7_8 
REMARK    4  A    between atoms: C4_5  and  C5_6 
REMARK    5  A    between atoms: C7_8  and  C8_10 
REMARK    6  A    between atoms: N2_13  and  C11_14 
REMARK    7  A    between atoms: C11_14  and  N3_16 
REMARK    8  A    between atoms: N3_16  and  C12_18 
REMARK    9  A    between atoms: C13_19  and  O2_20 
REMARK   10  A    between atoms: C15_23  and  C16_24 
REMARK   11  A    between atoms: C16_24  and  O4_25 
REMARK   12  A    between atoms: C17_27  and  O5_28 
REMARK   13  A    between atoms: C18_30  and  O6_31 
ROOT
HETATM    1  C11 UNL     1       1.718   1.436  -0.419  1.00  0.00     0.170 C 
HETATM    2  S1  UNL     1       1.597   3.109  -0.718  1.00  0.00    -0.041 SA
ENDROOT
BRANCH   1   3
HETATM    3  N2  UNL     1       0.563   0.889   0.134  1.00  0.00    -0.358 N 
HETATM    4  C10 UNL     1      -0.581   1.759   0.407  1.00  0.00     0.126 C 
HETATM    5  C9  UNL     1      -1.863   1.220  -0.191  1.00  0.00     0.034 C 
HETATM    6  C8  UNL     1      -2.118  -0.205   0.252  1.00  0.00     0.081 C 
HETATM    7  C20 UNL     1      -0.997  -0.748   1.078  1.00  0.00     0.034 C 
HETATM    8  C19 UNL     1       0.366  -0.490   0.437  1.00  0.00     0.126 C 
BRANCH   6   9
HETATM    9  C7  UNL     1      -3.363  -0.249   1.039  1.00  0.00     0.224 C 
HETATM   10  N1  UNL     1      -4.674  -0.051   0.508  1.00  0.00    -0.352 N 
HETATM   11  O1  UNL     1      -3.241  -0.480   2.284  1.00  0.00    -0.273 OA
BRANCH  10  12
HETATM   12  C3  UNL     1      -4.952   0.199  -0.866  1.00  0.00     0.125 C 
BRANCH  12  13
HETATM   13  C2  UNL     1      -5.163  -1.044  -1.703  1.00  0.00     0.015 C 
HETATM   14  C1  UNL     1      -6.297  -1.905  -1.264  1.00  0.00     0.006 C 
ENDBRANCH  12  13
ENDBRANCH  10  12
BRANCH  10  15
HETATM   15  C4  UNL     1      -5.808  -0.109   1.441  1.00  0.00     0.125 C 
BRANCH  15  16
HETATM   16  C5  UNL     1      -6.129   1.209   2.059  1.00  0.00     0.015 C 
HETATM   17  C6  UNL     1      -6.497   2.288   1.101  1.00  0.00     0.006 C 
ENDBRANCH  15  16
ENDBRANCH  10  15
ENDBRANCH   6   9
ENDBRANCH   1   3
BRANCH   1  18
HETATM   18  N3  UNL     1       2.939   0.839  -0.757  1.00  0.00    -0.355 N 
ATOM     19  H3  UNL     1       3.626   1.462  -1.182  1.00  0.00     0.162 HD
BRANCH  18  20
HETATM   20  C12 UNL     1       3.364  -0.516  -0.594  1.00  0.00     0.170 C 
HETATM   21  C13 UNL     1       4.532  -0.838  -1.535  1.00  0.00     0.284 C 
HETATM   22  O3  UNL     1       5.363   0.277  -1.540  1.00  0.00    -0.349 OA
HETATM   23  C15 UNL     1       6.143   0.173  -0.376  1.00  0.00     0.179 C 
HETATM   24  C17 UNL     1       5.312   0.162   0.862  1.00  0.00     0.180 C 
HETATM   25  C18 UNL     1       4.043  -0.605   0.799  1.00  0.00     0.177 C 
BRANCH  21  26
HETATM   26  O2  UNL     1       5.240  -1.887  -0.961  1.00  0.00    -0.364 OA
HETATM   27  C14 UNL     1       5.325  -2.982  -1.834  1.00  0.00     0.204 C 
ENDBRANCH  21  26
BRANCH  23  28
HETATM   28  C16 UNL     1       7.036   1.396  -0.338  1.00  0.00     0.198 C 
BRANCH  28  29
HETATM   29  O4  UNL     1       7.811   1.279   0.831  1.00  0.00    -0.398 OA
ATOM     30  H4  UNL     1       8.371   2.046   0.855  1.00  0.00     0.209 HD
ENDBRANCH  28  29
ENDBRANCH  23  28
BRANCH  24  31
HETATM   31  O5  UNL     1       5.116   1.502   1.239  1.00  0.00    -0.390 OA
ATOM     32  H5  UNL     1       4.587   1.495   2.028  1.00  0.00     0.210 HD
ENDBRANCH  24  31
BRANCH  25  33
HETATM   33  O6  UNL     1       4.171  -1.934   1.142  1.00  0.00    -0.391 OA
ATOM     34  H6  UNL     1       4.587  -1.988   1.995  1.00  0.00     0.210 HD
ENDBRANCH  25  33
ENDBRANCH  18  20
ENDBRANCH   1  18
TORSDOF 13
