REMARK  7 active torsions:
REMARK  status: ('A' for Active; 'I' for Inactive)
REMARK    1  A    between atoms: C2_2  and  O1_3 
REMARK    2  A    between atoms: C2_2  and  C3_5 
REMARK    3  A    between atoms: C3_5  and  O2_6 
REMARK    4  A    between atoms: C3_5  and  C4_8 
REMARK    5  A    between atoms: C5_9  and  C6_10 
REMARK    6  A    between atoms: C9_16  and  O6_17 
REMARK    7  A    between atoms: O6_17  and  N1_18 
ROOT
HETATM    1  C4  UNL     1      -1.568   0.115  -0.017  1.00  0.00     0.070 C 
HETATM    2  C5  UNL     1      -0.480   0.203   1.014  1.00  0.00     0.161 C 
HETATM    3  C7  UNL     1       0.511  -0.820   0.426  1.00  0.00     0.205 C 
HETATM    4  C8  UNL     1       1.577  -1.191   1.396  1.00  0.00     0.243 C 
HETATM    5  O5  UNL     1       2.713  -1.351   0.609  1.00  0.00    -0.332 OA
HETATM    6  C9  UNL     1       2.533  -0.545  -0.511  1.00  0.00     0.441 C 
HETATM    7  O7  UNL     1       1.187  -0.327  -0.656  1.00  0.00    -0.297 OA
HETATM    8  O8  UNL     1      -0.358  -1.867   0.134  1.00  0.00    -0.341 OA
HETATM    9  C11 UNL     1      -1.446  -1.277  -0.505  1.00  0.00     0.064 C 
HETATM   10  C12 UNL     1      -1.105  -1.290  -2.002  1.00  0.00     0.046 C 
HETATM   11  C13 UNL     1      -2.646  -2.141  -0.335  1.00  0.00     0.046 C 
ENDROOT
BRANCH   2  12
HETATM   12  C6  UNL     1      -0.822  -0.311   2.338  1.00  0.00     0.183 C 
HETATM   13  O3  UNL     1      -0.758   0.455   3.331  1.00  0.00    -0.648 OA
HETATM   14  O4  UNL     1      -1.221  -1.617   2.568  1.00  0.00    -0.648 OA
ENDBRANCH   2  12
BRANCH   1  15
HETATM   15  C3  UNL     1      -2.913   0.562   0.409  1.00  0.00     0.154 C 
BRANCH  15  16
HETATM   16  C2  UNL     1      -2.957   1.991   0.836  1.00  0.00     0.143 C 
HETATM   17  C1  UNL     1      -2.608   2.935  -0.325  1.00  0.00     0.042 C 
BRANCH  16  18
HETATM   18  O1  UNL     1      -4.262   2.360   1.213  1.00  0.00    -0.393 OA
ATOM     19  H1  UNL     1      -4.478   1.776   1.931  1.00  0.00     0.210 HD
ENDBRANCH  16  18
ENDBRANCH  15  16
BRANCH  15  20
HETATM   20  O2  UNL     1      -3.776   0.421  -0.680  1.00  0.00    -0.393 OA
ATOM     21  H2  UNL     1      -3.748  -0.489  -0.952  1.00  0.00     0.210 HD
ENDBRANCH  15  20
ENDBRANCH   1  15
BRANCH   6  22
HETATM   22  O6  UNL     1       3.184   0.717  -0.297  1.00  0.00    -0.218 OA
BRANCH  22  23
HETATM   23  N1  UNL     1       4.140   1.139  -1.163  1.00  0.00    -0.236 N 
HETATM   24  C10 UNL     1       5.327   0.639  -1.186  1.00  0.00     0.221 C 
HETATM   25  N2  UNL     1       6.268   1.131  -2.118  1.00  0.00    -0.065 NA
HETATM   26  N3  UNL     1       5.667  -0.389  -0.283  1.00  0.00    -0.065 NA
ATOM     27  H1  UNL     1       3.909   1.882  -1.822  1.00  0.00     0.197 HD
ENDBRANCH  22  23
ENDBRANCH   6  22
TORSDOF 7
