REMARK  7 active torsions:
REMARK  status: ('A' for Active; 'I' for Inactive)
REMARK    1  A    between atoms: C2_2  and  N1_3 
REMARK    2  A    between atoms: C2_2  and  C3_7 
REMARK       I    between atoms: C3_7  and  N2_9 
REMARK    3  A    between atoms: N2_9  and  N3_11 
REMARK       I    between atoms: N3_11  and  C4_13 
REMARK    4  A    between atoms: C4_13  and  C5_15 
REMARK    5  A    between atoms: C7_17  and  O3_18 
REMARK    6  A    between atoms: N4_20  and  C8_21 
REMARK    7  A    between atoms: C12_28  and  O6_29 
ROOT
HETATM    1  C5  UNL     1      -0.068  -0.621  -0.186  1.00  0.00     0.088 A 
HETATM    2  C6  UNL     1      -0.434  -1.586  -1.131  1.00  0.00     0.077 A 
HETATM    3  C7  UNL     1      -1.790  -1.485  -1.347  1.00  0.00     0.145 A 
HETATM    4  N4  UNL     1      -2.287  -0.492  -0.572  1.00  0.00    -0.302 N 
HETATM    5  C12 UNL     1      -1.248   0.021   0.122  1.00  0.00     0.160 A 
ENDROOT
BRANCH   1   6
HETATM    6  C4  UNL     1       1.270  -0.384   0.325  1.00  0.00     0.274 C 
HETATM    7  N3  UNL     1       2.365  -1.181  -0.142  1.00  0.00    -0.263 N 
ATOM      8  H3  UNL     1       2.201  -1.915  -0.831  1.00  0.00     0.190 HD
HETATM    9  O2  UNL     1       1.477   0.503   1.165  1.00  0.00    -0.266 OA
BRANCH   7  10
HETATM   10  N2  UNL     1       3.652  -0.959   0.340  1.00  0.00    -0.265 N 
HETATM   11  C3  UNL     1       4.606  -0.256  -0.433  1.00  0.00     0.266 C 
HETATM   12  O1  UNL     1       4.268   0.170  -1.579  1.00  0.00    -0.269 OA
ATOM     13  H2  UNL     1       3.911  -1.308   1.263  1.00  0.00     0.190 HD
BRANCH  11  14
HETATM   14  C2  UNL     1       5.985   0.011   0.027  1.00  0.00     0.272 C 
HETATM   15  C1  UNL     1       5.872   0.913   1.261  1.00  0.00     0.050 C 
BRANCH  14  16
HETATM   16  N1  UNL     1       6.731   0.746  -0.978  1.00  0.00    -0.067 N 
ATOM     17  H13 UNL     1       6.326   1.659  -1.187  1.00  0.00     0.275 HD
ATOM     18  H12 UNL     1       7.635   1.076  -0.641  1.00  0.00     0.275 HD
ATOM     19  H11 UNL     1       6.806   0.146  -1.799  1.00  0.00     0.275 HD
ENDBRANCH  14  16
ENDBRANCH  11  14
ENDBRANCH   7  10
ENDBRANCH   1   6
BRANCH   5  20
HETATM   20  O6  UNL     1      -1.375   1.065   1.026  1.00  0.00    -0.345 OA
ATOM     21  H6  UNL     1      -2.188   1.508   1.238  1.00  0.00     0.219 HD
ENDBRANCH   5  20
BRANCH   3  22
HETATM   22  O3  UNL     1      -2.562  -2.263  -2.217  1.00  0.00    -0.346 OA
ATOM     23  H3  UNL     1      -3.498  -2.193  -2.366  1.00  0.00     0.219 HD
ENDBRANCH   3  22
BRANCH   4  24
HETATM   24  C8  UNL     1      -3.683  -0.054  -0.498  1.00  0.00     0.109 C 
HETATM   25  C9  UNL     1      -4.277  -0.378   0.831  1.00  0.00     0.041 C 
HETATM   26  C10 UNL     1      -5.719   0.057   0.670  1.00  0.00     0.142 C 
HETATM   27  S1  UNL     1      -5.445   1.711   0.008  1.00  0.00     0.146 S 
HETATM   28  O4  UNL     1      -5.242   2.673   1.132  1.00  0.00    -0.228 OA
HETATM   29  O5  UNL     1      -6.493   2.116  -0.953  1.00  0.00    -0.228 OA
HETATM   30  C11 UNL     1      -3.866   1.396  -0.798  1.00  0.00     0.166 C 
ENDBRANCH   4  24
TORSDOF 7
