REMARK  1 active torsions:
REMARK  status: ('A' for Active; 'I' for Inactive)
REMARK       I    between atoms: C2_2  and  N1_4 
REMARK    1  A    between atoms: N3_10  and  C7_12 
ROOT
HETATM    1  C1  UNL     1       3.955   1.617  -0.987  1.00  0.00     0.119 C 
HETATM    2  C2  UNL     1       2.498   1.641  -0.865  1.00  0.00     0.234 C 
HETATM    3  O1  UNL     1       1.829   2.538  -1.425  1.00  0.00    -0.272 OA
HETATM    4  N1  UNL     1       1.822   0.652  -0.113  1.00  0.00    -0.246 N 
HETATM    5  C3  UNL     1       2.581  -0.376   0.526  1.00  0.00     0.173 C 
HETATM    6  C4  UNL     1       1.993  -1.748   0.350  1.00  0.00     0.162 C 
HETATM    7  N2  UNL     1       0.599  -1.745   0.081  1.00  0.00    -0.219 N 
HETATM    8  C5  UNL     1      -0.032  -3.014  -0.265  1.00  0.00     0.168 C 
HETATM    9  C6  UNL     1      -0.252  -0.569   0.123  1.00  0.00     0.691 C 
HETATM   10  N3  UNL     1      -1.504  -0.705   0.244  1.00  0.00    -0.217 N 
ATOM     11  H3  UNL     1      -1.865  -1.657   0.308  1.00  0.00     0.178 HD
HETATM   12  N4  UNL     1       0.419   0.673   0.019  1.00  0.00    -0.128 N 
ATOM     13  H4  UNL     1      -0.096   1.553   0.039  1.00  0.00     0.206 HD
ENDROOT
BRANCH  10  14
HETATM   14  C7  UNL     1      -2.446   0.348   0.298  1.00  0.00     0.036 C 
HETATM   15  C8  UNL     1      -3.859  -0.251   0.444  1.00  0.00     0.038 C 
HETATM   16  C9  UNL     1      -2.430   1.081  -1.017  1.00  0.00     0.038 C 
HETATM   17  C10 UNL     1      -2.259   1.293   1.464  1.00  0.00     0.038 C 
ENDBRANCH  10  14
TORSDOF 1
