REMARK  8 active torsions:
REMARK  status: ('A' for Active; 'I' for Inactive)
REMARK    1  A    between atoms: O1_2  and  C2_3 
REMARK    2  A    between atoms: C2_3  and  C3_4 
REMARK    3  A    between atoms: C3_4  and  O2_5 
REMARK    4  A    between atoms: C5_8  and  C6_9 
REMARK    5  A    between atoms: C6_9  and  O3_12 
REMARK    6  A    between atoms: C10_15  and  O4_16 
REMARK    7  A    between atoms: C12_18  and  C14_20 
REMARK    8  A    between atoms: C14_20  and  C15_21 
ROOT
HETATM    1  C3  UNL     1      -2.183   0.748  -0.750  1.00  0.00     0.129 C 
HETATM    2  C4  UNL     1      -2.486  -0.517  -0.055  1.00  0.00     0.065 C 
HETATM    3  C5  UNL     1      -1.132  -1.086   0.434  1.00  0.00     0.023 C 
HETATM    4  C9  UNL     1      -0.260   0.122   0.467  1.00  0.00    -0.027 C 
HETATM    5  C10 UNL     1      -0.869   1.134  -0.206  1.00  0.00     0.086 C 
HETATM    6  C12 UNL     1       0.996   0.261   1.254  1.00  0.00    -0.016 C 
HETATM    7  C13 UNL     1       0.712   1.514   2.195  1.00  0.00     0.020 C 
HETATM    8  C21 UNL     1       1.078  -0.823   2.326  1.00  0.00     0.014 C 
HETATM    9  C22 UNL     1      -0.174  -1.427   2.752  1.00  0.00     0.006 C 
HETATM   10  C23 UNL     1      -1.380  -1.356   1.912  1.00  0.00    -0.003 C 
HETATM   11  C24 UNL     1      -2.484  -2.311   2.222  1.00  0.00     0.011 C 
ENDROOT
BRANCH   6  12
HETATM   12  C14 UNL     1       2.265   0.608   0.693  1.00  0.00     0.027 C 
BRANCH  12  13
HETATM   13  C15 UNL     1       3.190   0.039  -0.240  1.00  0.00    -0.025 C 
HETATM   14  C16 UNL     1       3.789  -1.313   0.084  1.00  0.00     0.019 C 
HETATM   15  C17 UNL     1       4.403   0.912  -0.395  1.00  0.00    -0.021 C 
HETATM   16  C18 UNL     1       4.719   1.172  -1.632  1.00  0.00    -0.030 C 
HETATM   17  C19 UNL     1       3.775   0.519  -2.533  1.00  0.00     0.028 C 
HETATM   18  C20 UNL     1       2.729  -0.064  -1.661  1.00  0.00     0.017 C 
ENDBRANCH  12  13
ENDBRANCH   6  12
BRANCH   3  19
HETATM   19  C6  UNL     1      -0.787  -2.205  -0.417  1.00  0.00     0.063 C 
HETATM   20  C7  UNL     1      -0.656  -1.924  -1.906  1.00  0.00     0.046 C 
HETATM   21  C8  UNL     1      -1.684  -3.418  -0.413  1.00  0.00     0.046 C 
BRANCH  19  22
HETATM   22  O3  UNL     1       0.463  -2.716  -0.081  1.00  0.00    -0.390 OA
ATOM     23  H3  UNL     1       0.689  -3.450  -0.639  1.00  0.00     0.210 HD
ENDBRANCH  19  22
ENDBRANCH   3  19
BRANCH   5  24
HETATM   24  O4  UNL     1      -0.419   2.424  -0.426  1.00  0.00    -0.357 OA
HETATM   25  C11 UNL     1       0.046   2.967  -1.624  1.00  0.00     0.209 C 
ENDBRANCH   5  24
BRANCH   1  26
HETATM   26  C2  UNL     1      -3.228   1.806  -0.301  1.00  0.00     0.212 C 
BRANCH  26  27
HETATM   27  O1  UNL     1      -2.976   3.049  -0.794  1.00  0.00    -0.393 OA
HETATM   28  C1  UNL     1      -3.970   3.905  -0.329  1.00  0.00     0.201 C 
ENDBRANCH  26  27
ENDBRANCH   1  26
BRANCH   1  29
HETATM   29  O2  UNL     1      -2.284   0.757  -2.124  1.00  0.00    -0.381 OA
ATOM     30  H2  UNL     1      -1.645   0.110  -2.399  1.00  0.00     0.211 HD
ENDBRANCH   1  29
TORSDOF 8
