REMARK  2 active torsions:
REMARK  status: ('A' for Active; 'I' for Inactive)
REMARK       I    between atoms: C1_2  and  N3_16 
REMARK       I    between atoms: N2_3  and  C2_5 
REMARK    1  A    between atoms: C2_5  and  C3_7 
REMARK    2  A    between atoms: C3_7  and  C4_8 
ROOT
HETATM    1  N1  UNL     1       1.351   0.844   1.247  1.00  0.00    -0.063 NA
HETATM    2  C1  UNL     1       1.686  -0.432   0.701  1.00  0.00     0.196 C 
HETATM    3  N2  UNL     1       0.859  -1.112  -0.005  1.00  0.00    -0.301 N 
ATOM      4  H2  UNL     1       1.120  -2.022  -0.384  1.00  0.00     0.171 HD
HETATM    5  C2  UNL     1      -0.422  -0.568  -0.244  1.00  0.00     0.226 C 
HETATM    6  O1  UNL     1      -0.683  -0.065  -1.352  1.00  0.00    -0.273 OA
HETATM    7  N3  UNL     1       2.975  -0.983   0.940  1.00  0.00    -0.320 N 
ATOM      8  H3  UNL     1       3.106  -1.750   1.599  1.00  0.00     0.169 HD
HETATM    9  C9  UNL     1       3.971  -0.482   0.298  1.00  0.00     0.079 C 
HETATM   10  C10 UNL     1       3.960   0.613  -0.677  1.00  0.00     0.078 C 
HETATM   11  C11 UNL     1       5.386   1.119  -0.674  1.00  0.00     0.027 C 
HETATM   12  C12 UNL     1       6.236   0.072  -0.033  1.00  0.00     0.121 C 
HETATM   13  N4  UNL     1       5.314  -0.941   0.444  1.00  0.00    -0.380 N 
ATOM     14  H4  UNL     1       5.585  -1.847   0.827  1.00  0.00     0.160 HD
ENDROOT
BRANCH   5  15
HETATM   15  C3  UNL     1      -1.440  -0.598   0.816  1.00  0.00     0.135 C 
BRANCH  15  16
HETATM   16  C4  UNL     1      -2.705   0.048   0.287  1.00  0.00     0.133 C 
HETATM   17  C5  UNL     1      -3.774   0.048   1.316  1.00  0.00     0.048 C 
HETATM   18  C6  UNL     1      -5.169   0.176   0.819  1.00  0.00     0.063 C 
HETATM   19 BR1  UNL     1      -5.921   1.908   1.326  1.00  0.00    -0.091 Br
HETATM   20  C7  UNL     1      -5.324   0.052  -0.658  1.00  0.00     0.059 C 
HETATM   21  C8  UNL     1      -4.258  -0.888  -1.170  1.00  0.00     0.194 C 
HETATM   22 BR2  UNL     1      -4.614  -2.685  -0.514  1.00  0.00    -0.061 Br
HETATM   23  O2  UNL     1      -2.998  -0.470  -0.926  1.00  0.00    -0.369 OA
ENDBRANCH  15  16
ENDBRANCH   5  15
TORSDOF 2
