REMARK  5 active torsions:
REMARK  status: ('A' for Active; 'I' for Inactive)
REMARK       I    between atoms: N3_4  and  C2_6 
REMARK       I    between atoms: N5_8  and  C3_10 
REMARK    1  A    between atoms: C3_10  and  C4_12 
REMARK    2  A    between atoms: C4_12  and  C5_14 
REMARK    3  A    between atoms: C5_14  and  C6_15 
REMARK    4  A    between atoms: C6_15  and  C7_17 
REMARK    5  A    between atoms: C7_17  and  C8_18 
ROOT
HETATM    1  N1  UNL     1       3.954   2.625   0.456  1.00  0.00    -0.066 NA
HETATM    2  C1  UNL     1       3.374   1.341   0.532  1.00  0.00     0.203 C 
HETATM    3  N2  UNL     1       4.182   0.245   0.951  1.00  0.00    -0.066 NA
HETATM    4  N3  UNL     1       2.119   1.220   0.213  1.00  0.00    -0.307 N 
ATOM      5  H3  UNL     1       1.587   2.040  -0.079  1.00  0.00     0.170 HD
HETATM    6  C2  UNL     1       1.484  -0.056   0.271  1.00  0.00     0.197 C 
HETATM    7  N4  UNL     1       1.660  -1.033  -0.733  1.00  0.00    -0.063 NA
HETATM    8  N5  UNL     1       0.727  -0.306   1.285  1.00  0.00    -0.296 N 
ATOM      9  H5  UNL     1       0.587   0.388   2.019  1.00  0.00     0.171 HD
HETATM   10  C3  UNL     1       0.109  -1.547   1.348  1.00  0.00     0.265 C 
HETATM   11  O1  UNL     1       0.741  -2.511   1.884  1.00  0.00    -0.267 OA
ENDROOT
BRANCH  10  12
HETATM   12  C4  UNL     1      -1.222  -1.825   0.837  1.00  0.00     0.080 C 
HETATM   13 BR1  UNL     1      -1.944  -3.589   0.998  1.00  0.00    -0.045 Br
BRANCH  12  14
HETATM   14  C5  UNL     1      -1.879  -0.857   0.293  1.00  0.00     0.052 C 
BRANCH  14  15
HETATM   15  C6  UNL     1      -3.205  -0.920  -0.275  1.00  0.00     0.058 C 
HETATM   16 BR2  UNL     1      -4.091  -2.666  -0.178  1.00  0.00    -0.042 Br
BRANCH  15  17
HETATM   17  C7  UNL     1      -3.832   0.009  -0.804  1.00  0.00    -0.102 C 
BRANCH  17  18
HETATM   18  C8  UNL     1      -4.547   1.068  -1.407  1.00  0.00     0.112 C 
HETATM   19 BR3  UNL     1      -3.812   2.825  -1.538  1.00  0.00    -0.055 Br
ENDBRANCH  17  18
ENDBRANCH  15  17
ENDBRANCH  14  15
ENDBRANCH  12  14
ENDBRANCH  10  12
TORSDOF 5
