REMARK  6 active torsions:
REMARK  status: ('A' for Active; 'I' for Inactive)
REMARK    1  A    between atoms: C3_4  and  C4_5 
REMARK    2  A    between atoms: C4_5  and  C5_7 
REMARK    3  A    between atoms: C5_7  and  C6_10 
REMARK    4  A    between atoms: C9_14  and  C10_15 
REMARK    5  A    between atoms: C10_15  and  N2_16 
REMARK    6  A    between atoms: C12_20  and  C13_21 
ROOT
HETATM    1  C1  UNL     1       1.831   1.742  -2.693  1.00  0.00     0.155 C 
HETATM    2  N1  UNL     1       2.033   0.897  -1.548  1.00  0.00    -0.362 N 
HETATM    3  C2  UNL     1       3.039   1.287  -0.724  1.00  0.00     0.105 A 
HETATM    4  C3  UNL     1       3.384   0.591   0.439  1.00  0.00     0.028 A 
HETATM    5  C7  UNL     1       2.638  -0.528   0.709  1.00  0.00     0.018 A 
HETATM    6  C8  UNL     1       1.607  -0.910  -0.155  1.00  0.00     0.028 A 
HETATM    7  C9  UNL     1       1.304  -0.193  -1.288  1.00  0.00     0.029 A 
ENDROOT
BRANCH   7   8
HETATM    8  C10 UNL     1       0.220  -0.626  -2.157  1.00  0.00     0.186 C 
BRANCH   8   9
HETATM    9  N2  UNL     1      -1.092  -0.096  -1.783  1.00  0.00    -0.345 N 
HETATM   10  C11 UNL     1      -1.681   1.032  -2.195  1.00  0.00     0.183 A 
HETATM   11  N3  UNL     1      -2.866   1.161  -1.624  1.00  0.00    -0.349 N 
HETATM   12  C12 UNL     1      -3.115   0.096  -0.789  1.00  0.00     0.077 A 
ATOM     13  H3  UNL     1      -3.506   1.940  -1.780  1.00  0.00     0.166 HD
HETATM   14  C17 UNL     1      -1.983  -0.665  -0.918  1.00  0.00     0.124 A 
BRANCH  12  15
HETATM   15  C13 UNL     1      -4.320  -0.094   0.002  1.00  0.00     0.079 A 
HETATM   16  C14 UNL     1      -5.424   0.763   0.051  1.00  0.00     0.121 A 
HETATM   17  N4  UNL     1      -6.352   0.272   0.886  1.00  0.00    -0.360 N 
HETATM   18  C15 UNL     1      -5.856  -0.879   1.365  1.00  0.00     0.182 A 
ATOM     19  H4  UNL     1      -7.255   0.690   1.112  1.00  0.00     0.166 HD
HETATM   20  N5  UNL     1      -4.619  -1.089   0.818  1.00  0.00    -0.344 N 
HETATM   21  C16 UNL     1      -3.818  -2.244   1.130  1.00  0.00     0.157 C 
ENDBRANCH  12  15
ENDBRANCH   8   9
ENDBRANCH   7   8
BRANCH   4  22
HETATM   22  C4  UNL     1       4.472   1.085   1.291  1.00  0.00     0.191 C 
HETATM   23  O1  UNL     1       5.002   2.202   0.937  1.00  0.00    -0.290 OA
BRANCH  22  24
HETATM   24  C5  UNL     1       5.016   0.456   2.479  1.00  0.00     0.149 C 
HETATM   25 BR1  UNL     1       6.374   1.633   3.275  1.00  0.00    -0.063 Br
HETATM   26 BR2  UNL     1       3.615   0.230   3.820  1.00  0.00    -0.063 Br
BRANCH  24  27
HETATM   27  C6  UNL     1       5.667  -0.849   2.138  1.00  0.00     0.126 C 
HETATM   28 BR3  UNL     1       7.117  -0.521   0.872  1.00  0.00    -0.093 Br
ENDBRANCH  24  27
ENDBRANCH  22  24
ENDBRANCH   4  22
TORSDOF 6
