REMARK  6 active torsions:
REMARK  status: ('A' for Active; 'I' for Inactive)
REMARK    1  A    between atoms: C2_2  and  C4_4 
REMARK    2  A    between atoms: C4_4  and  N1_5 
REMARK    3  A    between atoms: C4_4  and  C13_23 
REMARK       I    between atoms: N1_5  and  C5_7 
REMARK       I    between atoms: C5_7  and  N2_9 
REMARK    4  A    between atoms: N2_9  and  N3_11 
REMARK    5  A    between atoms: C8_15  and  C9_16 
REMARK    6  A    between atoms: C10_19  and  C12_21 
REMARK       I    between atoms: C13_23  and  N4_25 
ROOT
HETATM    1  N1  UNL     1      -0.075  -1.504   0.445  1.00  0.00    -0.328 N 
ATOM      2  H1  UNL     1       0.019  -1.393   1.455  1.00  0.00     0.165 HD
HETATM    3  C5  UNL     1       1.090  -1.552  -0.327  1.00  0.00     0.335 C 
HETATM    4  O1  UNL     1       0.981  -1.695  -1.569  1.00  0.00    -0.246 OA
HETATM    5  N2  UNL     1       2.395  -1.449   0.217  1.00  0.00    -0.252 N 
ATOM      6  H2  UNL     1       2.518  -1.329   1.222  1.00  0.00     0.191 HD
ENDROOT
BRANCH   1   7
HETATM    7  C4  UNL     1      -1.434  -1.606  -0.125  1.00  0.00     0.181 C 
BRANCH   7   8
HETATM    8  C2  UNL     1      -1.876  -2.996   0.321  1.00  0.00     0.009 C 
HETATM    9  C1  UNL     1      -3.237  -3.392  -0.110  1.00  0.00     0.012 C 
HETATM   10  C3  UNL     1      -1.649  -3.251   1.777  1.00  0.00     0.012 C 
ENDBRANCH   7   8
BRANCH   7  11
HETATM   11  C13 UNL     1      -2.222  -0.516   0.439  1.00  0.00     0.243 C 
HETATM   12  O4  UNL     1      -1.848  -0.054   1.569  1.00  0.00    -0.271 OA
HETATM   13  N4  UNL     1      -3.370   0.102  -0.133  1.00  0.00    -0.338 N 
HETATM   14  C14 UNL     1      -4.116  -0.051  -1.378  1.00  0.00     0.173 C 
HETATM   15  C16 UNL     1      -4.237   1.153   0.366  1.00  0.00     0.140 A 
HETATM   16  C15 UNL     1      -5.210   0.765  -0.763  1.00  0.00     0.149 A 
HETATM   17  F1  UNL     1      -6.403   0.224  -0.417  1.00  0.00    -0.238 F 
HETATM   18  C17 UNL     1      -4.853   2.172  -0.469  1.00  0.00     0.016 A 
HETATM   19  C18 UNL     1      -4.081   2.866  -1.583  1.00  0.00     0.020 C 
HETATM   20  C19 UNL     1      -5.905   3.028   0.197  1.00  0.00     0.020 C 
ENDBRANCH   7  11
ENDBRANCH   1   7
BRANCH   5  21
HETATM   21  N3  UNL     1       3.504  -1.511  -0.611  1.00  0.00    -0.304 N 
HETATM   22  C6  UNL     1       4.331  -0.545  -0.686  1.00  0.00     0.015 C 
HETATM   23  C7  UNL     1       5.607  -0.270  -1.454  1.00  0.00     0.071 C 
HETATM   24  C10 UNL     1       4.488   0.783  -0.084  1.00  0.00     0.019 C 
HETATM   25  C8  UNL     1       5.538   1.177  -1.104  1.00  0.00     0.107 C 
HETATM   26  C11 UNL     1       5.000   0.705   1.341  1.00  0.00     0.023 C 
ATOM     27  H3  UNL     1       3.662  -2.348  -1.172  1.00  0.00     0.186 HD
BRANCH  25  28
HETATM   28  C9  UNL     1       6.719   1.747  -0.437  1.00  0.00     0.178 C 
HETATM   29  O2  UNL     1       7.724   1.045  -0.179  1.00  0.00    -0.648 OA
HETATM   30  O3  UNL     1       6.713   3.087  -0.090  1.00  0.00    -0.648 OA
ENDBRANCH  25  28
BRANCH  24  31
HETATM   31  C12 UNL     1       3.236   1.615  -0.139  1.00  0.00     0.101 C 
HETATM   32 BR1  UNL     1       2.674   1.883  -1.977  1.00  0.00    -0.095 Br
ENDBRANCH  24  31
ENDBRANCH   5  21
TORSDOF 6
