REMARK  5 active torsions:
REMARK  status: ('A' for Active; 'I' for Inactive)
REMARK       I    between atoms: C1_2  and  N6_24 
REMARK       I    between atoms: N2_3  and  C2_5 
REMARK    1  A    between atoms: C2_5  and  C3_7 
REMARK    2  A    between atoms: C3_7  and  N3_8 
REMARK    3  A    between atoms: N3_8  and  S1_10 
REMARK    4  A    between atoms: S1_10  and  N4_13 
REMARK    5  A    between atoms: N6_24  and  C13_26 
ROOT
HETATM    1  C3  UNL     1       0.575  -0.066  -2.140  1.00  0.00     0.122 A 
HETATM    2  C11 UNL     1       0.064   1.222  -2.793  1.00  0.00     0.044 A 
HETATM    3  C12 UNL     1       0.727   0.170  -3.592  1.00  0.00     0.044 A 
ENDROOT
BRANCH   1   4
HETATM    4  C2  UNL     1       1.848   0.068  -1.328  1.00  0.00     0.253 C 
HETATM    5  N2  UNL     1       2.998   0.603  -1.953  1.00  0.00    -0.299 N 
HETATM    6  C1  UNL     1       4.196   0.189  -1.701  1.00  0.00     0.195 C 
ATOM      7  H2  UNL     1       2.876   1.351  -2.635  1.00  0.00     0.171 HD
HETATM    8  N1  UNL     1       5.341   0.726  -2.328  1.00  0.00    -0.063 NA
HETATM    9  N6  UNL     1       4.326  -0.862  -0.739  1.00  0.00    -0.330 N 
ATOM     10  H6  UNL     1       4.011  -1.810  -0.944  1.00  0.00     0.168 HD
HETATM   11  O1  UNL     1       1.903  -0.278  -0.140  1.00  0.00    -0.270 OA
BRANCH   9  12
HETATM   12  C13 UNL     1       4.910  -0.534   0.512  1.00  0.00     0.034 A 
HETATM   13  C14 UNL     1       5.082  -1.514   1.478  1.00  0.00     0.031 A 
HETATM   14  C15 UNL     1       5.646  -1.230   2.708  1.00  0.00     0.026 A 
HETATM   15  C16 UNL     1       6.062   0.050   3.023  1.00  0.00     0.034 A 
HETATM   16 CL1  UNL     1       6.775   0.407   4.587  1.00  0.00    -0.084 Cl
HETATM   17  C17 UNL     1       5.894   1.028   2.068  1.00  0.00     0.026 A 
HETATM   18  C18 UNL     1       5.324   0.739   0.826  1.00  0.00     0.031 A 
ENDBRANCH   9  12
ENDBRANCH   1   4
BRANCH   1  19
HETATM   19  N3  UNL     1      -0.356  -0.942  -1.573  1.00  0.00    -0.288 N 
ATOM     20  H3  UNL     1      -0.099  -1.469  -0.739  1.00  0.00     0.174 HD
BRANCH  19  21
HETATM   21  S1  UNL     1      -1.880  -1.146  -2.229  1.00  0.00     0.300 S 
HETATM   22  O2  UNL     1      -2.112  -0.662  -3.607  1.00  0.00    -0.188 OA
HETATM   23  O3  UNL     1      -2.159  -2.646  -2.267  1.00  0.00    -0.188 OA
BRANCH  21  24
HETATM   24  N4  UNL     1      -3.037  -0.356  -1.218  1.00  0.00    -0.190 NA
HETATM   25  C4  UNL     1      -3.943  -1.296  -0.609  1.00  0.00     0.137 C 
HETATM   26  C5  UNL     1      -4.943  -0.624   0.292  1.00  0.00     0.253 C 
HETATM   27  N5  UNL     1      -4.329   0.184   1.309  1.00  0.00    -0.065 N 
HETATM   28  C6  UNL     1      -4.386  -0.394   2.651  1.00  0.00     0.239 C 
HETATM   29  C8  UNL     1      -5.311   1.162   1.788  1.00  0.00     0.239 C 
HETATM   30  C9  UNL     1      -3.105   0.806   0.988  1.00  0.00     0.253 C 
HETATM   31  C7  UNL     1      -4.743   0.959   3.177  1.00  0.00     0.056 C 
HETATM   32  C10 UNL     1      -2.502   0.608  -0.337  1.00  0.00     0.137 C 
ENDBRANCH  21  24
ENDBRANCH  19  21
ENDBRANCH   1  19
TORSDOF 5
