REMARK  7 active torsions:
REMARK  status: ('A' for Active; 'I' for Inactive)
REMARK    1  A    between atoms: N1_2  and  C2_3 
REMARK       I    between atoms: N1_2  and  C13_23 
REMARK    2  A    between atoms: C2_3  and  C3_4 
REMARK    3  A    between atoms: C6_7  and  C7_8 
REMARK    4  A    between atoms: C10_11  and  N2_12 
REMARK    5  A    between atoms: N2_12  and  S1_14 
REMARK    6  A    between atoms: C13_23  and  C14_25 
REMARK    7  A    between atoms: C18_29  and  C19_30 
REMARK       I    between atoms: C19_30  and  N5_32 
ROOT
HETATM    1  C3  UNL     1       1.017   0.674  -0.256  1.00  0.00     0.027 A 
HETATM    2  C4  UNL     1       0.802  -0.346  -1.139  1.00  0.00     0.029 A 
HETATM    3  C5  UNL     1       2.053  -0.966  -1.272  1.00  0.00     0.032 A 
HETATM    4  C6  UNL     1       2.965  -0.322  -0.488  1.00  0.00     0.044 A 
HETATM    5  N4  UNL     1       2.306   0.682   0.126  1.00  0.00    -0.357 N 
ATOM      6  H4  UNL     1       2.722   1.345   0.780  1.00  0.00     0.166 HD
ENDROOT
BRANCH   1   7
HETATM    7  C2  UNL     1       0.030   1.656   0.260  1.00  0.00     0.182 C 
BRANCH   7   8
HETATM    8  N1  UNL     1      -1.272   1.036   0.300  1.00  0.00    -0.347 N 
HETATM    9  C1  UNL     1      -1.622   0.322   1.531  1.00  0.00     0.153 C 
HETATM   10  C13 UNL     1      -2.159   1.102  -0.804  1.00  0.00     0.255 C 
HETATM   11  O3  UNL     1      -1.812   1.733  -1.816  1.00  0.00    -0.267 OA
BRANCH  10  12
HETATM   12  C14 UNL     1      -3.447   0.420  -0.705  1.00  0.00     0.050 A 
HETATM   13  C15 UNL     1      -3.498  -0.914  -1.126  1.00  0.00     0.018 A 
HETATM   14  C16 UNL     1      -4.718  -1.541  -1.014  1.00  0.00     0.002 A 
HETATM   15  C17 UNL     1      -5.826  -0.895  -0.515  1.00  0.00     0.018 A 
HETATM   16  C18 UNL     1      -5.772   0.420  -0.100  1.00  0.00     0.050 A 
HETATM   17  C21 UNL     1      -4.563   1.067  -0.204  1.00  0.00     0.042 A 
HETATM   18 BR1  UNL     1      -4.473   2.899   0.362  1.00  0.00    -0.049 Br
BRANCH  16  19
HETATM   19  C19 UNL     1      -6.976   1.080   0.439  1.00  0.00     0.259 C 
HETATM   20  O4  UNL     1      -6.896   2.288   0.775  1.00  0.00    -0.267 OA
HETATM   21  N5  UNL     1      -8.193   0.402   0.586  1.00  0.00    -0.299 N 
HETATM   22  C20 UNL     1      -9.058   0.203  -0.362  1.00  0.00     0.203 C 
ATOM     23  H5  UNL     1      -8.418   0.036   1.511  1.00  0.00     0.171 HD
HETATM   24  N6  UNL     1      -8.735   0.714  -1.638  1.00  0.00    -0.066 NA
HETATM   25  N7  UNL     1     -10.269  -0.506  -0.104  1.00  0.00    -0.066 NA
ENDBRANCH  16  19
ENDBRANCH  10  12
ENDBRANCH   7   8
ENDBRANCH   1   7
BRANCH   4  26
HETATM   26  C7  UNL     1       4.368  -0.654  -0.324  1.00  0.00     0.006 A 
HETATM   27  C8  UNL     1       5.190   0.041   0.538  1.00  0.00     0.019 A 
HETATM   28  C9  UNL     1       6.520  -0.264   0.702  1.00  0.00     0.050 A 
HETATM   29  C10 UNL     1       7.082  -1.285   0.000  1.00  0.00     0.114 A 
HETATM   30  N3  UNL     1       6.266  -1.974  -0.856  1.00  0.00    -0.351 N 
HETATM   31  C12 UNL     1       4.979  -1.681  -1.015  1.00  0.00     0.103 A 
ATOM     32  H3  UNL     1       6.662  -2.745  -1.394  1.00  0.00     0.166 HD
BRANCH  29  33
HETATM   33  N2  UNL     1       8.324  -1.644   0.089  1.00  0.00    -0.270 N 
ATOM     34  H2  UNL     1       8.665  -2.424  -0.473  1.00  0.00     0.180 HD
BRANCH  33  35
HETATM   35  S1  UNL     1       9.394  -0.829   1.134  1.00  0.00     0.228 S 
HETATM   36  C11 UNL     1       9.568   0.862   0.652  1.00  0.00     0.186 C 
HETATM   37  O1  UNL     1       8.836  -0.918   2.547  1.00  0.00    -0.206 OA
HETATM   38  O2  UNL     1      10.737  -1.522   1.080  1.00  0.00    -0.206 OA
ENDBRANCH  33  35
ENDBRANCH  29  33
ENDBRANCH   4  26
TORSDOF 7
