REMARK  1 active torsions:
REMARK  status: ('A' for Active; 'I' for Inactive)
REMARK    1  A    between atoms: C4_7  and  O2_8 
ROOT
HETATM    1  N1  UNL     1       3.164  -0.029  -0.036  1.00  0.00    -0.196 NA
HETATM    2  C1  UNL     1       2.062  -0.194   0.327  1.00  0.00     0.081 C 
HETATM    3  C2  UNL     1       0.691  -0.422   0.770  1.00  0.00     0.234 C 
HETATM    4  S1  UNL     1       0.055  -1.999   0.062  1.00  0.00    -0.117 SA
HETATM    5  C3  UNL     1      -1.443  -1.244  -0.704  1.00  0.00     0.248 C 
HETATM    6  O1  UNL     1      -1.511  -0.067   0.040  1.00  0.00    -0.332 OA
HETATM    7  C4  UNL     1      -0.283   0.529   0.053  1.00  0.00     0.281 C 
HETATM    8  C5  UNL     1      -0.405   1.784   0.795  1.00  0.00     0.130 C 
HETATM    9  N2  UNL     1      -0.520   2.779   1.392  1.00  0.00    -0.191 NA
ENDROOT
BRANCH   7  10
HETATM   10  O2  UNL     1       0.215   0.822  -1.224  1.00  0.00    -0.352 OA
ATOM     11  H2  UNL     1      -0.386   1.409  -1.667  1.00  0.00     0.214 HD
ENDBRANCH   7  10
TORSDOF 1
