REMARK  1 active torsions:
REMARK  status: ('A' for Active; 'I' for Inactive)
REMARK    1  A    between atoms: N1_1  and  N2_4 
ROOT
HETATM    1  N2  UNL     1       2.105  -0.505  -0.257  1.00  0.00    -0.313 N 
ATOM      2  H2  UNL     1       2.390  -1.315  -0.808  1.00  0.00     0.185 HD
HETATM    3  C1  UNL     1       0.895  -0.351   0.088  1.00  0.00     0.037 C 
HETATM    4  C2  UNL     1       0.368   0.788   0.891  1.00  0.00     0.091 C 
HETATM    5  C3  UNL     1      -1.035   0.305   1.305  1.00  0.00     0.165 C 
HETATM    6  C4  UNL     1      -1.847   0.369   0.027  1.00  0.00     0.038 C 
HETATM    7  C5  UNL     1      -1.225  -0.517  -1.020  1.00  0.00     0.044 C 
HETATM    8  C6  UNL     1      -0.146  -1.342  -0.298  1.00  0.00     0.207 C 
HETATM    9  O1  UNL     1      -0.791  -1.873   0.818  1.00  0.00    -0.229 OA
HETATM   10  O2  UNL     1      -0.844  -0.989   1.757  1.00  0.00    -0.234 OA
ENDROOT
BRANCH   1  11
HETATM   11  N1  UNL     1       3.050   0.465   0.136  1.00  0.00    -0.345 N 
ATOM     12  H12 UNL     1       2.749   1.269   0.687  1.00  0.00     0.176 HD
ATOM     13  H11 UNL     1       4.024   0.341  -0.142  1.00  0.00     0.176 HD
ENDBRANCH   1  11
TORSDOF 1
