REMARK  0 active torsions:
REMARK  status: ('A' for Active; 'I' for Inactive)
ROOT
HETATM    1  O1  UNL     1       3.384   0.546  -0.024  1.00  0.00    -0.226 OA
HETATM    2  S1  UNL     1       1.812   0.100  -0.965  1.00  0.00     0.190 S 
HETATM    3  O2  UNL     1       0.822  -1.278   0.773  1.00  0.00    -0.281 OA
HETATM    4  C1  UNL     1      -0.256  -0.705   0.082  1.00  0.00     0.211 C 
HETATM    5  C2  UNL     1      -1.487  -0.508   0.870  1.00  0.00     0.037 C 
HETATM    6  C3  UNL     1      -2.268   0.503   0.571  1.00  0.00     0.174 C 
HETATM    7  O3  UNL     1      -1.939   1.383  -0.482  1.00  0.00    -0.209 OA
HETATM    8  O4  UNL     1      -0.842   1.127  -1.244  1.00  0.00    -0.212 OA
HETATM    9  C4  UNL     1       0.149   0.699  -0.394  1.00  0.00     0.315 C 
ENDROOT
TORSDOF 0
