REMARK  8 active torsions:
REMARK  status: ('A' for Active; 'I' for Inactive)
REMARK    1  A    between atoms: C2_2  and  C3_3 
REMARK    2  A    between atoms: C3_3  and  C4_4 
REMARK    3  A    between atoms: C4_4  and  N1_5 
REMARK    4  A    between atoms: N1_5  and  C5_7 
REMARK    5  A    between atoms: C5_7  and  N2_8 
REMARK    6  A    between atoms: C5_7  and  S1_17 
REMARK    7  A    between atoms: N2_8  and  N3_10 
REMARK    8  A    between atoms: S1_17  and  C11_18 
ROOT
HETATM    1  C5  UNL     1      -0.533  -1.175   0.408  1.00  0.00     0.156 C 
ENDROOT
BRANCH   1   2
HETATM    2  N1  UNL     1      -1.915  -0.877   0.226  1.00  0.00    -0.370 N 
ATOM      3  H1  UNL     1      -2.605  -1.624   0.307  1.00  0.00     0.161 HD
BRANCH   2   4
HETATM    4  C4  UNL     1      -2.352   0.467  -0.071  1.00  0.00     0.121 C 
BRANCH   4   5
HETATM    5  C3  UNL     1      -3.841   0.489  -0.210  1.00  0.00     0.019 C 
BRANCH   5   6
HETATM    6  C2  UNL     1      -4.355   1.889  -0.525  1.00  0.00    -0.003 C 
HETATM    7  C1  UNL     1      -5.853   1.876  -0.658  1.00  0.00     0.005 C 
ENDBRANCH   5   6
ENDBRANCH   4   5
ENDBRANCH   2   4
ENDBRANCH   1   2
BRANCH   1   8
HETATM    8  N2  UNL     1       0.477  -0.150   0.304  1.00  0.00    -0.275 N 
ATOM      9  H2  UNL     1       0.169   0.800   0.095  1.00  0.00     0.189 HD
BRANCH   8  10
HETATM   10  N3  UNL     1       1.799  -0.360   0.464  1.00  0.00    -0.281 N 
HETATM   11  C6  UNL     1       2.464   0.171   1.571  1.00  0.00     0.118 C 
HETATM   12  C7  UNL     1       3.536   1.132   1.103  1.00  0.00     0.319 C 
HETATM   13  N4  UNL     1       4.314   0.603   0.017  1.00  0.00     0.093 N 
HETATM   14  C8  UNL     1       5.322   1.534  -0.362  1.00  0.00     0.310 C 
HETATM   15  C9  UNL     1       3.519   0.146  -1.095  1.00  0.00     0.319 C 
HETATM   16  C10 UNL     1       2.547  -0.904  -0.584  1.00  0.00     0.118 C 
ENDBRANCH   8  10
ENDBRANCH   1   8
BRANCH   1  17
HETATM   17  S1  UNL     1      -0.038  -2.686   0.742  1.00  0.00    -0.078 SA
BRANCH  17  18
HETATM   18  C11 UNL     1      -1.295  -4.003   0.880  1.00  0.00     0.197 C 
HETATM   19 CL1  UNL     1      -1.941  -4.286  -0.762  1.00  0.00    -0.119 Cl
ENDBRANCH  17  18
ENDBRANCH   1  17
TORSDOF 8
