REMARK  9 active torsions:
REMARK  status: ('A' for Active; 'I' for Inactive)
REMARK    1  A    between atoms: S1_2  and  C2_3 
REMARK    2  A    between atoms: C2_3  and  N2_7 
REMARK    3  A    between atoms: N3_10  and  C5_11 
REMARK    4  A    between atoms: C5_11  and  C6_12 
REMARK    5  A    between atoms: C6_12  and  C7_13 
REMARK    6  A    between atoms: C7_13  and  C8_14 
REMARK    7  A    between atoms: C8_14  and  C9_15 
REMARK    8  A    between atoms: C9_15  and  C10_16 
REMARK    9  A    between atoms: C10_16  and  N4_17 
ROOT
HETATM    1  N2  UNL     1       3.559  -0.713   0.351  1.00  0.00    -0.359 N 
HETATM    2  C3  UNL     1       2.616  -0.799   1.435  1.00  0.00     0.144 C 
HETATM    3  C4  UNL     1       1.202  -1.095   0.916  1.00  0.00     0.141 C 
HETATM    4  N3  UNL     1       0.906  -0.236  -0.142  1.00  0.00    -0.390 N 
HETATM    5  C11 UNL     1       1.870   0.715  -0.548  1.00  0.00     0.141 C 
HETATM    6  C12 UNL     1       3.241   0.070  -0.809  1.00  0.00     0.144 C 
ENDROOT
BRANCH   4   7
HETATM    7  C5  UNL     1      -0.395  -0.132  -0.638  1.00  0.00     0.058 C 
BRANCH   7   8
HETATM    8  C6  UNL     1      -1.416   0.493   0.259  1.00  0.00     0.044 C 
BRANCH   8   9
HETATM    9  C7  UNL     1      -2.739   0.482  -0.519  1.00  0.00     0.005 C 
BRANCH   9  10
HETATM   10  C8  UNL     1      -3.858   1.087   0.270  1.00  0.00     0.002 C 
BRANCH  10  11
HETATM   11  C9  UNL     1      -5.105   1.034  -0.562  1.00  0.00     0.027 C 
BRANCH  11  12
HETATM   12  C10 UNL     1      -5.524  -0.349  -0.952  1.00  0.00     0.229 C 
BRANCH  12  13
HETATM   13  N4  UNL     1      -5.795  -1.199   0.180  1.00  0.00    -0.079 N 
ATOM     14  H43 UNL     1      -4.996  -1.227   0.813  1.00  0.00     0.274 HD
ATOM     15  H42 UNL     1      -6.484  -0.771   0.799  1.00  0.00     0.274 HD
ATOM     16  H41 UNL     1      -6.081  -2.141  -0.086  1.00  0.00     0.274 HD
ENDBRANCH  12  13
ENDBRANCH  11  12
ENDBRANCH  10  11
ENDBRANCH   9  10
ENDBRANCH   8   9
ENDBRANCH   7   8
ENDBRANCH   4   7
BRANCH   1  17
HETATM   17  C2  UNL     1       4.795  -1.390   0.415  1.00  0.00     0.135 C 
HETATM   18  N1  UNL     1       4.825  -2.656   0.364  1.00  0.00    -0.380 N 
ATOM     19  H12 UNL     1       5.719  -3.145   0.410  1.00  0.00     0.158 HD
ATOM     20  H11 UNL     1       3.963  -3.194   0.278  1.00  0.00     0.158 HD
BRANCH  17  21
HETATM   21  S1  UNL     1       6.297  -0.453   0.565  1.00  0.00    -0.099 SA
HETATM   22  C1  UNL     1       6.006   1.322   0.614  1.00  0.00     0.099 C 
ENDBRANCH  17  21
ENDBRANCH   1  17
TORSDOF 9
