REMARK  7 active torsions:
REMARK  status: ('A' for Active; 'I' for Inactive)
REMARK    1  A    between atoms: C2_3  and  N2_4 
REMARK       I    between atoms: N2_4  and  C3_6 
REMARK    2  A    between atoms: C3_6  and  C4_8 
REMARK    3  A    between atoms: C4_8  and  C5_9 
REMARK    4  A    between atoms: C5_9  and  C6_10 
REMARK    5  A    between atoms: C6_10  and  O2_11 
REMARK    6  A    between atoms: C6_10  and  C7_13 
REMARK    7  A    between atoms: C7_13  and  O3_14 
ROOT
HETATM    1  N1  UNL     1      -5.660  -2.778   0.797  1.00  0.00    -0.195 NA
HETATM    2  C1  UNL     1      -4.892  -1.969   0.507  1.00  0.00     0.091 C 
HETATM    3  C2  UNL     1      -3.895  -0.921   0.153  1.00  0.00     0.122 C 
HETATM    4  C13 UNL     1      -4.232   0.289   1.019  1.00  0.00     0.046 C 
HETATM    5  C14 UNL     1      -5.699   0.677   0.811  1.00  0.00     0.004 C 
HETATM    6  C15 UNL     1      -6.046   0.599  -0.668  1.00  0.00     0.000 C 
HETATM    7  C16 UNL     1      -4.789   0.715  -1.514  1.00  0.00     0.004 C 
HETATM    8  C17 UNL     1      -3.988  -0.577  -1.297  1.00  0.00     0.046 C 
ENDROOT
BRANCH   3   9
HETATM    9  N2  UNL     1      -2.614  -1.424   0.575  1.00  0.00    -0.339 N 
HETATM   10  C3  UNL     1      -1.450  -0.682   0.355  1.00  0.00     0.219 C 
HETATM   11  O1  UNL     1      -1.516   0.430  -0.217  1.00  0.00    -0.274 OA
ATOM     12  H2  UNL     1      -2.555  -2.330   1.039  1.00  0.00     0.164 HD
BRANCH  10  13
HETATM   13  C4  UNL     1      -0.092  -1.146   0.772  1.00  0.00     0.105 C 
BRANCH  13  14
HETATM   14  C5  UNL     1       0.965  -0.132   0.400  1.00  0.00     0.044 C 
BRANCH  14  15
HETATM   15  C6  UNL     1       2.344  -0.588   0.815  1.00  0.00     0.152 C 
BRANCH  15  16
HETATM   16  O2  UNL     1       2.354  -0.765   2.215  1.00  0.00    -0.393 OA
ATOM     17  H2  UNL     1       3.221  -1.052   2.476  1.00  0.00     0.210 HD
ENDBRANCH  15  16
BRANCH  15  18
HETATM   18  C7  UNL     1       3.413   0.392   0.484  1.00  0.00     0.084 C 
HETATM   19  C8  UNL     1       3.636   0.606  -0.972  1.00  0.00     0.040 C 
HETATM   20  C9  UNL     1       4.941   0.059  -1.482  1.00  0.00     0.003 C 
HETATM   21  C10 UNL     1       6.060   0.852  -0.798  1.00  0.00     0.000 C 
HETATM   22  C11 UNL     1       5.870   0.783   0.690  1.00  0.00     0.003 C 
HETATM   23  C12 UNL     1       4.713  -0.106   1.090  1.00  0.00     0.040 C 
BRANCH  18  24
HETATM   24  O3  UNL     1       3.111   1.592   1.156  1.00  0.00    -0.387 OA
ATOM     25  H3  UNL     1       3.794   2.218   0.945  1.00  0.00     0.210 HD
ENDBRANCH  18  24
ENDBRANCH  15  18
ENDBRANCH  14  15
ENDBRANCH  13  14
ENDBRANCH  10  13
ENDBRANCH   3   9
TORSDOF 7
