REMARK  7 active torsions:
REMARK  status: ('A' for Active; 'I' for Inactive)
REMARK    1  A    between atoms: C7_7  and  N1_8 
REMARK       I    between atoms: N1_8  and  C8_10 
REMARK    2  A    between atoms: C8_10  and  C9_12 
REMARK    3  A    between atoms: C9_12  and  O2_13 
REMARK    4  A    between atoms: O2_13  and  C10_14 
REMARK    5  A    between atoms: C10_14  and  C11_16 
REMARK    6  A    between atoms: C11_16  and  N2_17 
REMARK       I    between atoms: N2_17  and  C12_19 
REMARK    7  A    between atoms: C12_19  and  C13_21 
ROOT
HETATM    1  C10 UNL     1       1.178  -0.064   0.904  1.00  0.00     0.277 C 
HETATM    2  O3  UNL     1       1.555   0.208  -0.254  1.00  0.00    -0.263 OA
ENDROOT
BRANCH   1   3
HETATM    3  O2  UNL     1      -0.209  -0.005   1.131  1.00  0.00    -0.311 OA
BRANCH   3   4
HETATM    4  C9  UNL     1      -1.066   0.345   0.089  1.00  0.00     0.281 C 
BRANCH   4   5
HETATM    5  C8  UNL     1      -2.481   0.364   0.475  1.00  0.00     0.242 C 
HETATM    6  N1  UNL     1      -3.524   0.699  -0.429  1.00  0.00    -0.354 N 
ATOM      7  H1  UNL     1      -3.272   0.937  -1.388  1.00  0.00     0.162 HD
HETATM    8  O1  UNL     1      -2.786   0.069   1.664  1.00  0.00    -0.271 OA
BRANCH   6   9
HETATM    9  C7  UNL     1      -4.909   0.722  -0.070  1.00  0.00     0.088 C 
HETATM   10  C2  UNL     1      -5.751  -0.167  -0.913  1.00  0.00     0.004 C 
HETATM   11  C1  UNL     1      -5.775   0.198  -2.362  1.00  0.00     0.012 C 
HETATM   12  C3  UNL     1      -7.157  -0.216  -0.404  1.00  0.00     0.006 C 
HETATM   13  C4  UNL     1      -7.590   1.010   0.320  1.00  0.00     0.001 C 
HETATM   14  C5  UNL     1      -6.895   2.264  -0.133  1.00  0.00     0.002 C 
HETATM   15  C6  UNL     1      -5.410   2.148  -0.203  1.00  0.00     0.025 C 
ENDBRANCH   6   9
ENDBRANCH   4   5
ENDBRANCH   3   4
ENDBRANCH   1   3
BRANCH   1  16
HETATM   16  C11 UNL     1       2.086  -0.436   2.016  1.00  0.00     0.233 C 
BRANCH  16  17
HETATM   17  N2  UNL     1       3.451  -0.485   1.542  1.00  0.00    -0.351 N 
HETATM   18  C12 UNL     1       3.835  -1.399   0.548  1.00  0.00     0.222 C 
HETATM   19  O4  UNL     1       2.986  -2.191   0.069  1.00  0.00    -0.273 OA
ATOM     20  H2  UNL     1       4.144   0.152   1.935  1.00  0.00     0.163 HD
BRANCH  18  21
HETATM   21  C13 UNL     1       5.214  -1.454   0.049  1.00  0.00     0.082 C 
HETATM   22  C14 UNL     1       6.255  -1.639   1.168  1.00  0.00     0.019 C 
HETATM   23  C15 UNL     1       7.399  -0.845   0.559  1.00  0.00    -0.013 C 
HETATM   24  C16 UNL     1       7.674  -1.386  -0.805  1.00  0.00     0.005 C 
HETATM   25  C19 UNL     1       6.612   0.430   0.206  1.00  0.00     0.010 C 
HETATM   26  C17 UNL     1       6.653  -0.753  -1.765  1.00  0.00     0.006 C 
HETATM   27  C18 UNL     1       5.630  -0.267  -0.742  1.00  0.00    -0.001 C 
ENDBRANCH  18  21
ENDBRANCH  16  17
ENDBRANCH   1  16
TORSDOF 7
