REMARK  6 active torsions:
REMARK  status: ('A' for Active; 'I' for Inactive)
REMARK    1  A    between atoms: C11_11  and  O1_12 
REMARK    2  A    between atoms: C13_15  and  O2_16 
REMARK    3  A    between atoms: C19_23  and  C20_24 
REMARK    4  A    between atoms: C20_24  and  C21_26 
REMARK    5  A    between atoms: C21_26  and  C22_27 
REMARK    6  A    between atoms: C22_27  and  O4_28 
ROOT
HETATM    1  C1  UNL     1       2.216   1.036   0.855  1.00  0.00     0.016 C 
HETATM    2  C2  UNL     1       1.799   0.097  -0.199  1.00  0.00    -0.030 C 
HETATM    3  C3  UNL     1       1.189  -1.166   0.230  1.00  0.00     0.011 C 
HETATM    4  C4  UNL     1      -0.289  -1.150   0.511  1.00  0.00     0.007 C 
HETATM    5  C5  UNL     1      -1.069  -0.482  -0.598  1.00  0.00     0.001 C 
HETATM    6  C6  UNL     1      -0.497   0.885  -0.965  1.00  0.00    -0.005 C 
HETATM    7  C7  UNL     1      -0.954   1.841   0.073  1.00  0.00     0.006 C 
HETATM    8  C8  UNL     1      -2.440   2.068  -0.259  1.00  0.00     0.006 C 
HETATM    9  C9  UNL     1      -3.151   0.801   0.072  1.00  0.00    -0.001 C 
HETATM   10  C10 UNL     1      -3.506   0.720   1.553  1.00  0.00     0.037 C 
HETATM   11  C11 UNL     1      -4.626  -0.259   1.685  1.00  0.00     0.121 C 
HETATM   12  C12 UNL     1      -4.621  -1.263   0.523  1.00  0.00     0.064 C 
HETATM   13  C13 UNL     1      -3.131  -1.594   0.322  1.00  0.00     0.129 C 
HETATM   14  C14 UNL     1      -2.526  -0.451  -0.463  1.00  0.00    -0.010 C 
HETATM   15  C15 UNL     1      -3.097  -0.620  -1.890  1.00  0.00     0.018 C 
HETATM   16  C16 UNL     1       0.908   0.731  -1.257  1.00  0.00    -0.001 C 
HETATM   17  C17 UNL     1       1.722   1.896  -1.669  1.00  0.00     0.006 C 
HETATM   18  C18 UNL     1       3.135   1.288  -1.696  1.00  0.00     0.013 C 
HETATM   19  C19 UNL     1       2.982  -0.104  -1.133  1.00  0.00     0.064 C 
ENDROOT
BRANCH  19  20
HETATM   20  C20 UNL     1       4.127  -0.732  -0.546  1.00  0.00     0.133 C 
HETATM   21  O3  UNL     1       4.430  -1.849  -1.061  1.00  0.00    -0.297 OA
BRANCH  20  22
HETATM   22  C21 UNL     1       5.021  -0.332   0.538  1.00  0.00     0.104 C 
BRANCH  22  23
HETATM   23  C22 UNL     1       6.131  -1.363   0.706  1.00  0.00     0.171 C 
BRANCH  23  24
HETATM   24  O4  UNL     1       6.996  -0.999   1.737  1.00  0.00    -0.400 OA
ATOM     25  H4  UNL     1       7.688  -1.642   1.842  1.00  0.00     0.209 HD
ENDBRANCH  23  24
ENDBRANCH  22  23
ENDBRANCH  20  22
ENDBRANCH  19  20
BRANCH  13  26
HETATM   26  O2  UNL     1      -2.654  -1.768   1.593  1.00  0.00    -0.395 OA
ATOM     27  H2  UNL     1      -1.735  -1.972   1.469  1.00  0.00     0.210 HD
ENDBRANCH  13  26
BRANCH  11  28
HETATM   28  O1  UNL     1      -5.886   0.363   1.631  1.00  0.00    -0.395 OA
ATOM     29  H1  UNL     1      -6.598  -0.260   1.715  1.00  0.00     0.210 HD
ENDBRANCH  11  28
TORSDOF 6
