REMARK  6 active torsions:
REMARK  status: ('A' for Active; 'I' for Inactive)
REMARK    1  A    between atoms: C2_2  and  C4_10 
REMARK    2  A    between atoms: N1_3  and  N2_5 
REMARK    3  A    between atoms: N2_5  and  C3_7 
REMARK    4  A    between atoms: C6_12  and  O1_13 
REMARK    5  A    between atoms: C6_12  and  O2_15 
REMARK    6  A    between atoms: O2_15  and  C7_16 
ROOT
HETATM    1  C4  UNL     1      -1.169  -0.536   0.501  1.00  0.00     0.087 A 
HETATM    2  C5  UNL     1      -1.689   0.729   0.676  1.00  0.00     0.113 A 
HETATM    3  C6  UNL     1      -1.085   1.925   0.196  1.00  0.00     0.216 C 
HETATM    4  N5  UNL     1      -2.896   0.865   1.374  1.00  0.00    -0.303 N 
ATOM      5  H5  UNL     1      -3.279   1.801   1.503  1.00  0.00     0.171 HD
HETATM    6  C8  UNL     1      -3.561  -0.160   1.873  1.00  0.00     0.327 A 
HETATM    7  O4  UNL     1      -4.645   0.008   2.496  1.00  0.00    -0.247 OA
HETATM    8  N6  UNL     1      -3.077  -1.386   1.715  1.00  0.00    -0.275 N 
ATOM      9  H6  UNL     1      -3.588  -2.181   2.099  1.00  0.00     0.173 HD
HETATM   10  C9  UNL     1      -1.918  -1.598   1.053  1.00  0.00     0.264 A 
HETATM   11  O5  UNL     1      -1.500  -2.767   0.927  1.00  0.00    -0.267 OA
ENDROOT
BRANCH   1  12
HETATM   12  C2  UNL     1       0.044  -0.870  -0.181  1.00  0.00     0.040 C 
HETATM   13  C1  UNL     1       0.474  -2.321  -0.284  1.00  0.00     0.071 C 
HETATM   14  N1  UNL     1       0.857  -0.075  -0.743  1.00  0.00    -0.302 N 
ATOM     15  H1  UNL     1       0.633   0.920  -0.714  1.00  0.00     0.186 HD
BRANCH  14  16
HETATM   16  N2  UNL     1       2.016  -0.440  -1.389  1.00  0.00    -0.278 N 
ATOM     17  H2  UNL     1       1.955  -0.969  -2.259  1.00  0.00     0.189 HD
BRANCH  16  18
HETATM   18  C3  UNL     1       3.295  -0.099  -0.875  1.00  0.00     0.199 C 
HETATM   19  N3  UNL     1       4.485  -0.469  -1.531  1.00  0.00    -0.068 NA
HETATM   20  S1  UNL     1       3.419   0.752   0.524  1.00  0.00    -0.043 SA
ENDBRANCH  16  18
ENDBRANCH  14  16
ENDBRANCH   1  12
BRANCH   3  21
HETATM   21  O1  UNL     1      -1.756   3.016   0.478  1.00  0.00    -0.339 OA
ATOM     22  H1  UNL     1      -1.353   3.814   0.158  1.00  0.00     0.220 HD
ENDBRANCH   3  21
BRANCH   3  23
HETATM   23  O2  UNL     1       0.021   2.205  -0.486  1.00  0.00    -0.238 OA
BRANCH  23  24
HETATM   24  C7  UNL     1       0.417   3.520  -0.856  1.00  0.00     0.379 C 
HETATM   25  N4  UNL     1       1.621   3.716  -1.587  1.00  0.00    -0.032 NA
HETATM   26  O3  UNL     1      -0.301   4.495  -0.533  1.00  0.00    -0.242 OA
ENDBRANCH  23  24
ENDBRANCH   3  23
TORSDOF 6
