REMARK  7 active torsions:
REMARK  status: ('A' for Active; 'I' for Inactive)
REMARK       I    between atoms: C2_2  and  N1_4 
REMARK    1  A    between atoms: N1_4  and  N2_6 
REMARK    2  A    between atoms: N2_6  and  C3_8 
REMARK    3  A    between atoms: C3_8  and  N3_10 
REMARK    4  A    between atoms: N3_10  and  N4_12 
REMARK       I    between atoms: N4_12  and  C4_14 
REMARK    5  A    between atoms: C4_14  and  C5_16 
REMARK    6  A    between atoms: C5_16  and  N5_17 
REMARK    7  A    between atoms: C6_18  and  O3_19 
ROOT
HETATM    1  N4  UNL     1      -0.454   1.014   1.910  1.00  0.00    -0.266 N 
ATOM      2  H4  UNL     1      -0.663   0.524   2.780  1.00  0.00     0.190 HD
HETATM    3  C4  UNL     1      -1.355   0.956   0.807  1.00  0.00     0.254 C 
HETATM    4  O2  UNL     1      -1.170   1.521  -0.285  1.00  0.00    -0.270 OA
ENDROOT
BRANCH   1   5
HETATM    5  N3  UNL     1       0.717   1.754   1.773  1.00  0.00    -0.272 N 
ATOM      6  H3  UNL     1       0.834   2.631   2.281  1.00  0.00     0.189 HD
BRANCH   5   7
HETATM    7  C3  UNL     1       1.746   1.278   0.920  1.00  0.00     0.205 C 
HETATM    8  S1  UNL     1       3.143   2.120   0.719  1.00  0.00    -0.038 SA
BRANCH   7   9
HETATM    9  N2  UNL     1       1.558   0.047   0.235  1.00  0.00    -0.273 N 
ATOM     10  H2  UNL     1       0.704  -0.495   0.367  1.00  0.00     0.189 HD
BRANCH   9  11
HETATM   11  N1  UNL     1       2.578  -0.415  -0.635  1.00  0.00    -0.268 N 
HETATM   12  C2  UNL     1       3.718  -1.041  -0.101  1.00  0.00     0.232 C 
HETATM   13  C1  UNL     1       4.805  -1.534  -1.005  1.00  0.00     0.119 C 
HETATM   14  O1  UNL     1       3.820  -1.183   1.135  1.00  0.00    -0.272 OA
ATOM     15  H1  UNL     1       2.485  -0.294  -1.643  1.00  0.00     0.190 HD
ENDBRANCH   9  11
ENDBRANCH   7   9
ENDBRANCH   5   7
ENDBRANCH   1   5
BRANCH   3  16
HETATM   16  C5  UNL     1      -2.595   0.158   0.981  1.00  0.00     0.239 C 
BRANCH  16  17
HETATM   17  N5  UNL     1      -3.288   0.065  -0.331  1.00  0.00    -0.280 N 
HETATM   18  C6  UNL     1      -3.064  -0.919  -1.149  1.00  0.00     0.152 A 
HETATM   19  C7  UNL     1      -3.733  -0.932  -2.348  1.00  0.00     0.111 A 
HETATM   20  S2  UNL     1      -4.671   0.504  -2.232  1.00  0.00    -0.036 SA
HETATM   21  C8  UNL     1      -4.155   1.013  -0.694  1.00  0.00     0.292 A 
HETATM   22  O4  UNL     1      -4.500   2.050  -0.024  1.00  0.00    -0.259 OA
BRANCH  18  23
HETATM   23  O3  UNL     1      -2.160  -2.001  -0.889  1.00  0.00    -0.345 OA
ATOM     24  H3  UNL     1      -1.996  -2.721  -1.487  1.00  0.00     0.219 HD
ENDBRANCH  18  23
ENDBRANCH  16  17
ENDBRANCH   3  16
TORSDOF 7
