REMARK  1 active torsions:
REMARK  status: ('A' for Active; 'I' for Inactive)
REMARK    1  A    between atoms: C3_3  and  N1_4 
ROOT
HETATM    1  C1  UNL     1      -3.489  -0.569   1.802  1.00  0.00     0.014 C 
HETATM    2  C2  UNL     1      -2.981  -0.201   0.771  1.00  0.00    -0.097 C 
HETATM    3  C3  UNL     1      -2.335   0.240  -0.487  1.00  0.00     0.220 C 
ENDROOT
BRANCH   3   4
HETATM    4  N1  UNL     1      -0.900   0.109  -0.395  1.00  0.00    -0.354 N 
HETATM    5  C4  UNL     1      -0.344  -1.044  -0.777  1.00  0.00     0.093 A 
HETATM    6  C5  UNL     1       1.020  -1.274  -0.729  1.00  0.00     0.045 A 
HETATM    7  C6  UNL     1       1.830  -0.264  -0.267  1.00  0.00     0.069 A 
HETATM    8  N2  UNL     1       3.225  -0.514  -0.224  1.00  0.00    -0.101 NA
HETATM    9  C7  UNL     1       1.249   0.910   0.120  1.00  0.00     0.084 A 
HETATM   10  C8  UNL     1       2.072   1.972   0.603  1.00  0.00     0.102 C 
HETATM   11  C9  UNL     1      -0.125   1.097   0.055  1.00  0.00     0.116 A 
HETATM   12  N3  UNL     1       2.748   2.833   1.008  1.00  0.00    -0.191 NA
ENDBRANCH   3   4
TORSDOF 1
