REMARK  13 active torsions:
REMARK  status: ('A' for Active; 'I' for Inactive)
REMARK    1  A    between atoms: C2_3  and  C3_4 
REMARK    2  A    between atoms: C3_4  and  O1_5 
REMARK    3  A    between atoms: C3_4  and  O2_7 
REMARK    4  A    between atoms: C4_11  and  N3_12 
REMARK    5  A    between atoms: C5_17  and  C6_18 
REMARK    6  A    between atoms: C7_21  and  C8_22 
REMARK       I    between atoms: C8_22  and  N7_24 
REMARK    7  A    between atoms: N7_24  and  C9_26 
REMARK    8  A    between atoms: C9_26  and  C10_27 
REMARK    9  A    between atoms: C10_27  and  O4_28 
REMARK   10  A    between atoms: C11_31  and  C12_32 
REMARK   11  A    between atoms: C12_32  and  O5_33 
REMARK   12  A    between atoms: C12_32  and  O6_35 
REMARK   13  A    between atoms: C13_37  and  O7_38 
REMARK       I    between atoms: N9_43  and  C15_45 
REMARK       I    between atoms: C15_45  and  N10_46 
REMARK       I    between atoms: C15_45  and  N11_50 
ROOT
HETATM    1  N3  UNL     1      -0.804  -0.742  -1.543  1.00  0.00    -0.046 N 
HETATM    2  N4  UNL     1      -0.689  -1.447  -2.655  1.00  0.00    -0.219 N 
ATOM      3  H4  UNL     1      -1.450  -1.682  -3.292  1.00  0.00     0.209 HD
HETATM    4  N5  UNL     1       0.564  -1.793  -2.803  1.00  0.00    -0.279 N 
ATOM      5  H5  UNL     1       0.933  -2.343  -3.579  1.00  0.00     0.189 HD
HETATM    6  C5  UNL     1       1.279  -1.324  -1.799  1.00  0.00     0.131 A 
HETATM    7  C13 UNL     1       0.408  -0.646  -0.981  1.00  0.00     0.212 A 
ENDROOT
BRANCH   1   8
HETATM    8  C4  UNL     1      -1.999  -0.172  -1.011  1.00  0.00     0.709 A 
HETATM    9  N2  UNL     1      -2.853   0.521  -1.784  1.00  0.00    -0.186 N 
HETATM   10  C2  UNL     1      -3.980   1.063  -1.299  1.00  0.00     0.108 A 
ATOM     11  H2  UNL     1      -2.636   0.639  -2.774  1.00  0.00     0.184 HD
HETATM   12  C1  UNL     1      -4.319   0.928   0.053  1.00  0.00     0.118 A 
HETATM   13  N1  UNL     1      -5.527   1.525   0.506  1.00  0.00    -0.096 NA
HETATM   14  C14 UNL     1      -3.451   0.222   0.846  1.00  0.00     0.146 A 
HETATM   15  N8  UNL     1      -2.312  -0.306   0.273  1.00  0.00    -0.173 N 
HETATM   16  N9  UNL     1      -3.659   0.042   2.074  1.00  0.00    -0.325 N 
ATOM     17  H8  UNL     1      -1.673  -0.830   0.871  1.00  0.00     0.186 HD
HETATM   18  C15 UNL     1      -4.622   0.378   3.011  1.00  0.00     0.481 C 
ATOM     19  H9  UNL     1      -2.909  -0.504   2.498  1.00  0.00     0.165 HD
HETATM   20  N10 UNL     1      -5.841  -0.425   2.946  1.00  0.00    -0.033 N 
HETATM   21  N11 UNL     1      -4.109   0.145   4.388  1.00  0.00    -0.033 N 
ATOM     22 3H10 UNL     1      -6.236  -0.395   2.006  1.00  0.00     0.278 HD
ATOM     23 2H10 UNL     1      -5.615  -1.418   3.010  1.00  0.00     0.278 HD
ATOM     24 1H10 UNL     1      -6.550  -0.178   3.636  1.00  0.00     0.278 HD
ATOM     25 3H11 UNL     1      -3.775  -0.811   4.512  1.00  0.00     0.278 HD
ATOM     26 2H11 UNL     1      -3.230   0.635   4.554  1.00  0.00     0.278 HD
ATOM     27 1H11 UNL     1      -4.818   0.392   5.078  1.00  0.00     0.278 HD
BRANCH  10  28
HETATM   28  C3  UNL     1      -4.876   1.813  -2.201  1.00  0.00     0.307 C 
BRANCH  28  29
HETATM   29  O1  UNL     1      -6.206   1.490  -2.037  1.00  0.00    -0.366 OA
ATOM     30  H1  UNL     1      -6.783   1.973  -2.618  1.00  0.00     0.213 HD
ENDBRANCH  28  29
BRANCH  28  31
HETATM   31  O2  UNL     1      -4.642   3.177  -1.965  1.00  0.00    -0.366 OA
ATOM     32  H2  UNL     1      -5.219   3.660  -2.546  1.00  0.00     0.213 HD
ENDBRANCH  28  31
ENDBRANCH  10  28
ENDBRANCH   1   8
BRANCH   7  33
HETATM   33  O7  UNL     1       0.745  -0.006   0.176  1.00  0.00    -0.343 OA
ATOM     34  H7  UNL     1       1.605   0.062   0.575  1.00  0.00     0.219 HD
ENDBRANCH   7  33
BRANCH   6  35
HETATM   35  C6  UNL     1       2.742  -1.510  -1.615  1.00  0.00     0.084 A 
HETATM   36  N6  UNL     1       3.322  -0.985  -0.553  1.00  0.00    -0.343 N 
HETATM   37  C7  UNL     1       4.601  -1.158  -0.343  1.00  0.00     0.143 A 
ATOM     38  H6  UNL     1       2.769  -0.440   0.109  1.00  0.00     0.167 HD
HETATM   39  S1  UNL     1       5.078  -2.098  -1.669  1.00  0.00    -0.064 SA
HETATM   40  C11 UNL     1       3.523  -2.221  -2.462  1.00  0.00     0.068 A 
BRANCH  37  41
HETATM   41  C8  UNL     1       5.386  -0.632   0.798  1.00  0.00     0.275 C 
HETATM   42  O3  UNL     1       6.590  -0.909   0.813  1.00  0.00    -0.265 OA
HETATM   43  N7  UNL     1       4.792   0.139   1.809  1.00  0.00    -0.353 N 
ATOM     44  H7  UNL     1       3.793   0.342   1.766  1.00  0.00     0.162 HD
BRANCH  43  45
HETATM   45  C9  UNL     1       5.574   0.648   2.906  1.00  0.00     0.149 C 
BRANCH  45  46
HETATM   46  C10 UNL     1       6.626   1.587   2.392  1.00  0.00     0.183 C 
BRANCH  46  47
HETATM   47  O4  UNL     1       5.948   2.624   1.738  1.00  0.00    -0.399 OA
ATOM     48  H4  UNL     1       6.614   3.218   1.413  1.00  0.00     0.209 HD
ENDBRANCH  46  47
ENDBRANCH  45  46
ENDBRANCH  43  45
ENDBRANCH  37  41
BRANCH  40  49
HETATM   49  C12 UNL     1       3.275  -2.909  -3.770  1.00  0.00     0.297 C 
BRANCH  49  50
HETATM   50  O5  UNL     1       2.638  -2.066  -4.628  1.00  0.00    -0.367 OA
ATOM     51  H5  UNL     1       2.481  -2.502  -5.457  1.00  0.00     0.213 HD
ENDBRANCH  49  50
BRANCH  49  52
HETATM   52  O6  UNL     1       4.482  -3.401  -4.254  1.00  0.00    -0.367 OA
ATOM     53  H6  UNL     1       4.325  -3.837  -5.083  1.00  0.00     0.213 HD
ENDBRANCH  49  52
ENDBRANCH  40  49
ENDBRANCH   6  35
TORSDOF 13
