REMARK  2 active torsions:
REMARK  status: ('A' for Active; 'I' for Inactive)
REMARK       I    between atoms: C2_5  and  N4_7 
REMARK    1  A    between atoms: N4_7  and  N5_9 
REMARK    2  A    between atoms: N5_9  and  C3_11 
ROOT
HETATM    1  N1  UNL     1       5.207  -1.164  -0.150  1.00  0.00    -0.172 NA
HETATM    2  C1  UNL     1       4.070  -1.309   0.112  1.00  0.00     0.184 C 
HETATM    3  N2  UNL     1       2.720  -1.488   0.400  1.00  0.00    -0.266 N 
ATOM      4  H2  UNL     1       2.396  -2.359   0.821  1.00  0.00     0.180 HD
HETATM    5  C2  UNL     1       1.884  -0.548   0.132  1.00  0.00     0.216 C 
HETATM    6  N3  UNL     1       2.362   0.650  -0.453  1.00  0.00    -0.061 NA
HETATM    7  N4  UNL     1       0.475  -0.711   0.422  1.00  0.00    -0.259 N 
ATOM      8  H4  UNL     1       0.117  -1.633   0.669  1.00  0.00     0.190 HD
ENDROOT
BRANCH   7   9
HETATM    9  N5  UNL     1      -0.392   0.364   0.369  1.00  0.00    -0.129 N 
ATOM     10  H5  UNL     1      -0.088   1.267   0.733  1.00  0.00     0.205 HD
BRANCH   9  11
HETATM   11  C3  UNL     1      -1.610   0.250  -0.143  1.00  0.00     0.706 A 
HETATM   12  N6  UNL     1      -2.045  -0.906  -0.627  1.00  0.00    -0.154 N 
HETATM   13  S1  UNL     1      -3.602  -0.535  -1.142  1.00  0.00     0.064 SA
ATOM     14  H6  UNL     1      -1.556  -1.800  -0.675  1.00  0.00     0.193 HD
HETATM   15  C4  UNL     1      -3.626   1.111  -0.707  1.00  0.00     0.319 A 
HETATM   16  O1  UNL     1      -4.555   1.988  -0.837  1.00  0.00    -0.258 OA
HETATM   17  N7  UNL     1      -2.412   1.294  -0.178  1.00  0.00    -0.147 N 
ATOM     18  H7  UNL     1      -2.120   2.202   0.183  1.00  0.00     0.188 HD
ENDBRANCH   9  11
ENDBRANCH   7   9
TORSDOF 2
