REMARK  1 active torsions:
REMARK  status: ('A' for Active; 'I' for Inactive)
REMARK    1  A    between atoms: N2_5  and  O2_6 
ROOT
HETATM    1  O1  UNL     1       0.576   2.726   0.513  1.00  0.00    -0.266 OA
HETATM    2  C1  UNL     1       0.874   1.522   0.276  1.00  0.00     0.272 A 
HETATM    3  N1  UNL     1       2.171   1.177   0.184  1.00  0.00    -0.240 N 
ATOM      4  H1  UNL     1       2.914   1.866   0.301  1.00  0.00     0.193 HD
HETATM    5  N2  UNL     1       2.442  -0.094  -0.065  1.00  0.00    -0.171 N 
HETATM    6  C2  UNL     1       1.478  -1.018  -0.224  1.00  0.00     0.155 A 
HETATM    7  C3  UNL     1       0.139  -0.700  -0.137  1.00  0.00    -0.001 A 
HETATM    8  C4  UNL     1      -0.873  -1.589  -0.289  1.00  0.00     0.014 A 
HETATM    9  C5  UNL     1      -2.198  -1.181  -0.185  1.00  0.00     0.001 A 
HETATM   10  C6  UNL     1      -2.528   0.138   0.076  1.00  0.00     0.001 A 
HETATM   11  C7  UNL     1      -1.485   1.022   0.225  1.00  0.00     0.018 A 
HETATM   12  C8  UNL     1      -0.163   0.626   0.124  1.00  0.00     0.045 A 
ENDROOT
BRANCH   5  13
HETATM   13  O2  UNL     1       3.754  -0.459  -0.161  1.00  0.00    -0.268 OA
ATOM     14  H2  UNL     1       3.949  -1.372  -0.340  1.00  0.00     0.247 HD
ENDBRANCH   5  13
TORSDOF 1
