REMARK  8 active torsions:
REMARK  status: ('A' for Active; 'I' for Inactive)
REMARK    1  A    between atoms: C3_5  and  N2_6 
REMARK    2  A    between atoms: N3_9  and  C4_10 
REMARK    3  A    between atoms: C6_14  and  N5_15 
REMARK    4  A    between atoms: N5_15  and  C7_17 
REMARK    5  A    between atoms: C10_22  and  N7_23 
REMARK    6  A    between atoms: N7_23  and  C11_25 
REMARK    7  A    between atoms: C11_25  and  C12_26 
REMARK    8  A    between atoms: C12_26  and  O1_27 
ROOT
HETATM    1  C4  UNL     1       2.434  -0.992  -0.665  1.00  0.00     0.191 A 
HETATM    2  N4  UNL     1       1.586  -0.046  -0.374  1.00  0.00    -0.329 N 
ATOM      3  H4  UNL     1       1.935   0.895  -0.193  1.00  0.00     0.168 HD
HETATM    4  C5  UNL     1       0.307  -0.270  -0.308  1.00  0.00     0.114 A 
HETATM    5  C6  UNL     1      -0.707   0.656  -0.006  1.00  0.00     0.147 A 
HETATM    6  N6  UNL     1      -1.981   0.259   0.020  1.00  0.00    -0.175 N 
ATOM      7  H6  UNL     1      -2.692   0.956   0.242  1.00  0.00     0.186 HD
HETATM    8  C10 UNL     1      -2.395  -1.010  -0.229  1.00  0.00     0.680 A 
HETATM    9  N8  UNL     1      -1.423  -1.892  -0.517  1.00  0.00    -0.183 N 
ATOM     10  H8  UNL     1      -1.682  -2.859  -0.712  1.00  0.00     0.185 HD
HETATM   11  C13 UNL     1      -0.121  -1.552  -0.559  1.00  0.00     0.124 A 
HETATM   12  S1  UNL     1       1.370  -2.343  -0.874  1.00  0.00    -0.031 SA
ENDROOT
BRANCH   1  13
HETATM   13  N3  UNL     1       3.862  -0.986  -0.794  1.00  0.00    -0.062 N 
HETATM   14  C3  UNL     1       4.524  -1.114  -1.955  1.00  0.00     0.700 A 
HETATM   15  N1  UNL     1       5.839  -1.061  -1.670  1.00  0.00    -0.178 N 
HETATM   16  C2  UNL     1       6.003  -0.905  -0.363  1.00  0.00     0.109 A 
ATOM     17  H1  UNL     1       6.593  -1.130  -2.354  1.00  0.00     0.185 HD
HETATM   18  C1  UNL     1       7.279  -0.800   0.370  1.00  0.00     0.091 C 
HETATM   19  N9  UNL     1       4.757  -0.860   0.168  1.00  0.00    -0.266 N 
ATOM     20  H9  UNL     1       4.544  -0.746   1.159  1.00  0.00     0.189 HD
BRANCH  14  21
HETATM   21  N2  UNL     1       4.075  -1.261  -3.151  1.00  0.00    -0.233 N 
ATOM     22  H22 UNL     1       4.578  -1.358  -4.033  1.00  0.00     0.174 HD
ATOM     23  H21 UNL     1       3.079  -1.301  -3.367  1.00  0.00     0.174 HD
ENDBRANCH  14  21
ENDBRANCH   1  13
BRANCH   5  24
HETATM   24  N5  UNL     1      -0.403   1.904   0.248  1.00  0.00    -0.369 N 
ATOM     25  H5  UNL     1       0.570   2.210   0.228  1.00  0.00     0.161 HD
BRANCH  24  26
HETATM   26  C7  UNL     1      -1.442   2.833   0.553  1.00  0.00     0.083 A 
HETATM   27  C8  UNL     1      -1.202   4.074   1.319  1.00  0.00     0.027 A 
HETATM   28  C9  UNL     1      -1.870   2.954   2.031  1.00  0.00     0.027 A 
ENDBRANCH  24  26
ENDBRANCH   5  24
BRANCH   8  29
HETATM   29  N7  UNL     1      -3.629  -1.301  -0.182  1.00  0.00    -0.224 N 
ATOM     30  H7  UNL     1      -3.910  -2.263  -0.374  1.00  0.00     0.177 HD
BRANCH  29  31
HETATM   31  C11 UNL     1      -4.650  -0.337   0.129  1.00  0.00     0.164 C 
BRANCH  31  32
HETATM   32  C12 UNL     1      -5.990  -0.992  -0.166  1.00  0.00     0.184 C 
BRANCH  32  33
HETATM   33  O1  UNL     1      -6.174  -2.133   0.602  1.00  0.00    -0.399 OA
ATOM     34  H1  UNL     1      -7.011  -2.542   0.418  1.00  0.00     0.209 HD
ENDBRANCH  32  33
ENDBRANCH  31  32
ENDBRANCH  29  31
ENDBRANCH   8  29
TORSDOF 8
