REMARK  1 active torsions:
REMARK  status: ('A' for Active; 'I' for Inactive)
REMARK       I    between atoms: C1_2  and  N2_4 
REMARK    1  A    between atoms: N2_4  and  C2_6 
ROOT
HETATM    1  C2  UNL     1       1.093  -0.093  -0.340  1.00  0.00     0.690 A 
HETATM    2  N3  UNL     1       0.791  -0.143   0.970  1.00  0.00    -0.155 N 
ATOM      3  H3  UNL     1       1.532  -0.129   1.671  1.00  0.00     0.187 HD
HETATM    4  C3  UNL     1      -0.505  -0.212   1.347  1.00  0.00     0.277 A 
HETATM    5  O2  UNL     1      -0.823  -0.260   2.563  1.00  0.00    -0.266 OA
HETATM    6  C4  UNL     1      -1.536  -0.233   0.431  1.00  0.00     0.130 A 
HETATM    7  C5  UNL     1      -2.860  -0.302   0.769  1.00  0.00     0.208 A 
HETATM    8  O3  UNL     1      -3.170  -0.350   1.995  1.00  0.00    -0.286 OA
HETATM    9  C6  UNL     1      -3.877  -0.321  -0.179  1.00  0.00     0.163 A 
HETATM   10  N4  UNL     1      -3.482  -0.268  -1.465  1.00  0.00    -0.306 N 
ATOM     11  H4  UNL     1      -4.190  -0.280  -2.200  1.00  0.00     0.186 HD
HETATM   12  N5  UNL     1      -2.201  -0.201  -1.808  1.00  0.00    -0.284 N 
ATOM     13  H5  UNL     1      -1.961  -0.163  -2.799  1.00  0.00     0.188 HD
HETATM   14  C7  UNL     1      -1.204  -0.181  -0.901  1.00  0.00     0.155 A 
HETATM   15  N6  UNL     1       0.096  -0.113  -1.241  1.00  0.00    -0.174 N 
ATOM     16  H6  UNL     1       0.337  -0.075  -2.231  1.00  0.00     0.186 HD
ENDROOT
BRANCH   1  17
HETATM   17  N2  UNL     1       2.333  -0.026  -0.755  1.00  0.00    -0.143 N 
HETATM   18  C1  UNL     1       3.417  -0.002   0.156  1.00  0.00     0.346 C 
HETATM   19  N1  UNL     1       4.209   1.181   0.297  1.00  0.00    -0.039 NA
HETATM   20  O1  UNL     1       3.728  -0.986   0.863  1.00  0.00    -0.250 OA
ATOM     21  H2  UNL     1       2.522   0.010  -1.757  1.00  0.00     0.188 HD
ENDBRANCH   1  17
TORSDOF 1
