REMARK  1 active torsions:
REMARK  status: ('A' for Active; 'I' for Inactive)
REMARK       I    between atoms: C1_2  and  N1_3 
REMARK    1  A    between atoms: C1_2  and  C4_13 
ROOT
HETATM    1  O1  UNL     1       0.310  -2.792  -0.417  1.00  0.00    -0.265 OA
HETATM    2  C1  UNL     1       0.045  -1.744   0.212  1.00  0.00     0.293 C 
HETATM    3  N1  UNL     1      -1.232  -1.539   0.722  1.00  0.00    -0.152 N 
ATOM      4  H1  UNL     1      -1.529  -2.139   1.492  1.00  0.00     0.187 HD
HETATM    5  C2  UNL     1      -2.073  -0.656   0.306  1.00  0.00     0.700 A 
HETATM    6  N2  UNL     1      -3.301  -0.492   0.830  1.00  0.00    -0.185 N 
ATOM      7  H2  UNL     1      -3.687  -1.041   1.598  1.00  0.00     0.185 HD
HETATM    8  C3  UNL     1      -3.946   0.503   0.191  1.00  0.00     0.215 A 
HETATM    9  N3  UNL     1      -3.074   0.959  -0.756  1.00  0.00    -0.281 N 
ATOM     10  H3  UNL     1      -3.248   1.715  -1.418  1.00  0.00     0.188 HD
HETATM   11  N4  UNL     1      -1.965   0.246  -0.661  1.00  0.00    -0.131 N 
ATOM     12  H4  UNL     1      -1.141   0.372  -1.249  1.00  0.00     0.205 HD
ENDROOT
BRANCH   2  13
HETATM   13  C4  UNL     1       1.098  -0.765   0.389  1.00  0.00     0.185 A 
HETATM   14  N5  UNL     1       0.808   0.361   1.067  1.00  0.00    -0.287 N 
HETATM   15  N6  UNL     1       1.757   1.242   1.226  1.00  0.00    -0.251 N 
ATOM     16  H5  UNL     1      -0.126   0.521   1.445  1.00  0.00     0.187 HD
HETATM   17  C5  UNL     1       2.988   1.035   0.730  1.00  0.00     0.341 A 
ATOM     18  H6  UNL     1       1.561   2.103   1.736  1.00  0.00     0.191 HD
HETATM   19  O2  UNL     1       3.895   1.910   0.898  1.00  0.00    -0.245 OA
HETATM   20  N7  UNL     1       3.307  -0.073   0.052  1.00  0.00    -0.272 N 
HETATM   21  C6  UNL     1       2.355  -0.997  -0.128  1.00  0.00     0.283 A 
ATOM     22  H7  UNL     1       4.248  -0.210  -0.317  1.00  0.00     0.174 HD
HETATM   23  O3  UNL     1       2.605  -2.073  -0.767  1.00  0.00    -0.265 OA
ENDBRANCH   2  13
TORSDOF 1
