REMARK  7 active torsions:
REMARK  status: ('A' for Active; 'I' for Inactive)
REMARK    1  A    between atoms: N3_7  and  C4_8 
REMARK    2  A    between atoms: C7_11  and  C8_12 
REMARK    3  A    between atoms: C8_12  and  N4_13 
REMARK    4  A    between atoms: C11_18  and  N6_19 
REMARK    5  A    between atoms: C12_24  and  N8_25 
REMARK    6  A    between atoms: C14_31  and  C15_32 
REMARK    7  A    between atoms: C15_32  and  N10_33 
ROOT
HETATM    1  C1  UNL     1      -6.220   4.589   2.448  1.00  0.00     0.021 C 
HETATM    2  C2  UNL     1      -5.634   3.596   2.077  1.00  0.00    -0.039 C 
HETATM    3  C3  UNL     1      -4.962   2.417   1.624  1.00  0.00     0.189 A 
HETATM    4  N1  UNL     1      -5.555   1.243   1.353  1.00  0.00    -0.260 N 
ATOM      5  H1  UNL     1      -6.553   1.051   1.438  1.00  0.00     0.186 HD
HETATM    6  N2  UNL     1      -4.625   0.362   0.953  1.00  0.00    -0.002 NA
HETATM    7  N3  UNL     1      -3.442   0.977   0.971  1.00  0.00    -0.211 N 
HETATM    8  N11 UNL     1      -3.646   2.219   1.376  1.00  0.00    -0.262 N 
ATOM      9  H11 UNL     1      -2.918   2.925   1.486  1.00  0.00     0.190 HD
ENDROOT
BRANCH   7  10
HETATM   10  C4  UNL     1      -2.171   0.385   0.610  1.00  0.00     0.125 C 
HETATM   11  C5  UNL     1      -1.684  -0.492   1.759  1.00  0.00     0.029 C 
HETATM   12  C6  UNL     1      -0.330  -1.083   1.445  1.00  0.00     0.009 C 
HETATM   13  C7  UNL     1      -0.084  -0.991  -0.017  1.00  0.00     0.010 C 
HETATM   14  C14 UNL     1      -1.312  -1.528  -0.725  1.00  0.00     0.018 C 
HETATM   15  C16 UNL     1      -2.385  -0.468  -0.642  1.00  0.00     0.035 C 
BRANCH  13  16
HETATM   16  C8  UNL     1       1.173  -1.698  -0.466  1.00  0.00     0.136 C 
BRANCH  16  17
HETATM   17  N4  UNL     1       2.354  -1.193   0.143  1.00  0.00    -0.327 N 
HETATM   18  C9  UNL     1       2.900  -1.623   1.289  1.00  0.00     0.185 A 
HETATM   19  N5  UNL     1       4.005  -0.896   1.527  1.00  0.00    -0.346 N 
HETATM   20  C10 UNL     1       4.183  -0.005   0.557  1.00  0.00     0.123 A 
ATOM     21  H5  UNL     1       4.618  -1.011   2.334  1.00  0.00     0.167 HD
HETATM   22  C11 UNL     1       5.162   0.960   0.350  1.00  0.00     0.145 A 
HETATM   23  C13 UNL     1       3.132  -0.189  -0.330  1.00  0.00     0.155 A 
HETATM   24  N7  UNL     1       5.026   1.701  -0.761  1.00  0.00    -0.175 N 
HETATM   25  C12 UNL     1       4.017   1.552  -1.650  1.00  0.00     0.679 A 
ATOM     26  H7  UNL     1       5.726   2.420  -0.946  1.00  0.00     0.186 HD
HETATM   27  N9  UNL     1       3.091   0.605  -1.409  1.00  0.00    -0.174 N 
ATOM     28  H9  UNL     1       2.327   0.487  -2.075  1.00  0.00     0.186 HD
BRANCH  22  29
HETATM   29  N6  UNL     1       6.134   1.118   1.187  1.00  0.00    -0.383 N 
ATOM     30  H62 UNL     1       6.237   0.555   2.031  1.00  0.00     0.157 HD
ATOM     31  H61 UNL     1       6.852   1.826   1.035  1.00  0.00     0.157 HD
ENDBRANCH  22  29
BRANCH  25  32
HETATM   32  N8  UNL     1       3.943   2.311  -2.718  1.00  0.00    -0.234 N 
ATOM     33  H82 UNL     1       4.645   3.029  -2.901  1.00  0.00     0.174 HD
ATOM     34  H81 UNL     1       3.182   2.199  -3.388  1.00  0.00     0.174 HD
ENDBRANCH  25  32
ENDBRANCH  16  17
ENDBRANCH  13  16
BRANCH  14  35
HETATM   35  C15 UNL     1      -0.954  -1.929  -2.112  1.00  0.00     0.234 C 
BRANCH  35  36
HETATM   36  N10 UNL     1      -2.127  -2.449  -2.817  1.00  0.00    -0.079 N 
ATOM     37 3H10 UNL     1      -2.569  -3.212  -2.305  1.00  0.00     0.274 HD
ATOM     38 2H10 UNL     1      -2.902  -1.786  -2.803  1.00  0.00     0.274 HD
ATOM     39 1H10 UNL     1      -1.882  -2.724  -3.768  1.00  0.00     0.274 HD
ENDBRANCH  35  36
ENDBRANCH  14  35
ENDBRANCH   7  10
TORSDOF 7
