REMARK  6 active torsions:
REMARK  status: ('A' for Active; 'I' for Inactive)
REMARK    1  A    between atoms: C5_8  and  C6_9 
REMARK    2  A    between atoms: C7_12  and  C8_13 
REMARK    3  A    between atoms: C10_19  and  N6_20 
REMARK    4  A    between atoms: C11_25  and  N8_26 
REMARK    5  A    between atoms: N8_26  and  N9_28 
REMARK    6  A    between atoms: N9_28  and  C12_30 
ROOT
HETATM    1  C6  UNL     1      -2.145   0.299   0.405  1.00  0.00     0.077 A 
HETATM    2  N3  UNL     1      -2.951   1.153   1.074  1.00  0.00    -0.336 N 
ATOM      3  H3  UNL     1      -3.906   0.851   1.268  1.00  0.00     0.168 HD
HETATM    4  C7  UNL     1      -2.588   2.350   1.494  1.00  0.00     0.172 A 
HETATM    5  N5  UNL     1      -1.310   2.751   1.235  1.00  0.00    -0.333 N 
ATOM      6  H5  UNL     1      -1.016   3.674   1.554  1.00  0.00     0.168 HD
HETATM    7  C9  UNL     1      -0.421   1.988   0.580  1.00  0.00     0.108 A 
HETATM    8  C10 UNL     1       0.875   2.396   0.339  1.00  0.00     0.144 A 
HETATM    9  N7  UNL     1       1.739   1.597  -0.301  1.00  0.00    -0.173 N 
ATOM     10  H7  UNL     1       2.695   1.907  -0.475  1.00  0.00     0.186 HD
HETATM   11  C11 UNL     1       1.334   0.386  -0.711  1.00  0.00     0.698 A 
HETATM   12  N10 UNL     1       0.050  -0.030  -0.479  1.00  0.00    -0.186 N 
ATOM     13  H10 UNL     1      -0.231  -0.956  -0.803  1.00  0.00     0.184 HD
HETATM   14  C15 UNL     1      -0.847   0.725   0.152  1.00  0.00     0.107 A 
ENDROOT
BRANCH   1  15
HETATM   15  C5  UNL     1      -2.580  -1.012  -0.040  1.00  0.00     0.034 A 
HETATM   16  C2  UNL     1      -3.035  -2.073   0.756  1.00  0.00     0.036 A 
HETATM   17  C1  UNL     1      -3.072  -1.981   2.243  1.00  0.00     0.070 C 
HETATM   18  N1  UNL     1      -3.368  -3.076  -0.059  1.00  0.00    -0.303 N 
HETATM   19  N2  UNL     1      -3.165  -2.753  -1.344  1.00  0.00    -0.307 N 
ATOM     20  H1  UNL     1      -3.731  -3.975   0.256  1.00  0.00     0.186 HD
HETATM   21  C3  UNL     1      -3.409  -3.573  -2.513  1.00  0.00     0.177 C 
HETATM   22  C4  UNL     1      -2.685  -1.493  -1.315  1.00  0.00     0.125 A 
ENDBRANCH   1  15
BRANCH   4  23
HETATM   23  C8  UNL     1      -3.468   3.283   2.225  1.00  0.00     0.298 C 
HETATM   24  N4  UNL     1      -3.056   4.567   2.589  1.00  0.00    -0.054 NA
HETATM   25  O1  UNL     1      -4.623   2.862   2.510  1.00  0.00    -0.268 OA
ENDBRANCH   4  23
BRANCH   8  26
HETATM   26  N6  UNL     1       1.229   3.574   0.753  1.00  0.00    -0.383 N 
ATOM     27  H62 UNL     1       0.571   4.182   1.240  1.00  0.00     0.157 HD
ATOM     28  H61 UNL     1       2.187   3.876   0.575  1.00  0.00     0.157 HD
ENDBRANCH   8  26
BRANCH  11  29
HETATM   29  N8  UNL     1       2.087  -0.450  -1.295  1.00  0.00    -0.136 N 
ATOM     30  H8  UNL     1       1.601  -1.315  -1.530  1.00  0.00     0.205 HD
BRANCH  29  31
HETATM   31  N9  UNL     1       3.380  -0.465  -1.679  1.00  0.00    -0.318 N 
ATOM     32  H9  UNL     1       3.547  -0.704  -2.656  1.00  0.00     0.181 HD
BRANCH  31  33
HETATM   33  C12 UNL     1       4.556  -0.189  -0.897  1.00  0.00     0.091 C 
HETATM   34  C13 UNL     1       4.526  -0.927   0.428  1.00  0.00     0.033 C 
HETATM   35  C14 UNL     1       5.793  -0.765  -1.621  1.00  0.00     0.033 C 
ENDBRANCH  31  33
ENDBRANCH  29  31
ENDBRANCH  11  29
TORSDOF 6
