REMARK  18 active torsions:
REMARK  status: ('A' for Active; 'I' for Inactive)
REMARK    1  A    between atoms: N1_1  and  C1_5 
REMARK    2  A    between atoms: C1_5  and  C2_6 
REMARK    3  A    between atoms: C2_6  and  N2_7 
REMARK    4  A    between atoms: C2_6  and  C21_48 
REMARK    5  A    between atoms: N2_7  and  C3_10 
REMARK    6  A    between atoms: C6_15  and  O3_16 
REMARK    7  A    between atoms: C7_18  and  O4_19 
REMARK    8  A    between atoms: C7_18  and  C8_21 
REMARK    9  A    between atoms: C8_21  and  O5_22 
REMARK   10  A    between atoms: C10_26  and  O7_27 
REMARK   11  A    between atoms: C10_26  and  C11_29 
REMARK   12  A    between atoms: C11_29  and  O8_30 
REMARK   13  A    between atoms: O8_30  and  C12_31 
REMARK   14  A    between atoms: C12_31  and  C13_33 
REMARK   15  A    between atoms: C14_34  and  C15_35 
REMARK   16  A    between atoms: C17_37  and  O10_38 
REMARK   17  A    between atoms: C18_40  and  O11_41 
REMARK   18  A    between atoms: C19_43  and  O12_44 
ROOT
HETATM    1  C3  UNL     1      -1.962   1.157  -0.721  1.00  0.00     0.480 C 
HETATM    2  O1  UNL     1      -2.779   0.551  -1.738  1.00  0.00    -0.264 OA
HETATM    3  C4  UNL     1      -3.351  -0.698  -1.610  1.00  0.00     0.272 C 
HETATM    4  O2  UNL     1      -3.856  -1.160  -2.650  1.00  0.00    -0.265 OA
HETATM    5  C5  UNL     1      -3.424  -1.511  -0.415  1.00  0.00     0.154 C 
HETATM    6  C6  UNL     1      -3.534  -2.990  -0.708  1.00  0.00     0.199 C 
HETATM    7  C7  UNL     1      -2.987  -3.575   0.551  1.00  0.00     0.211 C 
HETATM    8  O6  UNL     1      -2.034  -2.707   0.971  1.00  0.00    -0.339 OA
HETATM    9  C9  UNL     1      -2.309  -1.413   0.534  1.00  0.00     0.206 C 
HETATM   10  C10 UNL     1      -1.005  -0.838   0.078  1.00  0.00     0.216 C 
HETATM   11  O13 UNL     1      -0.923   0.308  -0.513  1.00  0.00    -0.297 OA
ENDROOT
BRANCH  10  12
HETATM   12  O7  UNL     1      -0.491  -1.828  -0.810  1.00  0.00    -0.362 OA
ATOM     13  H7  UNL     1       0.337  -1.463  -1.100  1.00  0.00     0.213 HD
ENDBRANCH  10  12
BRANCH  10  14
HETATM   14  C11 UNL     1      -0.085  -0.929   1.277  1.00  0.00     0.250 C 
BRANCH  14  15
HETATM   15  O8  UNL     1       1.246  -0.764   1.106  1.00  0.00    -0.313 OA
BRANCH  15  16
HETATM   16  C12 UNL     1       2.017   0.268   0.701  1.00  0.00     0.283 C 
HETATM   17  O9  UNL     1       1.465   1.349   0.402  1.00  0.00    -0.260 OA
BRANCH  16  18
HETATM   18  C13 UNL     1       3.485   0.163   0.598  1.00  0.00     0.083 C 
HETATM   19  C14 UNL     1       4.177   1.184   0.199  1.00  0.00     0.017 C 
BRANCH  19  20
HETATM   20  C15 UNL     1       5.621   1.126   0.085  1.00  0.00    -0.031 A 
HETATM   21  C16 UNL     1       6.300   2.253  -0.366  1.00  0.00     0.051 A 
HETATM   22  C17 UNL     1       7.653   2.275  -0.493  1.00  0.00     0.102 A 
HETATM   23  C18 UNL     1       8.376   1.150  -0.166  1.00  0.00     0.132 A 
HETATM   24  C19 UNL     1       7.734   0.018   0.283  1.00  0.00     0.102 A 
HETATM   25  C20 UNL     1       6.343   0.024   0.403  1.00  0.00     0.051 A 
BRANCH  22  26
HETATM   26  O10 UNL     1       8.318   3.400  -0.942  1.00  0.00    -0.358 OA
ATOM     27  H10 UNL     1       9.264   3.415  -1.031  1.00  0.00     0.217 HD
ENDBRANCH  22  26
BRANCH  23  28
HETATM   28  O11 UNL     1       9.762   1.124  -0.279  1.00  0.00    -0.356 OA
ATOM     29  H11 UNL     1      10.261   0.348  -0.053  1.00  0.00     0.218 HD
ENDBRANCH  23  28
BRANCH  24  30
HETATM   30  O12 UNL     1       8.466  -1.109   0.610  1.00  0.00    -0.358 OA
ATOM     31  H12 UNL     1       8.023  -1.890   0.920  1.00  0.00     0.217 HD
ENDBRANCH  24  30
ENDBRANCH  19  20
ENDBRANCH  16  18
ENDBRANCH  15  16
ENDBRANCH  14  15
ENDBRANCH  10  14
BRANCH   1  32
HETATM   32  N2  UNL     1      -2.711   1.529   0.419  1.00  0.00    -0.009 N 
ATOM     33  H22 UNL     1      -2.118   1.946   1.136  1.00  0.00     0.284 HD
ATOM     34  H21 UNL     1      -3.034   0.712   0.937  1.00  0.00     0.284 HD
BRANCH  32  35
HETATM   35  C2  UNL     1      -3.802   2.396   0.070  1.00  0.00     0.316 C 
BRANCH  35  36
HETATM   36  C1  UNL     1      -3.360   3.699  -0.526  1.00  0.00     0.274 C 
BRANCH  36  37
HETATM   37  N1  UNL     1      -4.552   4.496  -0.830  1.00  0.00    -0.077 N 
ATOM     38  H13 UNL     1      -5.216   3.998  -1.423  1.00  0.00     0.274 HD
ATOM     39  H12 UNL     1      -5.158   4.621  -0.019  1.00  0.00     0.274 HD
ATOM     40  H11 UNL     1      -4.251   5.382  -1.235  1.00  0.00     0.274 HD
ENDBRANCH  36  37
ENDBRANCH  35  36
BRANCH  35  41
HETATM   41  C21 UNL     1      -4.691   2.633   1.268  1.00  0.00     0.206 C 
HETATM   42  O14 UNL     1      -4.400   2.090   2.361  1.00  0.00    -0.646 OA
HETATM   43  O15 UNL     1      -5.822   3.426   1.216  1.00  0.00    -0.646 OA
ENDBRANCH  35  41
ENDBRANCH  32  35
ENDBRANCH   1  32
BRANCH   6  44
HETATM   44  O3  UNL     1      -2.767  -3.257  -1.833  1.00  0.00    -0.389 OA
ATOM     45  H3  UNL     1      -2.836  -4.186  -2.017  1.00  0.00     0.210 HD
ENDBRANCH   6  44
BRANCH   7  46
HETATM   46  O4  UNL     1      -3.981  -3.731   1.511  1.00  0.00    -0.362 OA
ATOM     47  H4  UNL     1      -3.633  -4.103   2.313  1.00  0.00     0.213 HD
ENDBRANCH   7  46
BRANCH   7  48
HETATM   48  C8  UNL     1      -2.326  -4.926   0.317  1.00  0.00     0.235 C 
BRANCH  48  49
HETATM   49  O5  UNL     1      -1.792  -5.323   1.542  1.00  0.00    -0.395 OA
ATOM     50  H5  UNL     1      -1.379  -6.166   1.396  1.00  0.00     0.209 HD
ENDBRANCH  48  49
ENDBRANCH   7  48
TORSDOF 18
