REMARK  5 active torsions:
REMARK  status: ('A' for Active; 'I' for Inactive)
REMARK    1  A    between atoms: N1_1  and  C1_4 
REMARK    2  A    between atoms: C2_7  and  C3_8 
REMARK    3  A    between atoms: C4_13  and  N5_14 
REMARK    4  A    between atoms: N5_14  and  N6_16 
REMARK    5  A    between atoms: N6_16  and  N7_18 
ROOT
HETATM    1  C1  UNL     1      -0.376  -1.548   0.412  1.00  0.00     0.692 A 
HETATM    2  N2  UNL     1      -1.549  -0.907   0.254  1.00  0.00    -0.171 N 
ATOM      3  H2  UNL     1      -2.418  -1.440   0.229  1.00  0.00     0.186 HD
HETATM    4  C2  UNL     1      -1.583   0.414   0.131  1.00  0.00     0.201 A 
HETATM    5  N4  UNL     1      -0.415   1.078   0.169  1.00  0.00    -0.169 N 
ATOM      6  H4  UNL     1      -0.429   2.093   0.074  1.00  0.00     0.186 HD
HETATM    7  C4  UNL     1       0.770   0.466   0.326  1.00  0.00     0.714 A 
HETATM    8  N8  UNL     1       0.792  -0.867   0.449  1.00  0.00    -0.021 N 
ATOM      9  H8  UNL     1       1.676  -1.361   0.569  1.00  0.00     0.203 HD
ENDROOT
BRANCH   7  10
HETATM   10  N5  UNL     1       1.829   1.201   0.349  1.00  0.00    -0.117 N 
ATOM     11  H5  UNL     1       1.728   2.211   0.249  1.00  0.00     0.207 HD
BRANCH  10  12
HETATM   12  N6  UNL     1       3.106   0.666   0.506  1.00  0.00    -0.235 N 
ATOM     13  H6  UNL     1       3.527   0.571   1.430  1.00  0.00     0.208 HD
BRANCH  12  14
HETATM   14  N7  UNL     1       3.791   0.264  -0.644  1.00  0.00    -0.330 N 
ATOM     15  H72 UNL     1       3.356   0.366  -1.561  1.00  0.00     0.178 HD
ATOM     16  H71 UNL     1       4.726  -0.128  -0.529  1.00  0.00     0.178 HD
ENDBRANCH  12  14
ENDBRANCH  10  12
ENDBRANCH   7  10
BRANCH   4  17
HETATM   17  C3  UNL     1      -2.830   1.168  -0.044  1.00  0.00     0.299 C 
HETATM   18  N3  UNL     1      -4.089   0.545  -0.095  1.00  0.00    -0.054 NA
HETATM   19  O1  UNL     1      -2.798   2.418  -0.155  1.00  0.00    -0.268 OA
ENDBRANCH   4  17
BRANCH   1  20
HETATM   20  N1  UNL     1      -0.343  -2.835   0.532  1.00  0.00    -0.234 N 
ATOM     21  H12 UNL     1      -1.224  -3.349   0.504  1.00  0.00     0.174 HD
ATOM     22  H11 UNL     1       0.546  -3.321   0.652  1.00  0.00     0.174 HD
ENDBRANCH   1  20
TORSDOF 5
