REMARK  5 active torsions:
REMARK  status: ('A' for Active; 'I' for Inactive)
REMARK    1  A    between atoms: C2_2  and  N1_3 
REMARK    2  A    between atoms: N1_3  and  C3_5 
REMARK    3  A    between atoms: C3_5  and  N2_7 
REMARK    4  A    between atoms: C7_11  and  C8_12 
REMARK    5  A    between atoms: C8_12  and  N3_13 
ROOT
HETATM    1  N2  UNL     1       0.678   0.270   0.887  1.00  0.00    -0.358 N 
HETATM    2  C4  UNL     1       0.382  -0.944   0.209  1.00  0.00     0.130 C 
HETATM    3  C5  UNL     1      -0.879  -1.429   0.907  1.00  0.00     0.007 C 
HETATM    4  C6  UNL     1      -1.574  -2.502   0.122  1.00  0.00     0.012 C 
HETATM    5  C7  UNL     1      -1.652  -0.152   1.050  1.00  0.00     0.034 C 
HETATM    6  C10 UNL     1      -0.552   0.741   1.569  1.00  0.00     0.132 C 
ENDROOT
BRANCH   1   7
HETATM    7  C3  UNL     1       1.859   1.022   0.936  1.00  0.00     0.169 C 
HETATM    8  S1  UNL     1       1.834   2.400   1.866  1.00  0.00    -0.041 SA
BRANCH   7   9
HETATM    9  N1  UNL     1       3.040   0.696   0.274  1.00  0.00    -0.367 N 
ATOM     10  H1  UNL     1       3.829   1.332   0.393  1.00  0.00     0.161 HD
BRANCH   9  11
HETATM   11  C2  UNL     1       3.246  -0.436  -0.548  1.00  0.00     0.117 C 
HETATM   12  C1  UNL     1       4.608  -0.270  -1.261  1.00  0.00     0.026 C 
ENDBRANCH   9  11
ENDBRANCH   7   9
ENDBRANCH   1   7
BRANCH   5  13
HETATM   13  C8  UNL     1      -2.183   0.376  -0.252  1.00  0.00     0.238 C 
BRANCH  13  14
HETATM   14  N3  UNL     1      -2.918   1.595  -0.109  1.00  0.00    -0.079 N 
HETATM   15  C9  UNL     1      -3.452   2.072  -1.374  1.00  0.00     0.267 C 
ATOM     16  H32 UNL     1      -3.656   1.500   0.589  1.00  0.00     0.276 HD
ATOM     17  H31 UNL     1      -2.354   2.313   0.346  1.00  0.00     0.276 HD
ENDBRANCH  13  14
ENDBRANCH   5  13
TORSDOF 5
