REMARK  3 active torsions:
REMARK  status: ('A' for Active; 'I' for Inactive)
REMARK    1  A    between atoms: C1_2  and  C2_4 
REMARK    2  A    between atoms: C2_4  and  C3_5 
REMARK       I    between atoms: C3_5  and  N2_7 
REMARK    3  A    between atoms: N2_7  and  C4_9 
ROOT
HETATM    1  C2  UNL     1      -1.357  -0.198  -0.337  1.00  0.00     0.123 C 
HETATM    2  C8  UNL     1      -1.676   0.858   0.742  1.00  0.00     0.034 C 
HETATM    3  C9  UNL     1      -2.748   1.616   0.030  1.00  0.00    -0.012 C 
HETATM    4  C10 UNL     1      -2.285   1.722  -1.431  1.00  0.00     0.011 C 
HETATM    5  C11 UNL     1      -2.371   0.202  -1.364  1.00  0.00     0.013 C 
HETATM    6  C12 UNL     1      -3.600   0.456  -0.509  1.00  0.00     0.011 C 
ENDROOT
BRANCH   1   7
HETATM    7  C1  UNL     1      -1.596  -1.552   0.159  1.00  0.00     0.249 C 
HETATM    8  N1  UNL     1      -0.957  -2.176   1.245  1.00  0.00    -0.061 NA
HETATM    9  O1  UNL     1      -2.472  -2.247  -0.449  1.00  0.00    -0.275 OA
ENDBRANCH   1   7
BRANCH   1  10
HETATM   10  C3  UNL     1       0.032  -0.057  -0.794  1.00  0.00     0.236 C 
HETATM   11  O2  UNL     1       0.284   0.205  -1.976  1.00  0.00    -0.272 OA
HETATM   12  N2  UNL     1       1.086  -0.226   0.141  1.00  0.00    -0.355 N 
ATOM     13  H2  UNL     1       0.873  -0.441   1.115  1.00  0.00     0.162 HD
BRANCH  12  14
HETATM   14  C4  UNL     1       2.465  -0.093  -0.287  1.00  0.00     0.084 C 
HETATM   15  C5  UNL     1       3.349  -1.235   0.149  1.00  0.00     0.025 C 
HETATM   16  C6  UNL     1       4.431  -0.207   0.447  1.00  0.00     0.004 C 
HETATM   17  C7  UNL     1       3.308   0.816   0.608  1.00  0.00     0.025 C 
ENDBRANCH  12  14
ENDBRANCH   1  10
TORSDOF 3
