REMARK  1 active torsions:
REMARK  status: ('A' for Active; 'I' for Inactive)
REMARK    1  A    between atoms: N1_1  and  C1_5 
ROOT
HETATM    1  C1  UNL     1       1.391   0.036  -0.286  1.00  0.00     0.184 C 
HETATM    2  C2  UNL     1       1.179  -1.345   0.147  1.00  0.00     0.044 C 
HETATM    3  C3  UNL     1      -0.191  -2.001  -0.235  1.00  0.00     0.082 C 
HETATM    4  C4  UNL     1      -1.120  -0.957  -0.095  1.00  0.00    -0.183 C 
HETATM    5  C5  UNL     1      -2.301  -0.199  -0.134  1.00  0.00     0.080 C 
HETATM    6  C6  UNL     1      -1.851   1.240   0.289  1.00  0.00     0.011 C 
HETATM    7  C7  UNL     1      -0.528   1.669  -0.185  1.00  0.00     0.003 C 
HETATM    8  C8  UNL     1       0.754   1.205   0.454  1.00  0.00     0.033 C 
ENDROOT
BRANCH   1   9
HETATM    9  N1  UNL     1       2.863   0.224  -0.195  1.00  0.00    -0.075 N 
ATOM     10  H13 UNL     1       3.257   0.008   0.721  1.00  0.00     0.274 HD
ATOM     11  H12 UNL     1       3.406  -0.465  -0.715  1.00  0.00     0.274 HD
ATOM     12  H11 UNL     1       3.011   1.187  -0.497  1.00  0.00     0.274 HD
ENDBRANCH   1   9
TORSDOF 1
