REMARK  0 active torsions:
REMARK  status: ('A' for Active; 'I' for Inactive)
ROOT
HETATM    1  N1  UNL     1       2.089   2.143   0.407  1.00  0.00    -0.389 N 
ATOM      2  H11 UNL     1       1.533   2.981   0.579  1.00  0.00     0.157 HD
ATOM      3  H12 UNL     1       3.063   2.397   0.574  1.00  0.00     0.157 HD
HETATM    4  C1  UNL     1       1.603   1.007   0.049  1.00  0.00     0.073 C 
HETATM    5  C2  UNL     1       2.411  -0.211  -0.201  1.00  0.00     0.078 C 
HETATM    6  C3  UNL     1       1.424  -1.290   0.198  1.00  0.00     0.033 C 
HETATM    7  C4  UNL     1       0.149  -0.779  -0.439  1.00  0.00     0.086 C 
HETATM    8  C5  UNL     1      -1.039  -1.428   0.176  1.00  0.00     0.025 C 
HETATM    9  C6  UNL     1      -2.115  -0.447   0.566  1.00  0.00     0.004 C 
HETATM   10  C7  UNL     1      -2.144   0.702  -0.427  1.00  0.00     0.020 C 
HETATM   11  C8  UNL     1      -0.912   1.533  -0.180  1.00  0.00     0.124 C 
HETATM   12  N2  UNL     1       0.247   0.654  -0.183  1.00  0.00    -0.366 N 
ENDROOT
TORSDOF 0
