REMARK  6 active torsions:
REMARK  status: ('A' for Active; 'I' for Inactive)
REMARK    1  A    between atoms: N1_2  and  C3_4 
REMARK    2  A    between atoms: C3_4  and  C4_5 
REMARK    3  A    between atoms: C4_5  and  N2_6 
REMARK    4  A    between atoms: N2_6  and  C5_8 
REMARK    5  A    between atoms: N4_12  and  C7_14 
REMARK    6  A    between atoms: C9_18  and  N6_19 
ROOT
HETATM    1  C5  UNL     1       0.909  -0.461   0.094  1.00  0.00     0.685 A 
HETATM    2  N3  UNL     1      -0.460  -0.557   0.078  1.00  0.00    -0.174 N 
ATOM      3  H3  UNL     1      -1.002   0.293  -0.081  1.00  0.00     0.186 HD
HETATM    4  C6  UNL     1      -1.119  -1.700   0.259  1.00  0.00     0.153 A 
HETATM    5  N4  UNL     1      -2.409  -1.780   0.242  1.00  0.00    -0.330 N 
ATOM      6  H4  UNL     1      -2.835  -2.695   0.389  1.00  0.00     0.168 HD
HETATM    7  C12 UNL     1      -0.418  -2.863   0.477  1.00  0.00     0.123 A 
HETATM    8  N7  UNL     1      -0.747  -4.163   0.693  1.00  0.00    -0.346 N 
ATOM      9  H7  UNL     1      -1.692  -4.546   0.736  1.00  0.00     0.167 HD
HETATM   10  C13 UNL     1       0.405  -4.860   0.841  1.00  0.00     0.182 A 
HETATM   11  N8  UNL     1       1.411  -3.991   0.715  1.00  0.00    -0.336 N 
ATOM     12  H8  UNL     1       2.399  -4.236   0.781  1.00  0.00     0.168 HD
HETATM   13  C14 UNL     1       0.951  -2.759   0.492  1.00  0.00     0.152 A 
HETATM   14  N9  UNL     1       1.601  -1.583   0.304  1.00  0.00    -0.174 N 
ATOM     15  H9  UNL     1       2.620  -1.556   0.323  1.00  0.00     0.186 HD
ENDROOT
BRANCH   5  16
HETATM   16  C7  UNL     1      -3.269  -0.668   0.030  1.00  0.00     0.078 C 
HETATM   17  N5  UNL     1      -3.894  -0.461  -1.071  1.00  0.00    -0.378 N 
HETATM   18  C8  UNL     1      -4.774   0.624  -1.367  1.00  0.00     0.153 C 
ATOM     19  H5  UNL     1      -3.747  -1.144  -1.814  1.00  0.00     0.160 HD
HETATM   20  C9  UNL     1      -5.207   1.436  -0.193  1.00  0.00     0.201 C 
HETATM   21  C10 UNL     1      -4.987   0.639   1.088  1.00  0.00     0.042 C 
HETATM   22  C11 UNL     1      -3.488   0.343   1.125  1.00  0.00     0.078 C 
BRANCH  20  23
HETATM   23  N6  UNL     1      -4.409   2.641  -0.133  1.00  0.00    -0.073 N 
ATOM     24  H63 UNL     1      -3.408   2.444  -0.121  1.00  0.00     0.274 HD
ATOM     25  H62 UNL     1      -4.440   3.171  -1.004  1.00  0.00     0.274 HD
ATOM     26  H61 UNL     1      -4.705   3.196   0.670  1.00  0.00     0.274 HD
ENDBRANCH  20  23
ENDBRANCH   5  16
BRANCH   1  27
HETATM   27  N2  UNL     1       1.404   0.643  -0.084  1.00  0.00    -0.203 N 
ATOM     28  H2  UNL     1       0.632   1.297  -0.214  1.00  0.00     0.183 HD
BRANCH  27  29
HETATM   29  C4  UNL     1       2.563   1.369  -0.182  1.00  0.00     0.108 C 
BRANCH  29  30
HETATM   30  C3  UNL     1       3.867   0.642  -0.144  1.00  0.00     0.316 C 
BRANCH  30  31
HETATM   31  N1  UNL     1       4.971   1.584  -0.267  1.00  0.00     0.084 N 
HETATM   32  C1  UNL     1       5.029   2.193  -1.571  1.00  0.00     0.309 C 
HETATM   33  C2  UNL     1       6.191   0.769  -0.137  1.00  0.00     0.309 C 
ENDBRANCH  30  31
ENDBRANCH  29  30
ENDBRANCH  27  29
ENDBRANCH   1  27
TORSDOF 6
