REMARK  7 active torsions:
REMARK  status: ('A' for Active; 'I' for Inactive)
REMARK    1  A    between atoms: C4_4  and  N1_5 
REMARK    2  A    between atoms: N1_5  and  C5_7 
REMARK    3  A    between atoms: C5_7  and  C6_8 
REMARK    4  A    between atoms: C6_8  and  N2_9 
REMARK    5  A    between atoms: C9_14  and  N4_15 
REMARK    6  A    between atoms: N4_15  and  C10_17 
REMARK    7  A    between atoms: C12_21  and  N6_22 
ROOT
HETATM    1  C1  UNL     1      -1.323  -2.697   1.643  1.00  0.00     0.069 C 
HETATM    2  C2  UNL     1      -0.847  -1.497   0.926  1.00  0.00     0.026 A 
HETATM    3  C3  UNL     1       0.515  -1.246   0.716  1.00  0.00     0.073 A 
HETATM    4  C4  UNL     1       0.955  -0.126   0.046  1.00  0.00     0.119 A 
HETATM    5  N3  UNL     1       0.007   0.732  -0.405  1.00  0.00    -0.177 N 
ATOM      6  H3  UNL     1       0.298   1.572  -0.905  1.00  0.00     0.186 HD
HETATM    7  C9  UNL     1      -1.304   0.509  -0.214  1.00  0.00     0.684 A 
HETATM    8  N9  UNL     1      -1.721  -0.587   0.440  1.00  0.00    -0.196 N 
ATOM      9  H9  UNL     1      -2.721  -0.737   0.573  1.00  0.00     0.184 HD
ENDROOT
BRANCH   7  10
HETATM   10  N4  UNL     1      -2.189   1.335  -0.647  1.00  0.00    -0.187 N 
ATOM     11  H4  UNL     1      -1.861   2.166  -1.140  1.00  0.00     0.184 HD
BRANCH  10  12
HETATM   12  C10 UNL     1      -3.582   1.173  -0.488  1.00  0.00     0.106 A 
HETATM   13  C11 UNL     1      -4.207   1.573   0.663  1.00  0.00     0.139 A 
HETATM   14  N5  UNL     1      -5.552   1.424   0.832  1.00  0.00    -0.200 N 
HETATM   15  C12 UNL     1      -6.281   0.875  -0.146  1.00  0.00     0.677 A 
ATOM     16  H5  UNL     1      -5.998   1.729   1.697  1.00  0.00     0.183 HD
HETATM   17  N7  UNL     1      -5.659   0.488  -1.268  1.00  0.00    -0.177 N 
HETATM   18  C13 UNL     1      -4.336   0.607  -1.497  1.00  0.00     0.160 A 
ATOM     19  H7  UNL     1      -6.230   0.072  -2.004  1.00  0.00     0.185 HD
HETATM   20  N8  UNL     1      -3.755   0.169  -2.718  1.00  0.00    -0.080 NA
BRANCH  15  21
HETATM   21  N6  UNL     1      -7.575   0.727   0.006  1.00  0.00    -0.234 N 
ATOM     22  H62 UNL     1      -8.048   1.022   0.860  1.00  0.00     0.174 HD
ATOM     23  H61 UNL     1      -8.131   0.308  -0.740  1.00  0.00     0.174 HD
ENDBRANCH  15  21
ENDBRANCH  10  12
ENDBRANCH   7  10
BRANCH   4  24
HETATM   24  N1  UNL     1       2.213   0.089  -0.142  1.00  0.00    -0.371 N 
ATOM     25  H1  UNL     1       2.506   0.929  -0.642  1.00  0.00     0.161 HD
BRANCH  24  26
HETATM   26  C5  UNL     1       3.211  -0.826   0.336  1.00  0.00     0.165 C 
BRANCH  26  27
HETATM   27  C6  UNL     1       4.556  -0.620  -0.302  1.00  0.00     0.076 C 
BRANCH  27  28
HETATM   28  N2  UNL     1       5.157   0.622  -0.138  1.00  0.00    -0.400 N 
HETATM   29  C7  UNL     1       5.610   1.017   1.136  1.00  0.00     0.148 C 
HETATM   30  C8  UNL     1       5.723   1.280  -1.253  1.00  0.00     0.148 C 
ENDBRANCH  27  28
ENDBRANCH  26  27
ENDBRANCH  24  26
ENDBRANCH   4  24
TORSDOF 7
