REMARK  5 active torsions:
REMARK  status: ('A' for Active; 'I' for Inactive)
REMARK    1  A    between atoms: C2_2  and  N1_3 
REMARK    2  A    between atoms: N1_3  and  C3_5 
REMARK    3  A    between atoms: N4_14  and  N5_15 
REMARK    4  A    between atoms: N5_15  and  C6_17 
REMARK    5  A    between atoms: C6_17  and  C7_20 
ROOT
HETATM    1  C3  UNL     1       0.650   0.691  -0.047  1.00  0.00     0.707 A 
HETATM    2  N2  UNL     1       1.329   1.844  -0.109  1.00  0.00    -0.139 N 
ATOM      3  H2  UNL     1       2.344   1.817  -0.202  1.00  0.00     0.189 HD
HETATM    4  C4  UNL     1       0.718   3.021  -0.053  1.00  0.00     0.342 A 
HETATM    5  O1  UNL     1       1.408   4.078  -0.115  1.00  0.00    -0.246 OA
HETATM    6  N3  UNL     1      -0.604   3.035   0.068  1.00  0.00    -0.258 N 
ATOM      7  H3  UNL     1      -1.100   3.925   0.114  1.00  0.00     0.175 HD
HETATM    8  C5  UNL     1      -1.308   1.857   0.131  1.00  0.00     0.364 A 
HETATM    9  O2  UNL     1      -2.541   2.030   0.243  1.00  0.00    -0.244 OA
HETATM   10  N4  UNL     1      -0.720   0.677   0.078  1.00  0.00    -0.033 N 
ENDROOT
BRANCH  10  11
HETATM   11  N5  UNL     1      -1.397  -0.511   0.133  1.00  0.00    -0.269 N 
ATOM     12  H5  UNL     1      -0.793  -1.329   0.055  1.00  0.00     0.185 HD
BRANCH  11  13
HETATM   13  C6  UNL     1      -2.768  -0.830   0.277  1.00  0.00     0.250 C 
HETATM   14 CL1  UNL     1      -3.503  -0.303   1.813  1.00  0.00    -0.072 Cl
HETATM   15 CL2  UNL     1      -3.772  -0.346  -1.137  1.00  0.00    -0.072 Cl
BRANCH  13  16
HETATM   16  C7  UNL     1      -2.957  -2.374   0.304  1.00  0.00     0.243 C 
HETATM   17 CL3  UNL     1      -2.345  -3.044  -1.222  1.00  0.00    -0.078 Cl
HETATM   18 CL4  UNL     1      -2.134  -3.083   1.685  1.00  0.00    -0.078 Cl
HETATM   19 CL5  UNL     1      -4.721  -2.649   0.413  1.00  0.00    -0.078 Cl
ENDBRANCH  13  16
ENDBRANCH  11  13
ENDBRANCH  10  11
BRANCH   1  20
HETATM   20  N1  UNL     1       1.302  -0.413  -0.106  1.00  0.00    -0.224 N 
ATOM     21  H1  UNL     1       0.811  -1.306  -0.061  1.00  0.00     0.177 HD
BRANCH  20  22
HETATM   22  C2  UNL     1       2.739  -0.376  -0.237  1.00  0.00     0.134 C 
HETATM   23  C1  UNL     1       3.332  -1.761  -0.373  1.00  0.00     0.027 C 
ENDBRANCH  20  22
ENDBRANCH   1  20
TORSDOF 5
