REMARK  5 active torsions:
REMARK  status: ('A' for Active; 'I' for Inactive)
REMARK    1  A    between atoms: C2_2  and  N1_5 
REMARK    2  A    between atoms: C5_8  and  C6_9 
REMARK       I    between atoms: C6_9  and  N2_11 
REMARK    3  A    between atoms: N2_11  and  N3_13 
REMARK       I    between atoms: N3_13  and  C7_15 
REMARK       I    between atoms: C7_15  and  N4_17 
REMARK    4  A    between atoms: N4_17  and  N5_18 
REMARK       I    between atoms: N5_18  and  C8_20 
REMARK    5  A    between atoms: C8_20  and  C9_22 
ROOT
HETATM    1  C6  UNL     1      -0.697  -0.114  -0.237  1.00  0.00     0.288 C 
HETATM    2  O1  UNL     1      -0.204   1.012   0.071  1.00  0.00    -0.264 OA
HETATM    3  N2  UNL     1       0.186  -1.146  -0.619  1.00  0.00    -0.260 N 
ATOM      4  H2  UNL     1      -0.161  -2.069  -0.879  1.00  0.00     0.190 HD
ENDROOT
BRANCH   3   5
HETATM    5  N3  UNL     1       1.544  -0.860  -0.629  1.00  0.00    -0.235 N 
HETATM    6  C7  UNL     1       2.512  -1.513   0.269  1.00  0.00     0.431 C 
HETATM    7  O2  UNL     1       1.969  -2.360   1.002  1.00  0.00    -0.227 OA
HETATM    8  N4  UNL     1       3.813  -1.114   0.179  1.00  0.00    -0.261 NA
ATOM      9  H3  UNL     1       1.888  -0.164  -1.290  1.00  0.00     0.193 HD
BRANCH   8  10
HETATM   10  N5  UNL     1       5.103  -0.775   0.147  1.00  0.00    -0.195 N 
HETATM   11  C8  UNL     1       5.541   0.601   0.252  1.00  0.00     0.279 C 
HETATM   12  O3  UNL     1       4.671   1.483   0.390  1.00  0.00    -0.268 OA
ATOM     13  H5  UNL     1       5.804  -1.509   0.045  1.00  0.00     0.205 HD
BRANCH  11  14
HETATM   14  C9  UNL     1       6.947   1.036   0.209  1.00  0.00     0.272 C 
HETATM   15 CL1  UNL     1       7.034   2.804  -0.149  1.00  0.00    -0.098 Cl
HETATM   16 CL2  UNL     1       7.636   0.737   1.851  1.00  0.00    -0.098 Cl
ENDBRANCH  11  14
ENDBRANCH   8  10
ENDBRANCH   3   5
BRANCH   1  17
HETATM   17  C5  UNL     1      -2.125  -0.287  -0.182  1.00  0.00     0.119 A 
HETATM   18  C4  UNL     1      -2.901  -1.400  -0.447  1.00  0.00     0.056 A 
HETATM   19  C3  UNL     1      -4.222  -0.966  -0.222  1.00  0.00     0.119 A 
HETATM   20  N1  UNL     1      -4.219   0.323   0.151  1.00  0.00    -0.236 N 
HETATM   21  N6  UNL     1      -2.961   0.694   0.163  1.00  0.00    -0.289 N 
ATOM     22  H6  UNL     1      -2.654   1.635   0.410  1.00  0.00     0.187 HD
BRANCH  20  23
HETATM   23  C2  UNL     1      -5.357   1.157   0.473  1.00  0.00     0.336 C 
HETATM   24  C1  UNL     1      -6.106   1.604  -0.735  1.00  0.00     0.119 C 
HETATM   25  F1  UNL     1      -6.116   0.516   1.410  1.00  0.00    -0.181 F 
HETATM   26  F2  UNL     1      -4.836   2.316   1.097  1.00  0.00    -0.181 F 
ENDBRANCH  20  23
ENDBRANCH   1  17
TORSDOF 5
