REMARK  7 active torsions:
REMARK  status: ('A' for Active; 'I' for Inactive)
REMARK    1  A    between atoms: C3_3  and  C4_4 
REMARK    2  A    between atoms: C4_4  and  N1_5 
REMARK    3  A    between atoms: N1_5  and  C5_7 
REMARK    4  A    between atoms: C7_14  and  N4_15 
REMARK    5  A    between atoms: N4_15  and  C8_17 
REMARK    6  A    between atoms: C8_17  and  C9_18 
REMARK    7  A    between atoms: C9_18  and  C10_19 
ROOT
HETATM    1  C1  UNL     1       4.898   1.369   1.389  1.00  0.00     0.012 C 
HETATM    2  C2  UNL     1       5.400   0.464   0.771  1.00  0.00    -0.116 C 
HETATM    3  C3  UNL     1       6.027  -0.627   0.042  1.00  0.00     0.113 C 
ENDROOT
BRANCH   3   4
HETATM    4  C4  UNL     1       5.190  -1.099  -1.147  1.00  0.00     0.150 C 
BRANCH   4   5
HETATM    5  N1  UNL     1       3.901  -1.574  -0.764  1.00  0.00    -0.225 N 
ATOM      6  H1  UNL     1       3.864  -2.489  -0.314  1.00  0.00     0.177 HD
BRANCH   5   7
HETATM    7  C5  UNL     1       2.792  -0.972  -0.927  1.00  0.00     0.696 A 
HETATM    8  N2  UNL     1       2.736   0.234  -1.508  1.00  0.00    -0.140 N 
HETATM    9  C6  UNL     1       1.563   0.888  -1.691  1.00  0.00     0.352 A 
ATOM     10  H2  UNL     1       3.602   0.673  -1.822  1.00  0.00     0.189 HD
HETATM   11  O1  UNL     1       1.590   2.020  -2.246  1.00  0.00    -0.246 OA
HETATM   12  N3  UNL     1       0.440   0.304  -1.277  1.00  0.00    -0.140 N 
HETATM   13  C7  UNL     1       0.440  -0.888  -0.697  1.00  0.00     0.696 A 
ATOM     14  H3  UNL     1      -0.447   0.789  -1.410  1.00  0.00     0.189 HD
HETATM   15  N5  UNL     1       1.615  -1.518  -0.526  1.00  0.00    -0.022 N 
ATOM     16  H5  UNL     1       1.623  -2.436  -0.081  1.00  0.00     0.203 HD
BRANCH  13  17
HETATM   17  N4  UNL     1      -0.621  -1.489  -0.282  1.00  0.00    -0.225 N 
ATOM     18  H4  UNL     1      -0.507  -2.405   0.151  1.00  0.00     0.177 HD
BRANCH  17  19
HETATM   19  C8  UNL     1      -1.953  -0.962  -0.385  1.00  0.00     0.142 C 
BRANCH  19  20
HETATM   20  C9  UNL     1      -2.254  -0.174   0.898  1.00  0.00     0.058 C 
BRANCH  20  21
HETATM   21  C10 UNL     1      -3.637   0.346   0.737  1.00  0.00    -0.057 A 
HETATM   22  C11 UNL     1      -4.668  -0.451   1.190  1.00  0.00     0.007 A 
HETATM   23  C12 UNL     1      -5.973  -0.007   1.061  1.00  0.00     0.001 A 
HETATM   24  C13 UNL     1      -6.248   1.215   0.489  1.00  0.00     0.000 A 
HETATM   25  C14 UNL     1      -5.188   1.972   0.053  1.00  0.00     0.001 A 
HETATM   26  C15 UNL     1      -3.870   1.576   0.158  1.00  0.00     0.007 A 
ENDBRANCH  20  21
ENDBRANCH  19  20
ENDBRANCH  17  19
ENDBRANCH  13  17
ENDBRANCH   5   7
ENDBRANCH   4   5
ENDBRANCH   3   4
TORSDOF 7
