REMARK  7 active torsions:
REMARK  status: ('A' for Active; 'I' for Inactive)
REMARK    1  A    between atoms: C4_4  and  N1_5 
REMARK    2  A    between atoms: N1_5  and  C5_7 
REMARK    3  A    between atoms: C5_7  and  C6_8 
REMARK    4  A    between atoms: C6_8  and  C7_9 
REMARK    5  A    between atoms: C7_9  and  N2_10 
REMARK    6  A    between atoms: N6_17  and  C9_18 
REMARK    7  A    between atoms: C9_18  and  C10_19 
ROOT
HETATM    1  C1  UNL     1      -2.664   2.669  -0.433  1.00  0.00     0.070 C 
HETATM    2  C2  UNL     1      -1.842   1.511  -0.003  1.00  0.00     0.028 A 
HETATM    3  C3  UNL     1      -0.481   1.396  -0.266  1.00  0.00     0.075 A 
HETATM    4  C4  UNL     1      -0.100   0.198   0.293  1.00  0.00     0.117 A 
HETATM    5  N5  UNL     1      -1.198  -0.334   0.844  1.00  0.00    -0.283 N 
ATOM      6  H5  UNL     1      -1.217  -1.229   1.333  1.00  0.00     0.189 HD
HETATM    7  N6  UNL     1      -2.257   0.443   0.676  1.00  0.00    -0.291 N 
ENDROOT
BRANCH   4   8
HETATM    8  N1  UNL     1       1.105  -0.275   0.261  1.00  0.00    -0.375 N 
ATOM      9  H1  UNL     1       1.280  -1.175   0.707  1.00  0.00     0.161 HD
BRANCH   8  10
HETATM   10  C5  UNL     1       2.203   0.392  -0.363  1.00  0.00     0.123 C 
BRANCH  10  11
HETATM   11  C6  UNL     1       3.482   0.259   0.462  1.00  0.00     0.039 C 
BRANCH  11  12
HETATM   12  C7  UNL     1       4.632   0.961  -0.199  1.00  0.00     0.123 C 
BRANCH  12  13
HETATM   13  N2  UNL     1       5.804   0.796   0.630  1.00  0.00    -0.367 N 
HETATM   14  C8  UNL     1       6.597  -0.178   0.415  1.00  0.00     0.196 C 
HETATM   15  N3  UNL     1       6.332  -1.089  -0.625  1.00  0.00    -0.067 NA
HETATM   16  N4  UNL     1       7.756  -0.366   1.213  1.00  0.00    -0.067 NA
ATOM     17  H2  UNL     1       5.996   1.456   1.384  1.00  0.00     0.161 HD
ENDBRANCH  12  13
ENDBRANCH  11  12
ENDBRANCH  10  11
ENDBRANCH   8  10
ENDBRANCH   4   8
BRANCH   7  18
HETATM   18  C9  UNL     1      -3.589   0.136   1.158  1.00  0.00     0.187 C 
BRANCH  18  19
HETATM   19  C10 UNL     1      -4.391  -0.634   0.174  1.00  0.00    -0.038 A 
HETATM   20  C11 UNL     1      -4.336  -2.012   0.150  1.00  0.00     0.009 A 
HETATM   21  C12 UNL     1      -5.060  -2.782  -0.740  1.00  0.00     0.001 A 
HETATM   22  C13 UNL     1      -5.880  -2.150  -1.654  1.00  0.00     0.000 A 
HETATM   23  C14 UNL     1      -5.956  -0.788  -1.655  1.00  0.00     0.001 A 
HETATM   24  C15 UNL     1      -5.217  -0.029  -0.749  1.00  0.00     0.009 A 
ENDBRANCH  18  19
ENDBRANCH   7  18
TORSDOF 7
