REMARK  10 active torsions:
REMARK  status: ('A' for Active; 'I' for Inactive)
REMARK    1  A    between atoms: C2_2  and  O2_4 
REMARK    2  A    between atoms: O2_4  and  C3_5 
REMARK    3  A    between atoms: C8_10  and  O3_11 
REMARK    4  A    between atoms: C11_15  and  C12_16 
REMARK    5  A    between atoms: N1_17  and  O4_19 
REMARK    6  A    between atoms: C17_26  and  C18_27 
REMARK    7  A    between atoms: C19_28  and  C20_29 
REMARK    8  A    between atoms: C20_29  and  O6_30 
REMARK    9  A    between atoms: C20_29  and  C21_32 
REMARK   10  A    between atoms: C21_32  and  C23_34 
ROOT
HETATM    1  C3  UNL     1       0.624   0.414   0.999  1.00  0.00     0.140 C 
HETATM    2  C4  UNL     1      -0.703   1.129   0.867  1.00  0.00     0.039 C 
HETATM    3  C5  UNL     1      -1.689   0.254   0.182  1.00  0.00     0.011 C 
HETATM    4  C6  UNL     1      -1.699  -1.170   0.714  1.00  0.00     0.063 C 
HETATM    5  C7  UNL     1      -3.091  -1.617   0.245  1.00  0.00     0.051 C 
HETATM    6  C8  UNL     1      -3.908  -0.462   0.801  1.00  0.00     0.067 C 
HETATM    7  C9  UNL     1      -5.270  -0.368   0.201  1.00  0.00     0.039 C 
HETATM    8  C10 UNL     1      -5.037   0.299  -1.112  1.00  0.00     0.013 C 
HETATM    9  C11 UNL     1      -3.703   0.982  -1.054  1.00  0.00     0.037 C 
HETATM   10  C13 UNL     1      -3.112   0.724   0.299  1.00  0.00    -0.000 C 
HETATM   11  C14 UNL     1      -3.258   1.907   1.229  1.00  0.00     0.019 C 
HETATM   12  C15 UNL     1      -0.631  -1.945   0.057  1.00  0.00     0.132 C 
HETATM   13  O5  UNL     1      -0.947  -3.124  -0.123  1.00  0.00    -0.298 OA
HETATM   14  C16 UNL     1       0.719  -1.644  -0.433  1.00  0.00     0.089 C 
HETATM   15  C17 UNL     1       1.082  -0.183  -0.322  1.00  0.00     0.044 C 
ENDROOT
BRANCH  15  16
HETATM   16  C18 UNL     1       2.546   0.018  -0.477  1.00  0.00    -0.021 C 
HETATM   17  C19 UNL     1       3.086   0.757  -1.427  1.00  0.00     0.002 C 
BRANCH  17  18
HETATM   18  C20 UNL     1       4.517   0.993  -1.633  1.00  0.00     0.154 C 
BRANCH  18  19
HETATM   19  O6  UNL     1       4.804   0.928  -3.001  1.00  0.00    -0.391 OA
ATOM     20  H6  UNL     1       5.732   1.081  -3.135  1.00  0.00     0.210 HD
ENDBRANCH  18  19
BRANCH  18  21
HETATM   21  C21 UNL     1       5.370  -0.032  -0.935  1.00  0.00     0.115 C 
HETATM   22  C22 UNL     1       5.056  -1.421  -1.452  1.00  0.00     0.024 C 
BRANCH  21  23
HETATM   23  C23 UNL     1       6.813   0.280  -1.115  1.00  0.00     0.179 C 
HETATM   24  O7  UNL     1       7.131   1.289  -1.780  1.00  0.00    -0.648 OA
HETATM   25  O8  UNL     1       7.778  -0.529  -0.559  1.00  0.00    -0.648 OA
ENDBRANCH  21  23
ENDBRANCH  18  21
ENDBRANCH  17  18
ENDBRANCH  15  16
BRANCH   1  26
HETATM   26  O2  UNL     1       0.637  -0.526   2.033  1.00  0.00    -0.316 OA
BRANCH  26  27
HETATM   27  C2  UNL     1       1.419  -0.486   3.153  1.00  0.00     0.255 C 
HETATM   28  C1  UNL     1       1.294  -1.579   4.149  1.00  0.00     0.126 C 
HETATM   29  O1  UNL     1       2.212   0.485   3.287  1.00  0.00    -0.266 OA
ENDBRANCH  26  27
ENDBRANCH   1  26
BRANCH   6  30
HETATM   30  O3  UNL     1      -3.917  -0.533   2.187  1.00  0.00    -0.389 OA
ATOM     31  H3  UNL     1      -4.428   0.189   2.534  1.00  0.00     0.210 HD
ENDBRANCH   6  30
BRANCH   9  32
HETATM   32  C12 UNL     1      -3.741   2.399  -1.385  1.00  0.00     0.092 C 
HETATM   33  N1  UNL     1      -3.904   2.780  -2.597  1.00  0.00    -0.284 N 
ATOM     34  H1  UNL     1      -3.924   3.783  -2.783  1.00  0.00     0.192 HD
BRANCH  33  35
HETATM   35  O4  UNL     1      -4.053   1.933  -3.655  1.00  0.00    -0.291 OA
ATOM     36  H4  UNL     1      -4.174   2.216  -4.554  1.00  0.00     0.244 HD
ENDBRANCH  33  35
ENDBRANCH   9  32
TORSDOF 10
