REMARK  15 active torsions:
REMARK  status: ('A' for Active; 'I' for Inactive)
REMARK    1  A    between atoms: C5_6  and  C6_7 
REMARK    2  A    between atoms: C7_8  and  C8_9 
REMARK    3  A    between atoms: C8_9  and  C10_11 
REMARK    4  A    between atoms: C8_9  and  C14_24 
REMARK    5  A    between atoms: C11_12  and  C12_13 
REMARK    6  A    between atoms: C12_13  and  C13_14 
REMARK    7  A    between atoms: C13_14  and  N2_15 
REMARK    8  A    between atoms: N2_15  and  O1_17 
REMARK    9  A    between atoms: N3_19  and  N4_21 
REMARK   10  A    between atoms: C14_24  and  C15_25 
REMARK   11  A    between atoms: C15_25  and  C16_26 
REMARK   12  A    between atoms: C16_26  and  N5_27 
REMARK       I    between atoms: N5_27  and  C17_29 
REMARK       I    between atoms: N7_31  and  C18_33 
REMARK   13  A    between atoms: N9_35  and  C19_37 
REMARK   14  A    between atoms: C19_37  and  C20_38 
REMARK   15  A    between atoms: C20_38  and  N10_39 
ROOT
HETATM    1  C8  UNL     1      -2.331  -0.319   0.201  1.00  0.00    -0.009 C 
HETATM    2  C9  UNL     1      -2.015   0.377  -1.066  1.00  0.00     0.024 C 
ENDROOT
BRANCH   1   3
HETATM    3  C7  UNL     1      -2.988   0.479   1.260  1.00  0.00    -0.013 C 
HETATM    4  C6  UNL     1      -3.829   1.418   1.376  1.00  0.00     0.010 C 
BRANCH   4   5
HETATM    5  C5  UNL     1      -4.670   2.300   0.648  1.00  0.00    -0.021 A 
HETATM    6  C4  UNL     1      -4.980   2.177  -0.662  1.00  0.00     0.014 A 
HETATM    7  C3  UNL     1      -5.756   3.150  -1.323  1.00  0.00     0.018 A 
HETATM    8  C2  UNL     1      -6.187   4.217  -0.614  1.00  0.00     0.090 A 
HETATM    9  N1  UNL     1      -5.910   4.385   0.686  1.00  0.00    -0.370 N 
HETATM   10  C1  UNL     1      -6.394   5.567   1.396  1.00  0.00     0.154 C 
HETATM   11  C24 UNL     1      -5.173   3.446   1.284  1.00  0.00     0.101 A 
ENDBRANCH   4   5
ENDBRANCH   1   3
BRANCH   1  12
HETATM   12  C10 UNL     1      -3.076  -1.607  -0.022  1.00  0.00    -0.011 C 
HETATM   13  C11 UNL     1      -4.121  -1.769  -0.758  1.00  0.00     0.029 C 
BRANCH  13  14
HETATM   14  C12 UNL     1      -4.852  -3.048  -0.973  1.00  0.00     0.064 C 
HETATM   15  N3  UNL     1      -5.860  -2.949  -1.693  1.00  0.00    -0.306 N 
ATOM     16  H3  UNL     1      -5.868  -1.956  -1.927  1.00  0.00     0.186 HD
BRANCH  14  17
HETATM   17  C13 UNL     1      -4.347  -4.200  -0.356  1.00  0.00     0.144 C 
BRANCH  17  18
HETATM   18  N2  UNL     1      -4.824  -5.382  -0.373  1.00  0.00    -0.278 N 
ATOM     19  H2  UNL     1      -4.331  -6.117   0.133  1.00  0.00     0.193 HD
BRANCH  18  20
HETATM   20  O1  UNL     1      -5.967  -5.700  -1.041  1.00  0.00    -0.290 OA
ATOM     21  H1  UNL     1      -6.322  -6.581  -1.054  1.00  0.00     0.244 HD
ENDBRANCH  18  20
ENDBRANCH  17  18
ENDBRANCH  14  17
BRANCH  15  22
HETATM   22  N4  UNL     1      -6.860  -3.373  -2.287  1.00  0.00    -0.345 N 
ATOM     23  H42 UNL     1      -6.814  -4.359  -2.028  1.00  0.00     0.176 HD
ATOM     24  H41 UNL     1      -7.687  -3.292  -2.878  1.00  0.00     0.176 HD
ENDBRANCH  15  22
ENDBRANCH  13  14
ENDBRANCH   1  12
BRANCH   1  25
HETATM   25  C14 UNL     1      -0.982  -0.747   0.841  1.00  0.00     0.019 C 
BRANCH  25  26
HETATM   26  C15 UNL     1      -0.095  -1.566  -0.011  1.00  0.00     0.021 C 
BRANCH  26  27
HETATM   27  C16 UNL     1       1.122  -1.966   0.839  1.00  0.00     0.122 C 
BRANCH  27  28
HETATM   28  N5  UNL     1       2.036  -2.726   0.062  1.00  0.00    -0.364 N 
HETATM   29  C17 UNL     1       2.816  -2.144  -0.955  1.00  0.00     0.190 C 
HETATM   30  N6  UNL     1       2.331  -1.869  -2.254  1.00  0.00    -0.063 NA
HETATM   31  N7  UNL     1       4.066  -1.847  -0.676  1.00  0.00    -0.305 N 
HETATM   32  C18 UNL     1       4.627  -2.095   0.590  1.00  0.00     0.190 C 
ATOM     33  H7  UNL     1       4.647  -1.424  -1.400  1.00  0.00     0.171 HD
HETATM   34  N8  UNL     1       4.534  -3.392   1.172  1.00  0.00    -0.063 NA
HETATM   35  N9  UNL     1       5.231  -1.200   1.261  1.00  0.00    -0.363 N 
ATOM     36  H9  UNL     1       5.609  -1.461   2.172  1.00  0.00     0.162 HD
ATOM     37  H5  UNL     1       2.130  -3.725   0.247  1.00  0.00     0.162 HD
BRANCH  35  38
HETATM   38  C19 UNL     1       5.418   0.175   0.814  1.00  0.00     0.150 C 
BRANCH  38  39
HETATM   39  C20 UNL     1       6.866   0.391   0.540  1.00  0.00     0.255 C 
BRANCH  39  40
HETATM   40  N10 UNL     1       7.227   1.702   0.075  1.00  0.00    -0.077 N 
HETATM   41  C21 UNL     1       6.417   2.157  -1.018  1.00  0.00     0.271 C 
HETATM   42  C22 UNL     1       7.221   2.686   1.118  1.00  0.00     0.271 C 
HETATM   43  C23 UNL     1       8.609   1.598  -0.409  1.00  0.00     0.271 C 
ENDBRANCH  39  40
ENDBRANCH  38  39
ENDBRANCH  35  38
ENDBRANCH  27  28
ENDBRANCH  26  27
ENDBRANCH  25  26
ENDBRANCH   1  25
TORSDOF 15
