REMARK  11 active torsions:
REMARK  status: ('A' for Active; 'I' for Inactive)
REMARK    1  A    between atoms: N1_5  and  C5_6 
REMARK    2  A    between atoms: C5_6  and  C6_7 
REMARK    3  A    between atoms: C6_7  and  C7_8 
REMARK    4  A    between atoms: C7_8  and  C8_9 
REMARK    5  A    between atoms: N2_12  and  C11_13 
REMARK    6  A    between atoms: C11_13  and  C12_14 
REMARK    7  A    between atoms: C12_14  and  C13_15 
REMARK    8  A    between atoms: C13_15  and  C14_16 
REMARK    9  A    between atoms: C14_16  and  C15_17 
REMARK   10  A    between atoms: C15_17  and  C16_18 
REMARK   11  A    between atoms: N6_30  and  N7_31 
ROOT
HETATM    1  C14 UNL     1      -2.391  -1.356  -0.870  1.00  0.00     0.008 C 
ENDROOT
BRANCH   1   2
HETATM    2  C13 UNL     1      -1.239  -2.141  -0.331  1.00  0.00     0.002 C 
BRANCH   2   3
HETATM    3  C12 UNL     1      -1.488  -2.839   0.962  1.00  0.00     0.020 C 
BRANCH   3   4
HETATM    4  C11 UNL     1      -0.308  -3.620   1.460  1.00  0.00     0.128 C 
BRANCH   4   5
HETATM    5  N2  UNL     1       0.873  -2.860   1.701  1.00  0.00    -0.366 N 
HETATM    6  C10 UNL     1       1.764  -2.690   0.723  1.00  0.00     0.091 A 
HETATM    7  C9  UNL     1       2.924  -1.967   0.890  1.00  0.00     0.024 A 
HETATM    8  C8  UNL     1       3.198  -1.391   2.091  1.00  0.00    -0.056 A 
HETATM    9  C23 UNL     1       2.263  -1.568   3.122  1.00  0.00     0.024 A 
HETATM   10  C22 UNL     1       1.130  -2.299   2.887  1.00  0.00     0.091 A 
BRANCH   8  11
HETATM   11  C7  UNL     1       4.415  -0.570   2.365  1.00  0.00     0.040 C 
BRANCH  11  12
HETATM   12  C6  UNL     1       4.259   0.880   2.322  1.00  0.00     0.025 C 
BRANCH  12  13
HETATM   13  C5  UNL     1       3.917   1.626   1.108  1.00  0.00     0.128 C 
BRANCH  13  14
HETATM   14  N1  UNL     1       4.914   1.580   0.071  1.00  0.00    -0.366 N 
HETATM   15  C4  UNL     1       5.932   2.500   0.136  1.00  0.00     0.091 A 
HETATM   16  C3  UNL     1       6.925   2.584  -0.808  1.00  0.00     0.024 A 
HETATM   17  C2  UNL     1       6.947   1.732  -1.889  1.00  0.00    -0.059 A 
HETATM   18  C1  UNL     1       8.017   1.816  -2.914  1.00  0.00     0.048 C 
HETATM   19  C25 UNL     1       5.930   0.806  -1.965  1.00  0.00     0.024 A 
HETATM   20  C24 UNL     1       4.945   0.763  -0.978  1.00  0.00     0.091 A 
ENDBRANCH  13  14
ENDBRANCH  12  13
ENDBRANCH  11  12
ENDBRANCH   8  11
ENDBRANCH   4   5
ENDBRANCH   3   4
ENDBRANCH   2   3
ENDBRANCH   1   2
BRANCH   1  21
HETATM   21  C15 UNL     1      -2.840  -0.270   0.054  1.00  0.00     0.079 C 
BRANCH  21  22
HETATM   22  C16 UNL     1      -3.977   0.508  -0.484  1.00  0.00     0.124 A 
HETATM   23  N3  UNL     1      -5.277   0.223  -0.293  1.00  0.00    -0.128 N 
HETATM   24  C17 UNL     1      -5.773  -0.822   0.421  1.00  0.00     0.211 C 
HETATM   25  C20 UNL     1      -6.055   1.223  -0.982  1.00  0.00     0.730 A 
HETATM   26  N4  UNL     1      -7.012  -1.341   0.434  1.00  0.00    -0.314 N 
HETATM   27  C18 UNL     1      -8.153  -0.752  -0.029  1.00  0.00     0.315 C 
ATOM     28  H4  UNL     1      -7.111  -2.275   0.832  1.00  0.00     0.170 HD
HETATM   29  O1  UNL     1      -9.186  -1.460   0.172  1.00  0.00    -0.262 OA
HETATM   30  C19 UNL     1      -8.334   0.453  -0.657  1.00  0.00     0.328 C 
HETATM   31  O2  UNL     1      -9.521   0.767  -0.878  1.00  0.00    -0.261 OA
HETATM   32  N5  UNL     1      -7.407   1.328  -1.059  1.00  0.00    -0.148 N 
ATOM     33  H5  UNL     1      -7.761   2.187  -1.479  1.00  0.00     0.188 HD
HETATM   34  N6  UNL     1      -5.153   2.039  -1.539  1.00  0.00    -0.023 N 
HETATM   35  N8  UNL     1      -3.925   1.601  -1.234  1.00  0.00    -0.248 N 
HETATM   36  C21 UNL     1      -2.721   2.250  -1.675  1.00  0.00     0.182 C 
BRANCH  34  37
HETATM   37  N7  UNL     1      -5.467   3.163  -2.311  1.00  0.00    -0.309 N 
ATOM     38  H72 UNL     1      -6.402   3.497  -2.543  1.00  0.00     0.179 HD
ATOM     39  H71 UNL     1      -4.779   3.785  -2.736  1.00  0.00     0.179 HD
ENDBRANCH  34  37
ENDBRANCH  21  22
ENDBRANCH   1  21
TORSDOF 11
