REMARK  11 active torsions:
REMARK  status: ('A' for Active; 'I' for Inactive)
REMARK    1  A    between atoms: N1_3  and  C3_4 
REMARK    2  A    between atoms: C3_4  and  C4_5 
REMARK    3  A    between atoms: C4_5  and  C5_6 
REMARK    4  A    between atoms: C5_6  and  C6_7 
REMARK    5  A    between atoms: N2_10  and  C9_11 
REMARK    6  A    between atoms: C9_11  and  C10_12 
REMARK    7  A    between atoms: C10_12  and  C11_13 
REMARK    8  A    between atoms: C11_13  and  C12_14 
REMARK    9  A    between atoms: C12_14  and  N3_15 
REMARK   10  A    between atoms: C15_18  and  C16_19 
REMARK   11  A    between atoms: C20_26  and  N4_27 
ROOT
HETATM    1  C6  UNL     1      -1.672   0.769   0.919  1.00  0.00     0.012 C 
HETATM    2  C7  UNL     1      -0.841  -0.317   1.100  1.00  0.00     0.042 C 
HETATM    3  C8  UNL     1       0.525  -0.470   0.840  1.00  0.00     0.096 C 
HETATM    4  N2  UNL     1       1.394   0.448   0.386  1.00  0.00    -0.321 N 
HETATM    5  C19 UNL     1       1.073   1.638  -0.153  1.00  0.00     0.291 C 
HETATM    6  O3  UNL     1       2.089   2.275  -0.555  1.00  0.00    -0.264 OA
HETATM    7  C20 UNL     1      -0.168   2.232  -0.318  1.00  0.00     0.169 C 
HETATM    8  N5  UNL     1      -1.371   1.844   0.139  1.00  0.00    -0.342 N 
ATOM      9  H5  UNL     1      -2.160   2.430  -0.133  1.00  0.00     0.167 HD
ENDROOT
BRANCH   1  10
HETATM   10  C5  UNL     1      -2.988   0.793   1.610  1.00  0.00     0.059 C 
BRANCH  10  11
HETATM   11  C4  UNL     1      -4.065   0.163   0.757  1.00  0.00     0.026 C 
BRANCH  11  12
HETATM   12  C3  UNL     1      -5.386   0.197   1.471  1.00  0.00     0.131 C 
BRANCH  12  13
HETATM   13  N1  UNL     1      -6.387  -0.401   0.647  1.00  0.00    -0.332 N 
HETATM   14  C2  UNL     1      -7.131   0.276  -0.225  1.00  0.00     0.098 A 
HETATM   15  C1  UNL     1      -6.945   1.741  -0.374  1.00  0.00     0.090 C 
HETATM   16  N8  UNL     1      -8.056  -0.348  -0.974  1.00  0.00    -0.177 N 
HETATM   17  C22 UNL     1      -8.255  -1.679  -0.863  1.00  0.00     0.679 A 
HETATM   18  C23 UNL     1      -8.870   0.364  -1.921  1.00  0.00     0.177 C 
HETATM   19  N6  UNL     1      -7.507  -2.367   0.014  1.00  0.00    -0.188 N 
HETATM   20  N7  UNL     1      -9.129  -2.305  -1.564  1.00  0.00    -0.234 N 
HETATM   21  C21 UNL     1      -6.588  -1.741   0.759  1.00  0.00     0.201 A 
ATOM     22  H6  UNL     1      -7.640  -3.373   0.113  1.00  0.00     0.185 HD
ATOM     23  H72 UNL     1      -9.279  -3.310  -1.480  1.00  0.00     0.174 HD
ATOM     24  H71 UNL     1      -9.697  -1.782  -2.230  1.00  0.00     0.174 HD
ENDBRANCH  12  13
ENDBRANCH  11  12
ENDBRANCH  10  11
ENDBRANCH   1  10
BRANCH   7  25
HETATM   25  N4  UNL     1      -0.124   3.320  -1.022  1.00  0.00    -0.381 N 
ATOM     26  H42 UNL     1       0.789   3.614  -1.369  1.00  0.00     0.157 HD
ATOM     27  H41 UNL     1      -1.037   3.757  -1.143  1.00  0.00     0.157 HD
ENDBRANCH   7  25
BRANCH   4  28
HETATM   28  C9  UNL     1       2.832   0.132   0.484  1.00  0.00     0.132 C 
BRANCH  28  29
HETATM   29  C10 UNL     1       3.315  -0.566  -0.741  1.00  0.00     0.022 C 
BRANCH  29  30
HETATM   30  C11 UNL     1       4.777  -0.885  -0.600  1.00  0.00     0.022 C 
BRANCH  30  31
HETATM   31  C12 UNL     1       5.546   0.400  -0.418  1.00  0.00     0.128 C 
BRANCH  31  32
HETATM   32  N3  UNL     1       6.965   0.017  -0.304  1.00  0.00    -0.366 N 
HETATM   33  C13 UNL     1       7.528  -0.257   0.885  1.00  0.00     0.091 A 
HETATM   34  C14 UNL     1       8.856  -0.618   1.013  1.00  0.00     0.035 A 
HETATM   35  C15 UNL     1       9.661  -0.708  -0.102  1.00  0.00     0.043 A 
HETATM   36  C17 UNL     1       9.081  -0.426  -1.321  1.00  0.00     0.035 A 
HETATM   37  C18 UNL     1       7.747  -0.070  -1.395  1.00  0.00     0.091 A 
BRANCH  35  38
HETATM   38  C16 UNL     1      11.065  -1.089   0.025  1.00  0.00     0.209 C 
HETATM   39  O1  UNL     1      11.836  -1.186  -0.943  1.00  0.00    -0.644 OA
HETATM   40  O2  UNL     1      11.579  -1.358   1.285  1.00  0.00    -0.644 OA
ENDBRANCH  35  38
ENDBRANCH  31  32
ENDBRANCH  30  31
ENDBRANCH  29  30
ENDBRANCH  28  29
ENDBRANCH   4  28
TORSDOF 11
