REMARK  12 active torsions:
REMARK  status: ('A' for Active; 'I' for Inactive)
REMARK    1  A    between atoms: C5_6  and  N2_7 
REMARK    2  A    between atoms: N2_7  and  N3_8 
REMARK    3  A    between atoms: N4_11  and  C6_12 
REMARK    4  A    between atoms: N4_11  and  C16_30 
REMARK    5  A    between atoms: C6_12  and  C7_13 
REMARK    6  A    between atoms: C7_13  and  C8_14 
REMARK    7  A    between atoms: C8_14  and  N5_15 
REMARK    8  A    between atoms: N5_15  and  C11_18 
REMARK    9  A    between atoms: C11_18  and  C12_19 
REMARK       I    between atoms: C12_19  and  N6_21 
REMARK   10  A    between atoms: N6_21  and  C13_23 
REMARK   11  A    between atoms: C16_30  and  C17_31 
REMARK   12  A    between atoms: C17_31  and  N9_32 
REMARK       I    between atoms: N9_32  and  C18_34 
REMARK       I    between atoms: C18_34  and  N11_38 
ROOT
HETATM    1  N9  UNL     1      -5.301   1.468   0.505  1.00  0.00    -0.224 N 
ATOM      2  H9  UNL     1      -5.321   1.794   1.471  1.00  0.00     0.177 HD
HETATM    3  C18 UNL     1      -6.427   1.627  -0.334  1.00  0.00     0.680 C 
HETATM    4  N10 UNL     1      -7.256   0.660  -0.533  1.00  0.00    -0.234 N 
ATOM      5 1H10 UNL     1      -8.069   0.775  -1.139  1.00  0.00     0.174 HD
ATOM      6 2H10 UNL     1      -7.065  -0.222  -0.058  1.00  0.00     0.174 HD
HETATM    7  N11 UNL     1      -6.694   2.858  -0.996  1.00  0.00    -0.127 N 
ATOM      8  H11 UNL     1      -5.924   3.413  -1.370  1.00  0.00     0.197 HD
HETATM    9  C19 UNL     1      -8.010   3.308  -1.135  1.00  0.00     0.196 C 
HETATM   10  N12 UNL     1      -9.107   3.701  -1.248  1.00  0.00    -0.171 NA
ENDROOT
BRANCH   1  11
HETATM   11  C17 UNL     1      -4.120   0.833  -0.037  1.00  0.00     0.167 C 
BRANCH  11  12
HETATM   12  C16 UNL     1      -3.070   0.779   1.037  1.00  0.00     0.275 C 
BRANCH  12  13
HETATM   13  N4  UNL     1      -1.815   0.145   0.576  1.00  0.00     0.032 N 
HETATM   14  C2  UNL     1      -2.102  -0.698  -0.543  1.00  0.00     0.187 C 
HETATM   15  C1  UNL     1      -2.199  -0.325  -1.974  1.00  0.00     0.097 C 
HETATM   16  N1  UNL     1      -2.295  -1.920  -0.164  1.00  0.00    -0.360 N 
HETATM   17  C3  UNL     1      -2.615  -3.043  -0.999  1.00  0.00     0.151 C 
HETATM   18  C4  UNL     1      -2.123  -2.024   1.255  1.00  0.00     0.226 C 
HETATM   19  C5  UNL     1      -1.456  -0.742   1.610  1.00  0.00     0.302 C 
BRANCH  19  20
HETATM   20  N2  UNL     1      -0.762  -0.586   2.632  1.00  0.00    -0.309 NA
BRANCH  20  21
HETATM   21  N3  UNL     1      -0.381  -0.423   3.821  1.00  0.00    -0.279 N 
ATOM     22  H32 UNL     1      -1.327  -0.417   4.202  1.00  0.00     0.191 HD
ATOM     23  H31 UNL     1       0.187  -0.295   4.658  1.00  0.00     0.191 HD
ENDBRANCH  20  21
ENDBRANCH  19  20
BRANCH  13  24
HETATM   24  C6  UNL     1      -0.922   1.215   0.329  1.00  0.00     0.256 C 
BRANCH  24  25
HETATM   25  C7  UNL     1       0.539   1.000   0.411  1.00  0.00     0.057 C 
BRANCH  25  26
HETATM   26  C8  UNL     1       1.026  -0.013  -0.552  1.00  0.00     0.238 C 
BRANCH  26  27
HETATM   27  N5  UNL     1       2.478  -0.241  -0.502  1.00  0.00    -0.066 N 
HETATM   28  C9  UNL     1       2.751  -1.333  -1.415  1.00  0.00     0.272 C 
HETATM   29  C10 UNL     1       2.902  -0.631   0.815  1.00  0.00     0.272 C 
BRANCH  27  30
HETATM   30  C11 UNL     1       3.124   0.973  -0.943  1.00  0.00     0.339 C 
BRANCH  30  31
HETATM   31  C12 UNL     1       4.579   0.843  -1.157  1.00  0.00     0.262 C 
HETATM   32  O1  UNL     1       5.252   1.857  -1.558  1.00  0.00    -0.271 OA
HETATM   33  N6  UNL     1       5.295  -0.351  -0.944  1.00  0.00    -0.158 N 
ATOM     34  H6  UNL     1       5.007  -1.216  -1.402  1.00  0.00     0.187 HD
BRANCH  33  35
HETATM   35  C13 UNL     1       6.318  -0.335  -0.164  1.00  0.00     0.684 A 
HETATM   36  N7  UNL     1       7.065  -1.429   0.099  1.00  0.00    -0.200 N 
HETATM   37  C14 UNL     1       8.057  -1.092   0.947  1.00  0.00     0.123 A 
ATOM     38  H7  UNL     1       6.904  -2.361  -0.283  1.00  0.00     0.183 HD
HETATM   39  C15 UNL     1       7.908   0.243   1.205  1.00  0.00     0.123 A 
HETATM   40  N8  UNL     1       6.835   0.699   0.516  1.00  0.00    -0.200 N 
ATOM     41  H8  UNL     1       6.483   1.656   0.514  1.00  0.00     0.183 HD
ENDBRANCH  33  35
ENDBRANCH  30  31
ENDBRANCH  27  30
ENDBRANCH  26  27
ENDBRANCH  25  26
ENDBRANCH  24  25
ENDBRANCH  13  24
ENDBRANCH  12  13
ENDBRANCH  11  12
ENDBRANCH   1  11
TORSDOF 12
