REMARK  13 active torsions:
REMARK  status: ('A' for Active; 'I' for Inactive)
REMARK    1  A    between atoms: C2_2  and  C3_3 
REMARK       I    between atoms: N2_7  and  C5_9 
REMARK    2  A    between atoms: C5_9  and  C6_11 
REMARK    3  A    between atoms: C6_11  and  C7_12 
REMARK    4  A    between atoms: C6_11  and  N8_24 
REMARK    5  A    between atoms: C7_12  and  C8_13 
REMARK    6  A    between atoms: C8_13  and  C9_14 
REMARK    7  A    between atoms: C9_14  and  N3_15 
REMARK       I    between atoms: C10_17  and  N5_19 
REMARK    8  A    between atoms: N8_24  and  C12_26 
REMARK    9  A    between atoms: C12_26  and  C13_27 
REMARK   10  A    between atoms: C13_27  and  C14_28 
REMARK   11  A    between atoms: C14_28  and  N9_29 
REMARK   12  A    between atoms: C20_35  and  C21_36 
REMARK   13  A    between atoms: C21_36  and  C22_37 
ROOT
HETATM    1  C6  UNL     1      -0.367  -0.432  -1.259  1.00  0.00     0.169 C 
ENDROOT
BRANCH   1   2
HETATM    2  C5  UNL     1       0.795  -0.950  -2.005  1.00  0.00     0.245 C 
HETATM    3  N2  UNL     1       1.835   0.015  -2.267  1.00  0.00    -0.311 N 
HETATM    4  C4  UNL     1       2.903  -0.046  -1.564  1.00  0.00     0.108 A 
ATOM      5  H2  UNL     1       1.723   0.725  -2.991  1.00  0.00     0.170 HD
HETATM    6  N1  UNL     1       3.857   0.854  -1.820  1.00  0.00    -0.342 N 
HETATM    7  C18 UNL     1       3.058  -1.000  -0.589  1.00  0.00     0.049 A 
HETATM    8  C3  UNL     1       5.022   0.887  -1.145  1.00  0.00     0.039 A 
ATOM      9  H1  UNL     1       3.697   1.543  -2.555  1.00  0.00     0.167 HD
HETATM   10  C20 UNL     1       5.211  -0.055  -0.161  1.00  0.00    -0.013 A 
HETATM   11  C19 UNL     1       4.243  -0.995   0.123  1.00  0.00     0.017 A 
HETATM   12  O1  UNL     1       0.936  -2.127  -2.414  1.00  0.00    -0.271 OA
BRANCH   8  13
HETATM   13  C2  UNL     1       5.885   1.809  -1.475  1.00  0.00    -0.001 C 
HETATM   14  C1  UNL     1       5.573   2.771  -2.553  1.00  0.00     0.038 C 
ENDBRANCH   8  13
BRANCH  10  15
HETATM   15  C21 UNL     1       6.319  -0.096   0.548  1.00  0.00    -0.009 C 
BRANCH  15  16
HETATM   16  C22 UNL     1       6.532  -1.120   1.622  1.00  0.00     0.001 C 
HETATM   17  C23 UNL     1       8.017  -1.101   2.001  1.00  0.00     0.013 C 
HETATM   18  C24 UNL     1       5.785  -0.774   2.892  1.00  0.00     0.013 C 
ENDBRANCH  15  16
ENDBRANCH  10  15
ENDBRANCH   1   2
BRANCH   1  19
HETATM   19  C7  UNL     1      -0.940   0.720  -2.061  1.00  0.00     0.036 C 
BRANCH  19  20
HETATM   20  C8  UNL     1      -2.146   1.333  -1.386  1.00  0.00     0.022 C 
BRANCH  20  21
HETATM   21  C9  UNL     1      -1.775   1.865  -0.022  1.00  0.00     0.122 C 
BRANCH  21  22
HETATM   22  N3  UNL     1      -2.893   2.456   0.644  1.00  0.00    -0.364 N 
HETATM   23  C10 UNL     1      -3.445   3.565   0.334  1.00  0.00     0.190 C 
HETATM   24  N4  UNL     1      -2.997   4.368  -0.745  1.00  0.00    -0.063 NA
HETATM   25  N5  UNL     1      -4.553   4.019   1.096  1.00  0.00    -0.307 N 
HETATM   26  C11 UNL     1      -4.890   5.236   1.264  1.00  0.00     0.203 C 
ATOM     27  H5  UNL     1      -5.129   3.309   1.548  1.00  0.00     0.170 HD
HETATM   28  N6  UNL     1      -4.099   6.256   0.642  1.00  0.00    -0.066 NA
HETATM   29  N7  UNL     1      -6.018   5.549   2.048  1.00  0.00    -0.066 NA
ATOM     30  H3  UNL     1      -3.284   1.947   1.437  1.00  0.00     0.162 HD
ENDBRANCH  21  22
ENDBRANCH  20  21
ENDBRANCH  19  20
ENDBRANCH   1  19
BRANCH   1  31
HETATM   31  N8  UNL     1      -1.327  -1.439  -1.017  1.00  0.00    -0.409 N 
ATOM     32  H8  UNL     1      -2.260  -1.414  -1.427  1.00  0.00     0.154 HD
BRANCH  31  33
HETATM   33  C12 UNL     1      -0.899  -2.492  -0.159  1.00  0.00     0.116 C 
BRANCH  33  34
HETATM   34  C13 UNL     1      -2.089  -3.469  -0.070  1.00  0.00     0.047 C 
BRANCH  34  35
HETATM   35  C14 UNL     1      -3.242  -2.668   0.499  1.00  0.00     0.237 C 
BRANCH  35  36
HETATM   36  N9  UNL     1      -4.443  -3.431   0.645  1.00  0.00    -0.079 N 
HETATM   37  C15 UNL     1      -5.567  -2.512   0.400  1.00  0.00     0.271 C 
HETATM   38  C16 UNL     1      -4.583  -4.495  -0.323  1.00  0.00     0.271 C 
HETATM   39  C17 UNL     1      -4.648  -3.977   1.964  1.00  0.00     0.271 C 
ENDBRANCH  35  36
ENDBRANCH  34  35
ENDBRANCH  33  34
ENDBRANCH  31  33
ENDBRANCH   1  31
TORSDOF 13
