REMARK  7 active torsions:
REMARK  status: ('A' for Active; 'I' for Inactive)
REMARK    1  A    between atoms: C2_2  and  C3_3 
REMARK    2  A    between atoms: C2_2  and  N2_8 
REMARK    3  A    between atoms: C3_3  and  N1_4 
REMARK    4  A    between atoms: C5_16  and  N6_17 
REMARK    5  A    between atoms: C6_22  and  N8_23 
REMARK    6  A    between atoms: N8_23  and  N9_25 
REMARK    7  A    between atoms: N10_30  and  N11_32 
ROOT
HETATM    1  N2  UNL     1       1.126   0.826  -0.156  1.00  0.00    -0.254 N 
HETATM    2  N3  UNL     1       0.876   2.102   0.198  1.00  0.00    -0.237 N 
ATOM      3  H3  UNL     1       1.667   2.745   0.233  1.00  0.00     0.208 HD
HETATM    4  N4  UNL     1      -0.309   2.580   0.501  1.00  0.00    -0.269 N 
ATOM      5  H4  UNL     1      -0.395   3.563   0.759  1.00  0.00     0.190 HD
HETATM    6  C4  UNL     1      -1.411   1.812   0.481  1.00  0.00     0.154 A 
HETATM    7  N5  UNL     1      -2.617   2.343   0.800  1.00  0.00    -0.174 N 
ATOM      8  H5  UNL     1      -2.730   3.323   1.060  1.00  0.00     0.186 HD
HETATM    9  C5  UNL     1      -3.655   1.487   0.750  1.00  0.00     0.679 A 
HETATM   10  N7  UNL     1      -3.524   0.197   0.410  1.00  0.00    -0.174 N 
ATOM     11  H7  UNL     1      -4.351  -0.400   0.390  1.00  0.00     0.186 HD
HETATM   12  C6  UNL     1      -2.321  -0.330   0.093  1.00  0.00     0.153 A 
HETATM   13  C7  UNL     1      -1.237   0.512   0.133  1.00  0.00     0.102 A 
HETATM   14  C8  UNL     1       0.051   0.009  -0.191  1.00  0.00     0.156 A 
HETATM   15  N10 UNL     1       0.163  -1.150  -0.491  1.00  0.00    -0.290 N 
ATOM     16  H10 UNL     1      -0.809  -1.451  -0.414  1.00  0.00     0.188 HD
ENDROOT
BRANCH   1  17
HETATM   17  C2  UNL     1       2.472   0.528  -0.439  1.00  0.00     0.133 C 
HETATM   18  C1  UNL     1       2.892  -0.169  -1.649  1.00  0.00     0.036 C 
BRANCH  17  19
HETATM   19  C3  UNL     1       3.097  -0.140   0.780  1.00  0.00     0.256 C 
BRANCH  19  20
HETATM   20  N1  UNL     1       4.554  -0.103   0.696  1.00  0.00    -0.077 N 
ATOM     21  H13 UNL     1       4.893  -0.511  -0.175  1.00  0.00     0.274 HD
ATOM     22  H12 UNL     1       4.902   0.847   0.565  1.00  0.00     0.274 HD
ATOM     23  H11 UNL     1       4.972  -0.550   1.512  1.00  0.00     0.274 HD
ENDBRANCH  19  20
ENDBRANCH  17  19
ENDBRANCH   1  17
BRANCH  15  24
HETATM   24  N11 UNL     1       0.718  -2.258  -0.847  1.00  0.00    -0.344 N 
ATOM     25 2H11 UNL     1       1.673  -1.905  -0.909  1.00  0.00     0.176 HD
ATOM     26 1H11 UNL     1       0.813  -3.241  -1.101  1.00  0.00     0.176 HD
ENDBRANCH  15  24
BRANCH  12  27
HETATM   27  N8  UNL     1      -2.196  -1.571  -0.234  1.00  0.00    -0.291 N 
ATOM     28  H8  UNL     1      -1.284  -1.960  -0.473  1.00  0.00     0.188 HD
BRANCH  27  29
HETATM   29  N9  UNL     1      -3.330  -2.361  -0.253  1.00  0.00    -0.344 N 
ATOM     30  H92 UNL     1      -4.235  -1.957  -0.012  1.00  0.00     0.176 HD
ATOM     31  H91 UNL     1      -3.231  -3.343  -0.512  1.00  0.00     0.176 HD
ENDBRANCH  27  29
ENDBRANCH  12  27
BRANCH   9  32
HETATM   32  N6  UNL     1      -4.815   1.996   1.056  1.00  0.00    -0.234 N 
ATOM     33  H62 UNL     1      -4.915   2.978   1.315  1.00  0.00     0.174 HD
ATOM     34  H61 UNL     1      -5.601   1.347   1.018  1.00  0.00     0.174 HD
ENDBRANCH   9  32
TORSDOF 7
