REMARK  6 active torsions:
REMARK  status: ('A' for Active; 'I' for Inactive)
REMARK    1  A    between atoms: N1_1  and  C1_4 
REMARK    2  A    between atoms: C4_14  and  C5_15 
REMARK    3  A    between atoms: C5_15  and  N5_16 
REMARK    4  A    between atoms: C5_15  and  C6_22 
REMARK    5  A    between atoms: N5_16  and  N6_18 
REMARK    6  A    between atoms: N6_18  and  N7_19 
ROOT
HETATM    1  C1  UNL     1       4.063  -0.144   0.713  1.00  0.00     0.679 A 
HETATM    2  N2  UNL     1       3.501  -1.336   0.454  1.00  0.00    -0.175 N 
ATOM      3  H2  UNL     1       4.081  -2.174   0.496  1.00  0.00     0.186 HD
HETATM    4  C2  UNL     1       2.198  -1.463   0.141  1.00  0.00     0.145 A 
HETATM    5  N3  UNL     1       1.681  -2.629  -0.104  1.00  0.00    -0.383 N 
ATOM      6  H31 UNL     1       0.694  -2.725  -0.341  1.00  0.00     0.157 HD
ATOM      7  H32 UNL     1       2.272  -3.459  -0.058  1.00  0.00     0.157 HD
HETATM    8  C3  UNL     1       1.398  -0.340   0.079  1.00  0.00     0.124 A 
HETATM    9  N4  UNL     1       0.074  -0.437  -0.235  1.00  0.00    -0.337 N 
ATOM     10  H4  UNL     1      -0.339  -1.350  -0.428  1.00  0.00     0.167 HD
HETATM   11  C4  UNL     1      -0.687   0.669  -0.290  1.00  0.00     0.130 A 
HETATM   12  N9  UNL     1      -0.098   1.842  -0.028  1.00  0.00    -0.285 N 
ATOM     13  H9  UNL     1      -0.669   2.686  -0.068  1.00  0.00     0.188 HD
HETATM   14  N10 UNL     1       1.177   1.969   0.279  1.00  0.00    -0.282 N 
ATOM     15  H10 UNL     1       1.564   2.893   0.469  1.00  0.00     0.188 HD
HETATM   16  C7  UNL     1       1.966   0.889   0.343  1.00  0.00     0.166 A 
HETATM   17  N11 UNL     1       3.263   0.933   0.646  1.00  0.00    -0.173 N 
ATOM     18  H11 UNL     1       3.676   1.845   0.840  1.00  0.00     0.186 HD
ENDROOT
BRANCH  11  19
HETATM   19  C5  UNL     1      -2.110   0.592  -0.626  1.00  0.00     0.255 C 
BRANCH  19  20
HETATM   20  N5  UNL     1      -2.819  -0.446   0.045  1.00  0.00    -0.299 N 
ATOM     21  H5  UNL     1      -3.609  -0.251   0.660  1.00  0.00     0.179 HD
BRANCH  20  22
HETATM   22  N6  UNL     1      -2.376  -1.722  -0.185  1.00  0.00    -0.033 NA
BRANCH  22  23
HETATM   23  N7  UNL     1      -3.504  -2.531  -0.448  1.00  0.00    -0.329 N 
ATOM     24  H72 UNL     1      -4.471  -2.208  -0.461  1.00  0.00     0.174 HD
ATOM     25  H71 UNL     1      -3.174  -3.481  -0.619  1.00  0.00     0.174 HD
ENDBRANCH  22  23
ENDBRANCH  20  22
ENDBRANCH  19  20
BRANCH  19  26
HETATM   26  C6  UNL     1      -2.759   1.890  -0.327  1.00  0.00     0.262 C 
HETATM   27  N8  UNL     1      -2.261   3.105  -0.867  1.00  0.00    -0.060 NA
HETATM   28  O1  UNL     1      -3.766   1.909   0.415  1.00  0.00    -0.274 OA
ENDBRANCH  19  26
ENDBRANCH  11  19
BRANCH   1  29
HETATM   29  N1  UNL     1       5.319  -0.056   1.011  1.00  0.00    -0.234 N 
ATOM     30  H12 UNL     1       5.926  -0.874   1.062  1.00  0.00     0.174 HD
ATOM     31  H11 UNL     1       5.746   0.849   1.208  1.00  0.00     0.174 HD
ENDBRANCH   1  29
TORSDOF 6
