REMARK  7 active torsions:
REMARK  status: ('A' for Active; 'I' for Inactive)
REMARK    1  A    between atoms: C1_4  and  O1_5 
REMARK    2  A    between atoms: C1_4  and  C2_7 
REMARK    3  A    between atoms: C2_7  and  O2_8 
REMARK    4  A    between atoms: C2_7  and  N2_10 
REMARK    5  A    between atoms: C4_12  and  N3_13 
REMARK    6  A    between atoms: N6_20  and  N7_21 
REMARK    7  A    between atoms: N7_21  and  C7_23 
ROOT
HETATM    1  N2  UNL     1      -0.877   0.561  -0.385  1.00  0.00    -0.241 N 
HETATM    2  C3  UNL     1      -2.069  -0.011  -0.147  1.00  0.00     0.146 A 
HETATM    3  C4  UNL     1      -2.150  -1.316   0.252  1.00  0.00     0.071 A 
HETATM    4  C5  UNL     1      -0.976  -1.977   0.389  1.00  0.00     0.118 A 
HETATM    5  N4  UNL     1      -0.947  -3.351   0.802  1.00  0.00    -0.096 NA
HETATM    6  C6  UNL     1       0.276  -1.385   0.140  1.00  0.00     0.183 A 
HETATM    7  N5  UNL     1       1.411  -2.233   0.285  1.00  0.00    -0.077 NA
HETATM    8  N6  UNL     1       0.301  -0.107  -0.248  1.00  0.00    -0.162 N 
ENDROOT
BRANCH   8   9
HETATM    9  N7  UNL     1       1.433   0.554  -0.599  1.00  0.00    -0.106 N 
ATOM     10  H7  UNL     1       1.247   1.379  -1.169  1.00  0.00     0.208 HD
BRANCH   9  11
HETATM   11  C7  UNL     1       2.807   0.359  -0.355  1.00  0.00     0.730 A 
HETATM   12  N8  UNL     1       3.742   1.163  -1.025  1.00  0.00    -0.114 N 
HETATM   13  N9  UNL     1       4.929   0.834  -0.598  1.00  0.00    -0.213 N 
ATOM     14  H8  UNL     1       3.531   1.877  -1.722  1.00  0.00     0.207 HD
HETATM   15  N10 UNL     1       4.843  -0.140   0.315  1.00  0.00    -0.213 N 
ATOM     16  H9  UNL     1       5.800   1.259  -0.915  1.00  0.00     0.210 HD
HETATM   17  N11 UNL     1       3.573  -0.377   0.414  1.00  0.00    -0.114 N 
ATOM     18  H10 UNL     1       5.605  -0.594   0.819  1.00  0.00     0.210 HD
ATOM     19  H11 UNL     1       3.196  -1.085   1.044  1.00  0.00     0.207 HD
ENDBRANCH   9  11
ENDBRANCH   8   9
BRANCH   1  20
HETATM   20  C2  UNL     1      -0.886   1.975  -0.774  1.00  0.00     0.317 C 
BRANCH  20  21
HETATM   21  C1  UNL     1      -2.073   2.652  -0.159  1.00  0.00     0.161 C 
HETATM   22  N1  UNL     1      -3.036   3.068  -0.887  1.00  0.00    -0.380 N 
ATOM     23  H12 UNL     1      -3.844   3.529  -0.468  1.00  0.00     0.158 HD
ATOM     24  H11 UNL     1      -2.997   2.938  -1.898  1.00  0.00     0.158 HD
BRANCH  21  25
HETATM   25  O1  UNL     1      -2.126   2.828   1.212  1.00  0.00    -0.346 OA
ATOM     26  H1  UNL     1      -1.410   2.518   1.754  1.00  0.00     0.219 HD
ENDBRANCH  21  25
ENDBRANCH  20  21
BRANCH  20  27
HETATM   27  O2  UNL     1      -0.962   2.021  -2.159  1.00  0.00    -0.368 OA
ATOM     28  H2  UNL     1      -0.209   1.592  -2.549  1.00  0.00     0.212 HD
ENDBRANCH  20  27
ENDBRANCH   1  20
BRANCH   3  29
HETATM   29  N3  UNL     1      -3.292  -1.904   0.496  1.00  0.00    -0.396 N 
ATOM     30  H32 UNL     1      -4.176  -1.406   0.393  1.00  0.00     0.156 HD
ATOM     31  H31 UNL     1      -3.352  -2.878   0.794  1.00  0.00     0.156 HD
ENDBRANCH   3  29
TORSDOF 7
