REMARK  6 active torsions:
REMARK  status: ('A' for Active; 'I' for Inactive)
REMARK    1  A    between atoms: C2_3  and  N2_4 
REMARK    2  A    between atoms: C2_3  and  C4_9 
REMARK    3  A    between atoms: N2_4  and  O1_5 
REMARK    4  A    between atoms: O1_5  and  C3_6 
REMARK    5  A    between atoms: C5_12  and  C6_13 
REMARK       I    between atoms: C6_13  and  N5_15 
REMARK    6  A    between atoms: N5_15  and  N6_17 
ROOT
HETATM    1  N1  UNL     1       2.536  -0.682  -2.618  1.00  0.00    -0.195 NA
HETATM    2  C1  UNL     1       2.136  -0.148  -1.664  1.00  0.00     0.091 C 
HETATM    3  C2  UNL     1       1.640   0.525  -0.477  1.00  0.00     0.281 C 
ENDROOT
BRANCH   3   4
HETATM    4  N2  UNL     1       2.601   0.426   0.631  1.00  0.00    -0.062 NA
BRANCH   4   5
HETATM    5  O1  UNL     1       3.785   1.010   0.251  1.00  0.00    -0.190 OA
BRANCH   5   6
HETATM    6  C3  UNL     1       4.881   0.196   0.014  1.00  0.00     0.391 C 
HETATM    7  N3  UNL     1       6.109   0.768  -0.377  1.00  0.00    -0.031 NA
HETATM    8  O2  UNL     1       4.745  -1.042   0.155  1.00  0.00    -0.241 OA
ENDBRANCH   5   6
ENDBRANCH   4   5
ENDBRANCH   3   4
BRANCH   3   9
HETATM    9  C4  UNL     1       0.339  -0.076  -0.085  1.00  0.00     0.135 A 
HETATM   10  N4  UNL     1      -0.816   0.552  -0.358  1.00  0.00    -0.324 N 
HETATM   11  C5  UNL     1      -2.036   0.065  -0.031  1.00  0.00     0.192 A 
ATOM     12  H4  UNL     1      -0.771   1.450  -0.841  1.00  0.00     0.169 HD
HETATM   13  N7  UNL     1      -2.103  -1.116   0.604  1.00  0.00    -0.171 N 
HETATM   14  C7  UNL     1      -0.955  -1.787   0.900  1.00  0.00     0.679 A 
ATOM     15  H7  UNL     1      -3.008  -1.508   0.863  1.00  0.00     0.186 HD
HETATM   16  N8  UNL     1      -1.060  -2.911   1.506  1.00  0.00    -0.234 N 
HETATM   17  N9  UNL     1       0.238  -1.257   0.551  1.00  0.00    -0.178 N 
ATOM     18  H82 UNL     1      -1.961  -3.311   1.769  1.00  0.00     0.174 HD
ATOM     19  H81 UNL     1      -0.200  -3.413   1.728  1.00  0.00     0.174 HD
ATOM     20  H9  UNL     1       1.090  -1.770   0.777  1.00  0.00     0.185 HD
BRANCH  11  21
HETATM   21  C6  UNL     1      -3.255   0.774  -0.343  1.00  0.00     0.304 C 
HETATM   22  O3  UNL     1      -3.149   1.896  -0.949  1.00  0.00    -0.263 OA
HETATM   23  N5  UNL     1      -4.557   0.328  -0.034  1.00  0.00    -0.270 N 
ATOM     24  H5  UNL     1      -4.682  -0.562   0.448  1.00  0.00     0.189 HD
BRANCH  23  25
HETATM   25  N6  UNL     1      -5.691   1.095  -0.382  1.00  0.00    -0.342 N 
ATOM     26  H62 UNL     1      -5.549   1.983  -0.864  1.00  0.00     0.176 HD
ATOM     27  H61 UNL     1      -6.633   0.772  -0.159  1.00  0.00     0.176 HD
ENDBRANCH  23  25
ENDBRANCH  11  21
ENDBRANCH   3   9
TORSDOF 6
