REMARK  13 active torsions:
REMARK  status: ('A' for Active; 'I' for Inactive)
REMARK    1  A    between atoms: C2_2  and  C3_3 
REMARK    2  A    between atoms: C3_3  and  C4_4 
REMARK       I    between atoms: C4_4  and  N1_6 
REMARK       I    between atoms: N1_6  and  C5_7 
REMARK    3  A    between atoms: N1_6  and  C14_21 
REMARK    4  A    between atoms: C5_7  and  C6_9 
REMARK    5  A    between atoms: C6_9  and  O3_10 
REMARK    6  A    between atoms: O3_10  and  C7_11 
REMARK    7  A    between atoms: C10_14  and  C11_15 
REMARK    8  A    between atoms: C16_26  and  C17_27 
REMARK    9  A    between atoms: C17_27  and  C18_28 
REMARK   10  A    between atoms: C18_28  and  C19_29 
REMARK   11  A    between atoms: C19_29  and  C20_30 
REMARK   12  A    between atoms: C20_30  and  C21_32 
REMARK   13  A    between atoms: C20_30  and  C24_35 
ROOT
HETATM    1  C4  UNL     1       2.042  -2.982  -0.070  1.00  0.00     0.232 C 
HETATM    2  O1  UNL     1       3.270  -2.734  -0.306  1.00  0.00    -0.273 OA
HETATM    3  N1  UNL     1       1.117  -1.939   0.217  1.00  0.00    -0.237 N 
HETATM    4  C5  UNL     1       1.566  -0.614   0.233  1.00  0.00     0.256 C 
HETATM    5  O2  UNL     1       0.791   0.335   0.470  1.00  0.00    -0.270 OA
ENDROOT
BRANCH   3   6
HETATM    6  C14 UNL     1      -0.274  -2.243   0.481  1.00  0.00     0.114 C 
HETATM    7  N2  UNL     1      -0.657  -3.461   0.443  1.00  0.00    -0.254 N 
HETATM    8  O6  UNL     1      -1.917  -3.862   0.671  1.00  0.00    -0.279 OA
ATOM      9  H2  UNL     1       0.039  -4.174   0.226  1.00  0.00     0.195 HD
HETATM   10  C15 UNL     1      -2.976  -2.943   0.371  1.00  0.00     0.206 C 
HETATM   11  C16 UNL     1      -2.614  -1.686   1.095  1.00  0.00     0.019 C 
HETATM   12  C25 UNL     1      -1.229  -1.174   0.792  1.00  0.00     0.085 C 
BRANCH  11  13
HETATM   13  C17 UNL     1      -3.660  -0.600   1.026  1.00  0.00     0.007 C 
BRANCH  13  14
HETATM   14  C18 UNL     1      -3.975  -0.170  -0.362  1.00  0.00     0.004 C 
BRANCH  14  15
HETATM   15  C19 UNL     1      -5.021   0.867  -0.538  1.00  0.00     0.053 C 
BRANCH  15  16
HETATM   16  C20 UNL     1      -4.824   2.195   0.064  1.00  0.00     0.203 C 
HETATM   17  F1  UNL     1      -4.690   2.095   1.439  1.00  0.00    -0.233 F 
BRANCH  16  18
HETATM   18  C21 UNL     1      -6.051   3.063  -0.170  1.00  0.00     0.034 A 
HETATM   19  C22 UNL     1      -7.367   2.627   0.365  1.00  0.00     0.008 A 
HETATM   20  C23 UNL     1      -7.135   2.614  -1.112  1.00  0.00     0.008 A 
ENDBRANCH  16  18
BRANCH  16  21
HETATM   21  C24 UNL     1      -3.649   2.962  -0.503  1.00  0.00     0.423 C 
HETATM   22  F2  UNL     1      -3.761   3.190  -1.840  1.00  0.00    -0.167 F 
HETATM   23  F3  UNL     1      -2.451   2.410  -0.119  1.00  0.00    -0.167 F 
HETATM   24  F4  UNL     1      -3.695   4.222   0.114  1.00  0.00    -0.167 F 
ENDBRANCH  16  21
ENDBRANCH  15  16
ENDBRANCH  14  15
ENDBRANCH  13  14
ENDBRANCH  11  13
ENDBRANCH   3   6
BRANCH   1  25
HETATM   25  C3  UNL     1       1.704  -4.423  -0.126  1.00  0.00     0.103 C 
BRANCH  25  26
HETATM   26  C2  UNL     1       2.962  -5.256  -0.471  1.00  0.00     0.005 C 
HETATM   27  C1  UNL     1       4.007  -5.036   0.582  1.00  0.00     0.005 C 
ENDBRANCH  25  26
ENDBRANCH   1  25
BRANCH   4  28
HETATM   28  C6  UNL     1       2.975  -0.244  -0.026  1.00  0.00     0.279 C 
BRANCH  28  29
HETATM   29  O3  UNL     1       3.131   1.179   0.060  1.00  0.00    -0.340 OA
BRANCH  29  30
HETATM   30  C7  UNL     1       4.334   1.799  -0.136  1.00  0.00     0.091 A 
HETATM   31  C8  UNL     1       5.508   1.138  -0.432  1.00  0.00     0.039 A 
HETATM   32  C9  UNL     1       6.696   1.813  -0.619  1.00  0.00     0.021 A 
HETATM   33  C10 UNL     1       6.722   3.188  -0.511  1.00  0.00     0.042 A 
HETATM   34  C12 UNL     1       5.568   3.882  -0.217  1.00  0.00     0.045 A 
HETATM   35  C13 UNL     1       4.392   3.166  -0.035  1.00  0.00     0.068 A 
HETATM   36 CL1  UNL     1       2.917   4.064   0.343  1.00  0.00    -0.081 Cl
BRANCH  33  37
HETATM   37  C11 UNL     1       7.947   3.956  -0.699  1.00  0.00     0.209 C 
HETATM   38  O4  UNL     1       9.000   3.309  -0.969  1.00  0.00    -0.644 OA
HETATM   39  O5  UNL     1       7.962   5.334  -0.588  1.00  0.00    -0.644 OA
ENDBRANCH  33  37
ENDBRANCH  29  30
ENDBRANCH  28  29
ENDBRANCH   4  28
TORSDOF 13
