REMARK  4 active torsions:
REMARK  status: ('A' for Active; 'I' for Inactive)
REMARK    1  A    between atoms: N1_1  and  O1_4 
REMARK    2  A    between atoms: O1_4  and  C1_5 
REMARK    3  A    between atoms: C3_11  and  N4_12 
REMARK    4  A    between atoms: N4_12  and  C4_14 
ROOT
HETATM    1  C1  UNL     1      -1.381  -0.425   0.084  1.00  0.00     0.159 A 
HETATM    2  C2  UNL     1      -2.192   0.508  -0.516  1.00  0.00     0.150 A 
HETATM    3  N2  UNL     1      -1.414   1.535  -0.886  1.00  0.00    -0.307 N 
ATOM      4  H2  UNL     1      -1.730   2.382  -1.358  1.00  0.00     0.186 HD
HETATM    5  N3  UNL     1      -0.165   1.265  -0.536  1.00  0.00    -0.284 N 
ATOM      6  H3  UNL     1       0.627   1.886  -0.704  1.00  0.00     0.188 HD
HETATM    7  C3  UNL     1      -0.076   0.079   0.063  1.00  0.00     0.155 A 
ENDROOT
BRANCH   7   8
HETATM    8  N4  UNL     1       1.040  -0.619   0.599  1.00  0.00    -0.344 N 
ATOM      9  H4  UNL     1       0.907  -1.536   1.025  1.00  0.00     0.163 HD
BRANCH   8  10
HETATM   10  C4  UNL     1       2.354  -0.042   0.545  1.00  0.00     0.311 A 
HETATM   11  C5  UNL     1       2.973   0.304  -0.700  1.00  0.00     0.289 A 
HETATM   12  N5  UNL     1       2.327   1.378   0.037  1.00  0.00    -0.049 N 
ATOM     13  H52 UNL     1       1.611   2.078  -0.157  1.00  0.00     0.279 HD
ATOM     14  H51 UNL     1       2.598   2.294   0.394  1.00  0.00     0.279 HD
ENDBRANCH   8  10
ENDBRANCH   7   8
BRANCH   1  15
HETATM   15  O1  UNL     1      -1.744  -1.647   0.622  1.00  0.00    -0.240 OA
BRANCH  15  16
HETATM   16  N1  UNL     1      -3.011  -2.129   0.639  1.00  0.00    -0.305 N 
ATOM     17  H12 UNL     1      -3.732  -1.539   0.224  1.00  0.00     0.184 HD
ATOM     18  H11 UNL     1      -3.279  -3.030   1.036  1.00  0.00     0.184 HD
ENDBRANCH  15  16
ENDBRANCH   1  15
TORSDOF 4
