REMARK  3 active torsions:
REMARK  status: ('A' for Active; 'I' for Inactive)
REMARK    1  A    between atoms: C3_6  and  N3_7 
REMARK    2  A    between atoms: N3_7  and  C4_9 
REMARK    3  A    between atoms: C5_15  and  N6_16 
ROOT
HETATM    1  N1  UNL     1      -3.434   2.846  -0.555  1.00  0.00    -0.188 NA
HETATM    2  C1  UNL     1      -2.739   1.930  -0.398  1.00  0.00     0.138 C 
HETATM    3  C2  UNL     1      -1.859   0.804  -0.212  1.00  0.00     0.217 A 
HETATM    4  N2  UNL     1      -0.524   0.927  -0.208  1.00  0.00    -0.165 N 
ATOM      5  H2  UNL     1      -0.111   1.850  -0.341  1.00  0.00     0.186 HD
HETATM    6  C3  UNL     1       0.288  -0.135  -0.033  1.00  0.00     0.699 A 
HETATM    7  N5  UNL     1      -0.212  -1.371   0.146  1.00  0.00    -0.022 N 
ATOM      8  H5  UNL     1       0.401  -2.175   0.278  1.00  0.00     0.203 HD
HETATM    9  C5  UNL     1      -1.544  -1.507   0.144  1.00  0.00     0.692 A 
HETATM   10  N7  UNL     1      -2.351  -0.445  -0.031  1.00  0.00    -0.166 N 
ATOM     11  H7  UNL     1      -3.361  -0.584  -0.027  1.00  0.00     0.186 HD
ENDROOT
BRANCH   6  12
HETATM   12  N3  UNL     1       1.720   0.027  -0.033  1.00  0.00    -0.188 N 
ATOM     13  H3  UNL     1       2.334  -0.777   0.099  1.00  0.00     0.185 HD
BRANCH  12  14
HETATM   14  C4  UNL     1       2.260   1.324  -0.220  1.00  0.00     0.191 C 
HETATM   15  N4  UNL     1       3.430   1.664   0.245  1.00  0.00    -0.395 N 
ATOM     16  H42 UNL     1       3.962   0.961   0.758  1.00  0.00     0.156 HD
ATOM     17  H41 UNL     1       3.819   2.597   0.110  1.00  0.00     0.156 HD
ENDBRANCH  12  14
ENDBRANCH   6  12
BRANCH   9  18
HETATM   18  N6  UNL     1      -2.077  -2.661   0.310  1.00  0.00    -0.234 N 
ATOM     19  H62 UNL     1      -1.465  -3.466   0.443  1.00  0.00     0.174 HD
ATOM     20  H61 UNL     1      -3.092  -2.765   0.308  1.00  0.00     0.174 HD
ENDBRANCH   9  18
TORSDOF 3
