REMARK  6 active torsions:
REMARK  status: ('A' for Active; 'I' for Inactive)
REMARK    1  A    between atoms: C2_2  and  C4_4 
REMARK    2  A    between atoms: C4_4  and  O1_5 
REMARK    3  A    between atoms: O1_5  and  C5_6 
REMARK    4  A    between atoms: C8_9  and  C9_10 
REMARK    5  A    between atoms: N1_11  and  N2_13 
REMARK    6  A    between atoms: N2_13  and  C10_15 
ROOT
HETATM    1  C5  UNL     1      -0.814  -0.148  -0.553  1.00  0.00     0.142 A 
HETATM    2  C6  UNL     1      -0.810   1.146  -0.112  1.00  0.00     0.058 A 
HETATM    3  C7  UNL     1       0.474   1.371   0.395  1.00  0.00     0.035 A 
HETATM    4  C8  UNL     1       1.212   0.224   0.253  1.00  0.00     0.051 A 
HETATM    5  N4  UNL     1       0.424  -0.688  -0.321  1.00  0.00    -0.336 N 
ATOM      6  H4  UNL     1       0.701  -1.642  -0.552  1.00  0.00     0.168 HD
ENDROOT
BRANCH   4   7
HETATM    7  C9  UNL     1       2.615   0.017   0.654  1.00  0.00     0.136 C 
HETATM    8  N1  UNL     1       3.207  -1.097   0.474  1.00  0.00    -0.308 N 
ATOM      9  H1  UNL     1       2.696  -1.867   0.041  1.00  0.00     0.186 HD
BRANCH   8  10
HETATM   10  N2  UNL     1       4.533  -1.291   0.853  1.00  0.00    -0.279 N 
ATOM     11  H2  UNL     1       4.765  -2.066   1.474  1.00  0.00     0.189 HD
BRANCH  10  12
HETATM   12  C10 UNL     1       5.568  -0.438   0.397  1.00  0.00     0.199 C 
HETATM   13  N3  UNL     1       5.218   0.633  -0.465  1.00  0.00    -0.068 NA
HETATM   14  S1  UNL     1       7.123  -0.611   0.801  1.00  0.00    -0.043 SA
ENDBRANCH  10  12
ENDBRANCH   8  10
ENDBRANCH   4   7
BRANCH   1  15
HETATM   15  O1  UNL     1      -1.845  -0.822  -1.128  1.00  0.00    -0.332 OA
BRANCH  15  16
HETATM   16  C4  UNL     1      -3.137  -0.447  -1.426  1.00  0.00     0.210 C 
BRANCH  16  17
HETATM   17  C2  UNL     1      -3.984  -0.052  -0.281  1.00  0.00    -0.069 C 
HETATM   18  C1  UNL     1      -4.536   1.144  -0.171  1.00  0.00     0.016 C 
HETATM   19  C3  UNL     1      -4.235  -1.057   0.818  1.00  0.00     0.044 C 
ENDBRANCH  16  17
ENDBRANCH  15  16
ENDBRANCH   1  15
TORSDOF 6
