REMARK  6 active torsions:
REMARK  status: ('A' for Active; 'I' for Inactive)
REMARK    1  A    between atoms: C2_2  and  C3_3 
REMARK    2  A    between atoms: C3_3  and  N1_4 
REMARK    3  A    between atoms: N1_4  and  C4_6 
REMARK    4  A    between atoms: C7_15  and  N5_16 
REMARK    5  A    between atoms: C12_24  and  N7_25 
REMARK    6  A    between atoms: N7_25  and  C13_27 
ROOT
HETATM    1  C4  UNL     1       2.474  -0.613   1.178  1.00  0.00     0.133 A 
HETATM    2  N2  UNL     1       3.259  -0.060   2.125  1.00  0.00    -0.337 N 
ATOM      3  H2  UNL     1       4.221  -0.386   2.220  1.00  0.00     0.168 HD
HETATM    4  C5  UNL     1       2.816   0.908   2.949  1.00  0.00     0.183 A 
HETATM    5  N3  UNL     1       1.550   1.335   2.822  1.00  0.00    -0.337 N 
ATOM      6  H3  UNL     1       1.213   2.068   3.446  1.00  0.00     0.168 HD
HETATM    7  C6  UNL     1       0.708   0.829   1.898  1.00  0.00     0.139 A 
HETATM    8  N4  UNL     1      -0.536   1.257   1.783  1.00  0.00    -0.324 N 
ATOM      9  H4  UNL     1      -0.877   1.990   2.405  1.00  0.00     0.169 HD
HETATM   10  C7  UNL     1      -1.382   0.722   0.828  1.00  0.00     0.149 A 
HETATM   11  C12 UNL     1      -0.902  -0.266  -0.001  1.00  0.00     0.147 A 
HETATM   12  N8  UNL     1       0.364  -0.680   0.139  1.00  0.00    -0.334 N 
ATOM     13  H8  UNL     1       0.715  -1.412  -0.478  1.00  0.00     0.168 HD
HETATM   14  C16 UNL     1       1.188  -0.160   1.069  1.00  0.00     0.122 A 
ENDROOT
BRANCH  10  15
HETATM   15  N5  UNL     1      -2.682   1.252   0.822  1.00  0.00    -0.361 N 
HETATM   16  C8  UNL     1      -2.945   2.440   1.671  1.00  0.00     0.152 C 
HETATM   17  C9  UNL     1      -4.084   3.165   0.973  1.00  0.00     0.252 C 
HETATM   18  N6  UNL     1      -3.972   3.129  -0.461  1.00  0.00    -0.072 N 
HETATM   19  C10 UNL     1      -4.056   1.812  -1.027  1.00  0.00     0.252 C 
ATOM     20  H62 UNL     1      -4.664   3.745  -0.888  1.00  0.00     0.277 HD
ATOM     21  H61 UNL     1      -3.115   3.593  -0.763  1.00  0.00     0.277 HD
HETATM   22  C11 UNL     1      -3.851   0.819   0.117  1.00  0.00     0.152 C 
ENDBRANCH  10  15
BRANCH  11  23
HETATM   23  N7  UNL     1      -1.619  -0.771  -0.880  1.00  0.00    -0.369 N 
ATOM     24  H7  UNL     1      -2.559  -0.376  -0.902  1.00  0.00     0.161 HD
BRANCH  23  25
HETATM   25  C13 UNL     1      -1.420  -1.767  -1.851  1.00  0.00     0.075 C 
HETATM   26  C14 UNL     1      -0.366  -1.379  -2.886  1.00  0.00     0.031 C 
HETATM   27  C15 UNL     1      -1.090  -3.128  -1.349  1.00  0.00     0.031 C 
ENDBRANCH  23  25
ENDBRANCH  11  23
BRANCH   1  28
HETATM   28  N1  UNL     1       2.910  -1.548   0.385  1.00  0.00    -0.374 N 
ATOM     29  H1  UNL     1       2.306  -1.958  -0.328  1.00  0.00     0.161 HD
BRANCH  28  30
HETATM   30  C3  UNL     1       4.284  -1.989   0.548  1.00  0.00     0.121 C 
BRANCH  30  31
HETATM   31  C2  UNL     1       5.095  -1.789  -0.722  1.00  0.00     0.015 C 
HETATM   32  C1  UNL     1       5.145  -0.348  -1.136  1.00  0.00     0.006 C 
ENDBRANCH  30  31
ENDBRANCH  28  30
ENDBRANCH   1  28
TORSDOF 6
