REMARK  13 active torsions:
REMARK  status: ('A' for Active; 'I' for Inactive)
REMARK    1  A    between atoms: C6_8  and  C7_9 
REMARK    2  A    between atoms: C10_12  and  C11_13 
REMARK    3  A    between atoms: C11_13  and  C12_14 
REMARK    4  A    between atoms: C11_13  and  C24_35 
REMARK    5  A    between atoms: C16_20  and  O1_21 
REMARK    6  A    between atoms: O1_21  and  C17_22 
REMARK    7  A    between atoms: C19_24  and  C20_25 
REMARK    8  A    between atoms: C20_25  and  O2_26 
REMARK    9  A    between atoms: C21_29  and  C22_30 
REMARK   10  A    between atoms: C22_30  and  O4_31 
REMARK   11  A    between atoms: C24_35  and  O5_36 
REMARK   12  A    between atoms: C24_35  and  C25_38 
REMARK   13  A    between atoms: C25_38  and  O6_39 
ROOT
HETATM    1  N1  UNL     1       8.404   3.766   1.677  1.00  0.00    -0.191 NA
HETATM    2  C1  UNL     1       8.039   2.867   1.047  1.00  0.00     0.099 C 
HETATM    3  C2  UNL     1       7.566   1.740   0.270  1.00  0.00     0.048 A 
HETATM    4  C3  UNL     1       8.439   1.157  -0.621  1.00  0.00     0.065 A 
HETATM    5  C4  UNL     1       8.002   0.091  -1.360  1.00  0.00     0.118 A 
HETATM    6  F1  UNL     1       8.868  -0.480  -2.237  1.00  0.00    -0.206 F 
HETATM    7  C5  UNL     1       6.709  -0.370  -1.196  1.00  0.00     0.054 A 
HETATM    8  C6  UNL     1       5.827   0.216  -0.298  1.00  0.00    -0.020 A 
HETATM    9  C28 UNL     1       6.254   1.289   0.451  1.00  0.00     0.035 A 
ENDROOT
BRANCH   8  10
HETATM   10  C7  UNL     1       4.481  -0.307  -0.154  1.00  0.00    -0.004 A 
HETATM   11  C8  UNL     1       4.262  -1.661   0.015  1.00  0.00     0.015 A 
HETATM   12  C9  UNL     1       2.967  -2.115   0.157  1.00  0.00     0.013 A 
HETATM   13  C10 UNL     1       1.858  -1.306   0.142  1.00  0.00    -0.025 A 
HETATM   14  C26 UNL     1       2.081   0.049  -0.028  1.00  0.00     0.036 A 
HETATM   15  C27 UNL     1       3.384   0.529  -0.173  1.00  0.00     0.045 A 
HETATM   16 CL3  UNL     1       3.528   2.263  -0.391  1.00  0.00    -0.083 Cl
BRANCH  13  17
HETATM   17  C11 UNL     1       0.510  -1.885   0.321  1.00  0.00    -0.002 C 
BRANCH  17  18
HETATM   18  C12 UNL     1      -0.400  -1.155   1.187  1.00  0.00     0.037 A 
HETATM   19  C13 UNL     1       0.009  -0.896   2.520  1.00  0.00     0.049 A 
HETATM   20 CL1  UNL     1       1.592  -1.454   3.041  1.00  0.00    -0.083 Cl
HETATM   21  C14 UNL     1      -0.799  -0.231   3.407  1.00  0.00     0.051 A 
HETATM   22  C15 UNL     1      -2.052   0.203   2.992  1.00  0.00     0.072 A 
HETATM   23 CL2  UNL     1      -3.053   1.067   4.170  1.00  0.00    -0.081 Cl
HETATM   24  C16 UNL     1      -2.509  -0.018   1.711  1.00  0.00     0.130 A 
HETATM   25  C23 UNL     1      -1.640  -0.706   0.846  1.00  0.00     0.164 A 
HETATM   26  F2  UNL     1      -2.129  -0.984  -0.355  1.00  0.00    -0.202 F 
BRANCH  24  27
HETATM   27  O1  UNL     1      -3.723   0.389   1.285  1.00  0.00    -0.338 OA
BRANCH  27  28
HETATM   28  C17 UNL     1      -4.229   1.578   0.828  1.00  0.00     0.162 C 
HETATM   29  C18 UNL     1      -4.157   1.609  -0.723  1.00  0.00     0.069 C 
HETATM   30  C19 UNL     1      -5.307   0.704  -1.018  1.00  0.00     0.148 C 
HETATM   31  O3  UNL     1      -6.304   1.020  -0.099  1.00  0.00    -0.374 OA
HETATM   32  C21 UNL     1      -5.723   1.748   0.941  1.00  0.00     0.175 C 
BRANCH  30  33
HETATM   33  C20 UNL     1      -5.795   0.822  -2.444  1.00  0.00     0.196 C 
BRANCH  33  34
HETATM   34  O2  UNL     1      -6.226   2.104  -2.749  1.00  0.00    -0.398 OA
ATOM     35  H2  UNL     1      -6.533   2.178  -3.645  1.00  0.00     0.209 HD
ENDBRANCH  33  34
ENDBRANCH  30  33
BRANCH  32  36
HETATM   36  C22 UNL     1      -6.324   1.377   2.246  1.00  0.00     0.198 C 
BRANCH  36  37
HETATM   37  O4  UNL     1      -6.097  -0.001   2.442  1.00  0.00    -0.398 OA
ATOM     38  H4  UNL     1      -6.482  -0.239   3.277  1.00  0.00     0.209 HD
ENDBRANCH  36  37
ENDBRANCH  32  36
ENDBRANCH  27  28
ENDBRANCH  24  27
ENDBRANCH  17  18
BRANCH  17  39
HETATM   39  C24 UNL     1       0.011  -2.633  -0.852  1.00  0.00     0.176 C 
BRANCH  39  40
HETATM   40  O5  UNL     1       0.886  -3.781  -1.065  1.00  0.00    -0.389 OA
ATOM     41  H5  UNL     1       0.565  -4.262  -1.819  1.00  0.00     0.210 HD
ENDBRANCH  39  40
BRANCH  39  42
HETATM   42  C25 UNL     1       0.200  -1.935  -2.206  1.00  0.00     0.200 C 
BRANCH  42  43
HETATM   43  O6  UNL     1       1.526  -1.637  -2.477  1.00  0.00    -0.398 OA
ATOM     44  H6  UNL     1       1.643  -1.205  -3.315  1.00  0.00     0.209 HD
ENDBRANCH  42  43
ENDBRANCH  39  42
ENDBRANCH  17  39
ENDBRANCH  13  17
ENDBRANCH   8  10
TORSDOF 13
