REMARK  4 active torsions:
REMARK  status: ('A' for Active; 'I' for Inactive)
REMARK    1  A    between atoms: C4_4  and  N1_5 
REMARK    2  A    between atoms: N1_5  and  C5_7 
REMARK    3  A    between atoms: C10_12  and  O1_13 
REMARK    4  A    between atoms: C11_15  and  C12_16 
ROOT
HETATM    1  N1  UNL     1       0.086   0.749   0.294  1.00  0.00    -0.381 N 
ATOM      2  H1  UNL     1      -0.191   1.699   0.048  1.00  0.00     0.160 HD
ENDROOT
BRANCH   1   3
HETATM    3  C4  UNL     1       1.393   0.334  -0.021  1.00  0.00     0.063 A 
HETATM    4  C3  UNL     1       1.921  -0.911   0.242  1.00  0.00     0.064 A 
HETATM    5  C2  UNL     1       3.216  -0.896  -0.225  1.00  0.00     0.051 A 
HETATM    6  C1  UNL     1       4.234  -1.970  -0.199  1.00  0.00     0.077 C 
HETATM    7  O2  UNL     1       3.417   0.288  -0.726  1.00  0.00    -0.315 OA
HETATM    8  C11 UNL     1       2.384   1.058  -0.637  1.00  0.00     0.112 A 
BRANCH   8   9
HETATM    9  C12 UNL     1       2.325   2.459  -1.124  1.00  0.00     0.237 C 
HETATM   10 CL1  UNL     1       2.778   2.608  -2.821  1.00  0.00    -0.101 Cl
HETATM   11 CL2  UNL     1       3.466   3.454  -0.160  1.00  0.00    -0.101 Cl
ENDBRANCH   8   9
ENDBRANCH   1   3
BRANCH   1  12
HETATM   12  C5  UNL     1      -0.888  -0.101   0.949  1.00  0.00     0.110 C 
HETATM   13  C6  UNL     1      -1.204  -1.342   0.176  1.00  0.00     0.028 C 
HETATM   14  C7  UNL     1      -2.704  -1.531  -0.012  1.00  0.00     0.002 C 
HETATM   15  C8  UNL     1      -3.285  -0.359  -0.773  1.00  0.00     0.003 C 
HETATM   16  C9  UNL     1      -2.951   0.914  -0.038  1.00  0.00     0.034 C 
HETATM   17  C10 UNL     1      -2.151   0.649   1.220  1.00  0.00     0.140 C 
BRANCH  17  18
HETATM   18  O1  UNL     1      -1.865   1.893   1.794  1.00  0.00    -0.394 OA
ATOM     19  H1  UNL     1      -2.668   2.370   1.966  1.00  0.00     0.210 HD
ENDBRANCH  17  18
ENDBRANCH   1  12
TORSDOF 4
