REMARK  5 active torsions:
REMARK  status: ('A' for Active; 'I' for Inactive)
REMARK    1  A    between atoms: C1_2  and  C2_4 
REMARK    2  A    between atoms: N1_5  and  C3_7 
REMARK    3  A    between atoms: C4_8  and  C5_9 
REMARK    4  A    between atoms: C11_16  and  N2_17 
REMARK    5  A    between atoms: C12_20  and  O5_21 
ROOT
HETATM    1  C3  UNL     1      -1.372   0.611   0.214  1.00  0.00     0.086 A 
HETATM    2  C4  UNL     1      -0.167   1.051  -0.216  1.00  0.00     0.043 A 
HETATM    3  S1  UNL     1      -0.529   2.671  -0.727  1.00  0.00    -0.060 SA
HETATM    4  C11 UNL     1      -2.187   2.699  -0.365  1.00  0.00     0.179 A 
HETATM    5  C12 UNL     1      -2.423   1.447   0.145  1.00  0.00     0.134 A 
ENDROOT
BRANCH   1   6
HETATM    6  N1  UNL     1      -1.520  -0.749   0.722  1.00  0.00    -0.357 N 
HETATM    7  C2  UNL     1      -2.209  -1.615   0.097  1.00  0.00     0.173 C 
ATOM      8  H1  UNL     1      -1.062  -1.010   1.595  1.00  0.00     0.165 HD
BRANCH   7   9
HETATM    9  C1  UNL     1      -2.332  -2.958   0.634  1.00  0.00     0.214 C 
HETATM   10  O1  UNL     1      -3.000  -3.861   0.065  1.00  0.00    -0.643 OA
HETATM   11  O2  UNL     1      -1.699  -3.315   1.836  1.00  0.00    -0.643 OA
ENDBRANCH   7   9
ENDBRANCH   1   6
BRANCH   2  12
HETATM   12  C5  UNL     1       1.175   0.413  -0.264  1.00  0.00    -0.042 C 
HETATM   13  C6  UNL     1       2.163   1.095  -0.825  1.00  0.00    -0.018 C 
HETATM   14  C7  UNL     1       3.556   0.610  -0.959  1.00  0.00     0.028 C 
HETATM   15  C8  UNL     1       3.613  -0.884  -0.671  1.00  0.00     0.004 C 
HETATM   16  C9  UNL     1       2.865  -1.104   0.619  1.00  0.00     0.005 C 
HETATM   17  C10 UNL     1       1.375  -0.910   0.311  1.00  0.00     0.040 C 
ENDBRANCH   2  12
BRANCH   5  18
HETATM   18  O5  UNL     1      -3.743   1.113   0.563  1.00  0.00    -0.356 OA
ATOM     19  H5  UNL     1      -4.485   1.704   0.514  1.00  0.00     0.218 HD
ENDBRANCH   5  18
BRANCH   4  20
HETATM   20  N2  UNL     1      -3.149   3.769  -0.540  1.00  0.00    -0.105 N 
HETATM   21  O3  UNL     1      -2.777   4.856  -1.020  1.00  0.00    -0.531 OA
HETATM   22  O4  UNL     1      -4.456   3.611  -0.189  1.00  0.00    -0.531 OA
ENDBRANCH   4  20
TORSDOF 5
