REMARK  9 active torsions:
REMARK  status: ('A' for Active; 'I' for Inactive)
REMARK    1  A    between atoms: C1_2  and  C2_4 
REMARK    2  A    between atoms: C2_4  and  C3_5 
REMARK    3  A    between atoms: C2_4  and  C5_14 
REMARK    4  A    between atoms: C3_5  and  S1_6 
REMARK    5  A    between atoms: S1_6  and  C4_7 
REMARK    6  A    between atoms: C4_7  and  N2_8 
REMARK    7  A    between atoms: C4_7  and  O2_12 
REMARK    8  A    between atoms: C5_14  and  C6_15 
REMARK    9  A    between atoms: C6_15  and  C7_17 
ROOT
HETATM    1  C2  UNL     1       0.253  -0.434   0.907  1.00  0.00     0.091 C 
ENDROOT
BRANCH   1   2
HETATM    2  C1  UNL     1       0.290  -1.666   1.729  1.00  0.00     0.236 C 
HETATM    3  N1  UNL     1       0.961  -2.830   1.275  1.00  0.00    -0.062 NA
HETATM    4  O1  UNL     1      -0.282  -1.684   2.849  1.00  0.00    -0.276 OA
ENDBRANCH   1   2
BRANCH   1   5
HETATM    5  C3  UNL     1       1.700  -0.024   0.687  1.00  0.00     0.092 C 
BRANCH   5   6
HETATM    6  S1  UNL     1       1.809   1.478  -0.311  1.00  0.00    -0.109 SA
BRANCH   6   7
HETATM    7  C4  UNL     1       3.586   1.862  -0.510  1.00  0.00     0.380 C 
BRANCH   7   8
HETATM    8  N2  UNL     1       4.248   0.839  -1.298  1.00  0.00    -0.044 N 
ATOM      9  H23 UNL     1       4.104  -0.092  -0.906  1.00  0.00     0.278 HD
ATOM     10  H22 UNL     1       3.789   0.699  -2.198  1.00  0.00     0.278 HD
ATOM     11  H21 UNL     1       5.239   1.053  -1.409  1.00  0.00     0.278 HD
ENDBRANCH   7   8
BRANCH   7  12
HETATM   12  O2  UNL     1       3.752   3.103  -1.131  1.00  0.00    -0.362 OA
ATOM     13  H2  UNL     1       4.675   3.302  -1.234  1.00  0.00     0.213 HD
ENDBRANCH   7  12
ENDBRANCH   6   7
ENDBRANCH   5   6
ENDBRANCH   1   5
BRANCH   1  14
HETATM   14  C5  UNL     1      -0.445  -0.663  -0.430  1.00  0.00     0.099 C 
BRANCH  14  15
HETATM   15  C6  UNL     1      -1.825  -1.098  -0.269  1.00  0.00     0.167 C 
HETATM   16  O3  UNL     1      -2.087  -2.308  -0.074  1.00  0.00    -0.292 OA
BRANCH  15  17
HETATM   17  C7  UNL     1      -2.944  -0.125  -0.331  1.00  0.00     0.050 A 
HETATM   18  C8  UNL     1      -4.280  -0.388  -0.200  1.00  0.00     0.023 A 
HETATM   19  C9  UNL     1      -5.127   0.648  -0.288  1.00  0.00     0.009 A 
HETATM   20  C10 UNL     1      -4.578   1.887  -0.503  1.00  0.00     0.050 A 
HETATM   21  S2  UNL     1      -2.908   1.559  -0.575  1.00  0.00    -0.098 SA
ENDBRANCH  15  17
ENDBRANCH  14  15
ENDBRANCH   1  14
TORSDOF 9
