REMARK  15 active torsions:
REMARK  status: ('A' for Active; 'I' for Inactive)
REMARK    1  A    between atoms: C2_2  and  N1_4 
REMARK    2  A    between atoms: N1_4  and  C4_6 
REMARK    3  A    between atoms: C9_14  and  O1_15 
REMARK    4  A    between atoms: O1_15  and  C10_16 
REMARK    5  A    between atoms: C10_16  and  C11_17 
REMARK    6  A    between atoms: C12_20  and  C13_21 
REMARK    7  A    between atoms: C13_21  and  O4_22 
REMARK    8  A    between atoms: O4_22  and  C14_23 
REMARK    9  A    between atoms: C14_23  and  C15_24 
REMARK   10  A    between atoms: C15_24  and  N3_25 
REMARK       I    between atoms: N3_25  and  C16_27 
REMARK   11  A    between atoms: C16_27  and  C17_29 
REMARK   12  A    between atoms: C17_29  and  N4_30 
REMARK   13  A    between atoms: C18_34  and  C19_35 
REMARK   14  A    between atoms: C19_35  and  O6_36 
REMARK   15  A    between atoms: C22_40  and  O7_41 
ROOT
HETATM    1  C4  UNL     1      -3.420   0.270   0.267  1.00  0.00     0.141 C 
HETATM    2  C5  UNL     1      -3.167   0.704  -1.135  1.00  0.00     0.211 C 
HETATM    3  C6  UNL     1      -2.741   2.150  -1.152  1.00  0.00     0.037 C 
HETATM    4  C7  UNL     1      -1.301   2.057  -1.528  1.00  0.00     0.038 C 
HETATM    5  C8  UNL     1      -0.902   0.588  -1.354  1.00  0.00     0.221 C 
HETATM    6  N2  UNL     1      -2.128  -0.082  -1.696  1.00  0.00    -0.062 N 
ATOM      7  H21 UNL     1      -2.237  -0.249  -2.696  1.00  0.00     0.278 HD
ATOM      8  H22 UNL     1      -2.154  -1.060  -1.406  1.00  0.00     0.278 HD
HETATM    9  C9  UNL     1      -0.446   0.293   0.052  1.00  0.00     0.102 C 
HETATM   10  C12 UNL     1       0.950  -0.317   0.067  1.00  0.00     0.053 C 
HETATM   11  C18 UNL     1       0.840  -1.725  -0.341  1.00  0.00     0.019 C 
HETATM   12  C20 UNL     1      -0.595  -2.108   0.064  1.00  0.00     0.017 C 
HETATM   13  C21 UNL     1      -1.165  -0.832   0.708  1.00  0.00     0.054 C 
HETATM   14  C22 UNL     1      -2.621  -0.838   0.813  1.00  0.00     0.152 C 
ENDROOT
BRANCH  10  15
HETATM   15  C13 UNL     1       1.987   0.533  -0.528  1.00  0.00     0.175 C 
BRANCH  15  16
HETATM   16  O4  UNL     1       3.227  -0.062  -0.480  1.00  0.00    -0.389 OA
BRANCH  16  17
HETATM   17  C14 UNL     1       3.726  -0.349   0.756  1.00  0.00     0.187 C 
BRANCH  17  18
HETATM   18  C15 UNL     1       5.095  -0.987   0.642  1.00  0.00     0.148 C 
BRANCH  18  19
HETATM   19  N3  UNL     1       6.074  -0.163  -0.014  1.00  0.00    -0.358 N 
HETATM   20  C16 UNL     1       6.484   1.097   0.475  1.00  0.00     0.243 C 
HETATM   21  O5  UNL     1       6.014   1.578   1.532  1.00  0.00    -0.272 OA
ATOM     22  H3  UNL     1       6.494  -0.506  -0.878  1.00  0.00     0.162 HD
BRANCH  20  23
HETATM   23  C17 UNL     1       7.497   1.935  -0.229  1.00  0.00     0.331 C 
BRANCH  23  24
HETATM   24  N4  UNL     1       7.985   1.307  -1.433  1.00  0.00    -0.071 N 
ATOM     25  H43 UNL     1       8.348   0.374  -1.240  1.00  0.00     0.274 HD
ATOM     26  H42 UNL     1       7.217   1.057  -2.056  1.00  0.00     0.274 HD
ATOM     27  H41 UNL     1       8.678   1.880  -1.915  1.00  0.00     0.274 HD
ENDBRANCH  23  24
ENDBRANCH  20  23
ENDBRANCH  18  19
ENDBRANCH  17  18
ENDBRANCH  16  17
ENDBRANCH  15  16
ENDBRANCH  10  15
BRANCH   9  28
HETATM   28  O1  UNL     1      -0.609   1.407   0.779  1.00  0.00    -0.367 OA
BRANCH  28  29
HETATM   29  C10 UNL     1      -0.308   1.530   2.050  1.00  0.00     0.282 C 
BRANCH  29  30
HETATM   30  C11 UNL     1      -0.607   2.901   2.537  1.00  0.00     0.197 C 
HETATM   31  O2  UNL     1      -1.077   3.746   1.745  1.00  0.00    -0.646 OA
HETATM   32  O3  UNL     1      -0.388   3.300   3.844  1.00  0.00    -0.646 OA
ENDBRANCH  29  30
ENDBRANCH  28  29
ENDBRANCH   9  28
BRANCH  11  33
HETATM   33  C19 UNL     1       1.007  -2.156  -1.726  1.00  0.00     0.169 C 
BRANCH  33  34
HETATM   34  O6  UNL     1       2.190  -1.918  -2.369  1.00  0.00    -0.400 OA
ATOM     35  H6  UNL     1       2.299  -2.198  -3.270  1.00  0.00     0.209 HD
ENDBRANCH  33  34
ENDBRANCH  11  33
BRANCH  14  36
HETATM   36  O7  UNL     1      -2.962  -0.874   2.199  1.00  0.00    -0.388 OA
HETATM   37  C23 UNL     1      -3.588  -2.022   2.582  1.00  0.00     0.202 C 
ENDBRANCH  14  36
BRANCH   1  38
HETATM   38  N1  UNL     1      -4.831  -0.047   0.359  1.00  0.00    -0.385 N 
ATOM     39  H1  UNL     1      -5.351   0.345   1.144  1.00  0.00     0.160 HD
BRANCH  38  40
HETATM   40  C2  UNL     1      -5.551  -0.866  -0.564  1.00  0.00    -0.008 C 
HETATM   41  C1  UNL     1      -6.656  -0.374  -1.088  1.00  0.00     0.037 C 
HETATM   42  C3  UNL     1      -5.150  -2.226  -0.976  1.00  0.00     0.067 C 
ENDBRANCH  38  40
ENDBRANCH   1  38
TORSDOF 15
