REMARK  17 active torsions:
REMARK  status: ('A' for Active; 'I' for Inactive)
REMARK    1  A    between atoms: C2_2  and  C3_4 
REMARK    2  A    between atoms: C7_8  and  C8_9 
REMARK    3  A    between atoms: C8_9  and  O2_10 
REMARK    4  A    between atoms: C8_9  and  C9_12 
REMARK    5  A    between atoms: C9_12  and  O3_13 
REMARK    6  A    between atoms: C9_12  and  C10_15 
REMARK    7  A    between atoms: C10_15  and  O4_16 
REMARK    8  A    between atoms: C10_15  and  C11_18 
REMARK    9  A    between atoms: C11_18  and  C12_19 
REMARK   10  A    between atoms: C12_19  and  C14_21 
REMARK   11  A    between atoms: C14_21  and  O5_22 
REMARK   12  A    between atoms: C14_21  and  C15_24 
REMARK   13  A    between atoms: C16_25  and  C17_26 
REMARK   14  A    between atoms: C17_26  and  C18_27 
REMARK   15  A    between atoms: C18_27  and  C19_28 
REMARK       I    between atoms: C19_28  and  N1_30 
REMARK   16  A    between atoms: N1_30  and  C20_32 
REMARK   17  A    between atoms: C20_32  and  C21_33 
ROOT
HETATM    1  C10 UNL     1      -0.572  -0.483   0.174  1.00  0.00     0.150 C 
ENDROOT
BRANCH   1   2
HETATM    2  C9  UNL     1      -1.148  -1.632   0.931  1.00  0.00     0.179 C 
BRANCH   2   3
HETATM    3  C8  UNL     1      -2.575  -1.880   0.372  1.00  0.00     0.174 C 
BRANCH   3   4
HETATM    4  C7  UNL     1      -3.443  -0.756   0.637  1.00  0.00     0.044 C 
HETATM    5  C6  UNL     1      -4.727  -0.576   0.411  1.00  0.00     0.075 A 
HETATM    6  C4  UNL     1      -5.736  -1.440  -0.185  1.00  0.00    -0.016 A 
HETATM    7  O7  UNL     1      -5.419   0.590   0.732  1.00  0.00    -0.341 OA
HETATM    8  C3  UNL     1      -6.915  -0.855  -0.218  1.00  0.00     0.025 A 
HETATM    9  C5  UNL     1      -5.509  -2.816  -0.735  1.00  0.00     0.052 C 
HETATM   10  C22 UNL     1      -6.745   0.467   0.445  1.00  0.00     0.162 A 
HETATM   11  C23 UNL     1      -7.506   0.399   1.767  1.00  0.00     0.045 C 
BRANCH   8  12
HETATM   12  C2  UNL     1      -8.214  -1.320  -0.752  1.00  0.00     0.154 C 
HETATM   13  C1  UNL     1      -9.416  -0.412  -0.638  1.00  0.00     0.096 C 
HETATM   14  O1  UNL     1      -8.443  -2.404  -1.300  1.00  0.00    -0.293 OA
ENDBRANCH   8  12
ENDBRANCH   3   4
BRANCH   3  15
HETATM   15  O2  UNL     1      -2.485  -2.113  -0.993  1.00  0.00    -0.389 OA
ATOM     16  H2  UNL     1      -1.914  -2.852  -1.167  1.00  0.00     0.210 HD
ENDBRANCH   3  15
ENDBRANCH   2   3
BRANCH   2  17
HETATM   17  O3  UNL     1      -0.359  -2.767   0.713  1.00  0.00    -0.390 OA
ATOM     18  H3  UNL     1       0.514  -2.615   1.055  1.00  0.00     0.210 HD
ENDBRANCH   2  17
ENDBRANCH   1   2
BRANCH   1  19
HETATM   19  O4  UNL     1      -0.527  -0.764  -1.183  1.00  0.00    -0.393 OA
ATOM     20  H4  UNL     1      -0.160  -0.032  -1.665  1.00  0.00     0.210 HD
ENDBRANCH   1  19
BRANCH   1  21
HETATM   21  C11 UNL     1       0.872  -0.196   0.610  1.00  0.00     0.041 C 
BRANCH  21  22
HETATM   22  C12 UNL     1       1.318   0.994  -0.250  1.00  0.00     0.016 C 
HETATM   23  C13 UNL     1       0.419   2.175   0.006  1.00  0.00     0.013 C 
BRANCH  22  24
HETATM   24  C14 UNL     1       2.759   1.354   0.058  1.00  0.00     0.144 C 
BRANCH  24  25
HETATM   25  O5  UNL     1       2.916   1.707   1.395  1.00  0.00    -0.391 OA
ATOM     26  H5  UNL     1       3.818   1.932   1.588  1.00  0.00     0.210 HD
ENDBRANCH  24  25
BRANCH  24  27
HETATM   27  C15 UNL     1       3.172   2.422  -0.877  1.00  0.00     0.001 C 
HETATM   28  C16 UNL     1       4.423   2.796  -1.022  1.00  0.00    -0.028 C 
BRANCH  28  29
HETATM   29  C17 UNL     1       5.497   2.152  -0.242  1.00  0.00     0.036 C 
BRANCH  29  30
HETATM   30  C18 UNL     1       6.534   1.490  -1.150  1.00  0.00     0.106 C 
BRANCH  30  31
HETATM   31  C19 UNL     1       7.564   0.869  -0.278  1.00  0.00     0.217 C 
HETATM   32  O6  UNL     1       7.452   0.962   0.971  1.00  0.00    -0.274 OA
HETATM   33  N1  UNL     1       8.646   0.187  -0.890  1.00  0.00    -0.360 N 
ATOM     34  H1  UNL     1       8.691   0.145  -1.908  1.00  0.00     0.162 HD
BRANCH  33  35
HETATM   35  C20 UNL     1       9.684  -0.448  -0.120  1.00  0.00     0.133 C 
BRANCH  35  36
HETATM   36  C21 UNL     1       9.108  -1.538   0.748  1.00  0.00     0.104 C 
HETATM   37 BR1  UNL     1       8.236  -2.882  -0.336  1.00  0.00    -0.095 Br
ENDBRANCH  35  36
ENDBRANCH  33  35
ENDBRANCH  30  31
ENDBRANCH  29  30
ENDBRANCH  28  29
ENDBRANCH  24  27
ENDBRANCH  22  24
ENDBRANCH  21  22
ENDBRANCH   1  21
TORSDOF 17
