REMARK  13 active torsions:
REMARK  status: ('A' for Active; 'I' for Inactive)
REMARK    1  A    between atoms: C1_2  and  C2_4 
REMARK    2  A    between atoms: C2_4  and  C3_5 
REMARK    3  A    between atoms: C3_5  and  C4_6 
REMARK    4  A    between atoms: C4_6  and  C5_7 
REMARK    5  A    between atoms: C5_7  and  C6_8 
REMARK    6  A    between atoms: N1_11  and  C9_12 
REMARK    7  A    between atoms: C9_12  and  O3_13 
REMARK    8  A    between atoms: C9_12  and  C10_15 
REMARK    9  A    between atoms: C10_15  and  O4_16 
REMARK   10  A    between atoms: C10_15  and  C11_18 
REMARK   11  A    between atoms: C10_15  and  C17_29 
REMARK   12  A    between atoms: C11_18  and  C12_19 
REMARK   13  A    between atoms: N2_23  and  O5_24 
ROOT
HETATM    1  C10 UNL     1      -2.263  -0.746   0.070  1.00  0.00     0.144 C 
ENDROOT
BRANCH   1   2
HETATM    2  C9  UNL     1      -0.961  -1.190  -0.497  1.00  0.00     0.153 C 
BRANCH   2   3
HETATM    3  N1  UNL     1       0.348  -1.148  -0.067  1.00  0.00    -0.363 N 
HETATM    4  C8  UNL     1       1.381  -1.726  -0.988  1.00  0.00     0.125 C 
HETATM    5  C7  UNL     1       2.504  -0.743  -1.233  1.00  0.00     0.024 C 
HETATM    6  C6  UNL     1       2.513   0.342  -0.210  1.00  0.00    -0.012 C 
HETATM    7  C24 UNL     1       2.315  -0.369   1.139  1.00  0.00     0.024 C 
HETATM    8  C23 UNL     1       0.784  -0.616   1.186  1.00  0.00     0.125 C 
BRANCH   6   9
HETATM    9  C5  UNL     1       3.755   1.142  -0.261  1.00  0.00     0.005 C 
BRANCH   9  10
HETATM   10  C4  UNL     1       5.003   0.370  -0.015  1.00  0.00     0.001 C 
BRANCH  10  11
HETATM   11  C3  UNL     1       6.235   1.295  -0.064  1.00  0.00     0.010 C 
BRANCH  11  12
HETATM   12  C2  UNL     1       7.448   0.405   0.199  1.00  0.00     0.113 C 
BRANCH  12  13
HETATM   13  C1  UNL     1       8.661   1.282   0.158  1.00  0.00     0.172 C 
HETATM   14  O1  UNL     1       8.572   2.528  -0.067  1.00  0.00    -0.648 OA
HETATM   15  O2  UNL     1       9.914   0.746   0.365  1.00  0.00    -0.648 OA
ENDBRANCH  12  13
ENDBRANCH  11  12
ENDBRANCH  10  11
ENDBRANCH   9  10
ENDBRANCH   6   9
ENDBRANCH   2   3
BRANCH   2  16
HETATM   16  O3  UNL     1      -1.148  -1.740  -1.669  1.00  0.00    -0.347 OA
ATOM     17  H3  UNL     1      -2.050  -1.769  -1.965  1.00  0.00     0.219 HD
ENDBRANCH   2  16
ENDBRANCH   1   2
BRANCH   1  18
HETATM   18  O4  UNL     1      -2.010  -0.103   1.274  1.00  0.00    -0.377 OA
ATOM     19  H4  UNL     1      -2.841   0.180   1.636  1.00  0.00     0.211 HD
ENDBRANCH   1  18
BRANCH   1  20
HETATM   20  C11 UNL     1      -3.015  -1.991   0.280  1.00  0.00     0.034 C 
BRANCH  20  21
HETATM   21  C12 UNL     1      -4.354  -2.146   0.718  1.00  0.00     0.010 A 
HETATM   22  C13 UNL     1      -5.407  -2.150  -0.220  1.00  0.00     0.063 A 
HETATM   23 CL1  UNL     1      -5.130  -2.153  -1.953  1.00  0.00    -0.082 Cl
HETATM   24  C14 UNL     1      -6.716  -2.248   0.181  1.00  0.00     0.147 A 
HETATM   25  N2  UNL     1      -7.068  -2.348   1.461  1.00  0.00    -0.244 N 
HETATM   26  C15 UNL     1      -6.099  -2.352   2.377  1.00  0.00     0.147 A 
HETATM   27  C16 UNL     1      -4.783  -2.255   2.023  1.00  0.00     0.063 A 
HETATM   28 CL2  UNL     1      -3.636  -2.344   3.374  1.00  0.00    -0.082 Cl
BRANCH  25  29
HETATM   29  O5  UNL     1      -8.404  -2.444   1.820  1.00  0.00    -0.284 OA
ATOM     30  H5  UNL     1      -8.655  -2.515   2.733  1.00  0.00     0.245 HD
ENDBRANCH  25  29
ENDBRANCH  20  21
ENDBRANCH   1  20
BRANCH   1  31
HETATM   31  C17 UNL     1      -2.777   0.331  -0.847  1.00  0.00     0.032 C 
HETATM   32  C18 UNL     1      -1.587   1.327  -0.802  1.00  0.00     0.008 C 
HETATM   33  C19 UNL     1      -1.907   2.627  -1.445  1.00  0.00     0.001 C 
HETATM   34  C20 UNL     1      -2.794   3.328  -0.400  1.00  0.00     0.000 C 
HETATM   35  C21 UNL     1      -4.035   2.531  -0.383  1.00  0.00     0.001 C 
HETATM   36  C22 UNL     1      -3.981   1.069  -0.359  1.00  0.00     0.008 C 
ENDBRANCH   1  31
TORSDOF 13
