REMARK  2 active torsions:
REMARK  status: ('A' for Active; 'I' for Inactive)
REMARK    1  A    between atoms: O1_2  and  N1_3 
REMARK    2  A    between atoms: C5_8  and  O2_9 
ROOT
HETATM    1  N1  UNL     1       1.957   0.436  -0.869  1.00  0.00    -0.249 N 
ATOM      2  H1  UNL     1       2.139   1.258  -1.445  1.00  0.00     0.196 HD
HETATM    3  C2  UNL     1       0.821   0.302  -0.281  1.00  0.00     0.141 C 
HETATM    4  C3  UNL     1       0.565  -0.895   0.553  1.00  0.00     0.088 C 
HETATM    5  C4  UNL     1      -0.829  -1.415   0.448  1.00  0.00     0.045 C 
HETATM    6  C5  UNL     1      -1.812  -0.435  -0.113  1.00  0.00     0.186 C 
HETATM    7  C6  UNL     1      -1.392   0.947   0.345  1.00  0.00     0.233 C 
HETATM    8  C7  UNL     1      -2.492   1.917   0.039  1.00  0.00     0.088 C 
HETATM    9  F1  UNL     1      -1.104   0.930   1.688  1.00  0.00    -0.209 F 
HETATM   10  O3  UNL     1      -0.199   1.248  -0.396  1.00  0.00    -0.293 OA
ENDROOT
BRANCH   1  11
HETATM   11  O1  UNL     1       2.909  -0.510  -0.724  1.00  0.00    -0.284 OA
HETATM   12  C1  UNL     1       4.238  -0.266  -0.318  1.00  0.00     0.237 C 
ENDBRANCH   1  11
BRANCH   6  13
HETATM   13  O2  UNL     1      -3.111  -0.662   0.328  1.00  0.00    -0.390 OA
ATOM     14  H2  UNL     1      -3.735  -0.040  -0.028  1.00  0.00     0.210 HD
ENDBRANCH   6  13
TORSDOF 2
