REMARK  2 active torsions:
REMARK  status: ('A' for Active; 'I' for Inactive)
REMARK    1  A    between atoms: C2_2  and  N1_3 
REMARK    2  A    between atoms: N2_9  and  O2_11 
ROOT
HETATM    1  N1  UNL     1      -0.192   0.059  -0.329  1.00  0.00    -0.339 N 
HETATM    2  C3  UNL     1       0.546  -0.971  -1.017  1.00  0.00     0.296 C 
HETATM    3  O1  UNL     1       1.884  -0.657  -1.184  1.00  0.00    -0.362 OA
HETATM    4  C4  UNL     1       2.608  -0.623  -0.025  1.00  0.00     0.252 C 
HETATM    5  S1  UNL     1       2.135   0.894   0.853  1.00  0.00    -0.066 SA
HETATM    6  C5  UNL     1       0.419   1.150   0.341  1.00  0.00     0.165 C 
HETATM    7  N2  UNL     1      -0.198   2.261   0.576  1.00  0.00    -0.247 N 
ATOM      8  H2  UNL     1      -1.166   2.406   0.288  1.00  0.00     0.196 HD
ENDROOT
BRANCH   1   9
HETATM    9  C2  UNL     1      -1.633   0.012  -0.299  1.00  0.00     0.122 C 
HETATM   10  C1  UNL     1      -2.198  -1.122   0.507  1.00  0.00     0.026 C 
ENDBRANCH   1   9
BRANCH   7  11
HETATM   11  O2  UNL     1       0.510   3.237   1.232  1.00  0.00    -0.288 OA
ATOM     12  H2  UNL     1       0.056   4.054   1.405  1.00  0.00     0.244 HD
ENDBRANCH   7  11
TORSDOF 2
