REMARK  5 active torsions:
REMARK  status: ('A' for Active; 'I' for Inactive)
REMARK    1  A    between atoms: C2_2  and  C3_3 
REMARK    2  A    between atoms: C2_2  and  C4_6 
REMARK    3  A    between atoms: C4_6  and  N1_8 
REMARK    4  A    between atoms: N2_10  and  C5_12 
REMARK    5  A    between atoms: C6_14  and  N3_15 
ROOT
HETATM    1  N1  UNL     1       0.882  -1.347  -0.259  1.00  0.00    -0.316 N 
ATOM      2  H1  UNL     1       1.559  -2.105  -0.172  1.00  0.00     0.182 HD
HETATM    3  N2  UNL     1      -0.330  -1.638  -0.436  1.00  0.00    -0.294 N 
ATOM      4  H2  UNL     1      -0.586  -2.624  -0.485  1.00  0.00     0.187 HD
ENDROOT
BRANCH   3   5
HETATM    5  C5  UNL     1      -1.376  -0.655  -0.573  1.00  0.00     0.133 A 
HETATM    6  S1  UNL     1      -1.535   0.629  -1.684  1.00  0.00    -0.032 SA
HETATM    7  C6  UNL     1      -3.022   1.250  -1.136  1.00  0.00     0.145 A 
HETATM    8  N4  UNL     1      -3.336   0.441  -0.117  1.00  0.00    -0.323 N 
HETATM    9  C7  UNL     1      -2.514  -0.526   0.179  1.00  0.00     0.153 A 
ATOM     10  H4  UNL     1      -4.196   0.578   0.414  1.00  0.00     0.169 HD
HETATM   11  N5  UNL     1      -2.757  -1.466   1.269  1.00  0.00    -0.080 NA
BRANCH   7  12
HETATM   12  N3  UNL     1      -3.725   2.275  -1.579  1.00  0.00    -0.380 N 
ATOM     13  H32 UNL     1      -3.486   2.892  -2.356  1.00  0.00     0.158 HD
ATOM     14  H31 UNL     1      -4.616   2.647  -1.251  1.00  0.00     0.158 HD
ENDBRANCH   7  12
ENDBRANCH   3   5
BRANCH   1  15
HETATM   15  C4  UNL     1       1.350   0.009  -0.174  1.00  0.00     0.204 C 
HETATM   16 BR1  UNL     1       0.417   0.882   1.295  1.00  0.00    -0.062 Br
BRANCH  15  17
HETATM   17  C2  UNL     1       2.820   0.078   0.031  1.00  0.00     0.009 C 
HETATM   18  C1  UNL     1       3.601   0.674  -0.841  1.00  0.00     0.023 C 
BRANCH  17  19
HETATM   19  C3  UNL     1       3.383  -0.547   1.252  1.00  0.00     0.384 C 
HETATM   20  F1  UNL     1       3.101  -1.907   1.296  1.00  0.00    -0.209 F 
HETATM   21  F2  UNL     1       2.832   0.082   2.350  1.00  0.00    -0.209 F 
ENDBRANCH  17  19
ENDBRANCH  15  17
ENDBRANCH   1  15
TORSDOF 5
