REMARK  18 active torsions:
REMARK  status: ('A' for Active; 'I' for Inactive)
REMARK    1  A    between atoms: C2_2  and  O1_3 
REMARK    2  A    between atoms: O1_3  and  C3_4 
REMARK       I    between atoms: C3_4  and  N1_6 
REMARK    3  A    between atoms: N1_6  and  C4_7 
REMARK    4  A    between atoms: N1_6  and  C9_12 
REMARK    5  A    between atoms: C4_7  and  C5_8 
REMARK    6  A    between atoms: C5_8  and  C6_9 
REMARK    7  A    between atoms: C9_12  and  C10_13 
REMARK    8  A    between atoms: C9_12  and  C28_42 
REMARK       I    between atoms: C10_13  and  N2_15 
REMARK       I    between atoms: N2_15  and  C11_17 
REMARK    9  A    between atoms: C11_17  and  C12_19 
REMARK   10  A    between atoms: C12_19  and  C13_20 
REMARK   11  A    between atoms: C12_19  and  C24_38 
REMARK   12  A    between atoms: C13_20  and  C14_21 
REMARK   13  A    between atoms: C14_21  and  O5_22 
REMARK   14  A    between atoms: C14_21  and  C15_24 
REMARK   15  A    between atoms: C15_24  and  N3_27 
REMARK   16  A    between atoms: N3_27  and  C18_29 
REMARK   17  A    between atoms: C18_29  and  C19_30 
REMARK   18  A    between atoms: C18_29  and  C21_35 
REMARK       I    between atoms: C19_30  and  N4_32 
ROOT
HETATM    1  C12 UNL     1       0.962  -1.025  -1.987  1.00  0.00     0.088 C 
ENDROOT
BRANCH   1   2
HETATM    2  C11 UNL     1      -0.544  -1.004  -1.752  1.00  0.00     0.229 C 
HETATM    3  N2  UNL     1      -1.192  -0.975  -0.522  1.00  0.00    -0.295 N 
HETATM    4  C10 UNL     1      -2.605  -0.872  -0.420  1.00  0.00     0.248 C 
ATOM      5  H2  UNL     1      -0.637  -1.029   0.332  1.00  0.00     0.171 HD
HETATM    6  O3  UNL     1      -3.230  -0.881  -1.541  1.00  0.00    -0.271 OA
HETATM    7  O4  UNL     1      -1.245  -1.012  -2.796  1.00  0.00    -0.273 OA
BRANCH   4   8
HETATM    8  C9  UNL     1      -3.367  -0.750   0.825  1.00  0.00     0.189 C 
BRANCH   8   9
HETATM    9  N1  UNL     1      -4.602  -0.055   0.650  1.00  0.00    -0.314 N 
HETATM   10  C3  UNL     1      -5.692  -0.418  -0.091  1.00  0.00     0.363 C 
HETATM   11  O2  UNL     1      -6.724   0.365  -0.095  1.00  0.00    -0.238 OA
BRANCH  10  12
HETATM   12  O1  UNL     1      -5.863  -1.529  -0.861  1.00  0.00    -0.304 OA
BRANCH  12  13
HETATM   13  C2  UNL     1      -7.046  -1.778  -1.576  1.00  0.00     0.176 C 
HETATM   14  C1  UNL     1      -6.986  -3.078  -2.347  1.00  0.00     0.034 C 
ENDBRANCH  12  13
ENDBRANCH  10  12
BRANCH   9  15
HETATM   15  C4  UNL     1      -4.711   1.240   1.377  1.00  0.00     0.129 C 
BRANCH  15  16
HETATM   16  C5  UNL     1      -4.209   2.358   0.497  1.00  0.00     0.024 C 
BRANCH  16  17
HETATM   17  C6  UNL     1      -4.297   3.677   1.184  1.00  0.00    -0.021 C 
HETATM   18  C7  UNL     1      -3.792   4.813   0.302  1.00  0.00     0.009 C 
HETATM   19  C8  UNL     1      -5.674   4.039   1.644  1.00  0.00     0.009 C 
ENDBRANCH  16  17
ENDBRANCH  15  16
ENDBRANCH   9  15
ENDBRANCH   8   9
BRANCH   8  20
HETATM   20  C28 UNL     1      -3.477  -2.051   1.531  1.00  0.00    -0.022 C 
HETATM   21  C29 UNL     1      -4.135  -1.865   2.918  1.00  0.00     0.017 C 
HETATM   22  C30 UNL     1      -3.974  -3.237   0.800  1.00  0.00     0.017 C 
HETATM   23  C31 UNL     1      -2.027  -2.449   1.953  1.00  0.00     0.017 C 
ENDBRANCH   8  20
ENDBRANCH   4   8
ENDBRANCH   1   2
BRANCH   1  24
HETATM   24  C13 UNL     1       1.468   0.020  -1.061  1.00  0.00     0.049 C 
BRANCH  24  25
HETATM   25  C14 UNL     1       2.920   0.355  -1.071  1.00  0.00     0.146 C 
BRANCH  25  26
HETATM   26  O5  UNL     1       3.229   0.822  -2.375  1.00  0.00    -0.393 OA
ATOM     27  H5  UNL     1       4.155   1.036  -2.381  1.00  0.00     0.210 HD
ENDBRANCH  25  26
BRANCH  25  28
HETATM   28  C15 UNL     1       3.208   1.552  -0.176  1.00  0.00     0.045 C 
HETATM   29  C16 UNL     1       2.596   1.312   1.200  1.00  0.00     0.040 C 
HETATM   30  C17 UNL     1       2.365   2.690  -0.793  1.00  0.00     0.040 C 
BRANCH  28  31
HETATM   31  N3  UNL     1       4.519   1.965  -0.163  1.00  0.00    -0.398 N 
ATOM     32  H3  UNL     1       4.701   2.890  -0.553  1.00  0.00     0.154 HD
BRANCH  31  33
HETATM   33  C18 UNL     1       5.615   1.284   0.312  1.00  0.00     0.173 C 
BRANCH  33  34
HETATM   34  C19 UNL     1       6.130   0.064  -0.321  1.00  0.00     0.240 C 
HETATM   35  O6  UNL     1       6.228  -0.042  -1.568  1.00  0.00    -0.271 OA
HETATM   36  N4  UNL     1       6.553  -1.079   0.449  1.00  0.00    -0.364 N 
HETATM   37  C20 UNL     1       7.045  -2.236  -0.241  1.00  0.00     0.149 C 
ATOM     38  H4  UNL     1       6.503  -1.065   1.468  1.00  0.00     0.161 HD
ENDBRANCH  33  34
BRANCH  33  39
HETATM   39  C21 UNL     1       6.814   2.286   0.313  1.00  0.00     0.009 C 
HETATM   40  C22 UNL     1       6.473   3.464   1.219  1.00  0.00     0.012 C 
HETATM   41  C23 UNL     1       7.098   2.770  -1.069  1.00  0.00     0.012 C 
ENDBRANCH  33  39
ENDBRANCH  31  33
ENDBRANCH  28  31
ENDBRANCH  25  28
ENDBRANCH  24  25
ENDBRANCH   1  24
BRANCH   1  42
HETATM   42  C24 UNL     1       1.456  -2.397  -1.783  1.00  0.00    -0.039 C 
HETATM   43  C25 UNL     1       2.903  -2.599  -2.050  1.00  0.00     0.015 C 
HETATM   44  C26 UNL     1       1.235  -2.892  -0.343  1.00  0.00     0.015 C 
HETATM   45  C27 UNL     1       0.695  -3.400  -2.664  1.00  0.00     0.015 C 
ENDBRANCH   1  42
TORSDOF 18
