REMARK  6 active torsions:
REMARK  status: ('A' for Active; 'I' for Inactive)
REMARK    1  A    between atoms: C3_5  and  N2_6 
REMARK    2  A    between atoms: C4_11  and  N4_12 
REMARK    3  A    between atoms: N4_12  and  C5_14 
REMARK    4  A    between atoms: C5_14  and  C6_15 
REMARK    5  A    between atoms: C6_15  and  N5_16 
REMARK    6  A    between atoms: N5_16  and  N6_17 
ROOT
HETATM    1  C1  UNL     1      -3.332  -2.105   0.144  1.00  0.00     0.070 C 
HETATM    2  C2  UNL     1      -2.653  -0.773   0.146  1.00  0.00     0.047 A 
HETATM    3  N1  UNL     1      -3.407   0.330   0.183  1.00  0.00    -0.195 N 
ATOM      4  H1  UNL     1      -4.424   0.260   0.209  1.00  0.00     0.184 HD
HETATM    5  C3  UNL     1      -2.804   1.538   0.185  1.00  0.00     0.677 A 
HETATM    6  N3  UNL     1      -1.469   1.638   0.150  1.00  0.00    -0.176 N 
ATOM      7  H3  UNL     1      -1.057   2.571   0.153  1.00  0.00     0.186 HD
HETATM    8  C4  UNL     1      -0.625   0.560   0.110  1.00  0.00     0.139 A 
HETATM    9  C7  UNL     1      -1.264  -0.662   0.109  1.00  0.00     0.111 A 
HETATM   10  C8  UNL     1      -0.548  -1.900   0.071  1.00  0.00     0.105 C 
HETATM   11  N7  UNL     1       0.010  -2.918   0.041  1.00  0.00    -0.191 NA
ENDROOT
BRANCH   8  12
HETATM   12  N4  UNL     1       0.617   0.729   0.079  1.00  0.00    -0.373 N 
ATOM     13  H4  UNL     1       0.858   1.720   0.089  1.00  0.00     0.161 HD
BRANCH  12  14
HETATM   14  C5  UNL     1       1.754  -0.069   0.035  1.00  0.00     0.139 C 
BRANCH  14  15
HETATM   15  C6  UNL     1       3.048   0.748  -0.062  1.00  0.00     0.153 C 
BRANCH  15  16
HETATM   16  N5  UNL     1       4.188  -0.134  -0.104  1.00  0.00    -0.147 NA
BRANCH  16  17
HETATM   17  N6  UNL     1       5.392   0.559  -0.192  1.00  0.00    -0.348 N 
ATOM     18  H62 UNL     1       5.445   1.577  -0.222  1.00  0.00     0.172 HD
ATOM     19  H61 UNL     1       6.198  -0.065  -0.222  1.00  0.00     0.172 HD
ENDBRANCH  16  17
ENDBRANCH  15  16
ENDBRANCH  14  15
ENDBRANCH  12  14
ENDBRANCH   8  12
BRANCH   5  20
HETATM   20  N2  UNL     1      -3.571   2.575   0.223  1.00  0.00    -0.234 N 
ATOM     21  H22 UNL     1      -4.588   2.499   0.250  1.00  0.00     0.174 HD
ATOM     22  H21 UNL     1      -3.115   3.488   0.225  1.00  0.00     0.174 HD
ENDBRANCH   5  20
TORSDOF 6
