REMARK  11 active torsions:
REMARK  status: ('A' for Active; 'I' for Inactive)
REMARK    1  A    between atoms: C2_2  and  C3_3 
REMARK    2  A    between atoms: C3_3  and  C4_4 
REMARK    3  A    between atoms: C4_4  and  C5_5 
REMARK    4  A    between atoms: C5_5  and  C6_6 
REMARK    5  A    between atoms: C6_6  and  C7_7 
REMARK       I    between atoms: C7_7  and  N1_9 
REMARK    6  A    between atoms: N1_9  and  C8_11 
REMARK    7  A    between atoms: C8_11  and  C9_12 
REMARK    8  A    between atoms: C10_13  and  C11_14 
REMARK    9  A    between atoms: C11_14  and  O2_15 
REMARK   10  A    between atoms: O2_15  and  N2_16 
REMARK   11  A    between atoms: C19_25  and  O3_26 
ROOT
HETATM    1  N2  UNL     1      -2.661   0.994   1.164  1.00  0.00    -0.247 N 
ATOM      2  H2  UNL     1      -2.767   1.843   1.719  1.00  0.00     0.196 HD
HETATM    3  C12 UNL     1      -3.681   0.222   1.030  1.00  0.00     0.138 C 
HETATM    4  C13 UNL     1      -3.683  -1.047   0.255  1.00  0.00     0.086 C 
HETATM    5  C14 UNL     1      -4.928  -1.021  -0.611  1.00  0.00     0.016 C 
HETATM    6  C15 UNL     1      -6.199  -0.863   0.174  1.00  0.00     0.026 C 
HETATM    7  C16 UNL     1      -5.886  -0.459   1.580  1.00  0.00     0.135 C 
HETATM    8  C17 UNL     1      -7.080  -0.136   2.411  1.00  0.00     0.035 C 
HETATM    9  C18 UNL     1      -8.373  -0.231   1.608  1.00  0.00     0.035 C 
HETATM   10  C19 UNL     1      -8.175   0.675   0.399  1.00  0.00     0.126 C 
HETATM   11  C20 UNL     1      -7.179   0.016  -0.522  1.00  0.00    -0.016 C 
HETATM   12  C21 UNL     1      -6.558   1.094  -1.367  1.00  0.00     0.018 C 
HETATM   13  C22 UNL     1      -7.998  -0.862  -1.477  1.00  0.00     0.018 C 
HETATM   14  O4  UNL     1      -4.882   0.568   1.639  1.00  0.00    -0.332 OA
ENDROOT
BRANCH   1  15
HETATM   15  O2  UNL     1      -1.445   0.736   0.603  1.00  0.00    -0.267 OA
BRANCH  15  16
HETATM   16  C11 UNL     1      -0.527  -0.059   1.331  1.00  0.00     0.294 C 
BRANCH  16  17
HETATM   17  C10 UNL     1       0.679  -0.167   0.490  1.00  0.00    -0.076 C 
HETATM   18  C9  UNL     1       1.652  -0.255  -0.213  1.00  0.00    -0.085 C 
BRANCH  18  19
HETATM   19  C8  UNL     1       2.825  -0.342  -1.080  1.00  0.00     0.217 C 
BRANCH  19  20
HETATM   20  N1  UNL     1       4.041  -0.165  -0.296  1.00  0.00    -0.351 N 
HETATM   21  C7  UNL     1       5.324  -0.197  -0.845  1.00  0.00     0.218 C 
HETATM   22  O1  UNL     1       5.484  -0.384  -2.072  1.00  0.00    -0.274 OA
ATOM     23  H1  UNL     1       3.949  -0.009   0.708  1.00  0.00     0.163 HD
BRANCH  21  24
HETATM   24  C6  UNL     1       6.511  -0.010   0.013  1.00  0.00     0.103 C 
BRANCH  24  25
HETATM   25  C5  UNL     1       7.775  -0.086  -0.805  1.00  0.00     0.009 C 
BRANCH  25  26
HETATM   26  C4  UNL     1       8.996   0.101   0.043  1.00  0.00     0.000 C 
BRANCH  26  27
HETATM   27  C3  UNL     1      10.215   0.006  -0.881  1.00  0.00    -0.000 C 
BRANCH  27  28
HETATM   28  C2  UNL     1      11.492   0.191  -0.057  1.00  0.00    -0.005 C 
HETATM   29  C1  UNL     1      11.452   1.543   0.600  1.00  0.00     0.005 C 
ENDBRANCH  27  28
ENDBRANCH  26  27
ENDBRANCH  25  26
ENDBRANCH  24  25
ENDBRANCH  21  24
ENDBRANCH  19  20
ENDBRANCH  18  19
ENDBRANCH  16  17
ENDBRANCH  15  16
ENDBRANCH   1  15
BRANCH  10  30
HETATM   30  O3  UNL     1      -9.359   1.010  -0.213  1.00  0.00    -0.395 OA
ATOM     31  H3  UNL     1      -9.236   1.575  -0.967  1.00  0.00     0.210 HD
ENDBRANCH  10  30
TORSDOF 11
