REMARK  8 active torsions:
REMARK  status: ('A' for Active; 'I' for Inactive)
REMARK    1  A    between atoms: O1_2  and  C2_3 
REMARK    2  A    between atoms: C4_5  and  C5_6 
REMARK    3  A    between atoms: C8_9  and  N1_10 
REMARK       I    between atoms: N1_10  and  C9_11 
REMARK    4  A    between atoms: N1_10  and  C13_17 
REMARK    5  A    between atoms: C9_11  and  C10_13 
REMARK    6  A    between atoms: C10_13  and  C11_14 
REMARK    7  A    between atoms: C11_14  and  C12_15 
REMARK    8  A    between atoms: C22_26  and  N2_27 
ROOT
HETATM    1  C5  UNL     1       1.171  -0.449   0.691  1.00  0.00     0.021 C 
HETATM    2  C6  UNL     1       0.824   0.346   1.933  1.00  0.00     0.011 C 
HETATM    3  C7  UNL     1      -0.706   0.218   1.898  1.00  0.00     0.026 C 
HETATM    4  C8  UNL     1      -0.987   0.564   0.455  1.00  0.00     0.088 C 
HETATM    5  C19 UNL     1       0.120  -0.038  -0.338  1.00  0.00     0.034 C 
ENDROOT
BRANCH   1   6
HETATM    6  C4  UNL     1       2.545  -0.262   0.226  1.00  0.00    -0.051 A 
HETATM    7  C3  UNL     1       3.390  -1.361   0.152  1.00  0.00     0.046 A 
HETATM    8  C2  UNL     1       4.689  -1.251  -0.275  1.00  0.00     0.095 A 
HETATM    9  C22 UNL     1       5.212  -0.021  -0.653  1.00  0.00     0.068 A 
HETATM   10  C21 UNL     1       4.389   1.071  -0.585  1.00  0.00     0.033 A 
HETATM   11  C20 UNL     1       3.081   0.949  -0.153  1.00  0.00     0.010 A 
BRANCH   8  12
HETATM   12  O1  UNL     1       5.497  -2.373  -0.333  1.00  0.00    -0.354 OA
HETATM   13  C1  UNL     1       5.037  -3.647   0.033  1.00  0.00     0.210 C 
ENDBRANCH   8  12
BRANCH   9  14
HETATM   14  N2  UNL     1       6.552   0.022  -1.078  1.00  0.00    -0.331 N 
HETATM   15  C23 UNL     1       7.495   0.670  -0.513  1.00  0.00     0.201 C 
HETATM   16  N3  UNL     1       8.799   0.627  -1.047  1.00  0.00    -0.066 NA
HETATM   17  N4  UNL     1       7.231   1.428   0.645  1.00  0.00    -0.066 NA
ATOM     18  H2  UNL     1       6.792  -0.513  -1.913  1.00  0.00     0.168 HD
ENDBRANCH   9  14
ENDBRANCH   1   6
BRANCH   4  19
HETATM   19  N1  UNL     1      -2.316   0.161   0.052  1.00  0.00    -0.343 N 
HETATM   20  C9  UNL     1      -2.623  -1.223   0.019  1.00  0.00     0.220 C 
HETATM   21  O2  UNL     1      -1.797  -2.116   0.314  1.00  0.00    -0.273 OA
BRANCH  20  22
HETATM   22  C10 UNL     1      -3.995  -1.690  -0.384  1.00  0.00     0.103 C 
BRANCH  22  23
HETATM   23  C11 UNL     1      -4.069  -3.189  -0.314  1.00  0.00     0.020 C 
BRANCH  23  24
HETATM   24  C12 UNL     1      -5.485  -3.587  -0.737  1.00  0.00     0.086 C 
HETATM   25  S1  UNL     1      -5.737  -5.361  -0.706  1.00  0.00    -0.098 SA
ENDBRANCH  23  24
ENDBRANCH  22  23
ENDBRANCH  20  22
BRANCH  19  26
HETATM   26  C13 UNL     1      -3.336   1.127  -0.319  1.00  0.00     0.087 C 
HETATM   27  C14 UNL     1      -2.923   2.033  -1.428  1.00  0.00     0.025 C 
HETATM   28  C15 UNL     1      -2.806   3.482  -1.009  1.00  0.00     0.002 C 
HETATM   29  C16 UNL     1      -4.124   4.030  -0.524  1.00  0.00     0.000 C 
HETATM   30  C17 UNL     1      -4.769   2.999   0.356  1.00  0.00     0.002 C 
HETATM   31  C18 UNL     1      -3.733   1.990   0.864  1.00  0.00     0.025 C 
ENDBRANCH  19  26
ENDBRANCH   4  19
TORSDOF 8
