REMARK  7 active torsions:
REMARK  status: ('A' for Active; 'I' for Inactive)
REMARK    1  A    between atoms: C2_2  and  N1_3 
REMARK    2  A    between atoms: N1_3  and  C3_5 
REMARK    3  A    between atoms: C3_5  and  S2_7 
REMARK    4  A    between atoms: S2_7  and  C4_8 
REMARK    5  A    between atoms: C4_8  and  C5_9 
REMARK    6  A    between atoms: C5_9  and  C6_13 
REMARK    7  A    between atoms: C9_17  and  O1_18 
ROOT
HETATM    1  C5  UNL     1       1.977  -1.232   0.350  1.00  0.00     0.060 C 
HETATM    2  N2  UNL     1       2.537  -2.009  -0.502  1.00  0.00    -0.227 N 
ATOM      3  H2  UNL     1       3.331  -1.630  -1.019  1.00  0.00     0.199 HD
HETATM    4  F1  UNL     1       2.185  -3.258  -0.777  1.00  0.00    -0.101 F 
ENDROOT
BRANCH   1   5
HETATM    5  C4  UNL     1       0.830  -1.778   1.093  1.00  0.00     0.142 C 
BRANCH   5   6
HETATM    6  S2  UNL     1      -0.684  -0.836   1.010  1.00  0.00    -0.095 SA
BRANCH   6   7
HETATM    7  C3  UNL     1      -1.438  -0.773  -0.588  1.00  0.00     0.134 C 
HETATM    8  S1  UNL     1      -0.783  -1.504  -1.885  1.00  0.00    -0.053 SA
BRANCH   7   9
HETATM    9  N1  UNL     1      -2.668  -0.068  -0.807  1.00  0.00    -0.376 N 
ATOM     10  H1  UNL     1      -3.074  -0.054  -1.743  1.00  0.00     0.160 HD
BRANCH   9  11
HETATM   11  C2  UNL     1      -3.346   0.623   0.267  1.00  0.00     0.116 C 
HETATM   12  C1  UNL     1      -4.600   1.257  -0.254  1.00  0.00     0.026 C 
ENDBRANCH   9  11
ENDBRANCH   7   9
ENDBRANCH   6   7
ENDBRANCH   5   6
ENDBRANCH   1   5
BRANCH   1  13
HETATM   13  C6  UNL     1       2.470   0.159   0.596  1.00  0.00     0.029 A 
HETATM   14  C7  UNL     1       1.884   0.913   1.595  1.00  0.00     0.066 A 
HETATM   15  S3  UNL     1       2.764   2.364   1.559  1.00  0.00    -0.110 SA
HETATM   16  C8  UNL     1       3.838   2.016   0.314  1.00  0.00     0.087 A 
HETATM   17  C9  UNL     1       3.486   0.717  -0.079  1.00  0.00     0.085 A 
BRANCH  17  18
HETATM   18  O1  UNL     1       4.256   0.190  -1.130  1.00  0.00    -0.359 OA
ATOM     19  H1  UNL     1       4.976   0.585  -1.608  1.00  0.00     0.217 HD
ENDBRANCH  17  18
ENDBRANCH   1  13
TORSDOF 7
