REMARK  5 active torsions:
REMARK  status: ('A' for Active; 'I' for Inactive)
REMARK    1  A    between atoms: C2_2  and  N1_3 
REMARK    2  A    between atoms: C2_2  and  C3_7 
REMARK    3  A    between atoms: C8_13  and  S1_14 
REMARK    4  A    between atoms: S1_14  and  C9_15 
REMARK    5  A    between atoms: C9_15  and  C10_16 
ROOT
HETATM    1  C3  UNL     1      -1.386   0.131  -0.015  1.00  0.00     0.031 C 
HETATM    2  C4  UNL     1      -2.366  -0.183   1.149  1.00  0.00     0.008 C 
HETATM    3  C5  UNL     1      -1.692   0.014   2.473  1.00  0.00     0.002 C 
HETATM    4  C6  UNL     1      -0.508  -0.928   2.565  1.00  0.00     0.021 C 
HETATM    5  C7  UNL     1       0.436  -0.707   1.388  1.00  0.00     0.096 C 
HETATM    6 CL1  UNL     1       1.673  -1.963   1.513  1.00  0.00    -0.124 Cl
HETATM    7  C8  UNL     1      -0.336  -0.952   0.099  1.00  0.00     0.072 C 
ENDROOT
BRANCH   7   8
HETATM    8  S1  UNL     1       0.728  -1.176  -1.278  1.00  0.00    -0.155 SA
BRANCH   8   9
HETATM    9  C9  UNL     1       1.898   0.047  -1.727  1.00  0.00     0.152 C 
BRANCH   9  10
HETATM   10  C10 UNL     1       3.051   0.267  -0.856  1.00  0.00     0.106 A 
HETATM   11  N2  UNL     1       4.207  -0.440  -0.858  1.00  0.00    -0.339 N 
HETATM   12  C11 UNL     1       5.041   0.086   0.062  1.00  0.00     0.198 A 
ATOM     13  H2  UNL     1       4.413  -1.239  -1.457  1.00  0.00     0.168 HD
HETATM   14  N3  UNL     1       4.392   1.118   0.625  1.00  0.00    -0.295 N 
HETATM   15  N4  UNL     1       3.207   1.206   0.062  1.00  0.00    -0.287 N 
ATOM     16  H3  UNL     1       4.754   1.726   1.359  1.00  0.00     0.187 HD
ATOM     17  H4  UNL     1       2.503   1.904   0.301  1.00  0.00     0.188 HD
ENDBRANCH   9  10
ENDBRANCH   8   9
ENDBRANCH   7   8
BRANCH   1  18
HETATM   18  C2  UNL     1      -2.246   0.032  -1.236  1.00  0.00     0.184 C 
HETATM   19  C1  UNL     1      -1.596   0.303  -2.546  1.00  0.00     0.040 C 
BRANCH  18  20
HETATM   20  N1  UNL     1      -3.331   1.016  -1.086  1.00  0.00    -0.075 N 
ATOM     21  H13 UNL     1      -3.015   1.981  -1.186  1.00  0.00     0.274 HD
ATOM     22  H12 UNL     1      -3.986   1.013  -1.868  1.00  0.00     0.274 HD
ATOM     23  H11 UNL     1      -3.777   0.830  -0.188  1.00  0.00     0.274 HD
ENDBRANCH  18  20
ENDBRANCH   1  18
TORSDOF 5
