REMARK  1 active torsions:
REMARK  status: ('A' for Active; 'I' for Inactive)
REMARK    1  A    between atoms: C19_24  and  O5_25 
ROOT
HETATM    1  C1  UNL     1      -4.578  -0.789   1.124  1.00  0.00     0.033 C 
HETATM    2  C2  UNL     1      -3.789  -0.065   0.015  1.00  0.00     0.038 C 
HETATM    3 CL1  UNL     1      -4.483  -0.582  -1.495  1.00  0.00    -0.119 Cl
HETATM    4  C3  UNL     1      -3.887   1.426   0.267  1.00  0.00     0.026 C 
HETATM    5  C4  UNL     1      -2.626   2.038   0.781  1.00  0.00     0.003 C 
HETATM    6  C5  UNL     1      -1.387   1.753   0.007  1.00  0.00     0.010 C 
HETATM    7  C6  UNL     1      -1.361   0.363  -0.550  1.00  0.00    -0.030 C 
HETATM    8  C7  UNL     1      -1.829   0.518  -2.013  1.00  0.00     0.016 C 
HETATM    9  C8  UNL     1      -2.356  -0.451   0.242  1.00  0.00     0.017 C 
HETATM   10  C9  UNL     1      -2.058  -1.890   0.040  1.00  0.00     0.010 C 
HETATM   11  C10 UNL     1      -0.747  -2.348   0.556  1.00  0.00     0.038 C 
HETATM   12  C11 UNL     1       0.317  -1.221   0.568  1.00  0.00     0.065 C 
HETATM   13  C12 UNL     1       0.329  -0.733   1.954  1.00  0.00     0.046 C 
HETATM   14  O1  UNL     1       1.548  -1.771   0.290  1.00  0.00    -0.369 OA
HETATM   15  C13 UNL     1       2.529  -1.076  -0.270  1.00  0.00     0.188 C 
HETATM   16  C14 UNL     1       2.069  -0.527  -1.636  1.00  0.00     0.070 C 
HETATM   17  C15 UNL     1       1.105   0.504  -1.026  1.00  0.00     0.135 C 
HETATM   18  O2  UNL     1       1.711   0.957   0.157  1.00  0.00    -0.346 OA
HETATM   19  C16 UNL     1       2.895   0.267   0.310  1.00  0.00     0.204 C 
HETATM   20  C17 UNL     1       3.892   0.963  -0.626  1.00  0.00     0.182 C 
HETATM   21  C18 UNL     1       4.800   1.875   0.151  1.00  0.00     0.268 C 
HETATM   22  O3  UNL     1       4.992   3.070  -0.128  1.00  0.00    -0.265 OA
HETATM   23  O4  UNL     1       5.434   1.261   1.245  1.00  0.00    -0.265 OA
HETATM   24  C19 UNL     1       4.761   0.067   1.676  1.00  0.00     0.421 C 
HETATM   25  O6  UNL     1       3.428   0.281   1.543  1.00  0.00    -0.298 OA
HETATM   26  C20 UNL     1      -0.073  -0.348  -0.566  1.00  0.00     0.057 C 
ENDROOT
BRANCH  24  27
HETATM   27  O5  UNL     1       5.290  -1.010   1.019  1.00  0.00    -0.349 OA
ATOM     28  H5  UNL     1       4.845  -1.799   1.304  1.00  0.00     0.215 HD
ENDBRANCH  24  27
TORSDOF 1
