REMARK  1 active torsions:
REMARK  status: ('A' for Active; 'I' for Inactive)
REMARK       I    between atoms: C2_2  and  N1_4 
REMARK    1  A    between atoms: N2_21  and  O5_23 
ROOT
HETATM    1  C1  UNL     1       5.529  -0.530   1.070  1.00  0.00     0.117 C 
HETATM    2  C2  UNL     1       4.764   0.230   0.070  1.00  0.00     0.215 C 
HETATM    3  O1  UNL     1       5.152   1.386  -0.237  1.00  0.00    -0.274 OA
HETATM    4  N1  UNL     1       3.601  -0.269  -0.576  1.00  0.00    -0.348 N 
HETATM    5  C3  UNL     1       2.876   0.492  -1.544  1.00  0.00     0.152 C 
HETATM    6  C4  UNL     1       2.639   1.926  -1.159  1.00  0.00     0.187 C 
HETATM    7  O2  UNL     1       2.358   1.986   0.187  1.00  0.00    -0.387 OA
HETATM    8  C5  UNL     1       2.100   3.279   0.633  1.00  0.00     0.194 C 
HETATM    9  C6  UNL     1       0.586   3.523   0.568  1.00  0.00     0.205 C 
HETATM   10  O3  UNL     1      -0.052   2.328   0.983  1.00  0.00    -0.319 OA
HETATM   11  C7  UNL     1      -1.181   2.286   1.773  1.00  0.00     0.258 C 
HETATM   12  O4  UNL     1      -1.357   1.559   2.776  1.00  0.00    -0.265 OA
HETATM   13  C8  UNL     1      -2.302   3.182   1.407  1.00  0.00     0.111 C 
HETATM   14  C9  UNL     1      -2.663   2.873  -0.042  1.00  0.00     0.010 C 
HETATM   15  C10 UNL     1      -4.086   2.403  -0.180  1.00  0.00     0.000 C 
HETATM   16  C11 UNL     1      -4.253   0.948   0.249  1.00  0.00     0.000 C 
HETATM   17  C12 UNL     1      -3.587   0.021  -0.713  1.00  0.00     0.000 C 
HETATM   18  C13 UNL     1      -2.558  -0.879  -0.058  1.00  0.00     0.006 C 
HETATM   19  C14 UNL     1      -2.380  -2.076  -0.961  1.00  0.00     0.060 C 
HETATM   20  C15 UNL     1      -1.920  -3.276  -0.248  1.00  0.00     0.042 C 
HETATM   21  N2  UNL     1      -2.817  -4.053   0.255  1.00  0.00    -0.273 N 
ATOM     22  H2  UNL     1      -2.510  -4.889   0.752  1.00  0.00     0.194 HD
HETATM   23  C16 UNL     1      -0.522  -3.665  -0.062  1.00  0.00     0.017 C 
HETATM   24  C17 UNL     1      -0.193  -4.943   0.003  1.00  0.00     0.199 C 
HETATM   25  F1  UNL     1       1.108  -5.270   0.175  1.00  0.00    -0.219 F 
HETATM   26  C18 UNL     1       0.568  -2.665   0.060  1.00  0.00     0.210 C 
HETATM   27  O6  UNL     1       1.054  -2.261  -1.170  1.00  0.00    -0.385 OA
HETATM   28  C19 UNL     1       2.413  -2.303  -1.295  1.00  0.00     0.188 C 
HETATM   29  C20 UNL     1       3.174  -1.610  -0.204  1.00  0.00     0.152 C 
ENDROOT
BRANCH  21  30
HETATM   30  O5  UNL     1      -4.159  -3.812   0.156  1.00  0.00    -0.290 OA
ATOM     31  H5  UNL     1      -4.820  -4.385   0.527  1.00  0.00     0.244 HD
ENDBRANCH  21  30
TORSDOF 1
