REMARK  2 active torsions:
REMARK  status: ('A' for Active; 'I' for Inactive)
REMARK    1  A    between atoms: O1_1  and  C1_3 
REMARK    2  A    between atoms: C9_11  and  O2_12 
ROOT
HETATM    1  C1  UNL     1      -1.732  -0.603  -0.066  1.00  0.00     0.147 C 
HETATM    2  C2  UNL     1      -0.652  -1.589  -0.308  1.00  0.00     0.039 C 
HETATM    3  C3  UNL     1       0.606  -1.063  -0.882  1.00  0.00    -0.012 C 
HETATM    4  C4  UNL     1       1.688  -1.020   0.170  1.00  0.00     0.005 C 
HETATM    5  C5  UNL     1       2.167   0.361   0.467  1.00  0.00     0.001 C 
HETATM    6  C6  UNL     1       1.059   1.359   0.630  1.00  0.00     0.007 C 
HETATM    7  C7  UNL     1      -0.030   1.228  -0.391  1.00  0.00     0.017 C 
HETATM    8  C8  UNL     1       0.353   0.269  -1.514  1.00  0.00     0.012 C 
HETATM    9  C9  UNL     1      -1.343   0.799   0.160  1.00  0.00     0.151 C 
ENDROOT
BRANCH   1  10
HETATM   10  O1  UNL     1      -2.431  -1.040   1.087  1.00  0.00    -0.393 OA
ATOM     11  H1  UNL     1      -3.123  -0.408   1.242  1.00  0.00     0.210 HD
ENDBRANCH   1  10
BRANCH   9  12
HETATM   12  O2  UNL     1      -1.373   1.129   1.530  1.00  0.00    -0.393 OA
ATOM     13  H2  UNL     1      -1.122   2.034   1.676  1.00  0.00     0.210 HD
ENDBRANCH   9  12
TORSDOF 2
