REMARK  1 active torsions:
REMARK  status: ('A' for Active; 'I' for Inactive)
REMARK    1  A    between atoms: C8_12  and  O1_13 
ROOT
HETATM    1  N1  UNL     1       2.739   0.362   1.876  1.00  0.00    -0.395 N 
ATOM      2  H11 UNL     1       2.375   0.676   2.776  1.00  0.00     0.156 HD
ATOM      3  H12 UNL     1       3.681   0.047   2.107  1.00  0.00     0.156 HD
HETATM    4  C1  UNL     1       2.106   0.390   0.781  1.00  0.00     0.070 C 
HETATM    5  S1  UNL     1       2.742  -0.160  -0.793  1.00  0.00    -0.114 SA
HETATM    6  C2  UNL     1       1.107  -0.438  -1.588  1.00  0.00     0.093 C 
HETATM    7  C3  UNL     1       0.130  -0.156  -0.484  1.00  0.00     0.001 C 
HETATM    8  C4  UNL     1      -1.124   0.422  -1.059  1.00  0.00     0.013 C 
HETATM    9  C5  UNL     1      -2.164   0.175   0.017  1.00  0.00     0.001 C 
HETATM   10  C6  UNL     1      -1.594  -0.860   0.946  1.00  0.00     0.001 C 
HETATM   11  C7  UNL     1      -0.345  -1.370   0.239  1.00  0.00     0.013 C 
HETATM   12  C8  UNL     1       0.742   0.846   0.446  1.00  0.00     0.183 C 
ENDROOT
BRANCH  12  13
HETATM   13  O1  UNL     1       0.863   2.049  -0.247  1.00  0.00    -0.388 OA
ATOM     14  H1  UNL     1      -0.014   2.342  -0.463  1.00  0.00     0.210 HD
ENDBRANCH  12  13
TORSDOF 1
