REMARK  9 active torsions:
REMARK  status: ('A' for Active; 'I' for Inactive)
REMARK    1  A    between atoms: O1_2  and  C2_3 
REMARK    2  A    between atoms: C2_3  and  C3_5 
REMARK    3  A    between atoms: C7_9  and  C8_10 
REMARK    4  A    between atoms: C9_11  and  C10_12 
REMARK    5  A    between atoms: C9_11  and  N1_15 
REMARK    6  A    between atoms: C10_12  and  O3_13 
REMARK       I    between atoms: N1_15  and  C11_17 
REMARK       I    between atoms: C11_17  and  N5_25 
REMARK       I    between atoms: N2_18  and  C12_20 
REMARK    7  A    between atoms: N5_25  and  C13_27 
REMARK    8  A    between atoms: C13_27  and  C14_28 
REMARK    9  A    between atoms: C26_41  and  O4_42 
ROOT
HETATM    1  C8  UNL     1      -0.487  -0.807   0.116  1.00  0.00     0.012 C 
HETATM    2  C9  UNL     1       0.830  -1.287   0.159  1.00  0.00     0.047 C 
ENDROOT
BRANCH   2   3
HETATM    3  C10 UNL     1       1.720  -1.608  -0.960  1.00  0.00     0.221 C 
BRANCH   3   4
HETATM    4  O3  UNL     1       2.459  -0.561  -1.492  1.00  0.00    -0.395 OA
ATOM      5  H3  UNL     1       3.036  -0.769  -2.217  1.00  0.00     0.209 HD
ENDBRANCH   3   4
ENDBRANCH   2   3
BRANCH   2   6
HETATM    6  N1  UNL     1       1.735  -0.774   1.215  1.00  0.00    -0.194 N 
HETATM    7  C11 UNL     1       2.821  -1.527   1.769  1.00  0.00     0.681 C 
HETATM    8  N2  UNL     1       2.669  -2.829   1.802  1.00  0.00    -0.164 N 
HETATM    9  N5  UNL     1       3.984  -0.984   2.298  1.00  0.00    -0.222 N 
HETATM   10  C12 UNL     1       3.657  -3.690   2.320  1.00  0.00     0.200 C 
ATOM     11  H2  UNL     1       1.805  -3.233   1.440  1.00  0.00     0.187 HD
HETATM   12  N3  UNL     1       4.454  -4.304   1.519  1.00  0.00    -0.373 N 
HETATM   13  N4  UNL     1       3.831  -3.938   3.707  1.00  0.00    -0.063 NA
ATOM     14  H32 UNL     1       4.329  -4.126   0.522  1.00  0.00     0.158 HD
ATOM     15  H31 UNL     1       5.169  -4.927   1.894  1.00  0.00     0.158 HD
ATOM     16  H5  UNL     1       4.450  -1.547   3.010  1.00  0.00     0.178 HD
ATOM     17  H1  UNL     1       1.575   0.170   1.568  1.00  0.00     0.184 HD
BRANCH   9  18
HETATM   18  C13 UNL     1       4.622   0.268   1.977  1.00  0.00     0.176 C 
BRANCH  18  19
HETATM   19  C14 UNL     1       5.206   0.334   0.625  1.00  0.00    -0.040 A 
HETATM   20  C15 UNL     1       5.743  -0.789   0.047  1.00  0.00     0.012 A 
HETATM   21  C16 UNL     1       6.300  -0.748  -1.227  1.00  0.00     0.043 A 
HETATM   22  C17 UNL     1       6.311   0.432  -1.912  1.00  0.00     0.116 A 
HETATM   23  F1  UNL     1       6.847   0.513  -3.159  1.00  0.00    -0.206 F 
HETATM   24  C18 UNL     1       5.775   1.559  -1.340  1.00  0.00     0.043 A 
HETATM   25  C19 UNL     1       5.224   1.516  -0.076  1.00  0.00     0.012 A 
ENDBRANCH  18  19
ENDBRANCH   9  18
ENDBRANCH   2   6
BRANCH   1  26
HETATM   26  C7  UNL     1      -1.298   0.313  -0.362  1.00  0.00    -0.004 C 
HETATM   27  C6  UNL     1      -0.682   1.568   0.307  1.00  0.00     0.016 C 
HETATM   28  C5  UNL     1      -1.064   1.551   1.741  1.00  0.00     0.021 C 
HETATM   29  C3  UNL     1      -2.513   1.332   1.559  1.00  0.00     0.052 C 
HETATM   30  C4  UNL     1      -3.135   2.696   1.411  1.00  0.00     0.027 C 
HETATM   31  C20 UNL     1      -2.641   0.378   0.428  1.00  0.00    -0.016 C 
HETATM   32  C21 UNL     1      -2.964  -0.958   1.111  1.00  0.00     0.018 C 
HETATM   33  C22 UNL     1      -3.851   0.727  -0.300  1.00  0.00     0.012 C 
HETATM   34  C23 UNL     1      -3.768   1.351  -1.633  1.00  0.00     0.013 C 
HETATM   35  C24 UNL     1      -2.870   0.467  -2.372  1.00  0.00    -0.010 C 
HETATM   36  C25 UNL     1      -3.361  -0.941  -2.498  1.00  0.00     0.018 C 
HETATM   37  C26 UNL     1      -2.737   0.931  -3.803  1.00  0.00     0.127 C 
HETATM   38  C29 UNL     1      -1.467   0.585  -1.807  1.00  0.00    -0.022 C 
HETATM   39  C27 UNL     1      -1.530   0.175  -4.155  1.00  0.00     0.033 C 
HETATM   40  C28 UNL     1      -0.863  -0.297  -2.849  1.00  0.00     0.013 C 
HETATM   41  C30 UNL     1      -0.910   1.972  -2.189  1.00  0.00     0.017 C 
BRANCH  29  42
HETATM   42  C2  UNL     1      -3.051   0.840   2.873  1.00  0.00     0.267 C 
HETATM   43  O2  UNL     1      -2.269   0.528   3.838  1.00  0.00    -0.264 OA
BRANCH  42  44
HETATM   44  O1  UNL     1      -4.401   0.692   3.137  1.00  0.00    -0.326 OA
HETATM   45  C1  UNL     1      -4.850   0.218   4.412  1.00  0.00     0.213 C 
ENDBRANCH  42  44
ENDBRANCH  29  42
BRANCH  37  46
HETATM   46  O4  UNL     1      -2.852   2.245  -4.043  1.00  0.00    -0.395 OA
ATOM     47  H4  UNL     1      -2.768   2.537  -4.943  1.00  0.00     0.210 HD
ENDBRANCH  37  46
ENDBRANCH   1  26
TORSDOF 9
