REMARK  2 active torsions:
REMARK  status: ('A' for Active; 'I' for Inactive)
REMARK    1  A    between atoms: N1_1  and  N2_4 
REMARK    2  A    between atoms: C1_5  and  C2_6 
ROOT
HETATM    1  N2  UNL     1      -1.896  -0.224   0.012  1.00  0.00    -0.190 N 
HETATM    2  C1  UNL     1      -0.840   0.576   0.298  1.00  0.00     0.178 A 
HETATM    3  N5  UNL     1      -1.362   1.773   0.610  1.00  0.00    -0.278 N 
ATOM      4  H5  UNL     1      -0.814   2.592   0.874  1.00  0.00     0.189 HD
HETATM    5  N6  UNL     1      -2.685   1.748   0.529  1.00  0.00    -0.248 N 
ATOM      6  H6  UNL     1      -3.325   2.521   0.713  1.00  0.00     0.192 HD
HETATM    7  C6  UNL     1      -3.014   0.492   0.154  1.00  0.00     0.361 A 
HETATM    8  O2  UNL     1      -4.177   0.035  -0.041  1.00  0.00    -0.243 OA
ENDROOT
BRANCH   2   9
HETATM    9  C2  UNL     1       0.543   0.146   0.253  1.00  0.00     0.148 A 
HETATM   10  N3  UNL     1       0.904  -1.098  -0.081  1.00  0.00    -0.357 N 
HETATM   11  C3  UNL     1       2.185  -1.506  -0.126  1.00  0.00     0.105 A 
ATOM     12  H3  UNL     1       0.172  -1.770  -0.313  1.00  0.00     0.165 HD
HETATM   13  C4  UNL     1       3.163  -0.604   0.185  1.00  0.00     0.108 A 
HETATM   14  N4  UNL     1       2.823   0.652   0.523  1.00  0.00    -0.330 N 
HETATM   15  C5  UNL     1       1.527   1.056   0.566  1.00  0.00     0.276 A 
ATOM     16  H4  UNL     1       3.559   1.320   0.754  1.00  0.00     0.168 HD
HETATM   17  O1  UNL     1       1.273   2.244   0.891  1.00  0.00    -0.266 OA
ENDBRANCH   2   9
BRANCH   1  18
HETATM   18  N1  UNL     1      -1.794  -1.567  -0.365  1.00  0.00    -0.333 N 
ATOM     19  H12 UNL     1      -0.940  -2.114  -0.473  1.00  0.00     0.177 HD
ATOM     20  H11 UNL     1      -2.589  -2.169  -0.580  1.00  0.00     0.177 HD
ENDBRANCH   1  18
TORSDOF 2
