REMARK  7 active torsions:
REMARK  status: ('A' for Active; 'I' for Inactive)
REMARK    1  A    between atoms: O1_1  and  C1_3 
REMARK    2  A    between atoms: C1_3  and  C2_4 
REMARK    3  A    between atoms: C3_6  and  C4_7 
REMARK    4  A    between atoms: C7_11  and  O4_12 
REMARK    5  A    between atoms: C8_14  and  O5_15 
REMARK    6  A    between atoms: C9_17  and  O6_18 
REMARK    7  A    between atoms: C10_20  and  O7_21 
ROOT
HETATM    1  C2  UNL     1      -1.475  -0.168   1.116  1.00  0.00     0.183 C 
HETATM    2  O2  UNL     1      -0.106  -0.340   1.251  1.00  0.00    -0.342 OA
HETATM    3  C3  UNL     1       0.548  -0.033   0.098  1.00  0.00     0.093 C 
HETATM    4  C8  UNL     1       0.240  -0.970  -1.027  1.00  0.00     0.207 C 
HETATM    5  C9  UNL     1      -1.206  -1.183  -1.173  1.00  0.00     0.184 C 
HETATM    6  C10 UNL     1      -2.039  -1.096   0.043  1.00  0.00     0.181 C 
ENDROOT
BRANCH   3   7
HETATM    7  C4  UNL     1       1.933   0.423   0.219  1.00  0.00     0.056 A 
HETATM    8  C5  UNL     1       2.453   1.668  -0.164  1.00  0.00     0.043 A 
HETATM    9  C6  UNL     1       3.755   1.724   0.290  1.00  0.00     0.146 A 
HETATM   10  O3  UNL     1       4.004   0.585   0.901  1.00  0.00    -0.300 OA
HETATM   11  C7  UNL     1       2.990  -0.202   0.890  1.00  0.00     0.195 A 
BRANCH  11  12
HETATM   12  O4  UNL     1       2.919  -1.471   1.442  1.00  0.00    -0.340 OA
ATOM     13  H4  UNL     1       3.637  -1.895   1.898  1.00  0.00     0.220 HD
ENDBRANCH  11  12
ENDBRANCH   3   7
BRANCH   4  14
HETATM   14  O5  UNL     1       0.770  -0.460  -2.218  1.00  0.00    -0.386 OA
ATOM     15  H5  UNL     1       0.574  -1.055  -2.932  1.00  0.00     0.210 HD
ENDBRANCH   4  14
BRANCH   1  16
HETATM   16  C1  UNL     1      -1.923   1.243   0.842  1.00  0.00     0.199 C 
BRANCH  16  17
HETATM   17  O1  UNL     1      -1.539   2.074   1.879  1.00  0.00    -0.398 OA
ATOM     18  H1  UNL     1      -1.822   2.964   1.706  1.00  0.00     0.209 HD
ENDBRANCH  16  17
ENDBRANCH   1  16
BRANCH   5  19
HETATM   19  O6  UNL     1      -1.358  -2.482  -1.710  1.00  0.00    -0.390 OA
ATOM     20  H6  UNL     1      -2.293  -2.620  -1.804  1.00  0.00     0.210 HD
ENDBRANCH   5  19
BRANCH   6  21
HETATM   21  O7  UNL     1      -3.275  -0.530  -0.319  1.00  0.00    -0.390 OA
ATOM     22  H7  UNL     1      -3.626  -1.107  -0.987  1.00  0.00     0.210 HD
ENDBRANCH   6  21
TORSDOF 7
