REMARK  2 active torsions:
REMARK  status: ('A' for Active; 'I' for Inactive)
REMARK    1  A    between atoms: C1_2  and  N1_3 
REMARK    2  A    between atoms: N1_3  and  C2_5 
ROOT
HETATM    1  C2  UNL     1       0.395   0.052   0.609  1.00  0.00     0.702 A 
HETATM    2  N2  UNL     1      -0.614   0.884   0.999  1.00  0.00    -0.129 N 
ATOM      3  H2  UNL     1      -0.552   1.320   1.919  1.00  0.00     0.205 HD
HETATM    4  N3  UNL     1      -1.655   1.151   0.257  1.00  0.00    -0.247 N 
ATOM      5  H3  UNL     1      -2.378   1.781   0.604  1.00  0.00     0.191 HD
HETATM    6  C3  UNL     1      -1.776   0.605  -0.947  1.00  0.00     0.329 A 
HETATM    7  O2  UNL     1      -2.755   0.830  -1.694  1.00  0.00    -0.261 OA
HETATM    8  C4  UNL     1      -0.790  -0.248  -1.404  1.00  0.00     0.329 A 
HETATM    9  O3  UNL     1      -0.859  -0.795  -2.548  1.00  0.00    -0.261 OA
HETATM   10  N4  UNL     1       0.275  -0.504  -0.612  1.00  0.00    -0.150 N 
ATOM     11  H4  UNL     1       1.005  -1.133  -0.947  1.00  0.00     0.188 HD
ENDROOT
BRANCH   1  12
HETATM   12  N1  UNL     1       1.403  -0.180   1.378  1.00  0.00    -0.166 N 
ATOM     13  H1  UNL     1       1.475   0.251   2.300  1.00  0.00     0.186 HD
BRANCH  12  14
HETATM   14  C1  UNL     1       2.407  -1.056   0.895  1.00  0.00     0.368 C 
HETATM   15  O1  UNL     1       3.608  -0.645   0.972  1.00  0.00    -0.283 OA
ENDBRANCH  12  14
ENDBRANCH   1  12
TORSDOF 2
