REMARK  9 active torsions:
REMARK  status: ('A' for Active; 'I' for Inactive)
REMARK    1  A    between atoms: C2_2  and  C3_3 
REMARK    2  A    between atoms: C4_5  and  C6_7 
REMARK    3  A    between atoms: C6_7  and  C7_8 
REMARK    4  A    between atoms: C8_9  and  C9_10 
REMARK    5  A    between atoms: C14_17  and  O3_18 
REMARK    6  A    between atoms: C14_17  and  C15_20 
REMARK    7  A    between atoms: C15_20  and  O4_23 
REMARK    8  A    between atoms: C18_25  and  O5_26 
REMARK    9  A    between atoms: C19_28  and  O6_29 
ROOT
HETATM    1  C6  UNL     1      -0.325   0.219   0.468  1.00  0.00     0.144 C 
HETATM    2  O2  UNL     1      -1.128  -0.041  -0.635  1.00  0.00    -0.329 OA
HETATM    3  C14 UNL     1      -1.644  -1.292  -0.533  1.00  0.00     0.223 C 
HETATM    4  C18 UNL     1      -1.557  -1.755   0.880  1.00  0.00     0.215 C 
HETATM    5  C19 UNL     1      -0.798  -0.679   1.576  1.00  0.00     0.194 C 
ENDROOT
BRANCH   1   6
HETATM    6  C4  UNL     1      -0.482   1.681   0.806  1.00  0.00     0.125 A 
HETATM    7  C3  UNL     1      -1.327   2.474  -0.164  1.00  0.00     0.182 A 
HETATM    8  O1  UNL     1      -1.744   2.166   1.135  1.00  0.00    -0.362 OA
HETATM    9  C5  UNL     1       0.735   2.438   1.282  1.00  0.00     0.053 C 
BRANCH   7  10
HETATM   10  C2  UNL     1      -1.017   3.899  -0.411  1.00  0.00    -0.002 C 
HETATM   11  C1  UNL     1      -0.815   4.322  -1.631  1.00  0.00     0.009 C 
ENDBRANCH   7  10
ENDBRANCH   1   6
BRANCH   1  12
HETATM   12  C7  UNL     1       1.094   0.008   0.090  1.00  0.00     0.018 C 
HETATM   13  C8  UNL     1       2.059  -0.231   0.938  1.00  0.00     0.011 C 
BRANCH  13  14
HETATM   14  C9  UNL     1       3.478  -0.439   0.516  1.00  0.00    -0.029 A 
HETATM   15  C10 UNL     1       4.436  -0.686   1.468  1.00  0.00     0.061 A 
HETATM   16  S1  UNL     1       5.868  -0.853   0.558  1.00  0.00    -0.106 SA
HETATM   17  C11 UNL     1       5.236  -0.609  -0.997  1.00  0.00    -0.021 A 
HETATM   18  C12 UNL     1       6.003  -0.630  -2.279  1.00  0.00     0.056 C 
HETATM   19  C13 UNL     1       3.913  -0.402  -0.772  1.00  0.00     0.026 A 
ENDBRANCH  13  14
ENDBRANCH   1  12
BRANCH   5  20
HETATM   20  O6  UNL     1      -1.626  -0.032   2.483  1.00  0.00    -0.389 OA
ATOM     21  H6  UNL     1      -1.925  -0.600   3.184  1.00  0.00     0.210 HD
ENDBRANCH   5  20
BRANCH   3  22
HETATM   22  O3  UNL     1      -1.058  -2.172  -1.449  1.00  0.00    -0.361 OA
ATOM     23  H3  UNL     1      -1.419  -3.048  -1.378  1.00  0.00     0.213 HD
ENDBRANCH   3  22
BRANCH   3  24
HETATM   24  C15 UNL     1      -3.129  -1.238  -0.911  1.00  0.00     0.109 C 
HETATM   25  C16 UNL     1      -3.296  -0.702  -2.321  1.00  0.00     0.051 C 
HETATM   26  C17 UNL     1      -3.752  -2.598  -0.755  1.00  0.00     0.051 C 
BRANCH  24  27
HETATM   27  O4  UNL     1      -3.737  -0.367  -0.014  1.00  0.00    -0.385 OA
ATOM     28  H4  UNL     1      -4.657  -0.334  -0.248  1.00  0.00     0.210 HD
ENDBRANCH  24  27
ENDBRANCH   3  24
BRANCH   4  29
HETATM   29  O5  UNL     1      -0.931  -2.999   0.976  1.00  0.00    -0.387 OA
ATOM     30  H5  UNL     1      -0.876  -3.294   1.877  1.00  0.00     0.210 HD
ENDBRANCH   4  29
TORSDOF 9
