REMARK  7 active torsions:
REMARK  status: ('A' for Active; 'I' for Inactive)
REMARK    1  A    between atoms: C3_5  and  C5_7 
REMARK    2  A    between atoms: N2_10  and  N3_11 
REMARK    3  A    between atoms: C6_13  and  C7_14 
REMARK    4  A    between atoms: C8_15  and  C9_16 
REMARK    5  A    between atoms: C9_16  and  O3_17 
REMARK    6  A    between atoms: N4_19  and  O4_21 
REMARK    7  A    between atoms: C11_24  and  O5_25 
ROOT
HETATM    1  C7  UNL     1      -1.125  -0.145   0.823  1.00  0.00     0.046 C 
HETATM    2  C8  UNL     1      -2.082   0.930   0.430  1.00  0.00     0.083 C 
HETATM    3  C10 UNL     1      -3.243   0.194  -0.189  1.00  0.00     0.063 C 
HETATM    4  C11 UNL     1      -2.759  -0.368  -1.477  1.00  0.00     0.045 C 
HETATM    5  C12 UNL     1      -1.865  -1.330  -1.175  1.00  0.00     0.012 C 
HETATM    6  C13 UNL     1      -1.764  -1.398   0.327  1.00  0.00     0.029 C 
HETATM    7  C14 UNL     1      -3.238  -1.092   0.651  1.00  0.00    -0.030 C 
HETATM    8  C15 UNL     1      -4.060  -2.174   0.035  1.00  0.00     0.016 C 
HETATM    9  C16 UNL     1      -3.483  -0.860   2.087  1.00  0.00     0.016 C 
ENDROOT
BRANCH   1  10
HETATM   10  C6  UNL     1       0.238   0.004   0.348  1.00  0.00     0.086 C 
HETATM   11  N3  UNL     1       1.283   0.196   1.067  1.00  0.00    -0.307 N 
ATOM     12  H3  UNL     1       1.170   0.253   2.079  1.00  0.00     0.186 HD
BRANCH  11  13
HETATM   13  N2  UNL     1       2.570   0.331   0.534  1.00  0.00    -0.216 N 
HETATM   14  C3  UNL     1       3.386  -0.622  -0.141  1.00  0.00     0.214 A 
HETATM   15  N1  UNL     1       4.601   0.068  -0.462  1.00  0.00    -0.353 N 
HETATM   16  C4  UNL     1       2.746  -1.133  -1.422  1.00  0.00     0.078 C 
HETATM   17  C2  UNL     1       4.562   1.276  -0.051  1.00  0.00     0.074 A 
ATOM     18  H1  UNL     1       5.391  -0.350  -0.953  1.00  0.00     0.162 HD
HETATM   19  C1  UNL     1       5.673   2.247  -0.233  1.00  0.00     0.074 C 
HETATM   20  C17 UNL     1       3.295   1.549   0.605  1.00  0.00     0.286 A 
HETATM   21  O6  UNL     1       2.934   2.657   1.127  1.00  0.00    -0.264 OA
BRANCH  14  22
HETATM   22  C5  UNL     1       3.656  -1.826   0.691  1.00  0.00     0.226 C 
HETATM   23  O1  UNL     1       2.780  -2.595   1.103  1.00  0.00    -0.645 OA
HETATM   24  O2  UNL     1       4.975  -2.091   1.019  1.00  0.00    -0.645 OA
ENDBRANCH  14  22
ENDBRANCH  11  13
ENDBRANCH   1  10
BRANCH   2  25
HETATM   25  C9  UNL     1      -1.541   1.954  -0.457  1.00  0.00     0.141 C 
HETATM   26  N4  UNL     1      -1.501   3.222  -0.122  1.00  0.00    -0.251 N 
ATOM     27  H4  UNL     1      -1.112   3.901  -0.776  1.00  0.00     0.196 HD
BRANCH  25  28
HETATM   28  O3  UNL     1      -1.020   1.689  -1.730  1.00  0.00    -0.348 OA
ATOM     29  H3  UNL     1      -0.668   2.356  -2.308  1.00  0.00     0.219 HD
ENDBRANCH  25  28
BRANCH  26  30
HETATM   30  O4  UNL     1      -1.972   3.649   1.091  1.00  0.00    -0.288 OA
ATOM     31  H4  UNL     1      -1.943   4.567   1.334  1.00  0.00     0.244 HD
ENDBRANCH  26  30
ENDBRANCH   2  25
BRANCH   4  32
HETATM   32  O5  UNL     1      -3.172   0.046  -2.735  1.00  0.00    -0.365 OA
ATOM     33  H5  UNL     1      -2.863  -0.313  -3.558  1.00  0.00     0.217 HD
ENDBRANCH   4  32
TORSDOF 7
