REMARK  8 active torsions:
REMARK  status: ('A' for Active; 'I' for Inactive)
REMARK    1  A    between atoms: C2_2  and  C3_3 
REMARK    2  A    between atoms: C2_2  and  C6_8 
REMARK    3  A    between atoms: C3_3  and  C4_4 
REMARK    4  A    between atoms: C4_4  and  C5_5 
REMARK    5  A    between atoms: C8_10  and  O3_11 
REMARK    6  A    between atoms: C10_15  and  C11_16 
REMARK    7  A    between atoms: C11_16  and  O5_18 
REMARK    8  A    between atoms: C11_16  and  O6_20 
ROOT
HETATM    1  C6  UNL     1       1.771   0.353   0.002  1.00  0.00    -0.006 C 
HETATM    2  C7  UNL     1       1.067   0.917  -1.187  1.00  0.00     0.040 C 
HETATM    3  C8  UNL     1      -0.411   1.028  -0.805  1.00  0.00     0.157 C 
HETATM    4  C9  UNL     1      -1.025  -0.281  -0.416  1.00  0.00     0.130 C 
HETATM    5  O4  UNL     1      -1.859  -0.233   0.662  1.00  0.00    -0.363 OA
HETATM    6  C10 UNL     1      -3.015   0.448   0.546  1.00  0.00     0.184 C 
HETATM    7  C13 UNL     1      -3.842   0.220  -0.675  1.00  0.00     0.039 C 
HETATM    8  C14 UNL     1      -2.979   0.028  -1.933  1.00  0.00     0.025 C 
HETATM    9  C15 UNL     1      -1.889  -0.861  -1.551  1.00  0.00     0.081 C 
HETATM   10  C16 UNL     1      -2.472  -2.178  -1.073  1.00  0.00     0.029 C 
HETATM   11  C17 UNL     1      -0.843  -1.173  -2.521  1.00  0.00     0.271 C 
HETATM   12  O7  UNL     1      -0.871  -0.975  -3.747  1.00  0.00    -0.264 OA
HETATM   13  O8  UNL     1       0.191  -1.746  -1.745  1.00  0.00    -0.312 OA
HETATM   14  C18 UNL     1       0.002  -1.382  -0.366  1.00  0.00     0.170 C 
HETATM   15  C19 UNL     1       1.286  -1.029   0.302  1.00  0.00     0.041 C 
ENDROOT
BRANCH   1  16
HETATM   16  C2  UNL     1       3.286   0.458  -0.092  1.00  0.00    -0.014 C 
HETATM   17  C1  UNL     1       3.811  -0.288  -1.299  1.00  0.00     0.010 C 
BRANCH  16  18
HETATM   18  C3  UNL     1       3.870  -0.157   1.126  1.00  0.00     0.015 C 
BRANCH  18  19
HETATM   19  C4  UNL     1       5.354  -0.146   1.229  1.00  0.00     0.113 C 
BRANCH  19  20
HETATM   20  C5  UNL     1       5.931   1.198   1.266  1.00  0.00     0.172 C 
HETATM   21  O1  UNL     1       5.274   2.259   1.273  1.00  0.00    -0.648 OA
HETATM   22  O2  UNL     1       7.333   1.306   1.294  1.00  0.00    -0.648 OA
ENDBRANCH  19  20
ENDBRANCH  18  19
ENDBRANCH  16  18
ENDBRANCH   1  16
BRANCH   3  23
HETATM   23  O3  UNL     1      -0.394   1.934   0.285  1.00  0.00    -0.392 OA
ATOM     24  H3  UNL     1      -1.311   2.003   0.522  1.00  0.00     0.210 HD
ENDBRANCH   3  23
BRANCH   6  25
HETATM   25  C11 UNL     1      -3.847   0.219   1.785  1.00  0.00     0.182 C 
HETATM   26  C12 UNL     1      -5.164   0.962   1.737  1.00  0.00     0.081 C 
BRANCH  25  27
HETATM   27  O5  UNL     1      -4.160  -1.122   1.997  1.00  0.00    -0.364 OA
ATOM     28  H5  UNL     1      -4.683  -1.266   2.777  1.00  0.00     0.213 HD
ENDBRANCH  25  27
BRANCH  25  29
HETATM   29  O6  UNL     1      -3.188   0.658   2.941  1.00  0.00    -0.364 OA
ATOM     30  H6  UNL     1      -3.711   0.514   3.721  1.00  0.00     0.213 HD
ENDBRANCH  25  29
ENDBRANCH   6  25
TORSDOF 8
