REMARK  8 active torsions:
REMARK  status: ('A' for Active; 'I' for Inactive)
REMARK    1  A    between atoms: O1_2  and  N1_3 
REMARK    2  A    between atoms: C2_5  and  N2_6 
REMARK    3  A    between atoms: C2_5  and  C11_28 
REMARK    4  A    between atoms: N2_6  and  C3_8 
REMARK    5  A    between atoms: C3_8  and  S1_9 
REMARK    6  A    between atoms: S1_9  and  N3_11 
REMARK    7  A    between atoms: S1_9  and  C7_23 
REMARK       I    between atoms: N3_11  and  C4_13 
REMARK       I    between atoms: C4_13  and  N4_14 
REMARK       I    between atoms: C4_13  and  N5_18 
REMARK    8  A    between atoms: N4_14  and  O3_16 
REMARK       I    between atoms: N5_18  and  C5_20 
ROOT
HETATM    1  S1  UNL     1       0.800   0.452   0.821  1.00  0.00     0.113 S 
HETATM    2  O2  UNL     1       1.043   1.676   0.630  1.00  0.00    -0.238 OA
ENDROOT
BRANCH   1   3
HETATM    3  C3  UNL     1      -0.928   0.182   0.078  1.00  0.00     0.183 C 
BRANCH   3   4
HETATM    4  N2  UNL     1      -0.972  -0.583  -1.147  1.00  0.00    -0.345 N 
ATOM      5  H2  UNL     1      -0.080  -0.902  -1.526  1.00  0.00     0.167 HD
BRANCH   4   6
HETATM    6  C2  UNL     1      -2.128  -0.927  -1.863  1.00  0.00     0.109 C 
HETATM    7  N1  UNL     1      -2.192  -2.061  -2.458  1.00  0.00    -0.254 N 
ATOM      8  H1  UNL     1      -3.043  -2.286  -2.974  1.00  0.00     0.195 HD
BRANCH   7   9
HETATM    9  O1  UNL     1      -1.170  -2.999  -2.440  1.00  0.00    -0.284 OA
HETATM   10  C1  UNL     1      -1.430  -4.307  -2.957  1.00  0.00     0.237 C 
ENDBRANCH   7   9
BRANCH   6  11
HETATM   11  C11 UNL     1      -3.281  -0.023  -1.962  1.00  0.00     0.009 C 
HETATM   12  C12 UNL     1      -4.320  -0.627  -2.942  1.00  0.00     0.023 C 
HETATM   13  C13 UNL     1      -4.048   0.154  -0.664  1.00  0.00     0.023 C 
HETATM   14  C14 UNL     1      -2.796   1.290  -2.510  1.00  0.00     0.023 C 
ENDBRANCH   6  11
ENDBRANCH   4   6
ENDBRANCH   3   4
ENDBRANCH   1   3
BRANCH   1  15
HETATM   15  N3  UNL     1       2.342  -0.234  -0.014  1.00  0.00    -0.139 N 
HETATM   16  C4  UNL     1       3.663   0.137   1.111  1.00  0.00     0.712 C 
HETATM   17  N4  UNL     1       3.499  -0.875   1.659  1.00  0.00    -0.098 N 
HETATM   18  N5  UNL     1       3.857   1.331   0.464  1.00  0.00    -0.158 N 
ATOM     19  H4  UNL     1       4.198  -0.889   2.402  1.00  0.00     0.213 HD
HETATM   20  C5  UNL     1       4.778   2.298   0.998  1.00  0.00     0.232 C 
ATOM     21  H5  UNL     1       3.348   1.533  -0.396  1.00  0.00     0.187 HD
HETATM   22  C6  UNL     1       5.011   3.576   0.318  1.00  0.00     0.118 C 
HETATM   23  O4  UNL     1       5.377   2.030   2.054  1.00  0.00    -0.273 OA
ATOM     24  H3  UNL     1       2.404  -0.712  -0.913  1.00  0.00     0.195 HD
BRANCH  17  25
HETATM   25  O3  UNL     1       2.847  -2.012   1.784  1.00  0.00    -0.276 OA
ATOM     26  H3  UNL     1       2.713  -2.839   2.232  1.00  0.00     0.245 HD
ENDBRANCH  17  25
ENDBRANCH   1  15
BRANCH   1  27
HETATM   27  C7  UNL     1       0.787   0.337   2.812  1.00  0.00     0.085 A 
HETATM   28  C8  UNL     1       1.615   0.766   3.772  1.00  0.00     0.030 A 
HETATM   29  C9  UNL     1       1.257   0.598   5.057  1.00  0.00     0.009 A 
HETATM   30  C10 UNL     1       0.069   0.000   5.338  1.00  0.00     0.051 A 
HETATM   31  S2  UNL     1      -0.501  -0.308   3.715  1.00  0.00    -0.091 SA
ENDBRANCH   1  27
TORSDOF 8
