REMARK  8 active torsions:
REMARK  status: ('A' for Active; 'I' for Inactive)
REMARK    1  A    between atoms: N1_1  and  C1_4 
REMARK    2  A    between atoms: C2_7  and  N3_8 
REMARK    3  A    between atoms: N3_8  and  C3_10 
REMARK    4  A    between atoms: C3_10  and  C4_11 
REMARK    5  A    between atoms: C4_11  and  N4_12 
REMARK    6  A    between atoms: N4_12  and  N5_13 
REMARK    7  A    between atoms: C6_19  and  S1_20 
REMARK    8  A    between atoms: S1_20  and  N7_21 
ROOT
HETATM    1  C1  UNL     1       0.482  -2.809  -0.034  1.00  0.00     0.678 A 
HETATM    2  N2  UNL     1       1.072  -1.626  -0.316  1.00  0.00    -0.175 N 
ATOM      3  H2  UNL     1       2.088  -1.583  -0.396  1.00  0.00     0.186 HD
HETATM    4  C2  UNL     1       0.352  -0.503  -0.494  1.00  0.00     0.146 A 
HETATM    5  C5  UNL     1      -1.036  -0.531  -0.391  1.00  0.00     0.112 A 
HETATM    6  N6  UNL     1      -1.765   0.566  -0.563  1.00  0.00    -0.326 N 
ATOM      7  H6  UNL     1      -1.301   1.449  -0.775  1.00  0.00     0.168 HD
HETATM    8  C6  UNL     1      -3.113   0.530  -0.461  1.00  0.00     0.227 A 
HETATM    9  N8  UNL     1      -3.700  -0.641  -0.181  1.00  0.00    -0.296 N 
ATOM     10  H8  UNL     1      -4.716  -0.674  -0.103  1.00  0.00     0.171 HD
HETATM   11  C7  UNL     1      -2.999  -1.777   0.001  1.00  0.00     0.277 A 
HETATM   12  O3  UNL     1      -3.541  -2.874   0.263  1.00  0.00    -0.266 OA
HETATM   13  C8  UNL     1      -1.627  -1.756  -0.100  1.00  0.00     0.147 A 
HETATM   14  N9  UNL     1      -0.866  -2.851   0.070  1.00  0.00    -0.184 N 
ATOM     15  H9  UNL     1      -1.318  -3.740   0.284  1.00  0.00     0.184 HD
ENDROOT
BRANCH   4  16
HETATM   16  N3  UNL     1       0.873   0.645  -0.765  1.00  0.00    -0.373 N 
ATOM     17  H3  UNL     1       0.263   1.453  -0.887  1.00  0.00     0.161 HD
BRANCH  16  18
HETATM   18  C3  UNL     1       2.290   0.811  -0.899  1.00  0.00     0.139 C 
BRANCH  18  19
HETATM   19  C4  UNL     1       2.971   0.984   0.453  1.00  0.00     0.153 C 
BRANCH  19  20
HETATM   20  N4  UNL     1       4.405   1.149   0.277  1.00  0.00    -0.147 NA
BRANCH  20  21
HETATM   21  N5  UNL     1       5.065   1.309   1.479  1.00  0.00    -0.348 N 
ATOM     22  H52 UNL     1       4.587   1.309   2.380  1.00  0.00     0.172 HD
ATOM     23  H51 UNL     1       6.071   1.425   1.356  1.00  0.00     0.172 HD
ENDBRANCH  20  21
ENDBRANCH  19  20
ENDBRANCH  18  19
ENDBRANCH  16  18
ENDBRANCH   4  16
BRANCH   1  24
HETATM   24  N1  UNL     1       1.198  -3.874   0.133  1.00  0.00    -0.234 N 
ATOM     25  H12 UNL     1       2.214  -3.842   0.055  1.00  0.00     0.174 HD
ATOM     26  H11 UNL     1       0.753  -4.767   0.346  1.00  0.00     0.174 HD
ENDBRANCH   1  24
BRANCH   8  27
HETATM   27  S1  UNL     1      -4.046   1.988  -0.692  1.00  0.00     0.289 S 
HETATM   28  O1  UNL     1      -3.136   3.110  -1.071  1.00  0.00    -0.198 OA
HETATM   29  O2  UNL     1      -5.035   1.814  -1.820  1.00  0.00    -0.198 OA
BRANCH  27  30
HETATM   30  N7  UNL     1      -4.937   2.325   0.741  1.00  0.00    -0.322 N 
ATOM     31  H72 UNL     1      -4.913   1.753   1.585  1.00  0.00     0.169 HD
ATOM     32  H71 UNL     1      -5.482   3.177   0.606  1.00  0.00     0.169 HD
ENDBRANCH  27  30
ENDBRANCH   8  27
TORSDOF 8
