REMARK  6 active torsions:
REMARK  status: ('A' for Active; 'I' for Inactive)
REMARK       I    between atoms: N1_2  and  C2_4 
REMARK    1  A    between atoms: C2_4  and  C3_6 
REMARK    2  A    between atoms: C4_9  and  C5_10 
REMARK    3  A    between atoms: N6_21  and  O4_23 
REMARK    4  A    between atoms: C9_25  and  C10_26 
REMARK    5  A    between atoms: C10_26  and  C12_31 
REMARK    6  A    between atoms: N7_27  and  O5_29 
ROOT
HETATM    1  C3  UNL     1       1.019  -0.885   0.270  1.00  0.00     0.118 A 
HETATM    2  N2  UNL     1       2.187  -0.794   1.004  1.00  0.00    -0.334 N 
ATOM      3  H2  UNL     1       2.699  -1.646   1.231  1.00  0.00     0.168 HD
HETATM    4  C4  UNL     1       2.660   0.379   1.422  1.00  0.00     0.154 A 
HETATM    5  N5  UNL     1       1.948   1.457   1.092  1.00  0.00    -0.323 N 
ATOM      6  H5  UNL     1       2.295   2.367   1.396  1.00  0.00     0.169 HD
HETATM    7  C7  UNL     1       0.812   1.428   0.391  1.00  0.00     0.142 A 
HETATM    8  N6  UNL     1       0.169   2.507   0.098  1.00  0.00    -0.250 N 
ATOM      9  H6  UNL     1      -0.698   2.480  -0.438  1.00  0.00     0.196 HD
HETATM   10  C9  UNL     1       0.266   0.181  -0.071  1.00  0.00     0.073 A 
ENDROOT
BRANCH  10  11
HETATM   11  C10 UNL     1      -1.082   0.259  -0.507  1.00  0.00     0.106 C 
HETATM   12  N7  UNL     1      -1.491   1.465  -0.890  1.00  0.00    -0.264 N 
ATOM     13  H7  UNL     1      -0.845   2.254  -0.856  1.00  0.00     0.194 HD
BRANCH  12  14
HETATM   14  O5  UNL     1      -2.744   1.651  -1.320  1.00  0.00    -0.285 OA
HETATM   15  C11 UNL     1      -3.141   2.388  -2.453  1.00  0.00     0.237 C 
ENDBRANCH  12  14
BRANCH  11  16
HETATM   16  C12 UNL     1      -2.182  -0.694  -0.492  1.00  0.00     0.122 A 
HETATM   17  N8  UNL     1      -3.351  -0.640  -1.100  1.00  0.00    -0.290 N 
HETATM   18  N9  UNL     1      -4.267  -1.473  -0.883  1.00  0.00    -0.279 N 
ATOM     19  H8  UNL     1      -3.519   0.108  -1.773  1.00  0.00     0.188 HD
HETATM   20  C13 UNL     1      -4.050  -2.452  -0.001  1.00  0.00     0.159 A 
ATOM     21  H9  UNL     1      -5.160  -1.403  -1.372  1.00  0.00     0.189 HD
HETATM   22  N10 UNL     1      -4.872  -3.400   0.353  1.00  0.00    -0.379 N 
HETATM   23  S1  UNL     1      -2.459  -2.097   0.486  1.00  0.00    -0.032 SA
ATOM     24 2H10 UNL     1      -5.826  -3.613   0.061  1.00  0.00     0.158 HD
ATOM     25 1H10 UNL     1      -4.706  -4.148   1.027  1.00  0.00     0.158 HD
ENDBRANCH  11  16
ENDBRANCH  10  11
BRANCH   1  26
HETATM   26  C2  UNL     1       0.733  -2.189  -0.308  1.00  0.00     0.268 C 
HETATM   27  N1  UNL     1       0.304  -2.299  -1.638  1.00  0.00    -0.360 N 
HETATM   28  C1  UNL     1       0.012  -3.591  -2.268  1.00  0.00     0.149 C 
ATOM     29  H1  UNL     1       0.191  -1.448  -2.189  1.00  0.00     0.162 HD
HETATM   30  O1  UNL     1       0.888  -3.207   0.387  1.00  0.00    -0.266 OA
ENDBRANCH   1  26
BRANCH   8  31
HETATM   31  O4  UNL     1       0.701   3.690   0.538  1.00  0.00    -0.284 OA
HETATM   32  C8  UNL     1      -0.008   4.909   0.552  1.00  0.00     0.237 C 
ENDBRANCH   8  31
BRANCH   4  33
HETATM   33  C5  UNL     1       3.899   0.463   2.201  1.00  0.00     0.175 A 
HETATM   34  N3  UNL     1       4.472   1.577   2.674  1.00  0.00    -0.236 N 
HETATM   35  O2  UNL     1       5.558   1.302   3.321  1.00  0.00    -0.179 OA
ATOM     36  H3  UNL     1       4.101   2.518   2.542  1.00  0.00     0.197 HD
HETATM   37  C6  UNL     1       5.689  -0.010   3.264  1.00  0.00     0.388 A 
HETATM   38  O3  UNL     1       6.654  -0.629   3.800  1.00  0.00    -0.236 OA
HETATM   39  N4  UNL     1       4.672  -0.551   2.575  1.00  0.00    -0.282 N 
ATOM     40  H4  UNL     1       4.523  -1.541   2.378  1.00  0.00     0.172 HD
ENDBRANCH   4  33
TORSDOF 6
