REMARK  5 active torsions:
REMARK  status: ('A' for Active; 'I' for Inactive)
REMARK    1  A    between atoms: C2_2  and  N1_3 
REMARK    2  A    between atoms: C2_2  and  C17_28 
REMARK       I    between atoms: N1_3  and  C3_5 
REMARK    3  A    between atoms: C3_5  and  C4_7 
REMARK    4  A    between atoms: C4_7  and  N2_8 
REMARK    5  A    between atoms: C7_15  and  C8_16 
ROOT
HETATM    1  N2  UNL     1       0.130  -1.612  -1.044  1.00  0.00    -0.248 N 
HETATM    2  N3  UNL     1       0.566  -1.625  -2.300  1.00  0.00    -0.304 N 
ATOM      3  H3  UNL     1      -0.087  -1.910  -3.030  1.00  0.00     0.186 HD
HETATM    4  C5  UNL     1       1.811  -1.287  -2.665  1.00  0.00     0.138 A 
HETATM    5  C6  UNL     1       2.732  -0.893  -1.708  1.00  0.00     0.065 A 
HETATM    6  N4  UNL     1       4.028  -0.500  -1.755  1.00  0.00    -0.354 N 
ATOM      7  H4  UNL     1       4.588  -0.428  -2.604  1.00  0.00     0.166 HD
HETATM    8  C7  UNL     1       4.468  -0.217  -0.509  1.00  0.00     0.044 A 
HETATM    9  C14 UNL     1       3.401  -0.447   0.323  1.00  0.00     0.050 A 
HETATM   10  C15 UNL     1       2.290  -0.874  -0.392  1.00  0.00     0.064 A 
HETATM   11  C16 UNL     1       1.000  -1.234  -0.093  1.00  0.00     0.275 A 
HETATM   12  O2  UNL     1       0.625  -1.204   1.129  1.00  0.00    -0.266 OA
ENDROOT
BRANCH   1  13
HETATM   13  C4  UNL     1      -1.204  -1.997  -0.686  1.00  0.00     0.255 C 
BRANCH  13  14
HETATM   14  C3  UNL     1      -2.116  -0.856  -0.691  1.00  0.00     0.237 C 
HETATM   15  N1  UNL     1      -2.937  -0.489   0.414  1.00  0.00    -0.355 N 
ATOM     16  H1  UNL     1      -2.862  -1.061   1.255  1.00  0.00     0.162 HD
HETATM   17  O1  UNL     1      -2.224  -0.116  -1.721  1.00  0.00    -0.272 OA
BRANCH  15  18
HETATM   18  C2  UNL     1      -3.853   0.602   0.455  1.00  0.00     0.087 C 
HETATM   19  C1  UNL     1      -3.550   1.634   1.527  1.00  0.00     0.033 C 
BRANCH  18  20
HETATM   20  C17 UNL     1      -5.299   0.132   0.542  1.00  0.00    -0.031 C 
HETATM   21  C18 UNL     1      -5.641  -0.502   1.857  1.00  0.00     0.016 C 
HETATM   22  C19 UNL     1      -6.182   1.340   0.367  1.00  0.00     0.016 C 
HETATM   23  C20 UNL     1      -5.534  -0.798  -0.625  1.00  0.00     0.016 C 
ENDBRANCH  18  20
ENDBRANCH  15  18
ENDBRANCH  13  14
ENDBRANCH   1  13
BRANCH   8  24
HETATM   24  C8  UNL     1       5.806   0.248  -0.134  1.00  0.00    -0.004 A 
HETATM   25  C9  UNL     1       6.174   0.529   1.161  1.00  0.00     0.056 A 
HETATM   26  C10 UNL     1       7.428   0.971   1.504  1.00  0.00     0.120 A 
HETATM   27  F1  UNL     1       7.797   1.252   2.773  1.00  0.00    -0.206 F 
HETATM   28  C11 UNL     1       8.379   1.147   0.513  1.00  0.00     0.084 A 
HETATM   29  C12 UNL     1       8.030   0.872  -0.779  1.00  0.00     0.120 A 
HETATM   30  F2  UNL     1       8.995   1.060  -1.737  1.00  0.00    -0.206 F 
HETATM   31  C13 UNL     1       6.774   0.431  -1.117  1.00  0.00     0.056 A 
ENDBRANCH   8  24
TORSDOF 5
