REMARK  7 active torsions:
REMARK  status: ('A' for Active; 'I' for Inactive)
REMARK    1  A    between atoms: C2_2  and  C3_3 
REMARK    2  A    between atoms: C3_3  and  O1_5 
REMARK    3  A    between atoms: O1_5  and  C5_6 
REMARK    4  A    between atoms: C6_8  and  O3_9 
REMARK    5  A    between atoms: C7_11  and  O4_12 
REMARK    6  A    between atoms: C10_16  and  O5_17 
REMARK    7  A    between atoms: C11_19  and  O6_20 
ROOT
HETATM    1  C5  UNL     1       0.788  -0.601  -0.087  1.00  0.00     0.300 C 
HETATM    2  O2  UNL     1       0.335   0.633   0.364  1.00  0.00    -0.326 OA
HETATM    3  C6  UNL     1      -0.395   0.543   1.544  1.00  0.00     0.289 C 
HETATM    4  C7  UNL     1      -1.869   0.502   1.274  1.00  0.00     0.179 C 
HETATM    5  C8  UNL     1      -2.058   0.309  -0.216  1.00  0.00     0.046 C 
HETATM    6  C9  UNL     1      -3.498   0.606  -0.580  1.00  0.00     0.015 C 
HETATM    7  C10 UNL     1      -1.649  -1.080  -0.549  1.00  0.00     0.158 C 
HETATM    8  C11 UNL     1      -0.258  -1.287  -0.963  1.00  0.00     0.203 C 
ENDROOT
BRANCH   1   9
HETATM    9  O1  UNL     1       1.895  -0.428  -0.831  1.00  0.00    -0.319 OA
BRANCH   9  10
HETATM   10  C3  UNL     1       3.134   0.019  -0.891  1.00  0.00     0.062 C 
HETATM   11  C4  UNL     1       3.702   0.210  -2.130  1.00  0.00     0.051 C 
BRANCH  10  12
HETATM   12  C2  UNL     1       3.980   0.339   0.229  1.00  0.00     0.026 C 
HETATM   13  C1  UNL     1       3.628   0.226   1.482  1.00  0.00     0.014 C 
ENDBRANCH  10  12
ENDBRANCH   9  10
ENDBRANCH   1   9
BRANCH   8  14
HETATM   14  O6  UNL     1      -0.101  -0.931  -2.302  1.00  0.00    -0.388 OA
ATOM     15  H6  UNL     1      -0.752  -1.358  -2.847  1.00  0.00     0.210 HD
ENDBRANCH   8  14
BRANCH   3  16
HETATM   16  O3  UNL     1      -0.131   1.714   2.273  1.00  0.00    -0.368 OA
ATOM     17  H3  UNL     1      -0.630   1.653   3.079  1.00  0.00     0.212 HD
ENDBRANCH   3  16
BRANCH   7  18
HETATM   18  O5  UNL     1      -2.517  -1.540  -1.554  1.00  0.00    -0.392 OA
ATOM     19  H5  UNL     1      -2.255  -2.428  -1.767  1.00  0.00     0.210 HD
ENDBRANCH   7  18
BRANCH   4  20
HETATM   20  O4  UNL     1      -2.543   1.623   1.744  1.00  0.00    -0.390 OA
ATOM     21  H4  UNL     1      -3.477   1.597   1.573  1.00  0.00     0.210 HD
ENDBRANCH   4  20
TORSDOF 7
