REMARK  3 active torsions:
REMARK  status: ('A' for Active; 'I' for Inactive)
REMARK    1  A    between atoms: O1_3  and  C2_4 
REMARK    2  A    between atoms: C2_4  and  C3_6 
REMARK    3  A    between atoms: C3_6  and  N2_7 
ROOT
HETATM    1  N1  UNL     1       4.412   1.696   0.901  1.00  0.00    -0.164 NA
HETATM    2  C1  UNL     1       3.716   0.904   0.425  1.00  0.00     0.234 C 
HETATM    3  O1  UNL     1       2.871  -0.043  -0.128  1.00  0.00    -0.230 OA
ENDROOT
BRANCH   3   4
HETATM    4  C2  UNL     1       1.748  -0.366   0.583  1.00  0.00     0.168 C 
HETATM    5  S1  UNL     1       1.819  -0.455   2.200  1.00  0.00    -0.053 SA
BRANCH   4   6
HETATM    6  C3  UNL     1       0.487  -0.627  -0.135  1.00  0.00     0.183 C 
HETATM    7  C4  UNL     1       0.198   0.582  -1.000  1.00  0.00     0.047 C 
HETATM    8  C5  UNL     1      -1.274   0.727  -1.265  1.00  0.00     0.003 C 
HETATM    9  C6  UNL     1      -1.966   1.034   0.046  1.00  0.00     0.000 C 
HETATM   10  C7  UNL     1      -1.503   0.175   1.174  1.00  0.00     0.003 C 
HETATM   11  C8  UNL     1      -0.647  -0.980   0.764  1.00  0.00     0.047 C 
BRANCH   6  12
HETATM   12  N2  UNL     1       0.715  -1.763  -1.041  1.00  0.00    -0.063 N 
ATOM     13  H23 UNL     1       1.506  -1.617  -1.669  1.00  0.00     0.275 HD
ATOM     14  H22 UNL     1       1.075  -2.587  -0.560  1.00  0.00     0.275 HD
ATOM     15  H21 UNL     1      -0.157  -1.944  -1.538  1.00  0.00     0.275 HD
ENDBRANCH   6  12
ENDBRANCH   4   6
ENDBRANCH   3   4
TORSDOF 3
