REMARK  6 active torsions:
REMARK  status: ('A' for Active; 'I' for Inactive)
REMARK    1  A    between atoms: O1_1  and  C1_3 
REMARK    2  A    between atoms: C3_5  and  O2_6 
REMARK    3  A    between atoms: O2_6  and  C4_7 
REMARK    4  A    between atoms: C8_11  and  O3_12 
REMARK    5  A    between atoms: C9_14  and  O4_15 
REMARK    6  A    between atoms: C11_18  and  N1_19 
ROOT
HETATM    1  C1  UNL     1       0.716   0.733  -2.400  1.00  0.00     0.070 A 
HETATM    2  C2  UNL     1      -0.414   0.639  -1.601  1.00  0.00     0.073 A 
HETATM    3  C3  UNL     1      -0.345   0.231  -0.295  1.00  0.00     0.074 A 
HETATM    4  C10 UNL     1       0.922  -0.091   0.207  1.00  0.00     0.066 A 
HETATM    5  C11 UNL     1       2.045  -0.003  -0.569  1.00  0.00     0.035 A 
HETATM    6  C17 UNL     1       1.950   0.413  -1.890  1.00  0.00     0.066 A 
ENDROOT
BRANCH   3   7
HETATM    7  O2  UNL     1      -1.453   0.135   0.506  1.00  0.00    -0.343 OA
BRANCH   7   8
HETATM    8  C4  UNL     1      -2.768   0.396   0.224  1.00  0.00     0.160 C 
HETATM    9  C5  UNL     1      -3.394   1.450   1.120  1.00  0.00     0.035 C 
HETATM   10  C6  UNL     1      -4.701   1.852   0.492  1.00  0.00     0.005 C 
HETATM   11  C7  UNL     1      -5.630   0.689   0.299  1.00  0.00     0.034 C 
HETATM   12  C8  UNL     1      -4.971  -0.527  -0.255  1.00  0.00     0.149 C 
HETATM   13  C9  UNL     1      -3.668  -0.840   0.417  1.00  0.00     0.176 C 
BRANCH  12  14
HETATM   14  O3  UNL     1      -5.864  -1.602  -0.111  1.00  0.00    -0.393 OA
ATOM     15  H3  UNL     1      -5.444  -2.377  -0.464  1.00  0.00     0.210 HD
ENDBRANCH  12  14
BRANCH  13  16
HETATM   16  O4  UNL     1      -3.804  -1.017   1.775  1.00  0.00    -0.390 OA
ATOM     17  H4  UNL     1      -4.359  -1.779   1.894  1.00  0.00     0.210 HD
ENDBRANCH  13  16
ENDBRANCH   7   8
ENDBRANCH   3   7
BRANCH   1  18
HETATM   18  O1  UNL     1       0.614   1.147  -3.715  1.00  0.00    -0.361 OA
ATOM     19  H1  UNL     1       1.388   1.211  -4.262  1.00  0.00     0.217 HD
ENDBRANCH   1  18
BRANCH   5  20
HETATM   20  N1  UNL     1       3.350  -0.317  -0.077  1.00  0.00    -0.381 N 
HETATM   21  C12 UNL     1       3.477  -0.538   1.347  1.00  0.00     0.123 C 
HETATM   22  C13 UNL     1       4.938  -0.265   1.707  1.00  0.00     0.020 C 
HETATM   23  C14 UNL     1       5.756  -1.266   0.963  1.00  0.00     0.003 C 
HETATM   24  C15 UNL     1       5.649  -1.136  -0.528  1.00  0.00     0.020 C 
HETATM   25  C16 UNL     1       4.430  -0.404  -0.990  1.00  0.00     0.123 C 
ENDBRANCH   5  20
TORSDOF 6
