REMARK  5 active torsions:
REMARK  status: ('A' for Active; 'I' for Inactive)
REMARK    1  A    between atoms: C2_2  and  C3_3 
REMARK    2  A    between atoms: C3_3  and  N1_4 
REMARK    3  A    between atoms: C4_5  and  O1_6 
REMARK    4  A    between atoms: C7_10  and  O2_11 
REMARK    5  A    between atoms: C8_13  and  C9_14 
ROOT
HETATM    1  N1  UNL     1       2.188  -0.293  -0.723  1.00  0.00    -0.304 N 
HETATM    2  C4  UNL     1       1.629   0.942  -0.703  1.00  0.00     0.154 A 
HETATM    3  C5  UNL     1       0.284   0.773  -0.501  1.00  0.00     0.039 A 
HETATM    4  C6  UNL     1       0.018  -0.578  -0.397  1.00  0.00     0.029 A 
HETATM    5  C7  UNL     1       1.233  -1.225  -0.540  1.00  0.00     0.153 A 
HETATM    6  C8  UNL     1      -1.437  -0.731  -0.181  1.00  0.00     0.117 C 
HETATM    7  C10 UNL     1      -1.941   0.431  -1.072  1.00  0.00     0.052 C 
HETATM    8  C11 UNL     1      -3.336   0.627  -0.628  1.00  0.00     0.012 C 
HETATM    9  C12 UNL     1      -3.397   0.038   0.788  1.00  0.00     0.040 C 
HETATM   10  C13 UNL     1      -1.912  -0.088   1.077  1.00  0.00     0.081 C 
HETATM   11  C14 UNL     1      -1.562  -0.695   2.351  1.00  0.00     0.048 C 
HETATM   12  O5  UNL     1      -1.423   1.237   0.967  1.00  0.00    -0.363 OA
HETATM   13  C15 UNL     1      -1.054   1.446  -0.340  1.00  0.00     0.095 C 
HETATM   14  C16 UNL     1      -1.110   2.803  -0.859  1.00  0.00     0.052 C 
ENDROOT
BRANCH   1  15
HETATM   15  C3  UNL     1       3.582  -0.568  -0.911  1.00  0.00     0.160 C 
BRANCH  15  16
HETATM   16  C2  UNL     1       4.299  -0.602   0.411  1.00  0.00    -0.017 C 
HETATM   17  C1  UNL     1       5.291   0.265   0.615  1.00  0.00     0.008 C 
ENDBRANCH  15  16
ENDBRANCH   1  15
BRANCH   2  18
HETATM   18  O1  UNL     1       2.257   2.158  -0.853  1.00  0.00    -0.345 OA
ATOM     19  H1  UNL     1       1.865   3.023  -0.839  1.00  0.00     0.219 HD
ENDBRANCH   2  18
BRANCH   5  20
HETATM   20  O2  UNL     1       1.463  -2.609  -0.506  1.00  0.00    -0.345 OA
ATOM     21  H2  UNL     1       0.789  -3.266  -0.377  1.00  0.00     0.219 HD
ENDBRANCH   5  20
BRANCH   6  22
HETATM   22  C9  UNL     1      -1.999  -1.986  -0.572  1.00  0.00     0.190 C 
HETATM   23  O3  UNL     1      -2.922  -1.988  -1.463  1.00  0.00    -0.647 OA
HETATM   24  O4  UNL     1      -1.647  -3.209  -0.085  1.00  0.00    -0.647 OA
ENDBRANCH   6  22
TORSDOF 5
