REMARK  6 active torsions:
REMARK  status: ('A' for Active; 'I' for Inactive)
REMARK    1  A    between atoms: C1_2  and  C2_4 
REMARK    2  A    between atoms: C2_4  and  N1_5 
REMARK       I    between atoms: N2_8  and  C5_9 
REMARK       I    between atoms: C5_9  and  N3_11 
REMARK    3  A    between atoms: N3_11  and  C6_13 
REMARK    4  A    between atoms: C13_20  and  C14_21 
REMARK    5  A    between atoms: C14_21  and  C15_22 
REMARK    6  A    between atoms: C15_22  and  O4_23 
ROOT
HETATM    1  N1  UNL     1      -2.679   1.178  -0.112  1.00  0.00    -0.342 N 
HETATM    2  C3  UNL     1      -1.530   1.284  -0.916  1.00  0.00     0.088 C 
HETATM    3  C4  UNL     1      -0.909  -0.053  -1.272  1.00  0.00     0.172 C 
HETATM    4  N2  UNL     1      -0.400  -0.704  -0.085  1.00  0.00    -0.329 N 
HETATM    5  C5  UNL     1       0.975  -0.634   0.160  1.00  0.00     0.318 C 
HETATM    6  O3  UNL     1       1.392  -1.239   1.218  1.00  0.00    -0.247 OA
HETATM    7  N3  UNL     1       1.900   0.045  -0.666  1.00  0.00    -0.338 N 
ATOM      8  H3  UNL     1       1.558   0.524  -1.499  1.00  0.00     0.164 HD
HETATM    9  C12 UNL     1      -1.141  -1.442   0.926  1.00  0.00     0.138 C 
HETATM   10  C13 UNL     1      -2.505  -0.923   1.193  1.00  0.00     0.044 C 
HETATM   11  C16 UNL     1      -2.602   0.583   1.137  1.00  0.00     0.075 C 
ENDROOT
BRANCH   7  12
HETATM   12  C6  UNL     1       3.323   0.084  -0.368  1.00  0.00     0.086 C 
HETATM   13  C7  UNL     1       4.157  -0.594  -1.416  1.00  0.00     0.025 C 
HETATM   14  C8  UNL     1       5.480  -0.955  -0.737  1.00  0.00     0.002 C 
HETATM   15  C9  UNL     1       5.773  -0.058   0.424  1.00  0.00     0.000 C 
HETATM   16  C10 UNL     1       5.302   1.364   0.224  1.00  0.00     0.002 C 
HETATM   17  C11 UNL     1       3.854   1.473  -0.159  1.00  0.00     0.025 C 
ENDBRANCH   7  12
BRANCH  10  18
HETATM   18  C14 UNL     1      -3.620  -1.588   0.443  1.00  0.00     0.037 C 
BRANCH  18  19
HETATM   19  C15 UNL     1      -3.715  -3.054   0.746  1.00  0.00     0.165 C 
BRANCH  19  20
HETATM   20  O4  UNL     1      -4.791  -3.603   0.006  1.00  0.00    -0.401 OA
ATOM     21  H4  UNL     1      -4.851  -4.531   0.198  1.00  0.00     0.209 HD
ENDBRANCH  19  20
ENDBRANCH  18  19
ENDBRANCH  10  18
BRANCH   1  22
HETATM   22  C2  UNL     1      -3.896   1.683  -0.582  1.00  0.00     0.179 C 
BRANCH  22  23
HETATM   23  C1  UNL     1      -3.845   3.166  -0.657  1.00  0.00     0.215 C 
HETATM   24  O1  UNL     1      -2.836   3.843  -0.332  1.00  0.00    -0.643 OA
HETATM   25  O2  UNL     1      -4.954   3.897  -1.107  1.00  0.00    -0.643 OA
ENDBRANCH  22  23
ENDBRANCH   1  22
TORSDOF 6
