REMARK  9 active torsions:
REMARK  status: ('A' for Active; 'I' for Inactive)
REMARK    1  A    between atoms: C2_2  and  N1_4 
REMARK    2  A    between atoms: N1_4  and  C5_6 
REMARK    3  A    between atoms: C5_6  and  C6_7 
REMARK    4  A    between atoms: C6_7  and  N2_8 
REMARK    5  A    between atoms: N2_8  and  C7_10 
REMARK    6  A    between atoms: C7_10  and  N3_12 
REMARK    7  A    between atoms: N3_12  and  C8_14 
REMARK    8  A    between atoms: C8_14  and  N4_16 
REMARK    9  A    between atoms: N4_16  and  C9_18 
ROOT
HETATM    1  N3  UNL     1      -1.349  -0.750   0.108  1.00  0.00    -0.310 N 
ATOM      2  H3  UNL     1      -1.891  -0.630  -0.748  1.00  0.00     0.170 HD
ENDROOT
BRANCH   1   3
HETATM    3  C7  UNL     1       0.026  -0.632  -0.071  1.00  0.00     0.173 C 
HETATM    4  S1  UNL     1       0.553  -0.378  -1.648  1.00  0.00    -0.041 SA
BRANCH   3   5
HETATM    5  N2  UNL     1       0.999  -0.746   0.936  1.00  0.00    -0.365 N 
ATOM      6  H2  UNL     1       0.694  -0.946   1.889  1.00  0.00     0.161 HD
BRANCH   5   7
HETATM    7  C6  UNL     1       2.437  -0.590   0.677  1.00  0.00     0.141 C 
BRANCH   7   8
HETATM    8  C5  UNL     1       2.748   0.838   0.415  1.00  0.00     0.136 C 
BRANCH   8   9
HETATM    9  N1  UNL     1       4.125   1.102   0.140  1.00  0.00    -0.412 N 
HETATM   10  C4  UNL     1       5.002   1.230   1.234  1.00  0.00     0.143 C 
BRANCH   9  11
HETATM   11  C2  UNL     1       4.637   0.591  -1.082  1.00  0.00     0.070 C 
HETATM   12  C1  UNL     1       5.690   1.473  -1.670  1.00  0.00     0.031 C 
HETATM   13  C3  UNL     1       5.163  -0.812  -0.983  1.00  0.00     0.031 C 
ENDBRANCH   9  11
ENDBRANCH   8   9
ENDBRANCH   7   8
ENDBRANCH   5   7
ENDBRANCH   3   5
ENDBRANCH   1   3
BRANCH   1  14
HETATM   14  C8  UNL     1      -2.132  -1.004   1.251  1.00  0.00     0.174 C 
HETATM   15  S2  UNL     1      -1.506  -1.252   2.752  1.00  0.00    -0.041 SA
BRANCH  14  16
HETATM   16  N4  UNL     1      -3.576  -1.057   1.133  1.00  0.00    -0.362 N 
ATOM     17  H4  UNL     1      -4.124  -1.265   1.968  1.00  0.00     0.162 HD
BRANCH  16  18
HETATM   18  C9  UNL     1      -4.276  -0.830  -0.109  1.00  0.00     0.087 C 
HETATM   19  C10 UNL     1      -5.702  -1.261   0.098  1.00  0.00     0.051 C 
HETATM   20  C11 UNL     1      -6.757  -0.374  -0.418  1.00  0.00     0.169 C 
HETATM   21  O1  UNL     1      -6.474   0.954  -0.545  1.00  0.00    -0.391 OA
HETATM   22  C12 UNL     1      -5.389   1.381   0.182  1.00  0.00     0.169 C 
HETATM   23  C13 UNL     1      -4.178   0.652  -0.423  1.00  0.00     0.051 C 
ENDBRANCH  16  18
ENDBRANCH  14  16
ENDBRANCH   1  14
TORSDOF 9
