REMARK  2 active torsions:
REMARK  status: ('A' for Active; 'I' for Inactive)
REMARK    1  A    between atoms: C2_2  and  N1_3 
REMARK    2  A    between atoms: C4_5  and  N2_6 
ROOT
HETATM    1  N1  UNL     1      -0.849  -0.557   0.039  1.00  0.00    -0.247 NA
HETATM    2  C3  UNL     1      -1.863   0.440   0.055  1.00  0.00     0.142 C 
HETATM    3  C4  UNL     1      -1.254   1.710  -0.498  1.00  0.00     0.216 C 
HETATM    4  C5  UNL     1       0.181   1.313  -0.752  1.00  0.00     0.107 C 
HETATM    5  C6  UNL     1       1.148   1.909   0.216  1.00  0.00     0.025 C 
HETATM    6  C7  UNL     1       1.590   0.693   1.030  1.00  0.00     0.027 C 
HETATM    7  C8  UNL     1       1.511  -0.381  -0.033  1.00  0.00     0.021 C 
HETATM    8  C9  UNL     1       2.586  -0.099  -1.054  1.00  0.00     0.033 C 
HETATM    9  C10 UNL     1       1.675  -1.721   0.587  1.00  0.00     0.033 C 
HETATM   10  N3  UNL     1       0.250  -0.124  -0.647  1.00  0.00    -0.234 NA
ENDROOT
BRANCH   3  11
HETATM   11  N2  UNL     1      -1.373   2.741   0.493  1.00  0.00    -0.072 N 
ATOM     12  H23 UNL     1      -2.334   2.873   0.808  1.00  0.00     0.274 HD
ATOM     13  H22 UNL     1      -0.968   2.471   1.389  1.00  0.00     0.274 HD
ATOM     14  H21 UNL     1      -0.962   3.597   0.120  1.00  0.00     0.274 HD
ENDBRANCH   3  11
BRANCH   1  15
HETATM   15  C2  UNL     1      -1.397  -1.774  -0.511  1.00  0.00     0.103 C 
HETATM   16  C1  UNL     1      -2.303  -2.525   0.416  1.00  0.00     0.022 C 
ENDBRANCH   1  15
TORSDOF 2
