REMARK  1 active torsions:
REMARK  status: ('A' for Active; 'I' for Inactive)
REMARK    1  A    between atoms: C6_9  and  N3_10 
ROOT
HETATM    1  C1  UNL     1       1.962   2.612   0.866  1.00  0.00     0.068 C 
HETATM    2  C2  UNL     1       1.485   1.268   0.391  1.00  0.00     0.013 A 
HETATM    3  N1  UNL     1       2.358   0.332  -0.028  1.00  0.00    -0.361 N 
ATOM      4  H1  UNL     1       3.358   0.533  -0.024  1.00  0.00     0.165 HD
HETATM    5  C3  UNL     1       1.919  -0.866  -0.451  1.00  0.00     0.032 A 
HETATM    6  C4  UNL     1       2.848  -1.911  -0.915  1.00  0.00     0.070 C 
HETATM    7  C5  UNL     1       0.563  -1.107  -0.444  1.00  0.00     0.095 A 
HETATM    8  N2  UNL     1       0.105  -2.360  -0.887  1.00  0.00    -0.098 NA
HETATM    9  C6  UNL     1      -0.366  -0.165  -0.019  1.00  0.00     0.064 A 
HETATM   10  C9  UNL     1       0.122   1.055   0.408  1.00  0.00    -0.011 A 
HETATM   11  C10 UNL     1      -0.798   2.114   0.877  1.00  0.00     0.052 C 
ENDROOT
BRANCH   9  12
HETATM   12  N3  UNL     1      -1.749  -0.408  -0.011  1.00  0.00    -0.388 N 
HETATM   13  C7  UNL     1      -2.451  -0.972   1.117  1.00  0.00     0.149 C 
HETATM   14  C8  UNL     1      -2.490  -0.058  -1.230  1.00  0.00     0.149 C 
ENDBRANCH   9  12
TORSDOF 1
