REMARK  2 active torsions:
REMARK  status: ('A' for Active; 'I' for Inactive)
REMARK    1  A    between atoms: C2_2  and  C5_5 
REMARK    2  A    between atoms: N1_10  and  C10_11 
ROOT
HETATM    1  C10 UNL     1       1.220  -0.150   0.566  1.00  0.00     0.134 A 
HETATM    2  N2  UNL     1       1.369   0.294   1.806  1.00  0.00    -0.318 N 
ATOM      3  H2  UNL     1       0.642   0.094   2.492  1.00  0.00     0.170 HD
HETATM    4  C11 UNL     1       2.425   0.985   2.181  1.00  0.00     0.178 A 
HETATM    5  S1  UNL     1       2.560   1.514   3.738  1.00  0.00    -0.040 SA
HETATM    6  N3  UNL     1       3.403   1.273   1.321  1.00  0.00    -0.320 N 
ATOM      7  H3  UNL     1       4.210   1.811   1.637  1.00  0.00     0.169 HD
HETATM    8  C12 UNL     1       3.338   0.863   0.044  1.00  0.00     0.146 A 
HETATM    9  N4  UNL     1       4.370   1.163  -0.876  1.00  0.00    -0.080 NA
HETATM   10  C13 UNL     1       2.212   0.128  -0.350  1.00  0.00     0.131 A 
HETATM   11  N5  UNL     1       2.126  -0.339  -1.693  1.00  0.00    -0.095 NA
ENDROOT
BRANCH   1  12
HETATM   12  N1  UNL     1       0.033  -0.899   0.175  1.00  0.00    -0.360 N 
HETATM   13  C5  UNL     1      -1.148  -0.368  -0.365  1.00  0.00     0.093 C 
HETATM   14  C6  UNL     1      -2.397  -1.172   0.043  1.00  0.00     0.026 C 
HETATM   15  C7  UNL     1      -2.164  -2.633  -0.099  1.00  0.00     0.004 C 
HETATM   16  C8  UNL     1      -0.988  -3.085   0.749  1.00  0.00     0.020 C 
HETATM   17  C9  UNL     1       0.228  -2.311   0.354  1.00  0.00     0.125 C 
BRANCH  13  18
HETATM   18  C2  UNL     1      -1.444   1.094  -0.136  1.00  0.00    -0.031 C 
HETATM   19  C1  UNL     1      -1.751   1.409   1.307  1.00  0.00     0.016 C 
HETATM   20  C3  UNL     1      -2.789   1.371  -0.873  1.00  0.00     0.016 C 
HETATM   21  C4  UNL     1      -0.509   2.086  -0.685  1.00  0.00     0.016 C 
ENDBRANCH  13  18
ENDBRANCH   1  12
TORSDOF 2
