REMARK  4 active torsions:
REMARK  status: ('A' for Active; 'I' for Inactive)
REMARK    1  A    between atoms: C2_2  and  C4_4 
REMARK    2  A    between atoms: C9_13  and  O1_14 
REMARK    3  A    between atoms: C10_16  and  O2_17 
REMARK    4  A    between atoms: N2_19  and  O3_20 
ROOT
HETATM    1  C4  UNL     1       1.449  -0.016  -0.791  1.00  0.00     0.096 C 
HETATM    2  C5  UNL     1       0.957  -1.272  -1.230  1.00  0.00    -0.095 C 
HETATM    3  S1  UNL     1       0.147  -2.704  -1.646  1.00  0.00    -0.021 SA
HETATM    4  C6  UNL     1      -1.391  -2.698  -0.611  1.00  0.00     0.151 C 
HETATM    5  S2  UNL     1      -1.904  -4.167  -0.355  1.00  0.00    -0.052 SA
HETATM    6  N1  UNL     1      -2.177  -1.649  -0.021  1.00  0.00    -0.325 N 
ATOM      7  H1  UNL     1      -3.070  -1.956   0.364  1.00  0.00     0.169 HD
HETATM    8  C7  UNL     1      -1.921  -0.239   0.120  1.00  0.00     0.146 A 
HETATM    9  C8  UNL     1      -0.799   0.562   0.285  1.00  0.00     0.027 A 
HETATM   10  C9  UNL     1      -1.326   1.867   0.337  1.00  0.00     0.129 A 
HETATM   11  C10 UNL     1      -2.697   1.838   0.210  1.00  0.00     0.203 A 
HETATM   12  N2  UNL     1      -3.017   0.543   0.081  1.00  0.00    -0.182 N 
HETATM   13  C11 UNL     1       0.628   0.415   0.426  1.00  0.00     0.067 C 
ENDROOT
BRANCH   1  14
HETATM   14  C2  UNL     1       2.868  -0.119  -0.253  1.00  0.00    -0.077 C 
HETATM   15  C1  UNL     1       3.844   0.619  -0.751  1.00  0.00     0.015 C 
HETATM   16  C3  UNL     1       3.187  -1.057   0.853  1.00  0.00     0.044 C 
ENDBRANCH   1  14
BRANCH  10  17
HETATM   17  O1  UNL     1      -0.542   2.984   0.495  1.00  0.00    -0.356 OA
ATOM     18  H1  UNL     1      -0.897   3.864   0.530  1.00  0.00     0.218 HD
ENDBRANCH  10  17
BRANCH  12  19
HETATM   19  O3  UNL     1      -4.307   0.094  -0.068  1.00  0.00    -0.279 OA
ATOM     20  H3  UNL     1      -5.080   0.646  -0.096  1.00  0.00     0.245 HD
ENDBRANCH  12  19
BRANCH  11  21
HETATM   21  O2  UNL     1      -3.553   2.939   0.217  1.00  0.00    -0.342 OA
ATOM     22  H2  UNL     1      -4.499   2.919   0.129  1.00  0.00     0.219 HD
ENDBRANCH  11  21
TORSDOF 4
