REMARK  4 active torsions:
REMARK  status: ('A' for Active; 'I' for Inactive)
REMARK    1  A    between atoms: C2_2  and  O1_5 
REMARK    2  A    between atoms: O1_5  and  C5_6 
REMARK    3  A    between atoms: C5_6  and  C6_8 
REMARK    4  A    between atoms: C9_11  and  N1_12 
ROOT
HETATM    1  C6  UNL     1       0.512  -0.187  -0.091  1.00  0.00     0.083 A 
HETATM    2  C7  UNL     1       1.546  -1.000  -0.475  1.00  0.00     0.043 A 
HETATM    3  C8  UNL     1       2.803  -0.556  -0.250  1.00  0.00     0.043 A 
HETATM    4  C9  UNL     1       4.003  -1.218  -0.560  1.00  0.00     0.114 A 
HETATM    5  N2  UNL     1       5.165  -0.653  -0.277  1.00  0.00    -0.319 N 
ATOM      6  H2  UNL     1       6.011  -1.168  -0.519  1.00  0.00     0.170 HD
HETATM    7  C10 UNL     1       5.313   0.539   0.301  1.00  0.00     0.178 A 
HETATM    8  S1  UNL     1       6.790   1.152   0.610  1.00  0.00    -0.040 SA
HETATM    9  N3  UNL     1       4.178   1.192   0.607  1.00  0.00    -0.327 N 
ATOM     10  H3  UNL     1       4.238   2.108   1.051  1.00  0.00     0.169 HD
HETATM   11  C11 UNL     1       2.944   0.661   0.339  1.00  0.00     0.091 A 
HETATM   12  S2  UNL     1       1.334   1.168   0.571  1.00  0.00    -0.065 SA
ENDROOT
BRANCH   1  13
HETATM   13  C5  UNL     1      -0.929  -0.412  -0.212  1.00  0.00     0.301 C 
HETATM   14  O2  UNL     1      -1.334  -1.465  -0.725  1.00  0.00    -0.259 OA
BRANCH  13  15
HETATM   15  O1  UNL     1      -1.784   0.539   0.240  1.00  0.00    -0.307 OA
BRANCH  15  16
HETATM   16  C2  UNL     1      -3.194   0.453   0.187  1.00  0.00     0.060 C 
HETATM   17  C1  UNL     1      -3.731   0.318  -1.199  1.00  0.00     0.046 C 
HETATM   18  C3  UNL     1      -3.719   1.779   0.752  1.00  0.00     0.046 C 
HETATM   19  C4  UNL     1      -3.740  -0.631   1.088  1.00  0.00     0.046 C 
ENDBRANCH  15  16
ENDBRANCH  13  15
ENDBRANCH   1  13
BRANCH   4  20
HETATM   20  N1  UNL     1       4.022  -2.383  -1.123  1.00  0.00    -0.385 N 
ATOM     21  H12 UNL     1       3.126  -2.819  -1.341  1.00  0.00     0.157 HD
ATOM     22  H11 UNL     1       4.893  -2.864  -1.348  1.00  0.00     0.157 HD
ENDBRANCH   4  20
TORSDOF 4
