REMARK  6 active torsions:
REMARK  status: ('A' for Active; 'I' for Inactive)
REMARK    1  A    between atoms: O1_2  and  N1_3 
REMARK       I    between atoms: N1_3  and  C2_5 
REMARK       I    between atoms: C2_5  and  N2_7 
REMARK    2  A    between atoms: N2_7  and  S1_9 
REMARK    3  A    between atoms: S1_9  and  C3_10 
REMARK    4  A    between atoms: C3_10  and  N4_14 
REMARK    5  A    between atoms: N4_14  and  O3_15 
REMARK    6  A    between atoms: N4_14  and  C4_17 
ROOT
HETATM    1  C3  UNL     1      -0.250  -0.407  -1.518  1.00  0.00     0.186 C 
HETATM    2  N3  UNL     1      -0.493  -1.641  -1.686  1.00  0.00    -0.377 N 
ATOM      3  H31 UNL     1       0.199  -2.390  -1.673  1.00  0.00     0.158 HD
ATOM      4  H32 UNL     1      -1.463  -1.912  -1.850  1.00  0.00     0.158 HD
ENDROOT
BRANCH   1   5
HETATM    5  S1  UNL     1      -1.461   0.905  -1.540  1.00  0.00     0.028 SA
BRANCH   5   6
HETATM    6  N2  UNL     1      -3.012   0.158  -1.874  1.00  0.00    -0.274 N 
HETATM    7  C2  UNL     1      -4.096   0.401  -0.997  1.00  0.00     0.350 C 
HETATM    8  N1  UNL     1      -5.382  -0.184  -1.218  1.00  0.00    -0.216 N 
HETATM    9  O2  UNL     1      -3.964   1.147   0.014  1.00  0.00    -0.244 OA
ATOM     10  H1  UNL     1      -5.524  -0.791  -2.025  1.00  0.00     0.199 HD
ATOM     11  H2  UNL     1      -3.131  -0.443  -2.689  1.00  0.00     0.179 HD
BRANCH   8  12
HETATM   12  O1  UNL     1      -6.397   0.049  -0.390  1.00  0.00    -0.281 OA
HETATM   13  C1  UNL     1      -6.052  -0.369   0.897  1.00  0.00     0.237 C 
ENDBRANCH   8  12
ENDBRANCH   5   6
ENDBRANCH   1   5
BRANCH   1  14
HETATM   14  N4  UNL     1       1.121  -0.024  -1.286  1.00  0.00    -0.200 N 
BRANCH  14  15
HETATM   15  O3  UNL     1       1.731   0.544  -2.337  1.00  0.00    -0.280 OA
ATOM     16  H3  UNL     1       2.634   0.796  -2.184  1.00  0.00     0.245 HD
ENDBRANCH  14  15
BRANCH  14  17
HETATM   17  C4  UNL     1       1.733  -0.251  -0.032  1.00  0.00     0.071 A 
HETATM   18  C5  UNL     1       0.958  -0.825   0.988  1.00  0.00     0.033 A 
HETATM   19  C6  UNL     1       1.504  -1.081   2.217  1.00  0.00     0.003 A 
HETATM   20  C7  UNL     1       2.820  -0.779   2.459  1.00  0.00     0.007 A 
HETATM   21  C8  UNL     1       3.596  -0.206   1.441  1.00  0.00    -0.054 A 
HETATM   22  C9  UNL     1       5.014   0.090   1.742  1.00  0.00     0.049 C 
HETATM   23  C10 UNL     1       3.047   0.056   0.198  1.00  0.00    -0.027 A 
HETATM   24  C11 UNL     1       3.892   0.671  -0.834  1.00  0.00     0.051 C 
ENDBRANCH  14  17
ENDBRANCH   1  14
TORSDOF 6
