REMARK  3 active torsions:
REMARK  status: ('A' for Active; 'I' for Inactive)
REMARK    1  A    between atoms: O1_2  and  C2_3 
REMARK    2  A    between atoms: C2_3  and  C3_5 
REMARK    3  A    between atoms: C5_7  and  C6_8 
ROOT
HETATM    1  C3  UNL     1       0.696  -0.327  -0.378  1.00  0.00     0.085 C 
HETATM    2  C4  UNL     1       1.317  -0.879  -1.670  1.00  0.00     0.030 C 
HETATM    3  C5  UNL     1      -0.778  -0.475  -0.314  1.00  0.00     0.068 C 
HETATM    4  C10 UNL     1      -1.209  -1.405   0.768  1.00  0.00     0.060 C 
HETATM    5  N1  UNL     1      -2.085  -2.323   0.602  1.00  0.00    -0.399 N 
ATOM      6  H11 UNL     1      -2.380  -2.959   1.342  1.00  0.00     0.156 HD
ATOM      7  H12 UNL     1      -2.526  -2.398  -0.315  1.00  0.00     0.156 HD
HETATM    8  C11 UNL     1      -0.569  -1.296   2.100  1.00  0.00     0.159 C 
HETATM    9  N2  UNL     1      -1.191  -1.525   3.162  1.00  0.00    -0.378 N 
ATOM     10  H21 UNL     1      -0.750  -1.450   4.079  1.00  0.00     0.158 HD
ATOM     11  H22 UNL     1      -2.170  -1.801   3.238  1.00  0.00     0.158 HD
HETATM   12  O3  UNL     1       0.793  -0.912   1.994  1.00  0.00    -0.323 OA
HETATM   13  C12 UNL     1       1.328  -1.248   0.702  1.00  0.00     0.079 C 
HETATM   14  C13 UNL     1       1.191  -2.691   0.363  1.00  0.00     0.047 C 
HETATM   15  C14 UNL     1       2.814  -0.915   0.749  1.00  0.00     0.047 C 
ENDROOT
BRANCH   1  16
HETATM   16  C2  UNL     1       1.258   1.010  -0.108  1.00  0.00     0.270 C 
HETATM   17  O2  UNL     1       1.661   1.342   1.039  1.00  0.00    -0.264 OA
BRANCH  16  18
HETATM   18  O1  UNL     1       1.382   1.987  -1.083  1.00  0.00    -0.326 OA
HETATM   19  C1  UNL     1       1.923   3.268  -0.814  1.00  0.00     0.213 C 
ENDBRANCH  16  18
ENDBRANCH   1  16
BRANCH   3  20
HETATM   20  C6  UNL     1      -1.648   0.706  -0.310  1.00  0.00    -0.041 C 
HETATM   21  C7  UNL     1      -3.106   0.218  -0.217  1.00  0.00     0.015 C 
HETATM   22  C8  UNL     1      -1.628   1.522  -1.585  1.00  0.00     0.015 C 
HETATM   23  C9  UNL     1      -1.478   1.667   0.838  1.00  0.00     0.015 C 
ENDBRANCH   3  20
TORSDOF 3
