REMARK  6 active torsions:
REMARK  status: ('A' for Active; 'I' for Inactive)
REMARK    1  A    between atoms: C2_2  and  O1_3 
REMARK    2  A    between atoms: C2_2  and  C12_15 
REMARK    3  A    between atoms: O1_3  and  C3_4 
REMARK       I    between atoms: C3_4  and  N1_6 
REMARK    4  A    between atoms: N1_6  and  C5_8 
REMARK    5  A    between atoms: C5_8  and  C8_11 
REMARK    6  A    between atoms: C13_18  and  N3_19 
ROOT
HETATM    1  O1  UNL     1       1.445   0.443  -0.469  1.00  0.00    -0.291 OA
ENDROOT
BRANCH   1   2
HETATM    2  C2  UNL     1       2.559  -0.274  -0.935  1.00  0.00     0.204 C 
HETATM    3  C1  UNL     1       2.924   0.035  -2.347  1.00  0.00     0.049 C 
BRANCH   2   4
HETATM    4  C12 UNL     1       3.733  -0.167  -0.068  1.00  0.00     0.154 A 
HETATM    5  N2  UNL     1       4.979   0.053  -0.517  1.00  0.00    -0.318 N 
HETATM    6  C13 UNL     1       5.832   0.102   0.495  1.00  0.00     0.198 A 
ATOM      7  H2  UNL     1       5.233   0.166  -1.498  1.00  0.00     0.169 HD
HETATM    8  C14 UNL     1       5.079  -0.098   1.632  1.00  0.00     0.199 A 
HETATM    9  O5  UNL     1       3.838  -0.252   1.239  1.00  0.00    -0.303 OA
BRANCH   6  10
HETATM   10  N3  UNL     1       7.230   0.319   0.377  1.00  0.00    -0.096 N 
HETATM   11  O3  UNL     1       7.986   0.355   1.374  1.00  0.00    -0.530 OA
HETATM   12  O4  UNL     1       7.802   0.499  -0.856  1.00  0.00    -0.530 OA
ENDBRANCH   6  10
ENDBRANCH   2   4
ENDBRANCH   1   2
BRANCH   1  13
HETATM   13  C3  UNL     1       0.242  -0.163  -0.085  1.00  0.00     0.363 C 
HETATM   14  O2  UNL     1       0.256  -1.415  -0.197  1.00  0.00    -0.238 OA
HETATM   15  N1  UNL     1      -0.858   0.587   0.380  1.00  0.00    -0.323 N 
HETATM   16  C4  UNL     1      -0.681   2.023   0.481  1.00  0.00     0.156 C 
BRANCH  15  17
HETATM   17  C5  UNL     1      -2.100  -0.006   0.708  1.00  0.00     0.036 C 
HETATM   18  C6  UNL     1      -1.946  -1.171   1.694  1.00  0.00     0.039 C 
HETATM   19  C7  UNL     1      -2.826   1.062   1.606  1.00  0.00     0.039 C 
BRANCH  17  20
HETATM   20  C8  UNL     1      -3.022  -0.402  -0.366  1.00  0.00    -0.026 C 
HETATM   21  C9  UNL     1      -3.452   0.751  -1.260  1.00  0.00     0.017 C 
HETATM   22  C10 UNL     1      -2.651  -1.541  -1.248  1.00  0.00     0.017 C 
HETATM   23  C11 UNL     1      -4.338  -0.836   0.328  1.00  0.00     0.017 C 
ENDBRANCH  17  20
ENDBRANCH  15  17
ENDBRANCH   1  13
TORSDOF 6
