REMARK  19 active torsions:
REMARK  status: ('A' for Active; 'I' for Inactive)
REMARK    1  A    between atoms: C2_2  and  C3_3 
REMARK    2  A    between atoms: C3_3  and  C4_4 
REMARK    3  A    between atoms: C4_4  and  C5_5 
REMARK    4  A    between atoms: C5_5  and  N1_6 
REMARK    5  A    between atoms: N1_6  and  C6_7 
REMARK       I    between atoms: N1_6  and  C20_25 
REMARK    6  A    between atoms: C6_7  and  C7_8 
REMARK    7  A    between atoms: C8_9  and  C9_10 
REMARK    8  A    between atoms: C9_10  and  C10_11 
REMARK    9  A    between atoms: C20_25  and  C21_27 
REMARK   10  A    between atoms: C21_27  and  C22_28 
REMARK   11  A    between atoms: C22_28  and  C23_29 
REMARK   12  A    between atoms: C23_29  and  C24_30 
REMARK   13  A    between atoms: C25_31  and  C26_32 
REMARK   14  A    between atoms: C26_32  and  O3_33 
REMARK   15  A    between atoms: O3_33  and  C27_34 
REMARK   16  A    between atoms: C28_36  and  C29_37 
REMARK   17  A    between atoms: C31_39  and  O5_40 
REMARK   18  A    between atoms: C32_42  and  O6_43 
REMARK   19  A    between atoms: C33_45  and  O7_46 
ROOT
HETATM    1  N1  UNL     1       1.424  -0.853   1.084  1.00  0.00    -0.349 N 
HETATM    2  C20 UNL     1       0.478  -0.402   2.053  1.00  0.00     0.220 C 
HETATM    3  O2  UNL     1       0.590   0.754   2.499  1.00  0.00    -0.273 OA
ENDROOT
BRANCH   1   4
HETATM    4  C5  UNL     1       1.358  -2.186   0.530  1.00  0.00     0.126 C 
BRANCH   4   5
HETATM    5  C4  UNL     1       2.166  -3.127   1.359  1.00  0.00     0.020 C 
BRANCH   5   6
HETATM    6  C3  UNL     1       2.104  -4.547   0.814  1.00  0.00     0.001 C 
BRANCH   6   7
HETATM    7  C2  UNL     1       2.634  -4.611  -0.600  1.00  0.00    -0.004 C 
HETATM    8  C1  UNL     1       2.528  -6.061  -1.046  1.00  0.00     0.005 C 
ENDBRANCH   6   7
ENDBRANCH   5   6
ENDBRANCH   4   5
ENDBRANCH   1   4
BRANCH   1   9
HETATM    9  C6  UNL     1       2.445   0.098   0.649  1.00  0.00     0.152 C 
BRANCH   9  10
HETATM   10  C7  UNL     1       3.657   0.074   1.497  1.00  0.00    -0.011 C 
HETATM   11  C8  UNL     1       4.867  -0.195   1.111  1.00  0.00    -0.024 C 
BRANCH  11  12
HETATM   12  C9  UNL     1       5.240  -0.529  -0.270  1.00  0.00     0.071 C 
BRANCH  12  13
HETATM   13  C10 UNL     1       6.271   0.413  -0.806  1.00  0.00     0.014 A 
HETATM   14  C11 UNL     1       7.596  -0.013  -0.861  1.00  0.00     0.029 A 
HETATM   15  C12 UNL     1       8.572   0.834  -1.345  1.00  0.00     0.030 A 
HETATM   16  C13 UNL     1       9.905   0.440  -1.414  1.00  0.00     0.131 A 
HETATM   17  C17 UNL     1       8.257   2.103  -1.779  1.00  0.00     0.053 A 
HETATM   18  F1  UNL     1      10.184  -0.809  -0.981  1.00  0.00    -0.205 F 
HETATM   19  C14 UNL     1      10.874   1.271  -1.891  1.00  0.00     0.085 A 
HETATM   20  C15 UNL     1      10.554   2.539  -2.324  1.00  0.00     0.121 A 
HETATM   21  F2  UNL     1      11.485   3.411  -2.810  1.00  0.00    -0.206 F 
HETATM   22  C16 UNL     1       9.234   2.958  -2.267  1.00  0.00     0.073 A 
HETATM   23  N2  UNL     1       6.974   2.504  -1.722  1.00  0.00    -0.317 N 
HETATM   24  C18 UNL     1       6.669   3.840  -2.183  1.00  0.00     0.159 C 
HETATM   25  C19 UNL     1       5.999   1.676  -1.245  1.00  0.00     0.254 A 
HETATM   26  O1  UNL     1       4.813   2.092  -1.210  1.00  0.00    -0.267 OA
ENDBRANCH  12  13
ENDBRANCH  11  12
ENDBRANCH   9  10
ENDBRANCH   1   9
BRANCH   2  27
HETATM   27  C21 UNL     1      -0.615  -1.270   2.529  1.00  0.00     0.103 C 
BRANCH  27  28
HETATM   28  C22 UNL     1      -1.636  -0.608   3.378  1.00  0.00     0.013 C 
BRANCH  28  29
HETATM   29  C23 UNL     1      -2.405   0.515   2.703  1.00  0.00     0.027 C 
BRANCH  29  30
HETATM   30  C24 UNL     1      -3.366   1.035   3.690  1.00  0.00    -0.029 C 
HETATM   31  C25 UNL     1      -4.656   1.029   3.517  1.00  0.00    -0.005 C 
BRANCH  31  32
HETATM   32  C26 UNL     1      -5.375   0.525   2.352  1.00  0.00     0.198 C 
BRANCH  32  33
HETATM   33  O3  UNL     1      -6.115   1.589   1.793  1.00  0.00    -0.355 OA
BRANCH  33  34
HETATM   34  C27 UNL     1      -6.831   1.174   0.659  1.00  0.00     0.291 C 
HETATM   35  O4  UNL     1      -6.405   1.895  -0.421  1.00  0.00    -0.351 OA
HETATM   36  C28 UNL     1      -7.295   1.976  -1.457  1.00  0.00     0.155 C 
HETATM   37  C31 UNL     1      -8.275   0.823  -1.491  1.00  0.00     0.178 C 
HETATM   38  C32 UNL     1      -9.093   0.751  -0.232  1.00  0.00     0.183 C 
HETATM   39  C33 UNL     1      -8.311   1.244   0.936  1.00  0.00     0.204 C 
BRANCH  36  40
HETATM   40  C29 UNL     1      -6.518   1.945  -2.758  1.00  0.00     0.030 C 
HETATM   41  C30 UNL     1      -7.436   2.033  -3.956  1.00  0.00     0.007 C 
ENDBRANCH  36  40
BRANCH  37  42
HETATM   42  O5  UNL     1      -7.632  -0.377  -1.787  1.00  0.00    -0.390 OA
ATOM     43  H5  UNL     1      -8.247  -1.101  -1.808  1.00  0.00     0.210 HD
ENDBRANCH  37  42
BRANCH  38  44
HETATM   44  O6  UNL     1      -9.415  -0.589  -0.029  1.00  0.00    -0.390 OA
ATOM     45  H6  UNL     1      -9.932  -0.635   0.767  1.00  0.00     0.210 HD
ENDBRANCH  38  44
BRANCH  39  46
HETATM   46  O7  UNL     1      -8.718   2.498   1.385  1.00  0.00    -0.388 OA
ATOM     47  H7  UNL     1      -9.651   2.542   1.560  1.00  0.00     0.210 HD
ENDBRANCH  39  46
ENDBRANCH  33  34
ENDBRANCH  32  33
ENDBRANCH  31  32
ENDBRANCH  29  30
ENDBRANCH  28  29
ENDBRANCH  27  28
ENDBRANCH   2  27
TORSDOF 19
