REMARK  15 active torsions:
REMARK  status: ('A' for Active; 'I' for Inactive)
REMARK    1  A    between atoms: C2_2  and  C3_3 
REMARK    2  A    between atoms: C3_3  and  C4_4 
REMARK    3  A    between atoms: C4_4  and  C5_5 
REMARK    4  A    between atoms: C5_5  and  C6_6 
REMARK    5  A    between atoms: C6_6  and  C7_7 
REMARK    6  A    between atoms: C7_7  and  C8_8 
REMARK    7  A    between atoms: C8_8  and  C9_9 
REMARK    8  A    between atoms: C9_9  and  C10_10 
REMARK    9  A    between atoms: C10_10  and  N1_11 
REMARK       I    between atoms: N1_11  and  C11_13 
REMARK   10  A    between atoms: C11_13  and  C12_15 
REMARK   11  A    between atoms: C12_15  and  N2_16 
REMARK   12  A    between atoms: C15_20  and  N3_21 
REMARK   13  A    between atoms: N3_21  and  S1_23 
REMARK   14  A    between atoms: S1_23  and  N4_26 
REMARK   15  A    between atoms: N5_32  and  C21_33 
ROOT
HETATM    1  N2  UNL     1      -0.991   0.021   1.333  1.00  0.00    -0.257 N 
HETATM    2  C13 UNL     1      -1.050   0.741   0.203  1.00  0.00     0.255 A 
HETATM    3  O2  UNL     1      -0.170   1.582  -0.050  1.00  0.00    -0.268 OA
HETATM    4  C14 UNL     1      -2.107   0.538  -0.687  1.00  0.00     0.124 A 
HETATM    5  C15 UNL     1      -3.054  -0.407  -0.358  1.00  0.00     0.128 A 
HETATM    6  N5  UNL     1      -2.972  -1.123   0.792  1.00  0.00    -0.272 N 
HETATM    7  C27 UNL     1      -1.945  -0.906   1.626  1.00  0.00     0.334 A 
HETATM    8  O6  UNL     1      -1.823  -1.534   2.687  1.00  0.00    -0.246 OA
ENDROOT
BRANCH   1   9
HETATM    9  C12 UNL     1       0.116   0.280   2.223  1.00  0.00     0.239 C 
BRANCH   9  10
HETATM   10  C11 UNL     1       1.302  -0.573   1.878  1.00  0.00     0.236 C 
HETATM   11  N1  UNL     1       2.461  -0.438   2.653  1.00  0.00    -0.360 N 
ATOM     12  H1  UNL     1       2.384   0.228   3.422  1.00  0.00     0.162 HD
HETATM   13  O1  UNL     1       1.204  -1.358   0.924  1.00  0.00    -0.272 OA
BRANCH  11  14
HETATM   14  C10 UNL     1       3.725  -1.075   2.545  1.00  0.00     0.122 C 
BRANCH  14  15
HETATM   15  C9  UNL     1       4.622  -0.772   1.403  1.00  0.00     0.020 C 
BRANCH  15  16
HETATM   16  C8  UNL     1       4.138  -1.013   0.028  1.00  0.00     0.002 C 
BRANCH  16  17
HETATM   17  C7  UNL     1       5.258  -0.730  -0.995  1.00  0.00     0.000 C 
BRANCH  17  18
HETATM   18  C6  UNL     1       5.704   0.689  -0.916  1.00  0.00     0.000 C 
BRANCH  18  19
HETATM   19  C5  UNL     1       6.796   0.985  -1.935  1.00  0.00     0.000 C 
BRANCH  19  20
HETATM   20  C4  UNL     1       8.019   0.143  -1.726  1.00  0.00     0.000 C 
BRANCH  20  21
HETATM   21  C3  UNL     1       8.639   0.363  -0.354  1.00  0.00    -0.000 C 
BRANCH  21  22
HETATM   22  C2  UNL     1       9.048   1.793  -0.154  1.00  0.00    -0.005 C 
HETATM   23  C1  UNL     1       9.663   1.957   1.234  1.00  0.00     0.005 C 
ENDBRANCH  21  22
ENDBRANCH  20  21
ENDBRANCH  19  20
ENDBRANCH  18  19
ENDBRANCH  17  18
ENDBRANCH  16  17
ENDBRANCH  15  16
ENDBRANCH  14  15
ENDBRANCH  11  14
ENDBRANCH   9  10
ENDBRANCH   1   9
BRANCH   6  24
HETATM   24  C21 UNL     1      -3.964  -2.099   1.080  1.00  0.00     0.165 C 
HETATM   25  C22 UNL     1      -3.386  -3.505   1.186  1.00  0.00     0.034 C 
HETATM   26  C23 UNL     1      -3.935  -4.258   2.374  1.00  0.00     0.003 C 
HETATM   27  C24 UNL     1      -5.431  -4.189   2.451  1.00  0.00     0.007 C 
HETATM   28  C25 UNL     1      -5.948  -2.780   2.513  1.00  0.00     0.080 C 
HETATM   29  C26 UNL     1      -4.774  -1.860   2.293  1.00  0.00     0.150 C 
HETATM   30  O5  UNL     1      -4.578  -0.990   3.122  1.00  0.00    -0.296 OA
ENDBRANCH   6  24
BRANCH   5  31
HETATM   31  N3  UNL     1      -4.118  -0.639  -1.256  1.00  0.00    -0.252 N 
ATOM     32  H3  UNL     1      -4.018  -1.369  -1.962  1.00  0.00     0.182 HD
BRANCH  31  33
HETATM   33  S1  UNL     1      -5.565   0.260  -1.200  1.00  0.00     0.329 S 
HETATM   34  O3  UNL     1      -6.771  -0.656  -1.372  1.00  0.00    -0.182 OA
HETATM   35  O4  UNL     1      -5.754   0.873   0.185  1.00  0.00    -0.182 OA
BRANCH  33  36
HETATM   36  N4  UNL     1      -5.709   1.507  -2.317  1.00  0.00    -0.253 N 
HETATM   37  C16 UNL     1      -4.789   2.564  -2.275  1.00  0.00     0.082 C 
HETATM   38  C17 UNL     1      -5.192   3.859  -2.891  1.00  0.00     0.046 C 
HETATM   39  C18 UNL     1      -6.687   4.026  -2.719  1.00  0.00     0.010 C 
HETATM   40  C19 UNL     1      -7.323   2.913  -3.521  1.00  0.00     0.046 C 
HETATM   41  C20 UNL     1      -6.832   1.563  -3.147  1.00  0.00     0.082 C 
ENDBRANCH  33  36
ENDBRANCH  31  33
ENDBRANCH   5  31
TORSDOF 15
