REMARK  16 active torsions:
REMARK  status: ('A' for Active; 'I' for Inactive)
REMARK    1  A    between atoms: C1_2  and  C2_4 
REMARK    2  A    between atoms: C2_4  and  N1_5 
REMARK    3  A    between atoms: N1_5  and  C3_6 
REMARK       I    between atoms: N1_5  and  C5_10 
REMARK    4  A    between atoms: C3_6  and  C4_7 
REMARK    5  A    between atoms: C5_10  and  C6_12 
REMARK    6  A    between atoms: C6_12  and  C7_13 
REMARK    7  A    between atoms: C7_13  and  C8_14 
REMARK    8  A    between atoms: C8_14  and  N2_15 
REMARK    9  A    between atoms: C8_14  and  C23_36 
REMARK       I    between atoms: N2_15  and  C9_17 
REMARK   10  A    between atoms: C9_17  and  C10_19 
REMARK   11  A    between atoms: C12_21  and  O7_22 
REMARK   12  A    between atoms: O7_22  and  C13_23 
REMARK   13  A    between atoms: C13_23  and  C14_24 
REMARK       I    between atoms: N3_28  and  C18_29 
REMARK   14  A    between atoms: C18_29  and  O9_31 
REMARK   15  A    between atoms: O9_31  and  C19_32 
REMARK   16  A    between atoms: C19_32  and  C20_33 
ROOT
HETATM    1  N2  UNL     1       0.273  -1.051   0.471  1.00  0.00    -0.354 N 
ATOM      2  H2  UNL     1       0.298  -0.871   1.475  1.00  0.00     0.162 HD
HETATM    3  C9  UNL     1      -0.887  -0.765  -0.283  1.00  0.00     0.241 C 
HETATM    4  O6  UNL     1      -0.896  -0.997  -1.512  1.00  0.00    -0.271 OA
ENDROOT
BRANCH   1   5
HETATM    5  C8  UNL     1       1.431  -1.607  -0.211  1.00  0.00     0.089 C 
BRANCH   5   6
HETATM    6  C7  UNL     1       2.671  -0.835   0.075  1.00  0.00     0.034 C 
BRANCH   6   7
HETATM    7  C6  UNL     1       2.474   0.595  -0.380  1.00  0.00     0.105 C 
BRANCH   7   8
HETATM    8  C5  UNL     1       3.700   1.412  -0.116  1.00  0.00     0.220 C 
HETATM    9  N1  UNL     1       3.703   2.808  -0.382  1.00  0.00    -0.332 N 
HETATM   10  O5  UNL     1       4.703   0.809   0.343  1.00  0.00    -0.273 OA
BRANCH   9  11
HETATM   11  C2  UNL     1       2.554   3.488  -0.898  1.00  0.00     0.239 C 
BRANCH  11  12
HETATM   12  C1  UNL     1       2.538   3.506  -2.392  1.00  0.00     0.191 C 
HETATM   13  O1  UNL     1       1.616   4.075  -3.021  1.00  0.00    -0.647 OA
HETATM   14  O2  UNL     1       3.541   2.893  -3.126  1.00  0.00    -0.647 OA
ENDBRANCH  11  12
ENDBRANCH   9  11
BRANCH   9  15
HETATM   15  C3  UNL     1       4.925   3.539  -0.114  1.00  0.00     0.239 C 
BRANCH  15  16
HETATM   16  C4  UNL     1       4.985   4.060   1.251  1.00  0.00     0.191 C 
HETATM   17  O3  UNL     1       4.041   3.858   2.049  1.00  0.00    -0.647 OA
HETATM   18  O4  UNL     1       6.079   4.783   1.684  1.00  0.00    -0.647 OA
ENDBRANCH  15  16
ENDBRANCH   9  15
ENDBRANCH   7   8
ENDBRANCH   6   7
ENDBRANCH   5   6
BRANCH   5  19
HETATM   19  C23 UNL     1       1.513  -3.052   0.207  1.00  0.00     0.008 C 
HETATM   20  C24 UNL     1       2.648  -3.715  -0.539  1.00  0.00     0.007 C 
HETATM   21  C25 UNL     1       2.706  -5.202  -0.165  1.00  0.00     0.000 C 
HETATM   22  C26 UNL     1       3.123  -5.262   1.270  1.00  0.00     0.000 C 
HETATM   23  C27 UNL     1       2.808  -4.076   2.096  1.00  0.00     0.000 C 
HETATM   24  C28 UNL     1       1.614  -3.265   1.690  1.00  0.00     0.007 C 
ENDBRANCH   5  19
ENDBRANCH   1   5
BRANCH   3  25
HETATM   25  C10 UNL     1      -2.063  -0.197   0.415  1.00  0.00     0.184 C 
HETATM   26  C11 UNL     1      -1.754   1.173   0.966  1.00  0.00     0.068 C 
HETATM   27  C12 UNL     1      -2.690   2.142   0.306  1.00  0.00     0.142 C 
HETATM   28  C17 UNL     1      -3.524   1.346  -0.669  1.00  0.00     0.161 C 
HETATM   29  N3  UNL     1      -3.193  -0.039  -0.472  1.00  0.00    -0.312 N 
HETATM   30  C18 UNL     1      -3.887  -1.113  -1.070  1.00  0.00     0.363 C 
HETATM   31  O8  UNL     1      -4.850  -0.920  -1.826  1.00  0.00    -0.238 OA
BRANCH  27  32
HETATM   32  O7  UNL     1      -3.434   2.758   1.276  1.00  0.00    -0.384 OA
BRANCH  32  33
HETATM   33  C13 UNL     1      -3.271   4.134   1.270  1.00  0.00     0.172 C 
BRANCH  33  34
HETATM   34  C14 UNL     1      -1.833   4.522   1.523  1.00  0.00     0.009 A 
HETATM   35  C15 UNL     1      -1.486   5.984   1.554  1.00  0.00     0.007 A 
HETATM   36  C16 UNL     1      -1.099   5.205   0.357  1.00  0.00     0.007 A 
ENDBRANCH  33  34
ENDBRANCH  32  33
ENDBRANCH  27  32
BRANCH  30  37
HETATM   37  O9  UNL     1      -3.494  -2.398  -0.815  1.00  0.00    -0.304 OA
BRANCH  37  38
HETATM   38  C19 UNL     1      -4.092  -3.561  -1.340  1.00  0.00     0.185 C 
BRANCH  38  39
HETATM   39  C20 UNL     1      -5.549  -3.676  -0.952  1.00  0.00     0.010 A 
HETATM   40  C21 UNL     1      -6.226  -4.919  -1.497  1.00  0.00     0.007 A 
HETATM   41  C22 UNL     1      -6.607  -3.594  -1.996  1.00  0.00     0.007 A 
ENDBRANCH  38  39
ENDBRANCH  37  38
ENDBRANCH  30  37
ENDBRANCH   3  25
TORSDOF 16
