REMARK  3 active torsions:
REMARK  status: ('A' for Active; 'I' for Inactive)
REMARK    1  A    between atoms: C1_2  and  C2_4 
REMARK       I    between atoms: N1_8  and  C6_9 
REMARK    2  A    between atoms: C6_9  and  C7_11 
REMARK    3  A    between atoms: C13_17  and  C14_18 
REMARK       I    between atoms: C14_18  and  N2_20 
ROOT
HETATM    1  C7  UNL     1      -0.431  -0.612   0.171  1.00  0.00     0.095 C 
HETATM    2  C8  UNL     1      -0.745  -1.962  -0.426  1.00  0.00    -0.000 C 
HETATM    3  C9  UNL     1      -0.080  -3.020   0.422  1.00  0.00     0.006 C 
HETATM    4  C10 UNL     1       1.398  -2.645   0.269  1.00  0.00     0.006 C 
HETATM    5  C11 UNL     1       1.463  -1.605  -0.804  1.00  0.00    -0.000 C 
HETATM    6  C12 UNL     1       0.218  -1.980  -1.630  1.00  0.00     0.011 C 
HETATM    7  C13 UNL     1       0.962  -0.269  -0.300  1.00  0.00     0.095 C 
ENDROOT
BRANCH   1   8
HETATM    8  C6  UNL     1      -1.433   0.354  -0.334  1.00  0.00     0.226 C 
HETATM    9  N1  UNL     1      -2.774   0.363   0.103  1.00  0.00    -0.337 N 
HETATM   10  C2  UNL     1      -3.840   1.254  -0.362  1.00  0.00     0.188 C 
HETATM   11  C5  UNL     1      -3.316  -0.516   1.118  1.00  0.00     0.127 C 
HETATM   12  C3  UNL     1      -5.104   0.673   0.180  1.00  0.00     0.038 C 
HETATM   13  C4  UNL     1      -4.717  -0.749   0.535  1.00  0.00     0.022 C 
HETATM   14  O3  UNL     1      -1.072   1.218  -1.206  1.00  0.00    -0.273 OA
BRANCH  10  15
HETATM   15  C1  UNL     1      -3.600   2.644   0.081  1.00  0.00     0.196 C 
HETATM   16  O1  UNL     1      -2.614   2.996   0.761  1.00  0.00    -0.646 OA
HETATM   17  O2  UNL     1      -4.528   3.609  -0.282  1.00  0.00    -0.646 OA
ENDBRANCH  10  15
ENDBRANCH   1   8
BRANCH   7  18
HETATM   18  C14 UNL     1       1.797   0.335   0.734  1.00  0.00     0.225 C 
HETATM   19  O4  UNL     1       1.321   0.495   1.884  1.00  0.00    -0.273 OA
HETATM   20  N2  UNL     1       3.123   0.725   0.420  1.00  0.00    -0.349 N 
HETATM   21  C15 UNL     1       4.045   1.337   1.368  1.00  0.00     0.129 C 
HETATM   22  C18 UNL     1       3.820   0.611  -0.852  1.00  0.00     0.162 C 
HETATM   23  C16 UNL     1       5.287   1.664   0.618  1.00  0.00     0.058 C 
HETATM   24  C17 UNL     1       4.848   1.723  -0.818  1.00  0.00     0.189 C 
HETATM   25  F1  UNL     1       5.911   1.436  -1.651  1.00  0.00    -0.248 F 
ENDBRANCH   7  18
TORSDOF 3
