REMARK  3 active torsions:
REMARK  status: ('A' for Active; 'I' for Inactive)
REMARK    1  A    between atoms: C8_11  and  C9_12 
REMARK    2  A    between atoms: C9_12  and  O2_13 
REMARK    3  A    between atoms: C9_12  and  C10_15 
ROOT
HETATM    1  O1  UNL     1      -0.677   3.029  -2.718  1.00  0.00    -0.247 OA
HETATM    2  C1  UNL     1      -0.700   2.225  -1.722  1.00  0.00     0.316 C 
HETATM    3  N1  UNL     1      -1.434   1.032  -1.609  1.00  0.00    -0.336 N 
ATOM      4  H1  UNL     1      -1.741   0.432  -2.375  1.00  0.00     0.164 HD
HETATM    5  C2  UNL     1      -1.667   0.822  -0.223  1.00  0.00     0.117 C 
HETATM    6  C3  UNL     1      -1.735  -0.555   0.253  1.00  0.00     0.037 C 
HETATM    7  C4  UNL     1      -1.479  -1.644  -0.678  1.00  0.00    -0.024 C 
HETATM    8  C5  UNL     1      -0.699  -2.532  -0.087  1.00  0.00    -0.030 C 
HETATM    9  C6  UNL     1      -0.381  -2.077   1.300  1.00  0.00     0.032 C 
HETATM   10  C7  UNL     1      -0.620  -0.635   1.296  1.00  0.00     0.007 C 
HETATM   11  C8  UNL     1       0.443   0.320   0.843  1.00  0.00     0.046 C 
HETATM   12  C11 UNL     1      -0.413   1.451   0.414  1.00  0.00     0.116 C 
HETATM   13  N2  UNL     1       0.030   2.391  -0.514  1.00  0.00    -0.336 N 
ATOM     14  H2  UNL     1       0.760   3.085  -0.353  1.00  0.00     0.164 HD
ENDROOT
BRANCH  11  15
HETATM   15  C9  UNL     1       1.469  -0.214  -0.004  1.00  0.00     0.149 C 
BRANCH  15  16
HETATM   16  O2  UNL     1       2.179  -1.244   0.628  1.00  0.00    -0.393 OA
ATOM     17  H2  UNL     1       2.859  -1.598   0.067  1.00  0.00     0.210 HD
ENDBRANCH  15  16
BRANCH  15  18
HETATM   18  C10 UNL     1       2.561   0.669  -0.521  1.00  0.00     0.158 C 
HETATM   19 BR1  UNL     1       3.667  -0.562  -1.601  1.00  0.00    -0.076 Br
HETATM   20 BR2  UNL     1       3.759   1.259   0.867  1.00  0.00    -0.076 Br
ENDBRANCH  15  18
ENDBRANCH  11  15
TORSDOF 3
