REMARK  5 active torsions:
REMARK  status: ('A' for Active; 'I' for Inactive)
REMARK    1  A    between atoms: C1_4  and  N2_5 
REMARK    2  A    between atoms: C1_4  and  O2_21 
REMARK       I    between atoms: C2_7  and  N4_9 
REMARK    3  A    between atoms: O2_21  and  C6_22 
REMARK    4  A    between atoms: C6_22  and  C7_23 
REMARK    5  A    between atoms: C6_22  and  C8_25 
ROOT
HETATM    1  N2  UNL     1       0.342   0.190   0.789  1.00  0.00    -0.296 N 
ATOM      2  H2  UNL     1       0.203   1.200   0.822  1.00  0.00     0.172 HD
HETATM    3  C2  UNL     1      -0.572  -0.605   1.214  1.00  0.00     0.209 C 
HETATM    4  N3  UNL     1      -0.374  -2.001   1.166  1.00  0.00    -0.062 NA
HETATM    5  N4  UNL     1      -1.755  -0.002   1.718  1.00  0.00    -0.163 N 
ATOM      6  H4  UNL     1      -1.817   0.280   2.696  1.00  0.00     0.187 HD
HETATM    7  C3  UNL     1      -2.737   0.181   0.927  1.00  0.00     0.685 C 
HETATM    8  N5  UNL     1      -2.649  -0.210  -0.423  1.00  0.00    -0.210 N 
ATOM      9  H5  UNL     1      -1.888  -0.826  -0.707  1.00  0.00     0.179 HD
HETATM   10  C4  UNL     1      -3.600   0.231  -1.422  1.00  0.00     0.266 C 
HETATM   11  N6  UNL     1      -4.869   0.572  -0.808  1.00  0.00    -0.326 N 
ATOM     12  H6  UNL     1      -5.712   0.516  -1.379  1.00  0.00     0.165 HD
HETATM   13  C5  UNL     1      -4.998   0.977   0.536  1.00  0.00     0.335 C 
HETATM   14  O1  UNL     1      -6.053   1.519   1.002  1.00  0.00    -0.246 OA
HETATM   15  N7  UNL     1      -3.918   0.781   1.424  1.00  0.00    -0.141 N 
ATOM     16  H7  UNL     1      -3.988   1.065   2.401  1.00  0.00     0.189 HD
ENDROOT
BRANCH   1  17
HETATM   17  C1  UNL     1       1.551  -0.354   0.271  1.00  0.00     0.219 C 
HETATM   18  N1  UNL     1       1.555  -0.940  -0.864  1.00  0.00    -0.365 N 
ATOM     19  H12 UNL     1       0.640  -0.960  -1.315  1.00  0.00     0.159 HD
ATOM     20  H11 UNL     1       2.421  -1.330  -1.235  1.00  0.00     0.159 HD
BRANCH  17  21
HETATM   21  O2  UNL     1       2.773  -0.327   0.873  1.00  0.00    -0.315 OA
BRANCH  21  22
HETATM   22  C6  UNL     1       3.928   0.163   0.302  1.00  0.00     0.151 C 
BRANCH  22  23
HETATM   23  C7  UNL     1       3.927   1.606  -0.097  1.00  0.00     0.118 C 
HETATM   24 BR1  UNL     1       2.646   2.160  -1.375  1.00  0.00    -0.094 Br
ENDBRANCH  22  23
BRANCH  22  25
HETATM   25  C8  UNL     1       4.597  -0.737  -0.698  1.00  0.00     0.118 C 
HETATM   26 BR2  UNL     1       6.208   0.139  -1.379  1.00  0.00    -0.094 Br
ENDBRANCH  22  25
ENDBRANCH  21  22
ENDBRANCH  17  21
ENDBRANCH   1  17
TORSDOF 5
