REMARK  12 active torsions:
REMARK  status: ('A' for Active; 'I' for Inactive)
REMARK    1  A    between atoms: C2_2  and  N1_4 
REMARK    2  A    between atoms: C2_2  and  N3_8 
REMARK    3  A    between atoms: N1_4  and  N2_5 
REMARK    4  A    between atoms: N3_8  and  C4_9 
REMARK    5  A    between atoms: N3_8  and  N12_32 
REMARK    6  A    between atoms: C4_9  and  O1_10 
REMARK    7  A    between atoms: C5_12  and  N4_13 
REMARK    8  A    between atoms: C7_19  and  N8_20 
REMARK    9  A    between atoms: C8_25  and  N10_26 
REMARK   10  A    between atoms: C12_36  and  C13_37 
REMARK   11  A    between atoms: C13_37  and  C14_38 
REMARK   12  A    between atoms: C14_38  and  N13_39 
ROOT
HETATM    1  C4  UNL     1      -0.159   0.718   0.172  1.00  0.00     0.172 C 
HETATM    2  C5  UNL     1       1.115   1.079   0.731  1.00  0.00     0.175 C 
ENDROOT
BRANCH   1   3
HETATM    3  N3  UNL     1      -0.767  -0.528   0.045  1.00  0.00    -0.260 N 
BRANCH   3   4
HETATM    4  C2  UNL     1      -0.124  -1.773   0.358  1.00  0.00     0.133 C 
HETATM    5  C1  UNL     1      -1.160  -2.944   0.370  1.00  0.00     0.061 C 
HETATM    6  C3  UNL     1       0.685  -2.137  -0.910  1.00  0.00     0.061 C 
BRANCH   4   7
HETATM    7  N1  UNL     1       0.610  -1.886   1.550  1.00  0.00    -0.115 NA
BRANCH   7   8
HETATM    8  N2  UNL     1      -0.197  -1.833   2.659  1.00  0.00    -0.346 N 
ATOM      9  H22 UNL     1      -1.210  -1.724   2.607  1.00  0.00     0.172 HD
ATOM     10  H21 UNL     1       0.336  -1.915   3.525  1.00  0.00     0.172 HD
ENDBRANCH   7   8
ENDBRANCH   4   7
ENDBRANCH   3   4
BRANCH   3  11
HETATM   11  N12 UNL     1      -2.079  -0.674  -0.413  1.00  0.00    -0.194 NA
HETATM   12  C10 UNL     1      -2.295  -0.407  -1.805  1.00  0.00     0.143 C 
HETATM   13  C11 UNL     1      -3.823  -0.566  -1.859  1.00  0.00     0.186 C 
HETATM   14  O2  UNL     1      -4.238  -0.460  -0.536  1.00  0.00    -0.368 OA
HETATM   15  C12 UNL     1      -3.122   0.059   0.167  1.00  0.00     0.216 C 
BRANCH  15  16
HETATM   16  C13 UNL     1      -3.296   0.024   1.635  1.00  0.00     0.077 C 
BRANCH  16  17
HETATM   17  C14 UNL     1      -4.467   0.869   2.112  1.00  0.00     0.233 C 
BRANCH  17  18
HETATM   18  N13 UNL     1      -4.207   2.227   1.697  1.00  0.00    -0.079 N 
ATOM     19 3H13 UNL     1      -3.304   2.577   2.017  1.00  0.00     0.274 HD
ATOM     20 2H13 UNL     1      -4.033   2.313   0.696  1.00  0.00     0.274 HD
ATOM     21 1H13 UNL     1      -4.992   2.794   2.017  1.00  0.00     0.274 HD
ENDBRANCH  17  18
ENDBRANCH  16  17
ENDBRANCH  15  16
ENDBRANCH   3  11
ENDBRANCH   1   3
BRANCH   1  22
HETATM   22  O1  UNL     1      -0.841   1.750  -0.270  1.00  0.00    -0.344 OA
ATOM     23  H1  UNL     1      -0.426   2.600  -0.183  1.00  0.00     0.219 HD
ENDBRANCH   1  22
BRANCH   2  24
HETATM   24  N4  UNL     1       2.161   1.516  -0.143  1.00  0.00    -0.121 N 
HETATM   25  C6  UNL     1       2.251   2.770  -0.685  1.00  0.00     0.230 A 
HETATM   26  N5  UNL     1       1.313   3.824  -0.558  1.00  0.00    -0.061 NA
HETATM   27  N6  UNL     1       3.399   2.841  -1.373  1.00  0.00    -0.236 N 
HETATM   28  N7  UNL     1       4.019   1.687  -1.276  1.00  0.00     0.094 N 
ATOM     29  H6  UNL     1       3.735   3.656  -1.887  1.00  0.00     0.191 HD
HETATM   30  C7  UNL     1       5.193   1.258  -1.759  1.00  0.00     0.727 A 
HETATM   31  C9  UNL     1       3.260   0.870  -0.519  1.00  0.00     0.742 A 
HETATM   32  N9  UNL     1       5.644   0.021  -1.506  1.00  0.00    -0.020 N 
HETATM   33  C8  UNL     1       4.925  -0.829  -0.756  1.00  0.00     0.705 A 
ATOM     34  H9  UNL     1       6.542  -0.277  -1.887  1.00  0.00     0.203 HD
HETATM   35  N11 UNL     1       3.761  -0.366  -0.294  1.00  0.00    -0.019 N 
ATOM     36  H11 UNL     1       3.202  -0.999   0.278  1.00  0.00     0.203 HD
BRANCH  30  37
HETATM   37  N8  UNL     1       5.939   2.026  -2.491  1.00  0.00    -0.232 N 
ATOM     38  H82 UNL     1       5.596   2.967  -2.683  1.00  0.00     0.174 HD
ATOM     39  H81 UNL     1       6.833   1.699  -2.859  1.00  0.00     0.174 HD
ENDBRANCH  30  37
BRANCH  33  40
HETATM   40  N10 UNL     1       5.329  -2.034  -0.490  1.00  0.00    -0.234 N 
ATOM     41 2H10 UNL     1       6.218  -2.388  -0.843  1.00  0.00     0.174 HD
ATOM     42 1H10 UNL     1       4.783  -2.680   0.080  1.00  0.00     0.174 HD
ENDBRANCH  33  40
ENDBRANCH   2  24
TORSDOF 12
