REMARK  13 active torsions:
REMARK  status: ('A' for Active; 'I' for Inactive)
REMARK    1  A    between atoms: N2_3  and  C2_5 
REMARK    2  A    between atoms: C2_5  and  N3_6 
REMARK    3  A    between atoms: C2_5  and  C4_11 
REMARK       I    between atoms: N3_6  and  C3_8 
REMARK    4  A    between atoms: C5_12  and  N5_13 
REMARK    5  A    between atoms: C6_18  and  C7_19 
REMARK    6  A    between atoms: C7_19  and  N8_20 
REMARK    7  A    between atoms: C7_19  and  C8_24 
REMARK    8  A    between atoms: C8_24  and  O2_25 
REMARK    9  A    between atoms: C8_24  and  C9_27 
REMARK   10  A    between atoms: C9_27  and  O3_28 
REMARK   11  A    between atoms: C10_30  and  O4_31 
REMARK   12  A    between atoms: C12_36  and  C13_37 
REMARK   13  A    between atoms: C14_40  and  O7_41 
ROOT
HETATM    1  C1  UNL     1      -4.062  -1.726  -2.325  1.00  0.00     0.258 C 
HETATM    2  N1  UNL     1      -3.665  -1.722  -1.259  1.00  0.00    -0.348 NA
HETATM    3  N2  UNL     1      -3.191  -1.694  -0.012  1.00  0.00    -0.219 N 
ATOM      4  H2  UNL     1      -3.288  -2.551   0.533  1.00  0.00     0.203 HD
ENDROOT
BRANCH   3   5
HETATM    5  C2  UNL     1      -2.625  -0.700   0.575  1.00  0.00     0.150 C 
BRANCH   5   6
HETATM    6  N3  UNL     1      -2.184  -0.850   1.905  1.00  0.00    -0.295 N 
HETATM    7  C3  UNL     1      -1.573   0.128   2.711  1.00  0.00     0.334 C 
HETATM    8  N4  UNL     1      -1.175  -0.179   4.036  1.00  0.00    -0.040 NA
HETATM    9  O1  UNL     1      -1.368   1.285   2.282  1.00  0.00    -0.251 OA
ATOM     10  H3  UNL     1      -2.323  -1.767   2.329  1.00  0.00     0.172 HD
ENDBRANCH   5   6
BRANCH   5  11
HETATM   11  C4  UNL     1      -2.450   0.537  -0.137  1.00  0.00     0.076 A 
HETATM   12  C5  UNL     1      -1.271   0.840  -0.743  1.00  0.00     0.092 A 
HETATM   13  C11 UNL     1      -1.134   2.042  -1.421  1.00  0.00     0.121 A 
HETATM   14  N9  UNL     1      -2.138   2.904  -1.488  1.00  0.00    -0.356 N 
HETATM   15  C12 UNL     1      -3.337   2.636  -0.893  1.00  0.00     0.144 A 
ATOM     16  H9  UNL     1      -2.013   3.782  -1.992  1.00  0.00     0.165 HD
HETATM   17  C14 UNL     1      -3.525   1.456  -0.206  1.00  0.00     0.115 A 
BRANCH  12  18
HETATM   18  N5  UNL     1      -0.176  -0.054  -0.696  1.00  0.00    -0.216 N 
HETATM   19  N6  UNL     1      -0.053  -1.321  -0.931  1.00  0.00    -0.233 N 
HETATM   20  N7  UNL     1       1.187  -1.747  -0.760  1.00  0.00    -0.283 N 
ATOM     21  H6  UNL     1      -0.826  -1.923  -1.216  1.00  0.00     0.209 HD
HETATM   22  C6  UNL     1       1.932  -0.716  -0.393  1.00  0.00     0.113 A 
ATOM     23  H7  UNL     1       1.513  -2.705  -0.889  1.00  0.00     0.188 HD
HETATM   24  C10 UNL     1       1.080   0.364  -0.349  1.00  0.00     0.190 A 
BRANCH  22  25
HETATM   25  C7  UNL     1       3.375  -0.646  -0.075  1.00  0.00     0.269 C 
BRANCH  25  26
HETATM   26  N8  UNL     1       3.509  -0.383   1.373  1.00  0.00    -0.067 N 
ATOM     27  H83 UNL     1       2.998   0.447   1.673  1.00  0.00     0.275 HD
ATOM     28  H82 UNL     1       3.011  -1.064   1.946  1.00  0.00     0.275 HD
ATOM     29  H81 UNL     1       4.504  -0.335   1.592  1.00  0.00     0.275 HD
ENDBRANCH  25  26
BRANCH  25  30
HETATM   30  C8  UNL     1       4.073  -1.958  -0.296  1.00  0.00     0.178 C 
BRANCH  30  31
HETATM   31  O2  UNL     1       5.410  -1.745   0.132  1.00  0.00    -0.391 OA
ATOM     32  H2  UNL     1       5.851  -2.575  -0.008  1.00  0.00     0.210 HD
ENDBRANCH  30  31
BRANCH  30  33
HETATM   33  C9  UNL     1       4.161  -2.359  -1.754  1.00  0.00     0.198 C 
BRANCH  33  34
HETATM   34  O3  UNL     1       4.946  -3.537  -1.780  1.00  0.00    -0.398 OA
ATOM     35  H3  UNL     1       5.001  -3.789  -2.694  1.00  0.00     0.209 HD
ENDBRANCH  33  34
ENDBRANCH  30  33
ENDBRANCH  25  30
ENDBRANCH  22  25
BRANCH  24  36
HETATM   36  O4  UNL     1       1.448   1.657  -0.006  1.00  0.00    -0.343 OA
ATOM     37  H4  UNL     1       2.320   1.947   0.235  1.00  0.00     0.219 HD
ENDBRANCH  24  36
ENDBRANCH  12  18
BRANCH  15  38
HETATM   38  C13 UNL     1      -4.370   3.639  -1.023  1.00  0.00     0.229 C 
HETATM   39  O5  UNL     1      -5.491   3.510  -0.530  1.00  0.00    -0.643 OA
HETATM   40  O6  UNL     1      -4.072   4.810  -1.746  1.00  0.00    -0.643 OA
ENDBRANCH  15  38
BRANCH  17  41
HETATM   41  O7  UNL     1      -4.673   1.073   0.429  1.00  0.00    -0.357 OA
ATOM     42  H7  UNL     1      -5.394   1.690   0.383  1.00  0.00     0.217 HD
ENDBRANCH  17  41
ENDBRANCH   5  11
ENDBRANCH   3   5
TORSDOF 13
