REMARK  3 active torsions:
REMARK  status: ('A' for Active; 'I' for Inactive)
REMARK    1  A    between atoms: N1_1  and  C1_4 
REMARK    2  A    between atoms: N5_14  and  N6_16 
REMARK    3  A    between atoms: N6_16  and  S1_18 
ROOT
HETATM    1  C1  UNL     1      -1.216   1.212  -0.029  1.00  0.00     0.150 A 
HETATM    2  N2  UNL     1      -2.518   0.887   0.050  1.00  0.00    -0.291 N 
ATOM      3  H2  UNL     1      -3.209   1.637   0.017  1.00  0.00     0.172 HD
HETATM    4  C2  UNL     1      -2.952  -0.380   0.170  1.00  0.00     0.340 A 
HETATM    5  O1  UNL     1      -4.169  -0.685   0.243  1.00  0.00    -0.245 OA
HETATM    6  N3  UNL     1      -2.024  -1.371   0.213  1.00  0.00    -0.250 N 
ATOM      7  H3  UNL     1      -2.315  -2.344   0.304  1.00  0.00     0.192 HD
HETATM    8  N4  UNL     1      -0.739  -1.063   0.136  1.00  0.00    -0.277 N 
ATOM      9  H4  UNL     1      -0.055  -1.819   0.169  1.00  0.00     0.189 HD
HETATM   10  C3  UNL     1      -0.296   0.194   0.017  1.00  0.00     0.180 A 
HETATM   11  N5  UNL     1       0.952   0.483  -0.057  1.00  0.00    -0.271 N 
ATOM     12  H5  UNL     1       1.201   1.468  -0.147  1.00  0.00     0.189 HD
ENDROOT
BRANCH   1  13
HETATM   13  N1  UNL     1      -0.868   2.463  -0.144  1.00  0.00    -0.382 N 
ATOM     14  H12 UNL     1      -1.552   3.219  -0.178  1.00  0.00     0.157 HD
ATOM     15  H11 UNL     1       0.120   2.710  -0.204  1.00  0.00     0.157 HD
ENDBRANCH   1  13
BRANCH  11  16
HETATM   16  N6  UNL     1       1.985  -0.434  -0.024  1.00  0.00    -0.211 N 
ATOM     17  H6  UNL     1       1.816  -1.374  -0.382  1.00  0.00     0.201 HD
BRANCH  16  18
HETATM   18  S1  UNL     1       3.543  -0.056   0.596  1.00  0.00     0.373 S 
HETATM   19  O2  UNL     1       3.456   0.933   1.738  1.00  0.00    -0.186 OA
HETATM   20  O3  UNL     1       4.193  -1.297   1.159  1.00  0.00    -0.186 OA
ENDBRANCH  16  18
ENDBRANCH  11  16
TORSDOF 3
