REMARK  2 active torsions:
REMARK  status: ('A' for Active; 'I' for Inactive)
REMARK       I    between atoms: C1_2  and  N2_4 
REMARK    1  A    between atoms: N2_4  and  C2_6 
REMARK    2  A    between atoms: C6_11  and  C7_12 
ROOT
HETATM    1  C2  UNL     1      -0.969  -1.108   0.121  1.00  0.00     0.097 C 
HETATM    2  C3  UNL     1      -1.194  -2.339  -0.771  1.00  0.00     0.063 C 
HETATM    3  C4  UNL     1      -0.100  -2.243  -1.828  1.00  0.00     0.172 C 
HETATM    4  F1  UNL     1       0.409  -3.513  -1.990  1.00  0.00    -0.249 F 
HETATM    5  C5  UNL     1       0.974  -1.337  -1.267  1.00  0.00     0.048 C 
HETATM    6  C6  UNL     1       0.543  -1.073   0.137  1.00  0.00     0.044 C 
ENDROOT
BRANCH   6   7
HETATM    7  C7  UNL     1       1.133   0.124   0.726  1.00  0.00    -0.052 A 
HETATM    8  C8  UNL     1       1.075   1.348   0.118  1.00  0.00     0.011 A 
HETATM    9  C9  UNL     1       1.638   2.489   0.689  1.00  0.00     0.043 A 
HETATM   10  C10 UNL     1       2.273   2.398   1.896  1.00  0.00     0.116 A 
HETATM   11  F2  UNL     1       2.836   3.509   2.479  1.00  0.00    -0.206 F 
HETATM   12  C11 UNL     1       2.349   1.178   2.536  1.00  0.00     0.043 A 
HETATM   13  C12 UNL     1       1.778   0.050   1.945  1.00  0.00     0.011 A 
ENDBRANCH   6   7
BRANCH   1  14
HETATM   14  N2  UNL     1      -1.597   0.032  -0.451  1.00  0.00    -0.340 N 
HETATM   15  C1  UNL     1      -2.552   0.797   0.272  1.00  0.00     0.329 C 
HETATM   16  N1  UNL     1      -3.188   1.946  -0.298  1.00  0.00    -0.040 NA
HETATM   17  O1  UNL     1      -2.841   0.458   1.432  1.00  0.00    -0.251 OA
ATOM     18  H2  UNL     1      -1.356   0.308  -1.403  1.00  0.00     0.164 HD
ENDBRANCH   1  14
TORSDOF 2
