REMARK  1 active torsions:
REMARK  status: ('A' for Active; 'I' for Inactive)
REMARK    1  A    between atoms: C7_7  and  O1_8 
ROOT
HETATM    1  C1  UNL     1      -2.215   0.032   0.578  1.00  0.00     0.012 C 
HETATM    2  C2  UNL     1      -1.192  -0.316  -0.478  1.00  0.00     0.011 C 
HETATM    3  C3  UNL     1      -0.707   0.971  -1.129  1.00  0.00     0.007 C 
HETATM    4  C4  UNL     1       0.773   1.023  -0.878  1.00  0.00     0.007 C 
HETATM    5  C5  UNL     1       0.900   0.233   0.432  1.00  0.00     0.011 C 
HETATM    6  C6  UNL     1       2.337  -0.114   0.659  1.00  0.00     0.012 C 
HETATM    7  C7  UNL     1       0.040  -0.973   0.113  1.00  0.00     0.125 C 
ENDROOT
BRANCH   7   8
HETATM    8  O1  UNL     1      -0.228  -1.756   1.203  1.00  0.00    -0.395 OA
ATOM      9  H1  UNL     1       0.544  -2.168   1.573  1.00  0.00     0.210 HD
ENDBRANCH   7   8
TORSDOF 1
