REMARK  5 active torsions:
REMARK  status: ('A' for Active; 'I' for Inactive)
REMARK    1  A    between atoms: C2_2  and  C4_4 
REMARK    2  A    between atoms: C4_4  and  N1_5 
REMARK    3  A    between atoms: N1_5  and  C5_7 
REMARK    4  A    between atoms: C8_10  and  S1_11 
REMARK    5  A    between atoms: S1_11  and  N2_12 
ROOT
HETATM    1  C5  UNL     1       0.307  -0.179   0.173  1.00  0.00     0.052 A 
HETATM    2  C6  UNL     1       0.835   0.687  -0.776  1.00  0.00     0.032 A 
HETATM    3  C7  UNL     1       2.184   0.809  -1.018  1.00  0.00     0.027 A 
HETATM    4  C8  UNL     1       3.050   0.014  -0.262  1.00  0.00     0.081 A 
HETATM    5  C9  UNL     1       2.569  -0.858   0.690  1.00  0.00     0.054 A 
HETATM    6  C10 UNL     1       1.209  -0.942   0.894  1.00  0.00     0.074 A 
HETATM    7  N3  UNL     1       0.699  -1.832   1.867  1.00  0.00    -0.100 NA
ENDROOT
BRANCH   1   8
HETATM    8  N1  UNL     1      -1.095  -0.273   0.391  1.00  0.00    -0.388 N 
ATOM      9  H1  UNL     1      -1.454  -0.917   1.096  1.00  0.00     0.159 HD
BRANCH   8  10
HETATM   10  C4  UNL     1      -2.013   0.530  -0.371  1.00  0.00     0.123 C 
BRANCH  10  11
HETATM   11  C2  UNL     1      -3.424   0.224   0.070  1.00  0.00    -0.005 C 
HETATM   12  C1  UNL     1      -4.447   1.025  -0.681  1.00  0.00     0.011 C 
HETATM   13  C3  UNL     1      -3.648  -1.262  -0.029  1.00  0.00     0.011 C 
ENDBRANCH  10  11
ENDBRANCH   8  10
ENDBRANCH   1   8
BRANCH   4  14
HETATM   14  S1  UNL     1       4.752   0.170  -0.570  1.00  0.00     0.256 S 
HETATM   15  O1  UNL     1       5.469  -1.140  -0.362  1.00  0.00    -0.201 OA
HETATM   16  O2  UNL     1       4.959   0.600  -1.991  1.00  0.00    -0.201 OA
BRANCH  14  17
HETATM   17  N2  UNL     1       5.373   1.397   0.464  1.00  0.00    -0.324 N 
ATOM     18  H22 UNL     1       4.823   1.932   1.137  1.00  0.00     0.169 HD
ATOM     19  H21 UNL     1       6.373   1.489   0.283  1.00  0.00     0.169 HD
ENDBRANCH  14  17
ENDBRANCH   4  14
TORSDOF 5
