REMARK  8 active torsions:
REMARK  status: ('A' for Active; 'I' for Inactive)
REMARK    1  A    between atoms: C3_3  and  C5_5 
REMARK    2  A    between atoms: C8_8  and  C9_9 
REMARK    3  A    between atoms: C9_9  and  O1_10 
REMARK    4  A    between atoms: C13_15  and  C15_17 
REMARK    5  A    between atoms: C15_17  and  C16_18 
REMARK    6  A    between atoms: C16_18  and  C17_19 
REMARK    7  A    between atoms: C19_22  and  O3_23 
REMARK    8  A    between atoms: C20_25  and  O4_26 
ROOT
HETATM    1  C5  UNL     1      -2.070  -0.142  -0.507  1.00  0.00     0.052 C 
HETATM    2  C6  UNL     1      -1.419  -1.483  -0.539  1.00  0.00     0.016 C 
HETATM    3  C7  UNL     1      -1.334  -2.212   0.733  1.00  0.00     0.037 C 
HETATM    4  C8  UNL     1      -1.224  -1.471   1.977  1.00  0.00    -0.060 C 
HETATM    5  C10 UNL     1      -0.870  -0.279   2.427  1.00  0.00    -0.021 C 
HETATM    6  C11 UNL     1      -0.374   0.990   1.877  1.00  0.00     0.038 C 
HETATM    7  C12 UNL     1      -0.019   0.837   0.452  1.00  0.00     0.064 C 
HETATM    8  C13 UNL     1       0.972   1.795  -0.092  1.00  0.00     0.100 C 
HETATM    9  C14 UNL     1       0.893   3.166   0.570  1.00  0.00     0.050 C 
HETATM   10  O5  UNL     1       0.599   1.932  -1.417  1.00  0.00    -0.229 OA
HETATM   11  O6  UNL     1      -0.408   1.162  -1.689  1.00  0.00    -0.228 OA
HETATM   12  C21 UNL     1      -1.156   1.027  -0.514  1.00  0.00     0.107 C 
HETATM   13  C22 UNL     1      -1.918   2.295  -0.334  1.00  0.00     0.050 C 
ENDROOT
BRANCH   8  14
HETATM   14  C15 UNL     1       2.354   1.294   0.101  1.00  0.00     0.048 C 
BRANCH  14  15
HETATM   15  C16 UNL     1       2.704   0.001  -0.543  1.00  0.00     0.071 C 
BRANCH  15  16
HETATM   16  C17 UNL     1       4.147  -0.325  -0.241  1.00  0.00     0.088 A 
HETATM   17  O2  UNL     1       4.958   0.416   0.474  1.00  0.00    -0.321 OA
HETATM   18  C18 UNL     1       6.140  -0.105   0.572  1.00  0.00     0.181 A 
HETATM   19  C19 UNL     1       6.124  -1.287  -0.133  1.00  0.00     0.123 A 
HETATM   20  C20 UNL     1       4.862  -1.415  -0.641  1.00  0.00     0.130 A 
BRANCH  19  21
HETATM   21  O3  UNL     1       7.193  -2.170  -0.289  1.00  0.00    -0.356 OA
ATOM     22  H3  UNL     1       7.182  -2.986  -0.776  1.00  0.00     0.218 HD
ENDBRANCH  19  21
BRANCH  20  23
HETATM   23  O4  UNL     1       4.365  -2.448  -1.422  1.00  0.00    -0.356 OA
ATOM     24  H4  UNL     1       4.863  -3.207  -1.701  1.00  0.00     0.218 HD
ENDBRANCH  20  23
ENDBRANCH  15  16
ENDBRANCH  14  15
ENDBRANCH   8  14
BRANCH   1  25
HETATM   25  C3  UNL     1      -3.070   0.013  -1.607  1.00  0.00    -0.081 C 
HETATM   26  C2  UNL     1      -4.381   0.063  -1.370  1.00  0.00    -0.028 C 
HETATM   27  C1  UNL     1      -5.347   0.217  -2.481  1.00  0.00     0.036 C 
HETATM   28  C4  UNL     1      -2.595   0.115  -3.029  1.00  0.00     0.043 C 
ENDBRANCH   1  25
BRANCH   4  29
HETATM   29  C9  UNL     1      -1.644  -2.324   3.126  1.00  0.00     0.198 C 
BRANCH  29  30
HETATM   30  O1  UNL     1      -1.559  -1.671   4.340  1.00  0.00    -0.397 OA
ATOM     31  H1  UNL     1      -1.827  -2.214   5.072  1.00  0.00     0.209 HD
ENDBRANCH  29  30
ENDBRANCH   4  29
TORSDOF 8
