REMARK  6 active torsions:
REMARK  status: ('A' for Active; 'I' for Inactive)
REMARK    1  A    between atoms: C3_3  and  C4_4 
REMARK    2  A    between atoms: C4_4  and  C5_5 
REMARK    3  A    between atoms: C5_5  and  C6_6 
REMARK    4  A    between atoms: C6_6  and  O1_7 
REMARK    5  A    between atoms: C6_6  and  C7_9 
REMARK    6  A    between atoms: C12_14  and  O2_15 
ROOT
HETATM    1  C7  UNL     1      -0.569   0.744   0.217  1.00  0.00     0.113 C 
HETATM    2  C8  UNL     1      -0.477  -0.714   0.077  1.00  0.00     0.046 C 
HETATM    3  C9  UNL     1      -1.695  -1.555   0.340  1.00  0.00     0.011 C 
HETATM    4  C10 UNL     1      -2.716  -0.936   1.223  1.00  0.00     0.022 C 
HETATM    5  C11 UNL     1      -4.115  -1.473   0.967  1.00  0.00     0.039 C 
HETATM    6  C12 UNL     1      -4.648  -1.144  -0.389  1.00  0.00     0.122 C 
HETATM    7  C13 UNL     1      -4.476   0.318  -0.751  1.00  0.00     0.017 C 
HETATM    8  C14 UNL     1      -3.803   0.425  -2.052  1.00  0.00     0.007 C 
HETATM    9  C15 UNL     1      -2.806   1.487  -2.266  1.00  0.00     0.001 C 
HETATM   10  C16 UNL     1      -1.384   0.915  -2.181  1.00  0.00     0.007 C 
HETATM   11  C17 UNL     1      -0.606   1.550  -1.057  1.00  0.00     0.023 C 
HETATM   12  C18 UNL     1       0.686   2.039  -1.626  1.00  0.00     0.013 C 
HETATM   13  C19 UNL     1      -3.999   1.075   0.414  1.00  0.00     0.045 C 
HETATM   14  C20 UNL     1      -2.779   0.553   1.145  1.00  0.00     0.063 C 
HETATM   15  C21 UNL     1      -3.046   0.965   2.636  1.00  0.00     0.046 C 
HETATM   16  O3  UNL     1      -1.665   1.233   0.910  1.00  0.00    -0.362 OA
ENDROOT
BRANCH   1  17
HETATM   17  C6  UNL     1       0.603   1.231   1.029  1.00  0.00     0.078 C 
BRANCH  17  18
HETATM   18  C5  UNL     1       1.977   0.888   0.943  1.00  0.00     0.036 C 
BRANCH  18  19
HETATM   19  C4  UNL     1       2.642   0.069   0.176  1.00  0.00     0.010 C 
BRANCH  19  20
HETATM   20  C3  UNL     1       4.077  -0.153   0.238  1.00  0.00    -0.056 C 
HETATM   21  C2  UNL     1       4.603  -1.028  -0.628  1.00  0.00    -0.077 C 
HETATM   22  C1  UNL     1       3.733  -1.746  -1.618  1.00  0.00     0.044 C 
HETATM   23  C25 UNL     1       6.046  -1.359  -0.692  1.00  0.00     0.034 C 
HETATM   24  C24 UNL     1       6.887  -0.717   0.353  1.00  0.00     0.005 C 
HETATM   25  C23 UNL     1       6.040  -0.533   1.588  1.00  0.00     0.005 C 
HETATM   26  C22 UNL     1       4.992   0.523   1.196  1.00  0.00     0.039 C 
ENDBRANCH  19  20
ENDBRANCH  18  19
ENDBRANCH  17  18
BRANCH  17  27
HETATM   27  O1  UNL     1       0.359   2.103   1.973  1.00  0.00    -0.362 OA
ATOM     28  H1  UNL     1      -0.561   2.333   2.031  1.00  0.00     0.217 HD
ENDBRANCH  17  27
ENDBRANCH   1  17
BRANCH   6  29
HETATM   29  O2  UNL     1      -6.002  -1.545  -0.383  1.00  0.00    -0.395 OA
ATOM     30  H2  UNL     1      -6.341  -1.336  -1.245  1.00  0.00     0.210 HD
ENDBRANCH   6  29
TORSDOF 6
