REMARK  4 active torsions:
REMARK  status: ('A' for Active; 'I' for Inactive)
REMARK    1  A    between atoms: C10_11  and  C11_12 
REMARK    2  A    between atoms: N1_19  and  C18_20 
REMARK    3  A    between atoms: C18_20  and  C19_21 
REMARK    4  A    between atoms: C19_21  and  C20_22 
ROOT
HETATM    1  C11 UNL     1      -1.342   0.785  -1.094  1.00  0.00     0.125 C 
HETATM    2  C12 UNL     1      -1.774   2.194  -0.890  1.00  0.00     0.022 C 
HETATM    3  C13 UNL     1      -0.821   3.264  -1.239  1.00  0.00     0.008 C 
HETATM    4  C14 UNL     1      -0.834   4.185  -0.012  1.00  0.00     0.001 C 
HETATM    5  C15 UNL     1      -1.151   3.286   1.160  1.00  0.00     0.010 C 
HETATM    6  C16 UNL     1      -2.128   2.314   0.580  1.00  0.00     0.031 C 
HETATM    7  C17 UNL     1      -2.031   0.921   1.136  1.00  0.00     0.069 C 
HETATM    8  N1  UNL     1      -1.650   0.096   0.080  1.00  0.00    -0.364 N 
ENDROOT
BRANCH   1   9
HETATM    9  C10 UNL     1       0.117   0.619  -1.380  1.00  0.00    -0.034 A 
HETATM   10  C9  UNL     1       1.084   0.704  -0.405  1.00  0.00     0.018 A 
HETATM   11  C8  UNL     1       2.430   0.552  -0.668  1.00  0.00    -0.036 A 
HETATM   12  C7  UNL     1       3.474   0.662   0.372  1.00  0.00     0.080 C 
HETATM   13  C25 UNL     1       2.786   0.306  -1.979  1.00  0.00     0.012 A 
HETATM   14  C5  UNL     1       4.550  -0.313   0.327  1.00  0.00    -0.035 A 
HETATM   15  C4  UNL     1       5.178  -0.681  -0.835  1.00  0.00     0.012 A 
HETATM   16  C6  UNL     1       4.973  -0.883   1.534  1.00  0.00     0.032 A 
HETATM   17  C3  UNL     1       6.203  -1.584  -0.856  1.00  0.00     0.021 A 
HETATM   18  S1  UNL     1       4.560   0.075  -2.348  1.00  0.00    -0.089 SA
HETATM   19  C2  UNL     1       6.646  -2.170   0.341  1.00  0.00     0.025 A 
HETATM   20  C1  UNL     1       6.004  -1.792   1.509  1.00  0.00     0.034 A 
HETATM   21 CL1  UNL     1       6.511  -2.489   3.038  1.00  0.00    -0.084 Cl
HETATM   22  C24 UNL     1       1.875   0.209  -2.999  1.00  0.00     0.020 A 
HETATM   23  C23 UNL     1       0.547   0.371  -2.666  1.00  0.00     0.011 A 
ENDBRANCH   1   9
BRANCH   8  24
HETATM   24  C18 UNL     1      -1.567  -1.279   0.192  1.00  0.00     0.066 C 
BRANCH  24  25
HETATM   25  C19 UNL     1      -2.532  -2.112  -0.573  1.00  0.00     0.071 C 
BRANCH  25  26
HETATM   26  C20 UNL     1      -3.990  -1.863  -0.231  1.00  0.00     0.104 C 
HETATM   27  C21 UNL     1      -4.308  -2.140   1.220  1.00  0.00     0.145 C 
HETATM   28  N2  UNL     1      -4.680  -3.560   1.130  1.00  0.00    -0.384 N 
HETATM   29  C22 UNL     1      -5.196  -3.780  -0.179  1.00  0.00     0.171 C 
ATOM     30  H2  UNL     1      -4.586  -4.258   1.868  1.00  0.00     0.160 HD
HETATM   31  N3  UNL     1      -4.807  -2.830  -0.928  1.00  0.00    -0.380 N 
ATOM     32  H3  UNL     1      -5.046  -2.758  -1.917  1.00  0.00     0.160 HD
ENDBRANCH  25  26
ENDBRANCH  24  25
ENDBRANCH   8  24
TORSDOF 4
