REMARK  5 active torsions:
REMARK  status: ('A' for Active; 'I' for Inactive)
REMARK    1  A    between atoms: O1_2  and  C2_3 
REMARK    2  A    between atoms: C8_10  and  O3_11 
REMARK    3  A    between atoms: C8_10  and  C9_13 
REMARK    4  A    between atoms: C10_14  and  C11_15 
REMARK    5  A    between atoms: C14_18  and  N1_19 
ROOT
HETATM    1  C2  UNL     1      -1.001   1.198  -0.059  1.00  0.00     0.165 C 
HETATM    2  C3  UNL     1      -0.959   2.451  -0.934  1.00  0.00     0.048 C 
HETATM    3  C4  UNL     1      -1.240   3.715  -0.215  1.00  0.00     0.036 C 
HETATM    4  C5  UNL     1      -0.422   4.713  -1.044  1.00  0.00     0.168 C 
HETATM    5  O2  UNL     1       0.701   4.020  -1.409  1.00  0.00    -0.385 OA
HETATM    6  C6  UNL     1       0.363   2.682  -1.573  1.00  0.00     0.132 C 
HETATM    7  C7  UNL     1       1.436   1.878  -0.899  1.00  0.00     0.086 C 
HETATM    8  C8  UNL     1       1.182   0.367  -0.973  1.00  0.00     0.157 C 
HETATM    9  C14 UNL     1      -0.277   0.121  -0.809  1.00  0.00     0.301 C 
ENDROOT
BRANCH   8  10
HETATM   10  O3  UNL     1       1.609   0.025  -2.286  1.00  0.00    -0.375 OA
ATOM     11  H3  UNL     1       1.452  -0.911  -2.332  1.00  0.00     0.211 HD
ENDBRANCH   8  10
BRANCH   8  12
HETATM   12  C9  UNL     1       2.009  -0.257   0.022  1.00  0.00    -0.065 C 
HETATM   13  C10 UNL     1       2.730  -0.773   0.842  1.00  0.00    -0.099 C 
BRANCH  13  14
HETATM   14  C11 UNL     1       3.621  -1.421   1.824  1.00  0.00     0.065 A 
HETATM   15  C12 UNL     1       5.100  -1.407   1.530  1.00  0.00     0.018 A 
HETATM   16  C13 UNL     1       4.383  -2.675   1.288  1.00  0.00     0.018 A 
ENDBRANCH  13  14
ENDBRANCH   8  12
BRANCH   9  17
HETATM   17  N1  UNL     1      -0.719  -1.206  -0.671  1.00  0.00     0.130 N 
HETATM   18  C15 UNL     1      -2.063  -1.455  -1.191  1.00  0.00     0.307 C 
HETATM   19  C16 UNL     1      -2.627  -2.515  -0.275  1.00  0.00     0.148 C 
HETATM   20  C17 UNL     1      -4.133  -2.466  -0.193  1.00  0.00     0.041 C 
HETATM   21  O4  UNL     1      -2.068  -2.131   0.937  1.00  0.00    -0.351 OA
HETATM   22  C18 UNL     1      -0.727  -1.880   0.545  1.00  0.00     0.355 C 
HETATM   23  C19 UNL     1      -0.165  -3.296   0.327  1.00  0.00     0.074 C 
ENDBRANCH   9  17
BRANCH   1  24
HETATM   24  O1  UNL     1      -0.530   1.487   1.197  1.00  0.00    -0.388 OA
HETATM   25  C1  UNL     1      -1.486   1.441   2.208  1.00  0.00     0.202 C 
ENDBRANCH   1  24
TORSDOF 5
