REMARK  5 active torsions:
REMARK  status: ('A' for Active; 'I' for Inactive)
REMARK    1  A    between atoms: C5_5  and  C6_6 
REMARK    2  A    between atoms: N1_7  and  N2_8 
REMARK    3  A    between atoms: N1_7  and  C14_23 
REMARK    4  A    between atoms: N2_8  and  C7_10 
REMARK    5  A    between atoms: C7_10  and  C8_11 
ROOT
HETATM    1  C6  UNL     1      -0.735  -0.200   0.153  1.00  0.00     0.128 C 
HETATM    2  N1  UNL     1      -0.369  -1.345   0.452  1.00  0.00    -0.267 N 
ENDROOT
BRANCH   2   3
HETATM    3  N2  UNL     1       1.057  -1.598   0.464  1.00  0.00    -0.304 N 
ATOM      4  H2  UNL     1       1.482  -2.046   1.275  1.00  0.00     0.186 HD
BRANCH   3   5
HETATM    5  C7  UNL     1       1.866  -1.231  -0.635  1.00  0.00     0.126 C 
BRANCH   5   6
HETATM    6  C8  UNL     1       2.801  -0.283  -0.435  1.00  0.00     0.025 A 
HETATM    7  C9  UNL     1       3.680   0.212  -1.360  1.00  0.00     0.040 A 
HETATM    8  C10 UNL     1       4.539   1.162  -0.952  1.00  0.00     0.067 A 
HETATM    9  C11 UNL     1       4.475   1.563   0.346  1.00  0.00     0.087 A 
HETATM   10  C13 UNL     1       5.585   1.852  -1.763  1.00  0.00     0.255 A 
HETATM   11  S1  UNL     1       3.191   0.582   0.971  1.00  0.00    -0.070 SA
HETATM   12  N3  UNL     1       5.235   2.473   0.897  1.00  0.00    -0.367 N 
HETATM   13  C12 UNL     1       6.270   3.215   0.251  1.00  0.00     0.247 A 
ATOM     14  H3  UNL     1       5.073   2.672   1.884  1.00  0.00     0.161 HD
HETATM   15  N4  UNL     1       6.388   2.828  -1.127  1.00  0.00    -0.341 N 
ATOM     16  H4  UNL     1       7.103   3.291  -1.688  1.00  0.00     0.164 HD
HETATM   17  O1  UNL     1       5.768   1.592  -2.977  1.00  0.00    -0.268 OA
ENDBRANCH   5   6
ENDBRANCH   3   5
ENDBRANCH   2   3
BRANCH   2  18
HETATM   18  C14 UNL     1      -1.114  -2.473   0.793  1.00  0.00     0.056 A 
HETATM   19  C15 UNL     1      -1.546  -3.401  -0.154  1.00  0.00     0.031 A 
HETATM   20  C16 UNL     1      -2.235  -4.502   0.255  1.00  0.00     0.002 A 
HETATM   21  C17 UNL     1      -2.527  -4.747   1.568  1.00  0.00     0.000 A 
HETATM   22  C18 UNL     1      -2.107  -3.838   2.525  1.00  0.00     0.002 A 
HETATM   23  C19 UNL     1      -1.410  -2.721   2.126  1.00  0.00     0.031 A 
ENDBRANCH   2  18
BRANCH   1  24
HETATM   24  C5  UNL     1      -2.004   0.457   0.024  1.00  0.00    -0.019 A 
HETATM   25  C4  UNL     1      -3.241  -0.079   0.220  1.00  0.00     0.013 A 
HETATM   26  C3  UNL     1      -4.435   0.649   0.068  1.00  0.00     0.007 A 
HETATM   27  C2  UNL     1      -4.387   1.953  -0.289  1.00  0.00    -0.062 A 
HETATM   28  C1  UNL     1      -5.668   2.687  -0.439  1.00  0.00     0.048 C 
HETATM   29  C21 UNL     1      -3.166   2.534  -0.496  1.00  0.00     0.007 A 
HETATM   30  C20 UNL     1      -2.007   1.814  -0.345  1.00  0.00     0.013 A 
ENDBRANCH   1  24
TORSDOF 5
