REMARK  6 active torsions:
REMARK  status: ('A' for Active; 'I' for Inactive)
REMARK    1  A    between atoms: C2_2  and  C3_3 
REMARK    2  A    between atoms: C3_3  and  C4_4 
REMARK    3  A    between atoms: C4_4  and  C5_5 
REMARK    4  A    between atoms: C5_5  and  C6_6 
REMARK    5  A    between atoms: C7_7  and  S1_8 
REMARK    6  A    between atoms: S1_8  and  C8_9 
ROOT
HETATM    1  C6  UNL     1       0.575  -1.205   1.037  1.00  0.00     0.059 C 
HETATM    2  C7  UNL     1      -0.824  -0.701   1.058  1.00  0.00     0.194 C 
HETATM    3  O3  UNL     1      -1.245  -2.046   0.917  1.00  0.00    -0.364 OA
HETATM    4  C12 UNL     1      -0.005  -2.413   0.392  1.00  0.00     0.062 C 
HETATM    5  C13 UNL     1       0.084  -2.563  -1.083  1.00  0.00     0.046 C 
HETATM    6  C14 UNL     1       0.527  -3.675   1.074  1.00  0.00     0.046 C 
ENDROOT
BRANCH   2   7
HETATM    7  S1  UNL     1      -1.385   0.232  -0.364  1.00  0.00    -0.096 SA
BRANCH   7   8
HETATM    8  C8  UNL     1      -3.080   0.771  -0.195  1.00  0.00     0.144 C 
HETATM    9  C9  UNL     1      -4.084  -0.346  -0.184  1.00  0.00     0.062 C 
HETATM   10  C10 UNL     1      -3.500   1.749  -1.272  1.00  0.00     0.081 C 
HETATM   11  C11 UNL     1      -4.534   2.561  -0.481  1.00  0.00     0.214 C 
HETATM   12  O1  UNL     1      -4.316   2.235   0.837  1.00  0.00    -0.239 OA
HETATM   13  O2  UNL     1      -3.203   1.588   0.947  1.00  0.00    -0.219 OA
ENDBRANCH   7   8
ENDBRANCH   2   7
BRANCH   1  14
HETATM   14  C5  UNL     1       1.603  -0.436   0.270  1.00  0.00     0.011 C 
BRANCH  14  15
HETATM   15  C4  UNL     1       1.751   0.959   0.790  1.00  0.00     0.001 C 
BRANCH  15  16
HETATM   16  C3  UNL     1       2.792   1.713  -0.003  1.00  0.00    -0.000 C 
BRANCH  16  17
HETATM   17  C2  UNL     1       4.153   1.045   0.076  1.00  0.00    -0.005 C 
HETATM   18  C1  UNL     1       5.178   1.831  -0.729  1.00  0.00     0.005 C 
ENDBRANCH  16  17
ENDBRANCH  15  16
ENDBRANCH  14  15
ENDBRANCH   1  14
TORSDOF 6
