REMARK  4 active torsions:
REMARK  status: ('A' for Active; 'I' for Inactive)
REMARK    1  A    between atoms: C2_2  and  N1_3 
REMARK    2  A    between atoms: C2_2  and  C3_7 
REMARK    3  A    between atoms: C3_7  and  C4_8 
REMARK    4  A    between atoms: C4_8  and  N2_9 
ROOT
HETATM    1  N2  UNL     1      -0.452  -0.477   0.793  1.00  0.00     0.089 N 
HETATM    2  C5  UNL     1      -0.992  -0.213   2.040  1.00  0.00     0.282 C 
HETATM    3  C6  UNL     1      -2.222   0.570   2.245  1.00  0.00     0.104 C 
HETATM    4  S1  UNL     1      -3.631  -0.466   1.679  1.00  0.00    -0.167 SA
HETATM    5  C7  UNL     1      -3.212  -0.940  -0.051  1.00  0.00     0.079 C 
HETATM    6  C8  UNL     1      -2.420   0.196  -0.592  1.00  0.00     0.019 C 
HETATM    7  C9  UNL     1      -2.728   0.358  -2.064  1.00  0.00     0.012 C 
HETATM    8  C10 UNL     1      -0.949   0.078  -0.387  1.00  0.00     0.277 C 
ENDROOT
BRANCH   1   9
HETATM    9  C4  UNL     1       0.999  -0.199   0.819  1.00  0.00     0.274 C 
BRANCH   9  10
HETATM   10  C3  UNL     1       1.716  -0.670  -0.398  1.00  0.00     0.062 C 
BRANCH  10  11
HETATM   11  C2  UNL     1       3.217  -0.339  -0.309  1.00  0.00     0.181 C 
HETATM   12  C1  UNL     1       3.446   1.135  -0.221  1.00  0.00     0.039 C 
BRANCH  11  13
HETATM   13  N1  UNL     1       3.839  -0.858  -1.502  1.00  0.00    -0.075 N 
ATOM     14  H13 UNL     1       3.526  -0.370  -2.341  1.00  0.00     0.274 HD
ATOM     15  H12 UNL     1       4.829  -0.620  -1.553  1.00  0.00     0.274 HD
ATOM     16  H11 UNL     1       3.683  -1.864  -1.562  1.00  0.00     0.274 HD
ENDBRANCH  11  13
ENDBRANCH  10  11
ENDBRANCH   9  10
ENDBRANCH   1   9
TORSDOF 4
