REMARK  3 active torsions:
REMARK  status: ('A' for Active; 'I' for Inactive)
REMARK    1  A    between atoms: C2_2  and  C4_4 
REMARK    2  A    between atoms: C6_8  and  C7_9 
REMARK    3  A    between atoms: C7_9  and  N2_10 
ROOT
HETATM    1  C4  UNL     1      -1.937  -0.420  -0.623  1.00  0.00     0.104 C 
HETATM    2  C5  UNL     1      -2.108  -1.705   0.097  1.00  0.00     0.146 C 
HETATM    3  N1  UNL     1      -0.844  -2.346  -0.216  1.00  0.00    -0.377 N 
ATOM      4  H1  UNL     1      -0.660  -3.346  -0.303  1.00  0.00     0.160 HD
HETATM    5  C6  UNL     1       0.092  -1.269  -0.376  1.00  0.00     0.102 C 
HETATM    6  N3  UNL     1      -0.528  -0.176  -0.606  1.00  0.00    -0.372 N 
ATOM      7  H3  UNL     1      -0.086   0.731  -0.755  1.00  0.00     0.161 HD
ENDROOT
BRANCH   5   8
HETATM    8  C7  UNL     1       1.591  -1.407  -0.292  1.00  0.00     0.347 C 
BRANCH   8   9
HETATM    9  N2  UNL     1       2.186  -0.134  -0.506  1.00  0.00     0.095 N 
HETATM   10  C8  UNL     1       1.974   0.817   0.529  1.00  0.00     0.273 C 
HETATM   11  C9  UNL     1       3.306   1.488   0.805  1.00  0.00     0.032 C 
HETATM   12  C10 UNL     1       4.064   1.240  -0.474  1.00  0.00     0.032 C 
HETATM   13  C11 UNL     1       3.562  -0.128  -0.881  1.00  0.00     0.273 C 
ENDBRANCH   8   9
ENDBRANCH   5   8
BRANCH   1  14
HETATM   14  C2  UNL     1      -2.785   0.711  -0.165  1.00  0.00     0.002 C 
HETATM   15  C1  UNL     1      -4.250   0.293  -0.339  1.00  0.00     0.011 C 
HETATM   16  C3  UNL     1      -2.587   1.157   1.226  1.00  0.00     0.011 C 
ENDBRANCH   1  14
TORSDOF 3
