REMARK  11 active torsions:
REMARK  status: ('A' for Active; 'I' for Inactive)
REMARK    1  A    between atoms: C2_2  and  C3_3 
REMARK    2  A    between atoms: C3_3  and  C4_4 
REMARK    3  A    between atoms: C4_4  and  C5_5 
REMARK    4  A    between atoms: C5_5  and  C6_6 
REMARK    5  A    between atoms: C6_6  and  C7_7 
REMARK    6  A    between atoms: N2_12  and  C9_13 
REMARK    7  A    between atoms: C9_13  and  C10_14 
REMARK    8  A    between atoms: C14_18  and  C15_19 
REMARK    9  A    between atoms: C15_19  and  C16_20 
REMARK   10  A    between atoms: C17_23  and  C18_24 
REMARK   11  A    between atoms: C24_32  and  O2_33 
ROOT
HETATM    1  C7  UNL     1       1.763   0.527   0.323  1.00  0.00     0.058 A 
HETATM    2  C8  UNL     1       3.086   0.940   0.318  1.00  0.00     0.272 A 
HETATM    3  O1  UNL     1       4.122   0.367   0.807  1.00  0.00    -0.266 OA
HETATM    4  N1  UNL     1       3.099   2.112  -0.323  1.00  0.00    -0.263 N 
ATOM      5  H1  UNL     1       3.948   2.655  -0.479  1.00  0.00     0.190 HD
HETATM    6  N2  UNL     1       1.913   2.497  -0.733  1.00  0.00    -0.288 N 
HETATM    7  C14 UNL     1       1.043   1.503  -0.335  1.00  0.00     0.068 A 
ENDROOT
BRANCH   7   8
HETATM    8  C15 UNL     1      -0.235   1.554  -0.604  1.00  0.00     0.066 C 
BRANCH   8   9
HETATM    9  C16 UNL     1      -1.330   0.666  -0.332  1.00  0.00     0.087 A 
HETATM   10  N3  UNL     1      -1.784  -0.400  -1.027  1.00  0.00    -0.342 N 
HETATM   11  C17 UNL     1      -2.865  -0.915  -0.421  1.00  0.00     0.087 A 
ATOM     12  H3  UNL     1      -1.367  -0.760  -1.885  1.00  0.00     0.167 HD
HETATM   13  N4  UNL     1      -3.082  -0.156   0.664  1.00  0.00    -0.324 N 
HETATM   14  C24 UNL     1      -2.174   0.819   0.761  1.00  0.00     0.169 A 
ATOM     15  H4  UNL     1      -3.842  -0.304   1.328  1.00  0.00     0.169 HD
BRANCH  11  16
HETATM   16  C18 UNL     1      -3.672  -2.105  -0.845  1.00  0.00     0.053 C 
HETATM   17  C19 UNL     1      -3.853  -2.978   0.370  1.00  0.00     0.012 C 
HETATM   18  C20 UNL     1      -5.122  -2.562   1.081  1.00  0.00     0.001 C 
HETATM   19  C21 UNL     1      -6.291  -3.148   0.292  1.00  0.00     0.000 C 
HETATM   20  C22 UNL     1      -6.019  -2.890  -1.168  1.00  0.00     0.001 C 
HETATM   21  C23 UNL     1      -5.057  -1.705  -1.333  1.00  0.00     0.012 C 
ENDBRANCH  11  16
BRANCH  14  22
HETATM   22  O2  UNL     1      -2.123   1.767   1.768  1.00  0.00    -0.344 OA
ATOM     23  H2  UNL     1      -2.700   1.872   2.515  1.00  0.00     0.219 HD
ENDBRANCH  14  22
ENDBRANCH   8   9
ENDBRANCH   7   8
BRANCH   1  24
HETATM   24  C6  UNL     1       1.384  -0.593   0.873  1.00  0.00    -0.007 C 
BRANCH  24  25
HETATM   25  C5  UNL     1       2.250  -1.583   1.558  1.00  0.00     0.028 C 
BRANCH  25  26
HETATM   26  C4  UNL     1       2.884  -2.587   0.663  1.00  0.00     0.004 C 
BRANCH  26  27
HETATM   27  C3  UNL     1       3.736  -3.517   1.532  1.00  0.00    -0.000 C 
BRANCH  27  28
HETATM   28  C2  UNL     1       4.399  -4.542   0.617  1.00  0.00    -0.005 C 
HETATM   29  C1  UNL     1       5.277  -3.843  -0.405  1.00  0.00     0.005 C 
ENDBRANCH  27  28
ENDBRANCH  26  27
ENDBRANCH  25  26
ENDBRANCH  24  25
ENDBRANCH   1  24
BRANCH   6  30
HETATM   30  C9  UNL     1       1.604   3.750  -1.423  1.00  0.00     0.157 C 
BRANCH  30  31
HETATM   31  C10 UNL     1       1.431   4.910  -0.497  1.00  0.00    -0.033 C 
HETATM   32  C11 UNL     1       1.105   6.167  -1.299  1.00  0.00     0.016 C 
HETATM   33  C12 UNL     1       0.380   4.742   0.562  1.00  0.00     0.016 C 
HETATM   34  C13 UNL     1       2.724   5.236   0.242  1.00  0.00     0.016 C 
ENDBRANCH  30  31
ENDBRANCH   6  30
TORSDOF 11
