REMARK  2 active torsions:
REMARK  status: ('A' for Active; 'I' for Inactive)
REMARK    1  A    between atoms: C7_8  and  N2_9 
REMARK       I    between atoms: N2_9  and  C8_11 
REMARK       I    between atoms: C8_11  and  N3_13 
REMARK    2  A    between atoms: N3_13  and  C9_15 
ROOT
HETATM    1  N1  UNL     1       3.267  -0.073  -3.989  1.00  0.00    -0.191 NA
HETATM    2  C1  UNL     1       3.609  -0.071  -2.890  1.00  0.00     0.102 C 
HETATM    3  C2  UNL     1       4.052  -0.092  -1.499  1.00  0.00     0.071 A 
HETATM    4  C3  UNL     1       5.398  -0.100  -1.240  1.00  0.00     0.025 A 
HETATM    5  C4  UNL     1       5.852  -0.120   0.052  1.00  0.00     0.002 A 
HETATM    6  C5  UNL     1       4.959  -0.132   1.088  1.00  0.00     0.002 A 
HETATM    7  C6  UNL     1       3.586  -0.124   0.850  1.00  0.00     0.031 A 
HETATM    8  C7  UNL     1       3.120  -0.104  -0.444  1.00  0.00     0.057 A 
ENDROOT
BRANCH   8   9
HETATM    9  N2  UNL     1       1.765  -0.094  -0.821  1.00  0.00    -0.307 N 
HETATM   10  C8  UNL     1       0.609  -0.102  -0.011  1.00  0.00     0.325 C 
HETATM   11  O1  UNL     1       0.735  -0.120   1.225  1.00  0.00    -0.247 OA
HETATM   12  N3  UNL     1      -0.659  -0.088  -0.655  1.00  0.00    -0.309 N 
ATOM     13  H3  UNL     1      -0.670  -0.066  -1.675  1.00  0.00     0.170 HD
ATOM     14  H2  UNL     1       1.593  -0.079  -1.826  1.00  0.00     0.170 HD
BRANCH  12  15
HETATM   15  C9  UNL     1      -1.895  -0.102   0.006  1.00  0.00     0.039 A 
HETATM   16  C10 UNL     1      -2.046  -0.552   1.287  1.00  0.00     0.032 A 
HETATM   17  C11 UNL     1      -3.320  -0.501   1.872  1.00  0.00     0.042 A 
HETATM   18  C12 UNL     1      -4.398  -0.008   1.169  1.00  0.00     0.105 A 
HETATM   19  C13 UNL     1      -4.244   0.444  -0.124  1.00  0.00     0.107 A 
HETATM   20  O3  UNL     1      -5.739   0.152   1.501  1.00  0.00    -0.323 OA
HETATM   21  C14 UNL     1      -3.002   0.396  -0.698  1.00  0.00     0.069 A 
HETATM   22  O2  UNL     1      -5.487   0.890  -0.610  1.00  0.00    -0.323 OA
HETATM   23  C15 UNL     1      -6.454   0.666   0.398  1.00  0.00     0.352 A 
ENDBRANCH  12  15
ENDBRANCH   8   9
TORSDOF 2
