REMARK  11 active torsions:
REMARK  status: ('A' for Active; 'I' for Inactive)
REMARK    1  A    between atoms: C7_7  and  O1_8 
REMARK    2  A    between atoms: C11_13  and  O2_14 
REMARK    3  A    between atoms: C19_23  and  O3_24 
REMARK    4  A    between atoms: O3_24  and  C20_25 
REMARK    5  A    between atoms: C20_25  and  C21_27 
REMARK    6  A    between atoms: C21_27  and  C22_28 
REMARK    7  A    between atoms: C22_28  and  C23_29 
REMARK    8  A    between atoms: C23_29  and  C24_30 
REMARK    9  A    between atoms: C24_30  and  C25_31 
REMARK   10  A    between atoms: C25_31  and  O6_33 
REMARK   11  A    between atoms: O6_33  and  C26_34 
ROOT
HETATM    1  C1  UNL     1      -1.683  -1.966   0.341  1.00  0.00     0.015 C 
HETATM    2  C2  UNL     1      -1.972  -0.588   0.849  1.00  0.00    -0.038 C 
HETATM    3  C3  UNL     1      -2.975  -0.680   1.952  1.00  0.00     0.010 C 
HETATM    4  C4  UNL     1      -4.114   0.235   1.967  1.00  0.00     0.007 C 
HETATM    5  C5  UNL     1      -4.589   0.840   0.695  1.00  0.00     0.001 C 
HETATM    6  C6  UNL     1      -3.806   0.521  -0.537  1.00  0.00     0.024 C 
HETATM    7  C7  UNL     1      -4.390  -0.524  -1.399  1.00  0.00     0.123 C 
HETATM    8  C8  UNL     1      -5.377  -1.460  -0.687  1.00  0.00     0.037 C 
HETATM    9  C9  UNL     1      -6.486  -0.638  -0.093  1.00  0.00    -0.001 C 
HETATM   10  C10 UNL     1      -7.595  -0.591  -1.108  1.00  0.00     0.037 C 
HETATM   11  C11 UNL     1      -8.588   0.487  -0.912  1.00  0.00     0.118 C 
HETATM   12  C12 UNL     1      -8.013   1.837  -0.661  1.00  0.00     0.032 C 
HETATM   13  C13 UNL     1      -6.549   1.853  -0.394  1.00  0.00     0.012 C 
HETATM   14  C14 UNL     1      -6.092   0.669   0.465  1.00  0.00    -0.036 C 
HETATM   15  C15 UNL     1      -6.748   0.909   1.832  1.00  0.00     0.016 C 
HETATM   16  C16 UNL     1      -2.361   0.417  -0.162  1.00  0.00     0.001 C 
HETATM   17  C17 UNL     1      -1.412   0.507  -1.331  1.00  0.00     0.008 C 
HETATM   18  C18 UNL     1      -0.086   1.041  -0.766  1.00  0.00     0.033 C 
HETATM   19  C19 UNL     1       0.373   0.020   0.250  1.00  0.00     0.132 C 
HETATM   20  C32 UNL     1      -0.616  -0.089   1.405  1.00  0.00     0.042 C 
ENDROOT
BRANCH  19  21
HETATM   21  O3  UNL     1       1.658   0.288   0.763  1.00  0.00    -0.316 OA
BRANCH  21  22
HETATM   22  C20 UNL     1       2.740  -0.594   0.576  1.00  0.00     0.259 C 
HETATM   23  O4  UNL     1       2.455  -1.625  -0.076  1.00  0.00    -0.265 OA
BRANCH  22  24
HETATM   24  C21 UNL     1       4.078  -0.335   1.095  1.00  0.00     0.111 C 
BRANCH  24  25
HETATM   25  C22 UNL     1       5.070  -1.410   0.740  1.00  0.00     0.010 C 
BRANCH  25  26
HETATM   26  C23 UNL     1       5.311  -1.613  -0.712  1.00  0.00     0.010 C 
BRANCH  26  27
HETATM   27  C24 UNL     1       5.866  -0.393  -1.419  1.00  0.00     0.111 C 
BRANCH  27  28
HETATM   28  C25 UNL     1       7.189  -0.002  -0.864  1.00  0.00     0.264 C 
HETATM   29  O5  UNL     1       7.287   0.594   0.230  1.00  0.00    -0.265 OA
BRANCH  28  30
HETATM   30  O6  UNL     1       8.376  -0.286  -1.546  1.00  0.00    -0.277 OA
BRANCH  30  31
HETATM   31  C26 UNL     1       9.601   0.082  -1.018  1.00  0.00     0.101 A 
HETATM   32  C27 UNL     1      10.295  -0.775  -0.192  1.00  0.00     0.041 A 
HETATM   33  C28 UNL     1      11.528  -0.428   0.350  1.00  0.00     0.029 A 
HETATM   34  C29 UNL     1      12.065   0.819   0.045  1.00  0.00     0.048 A 
HETATM   35  N1  UNL     1      13.320   1.173   0.597  1.00  0.00    -0.102 NA
HETATM   36  C30 UNL     1      11.379   1.687  -0.781  1.00  0.00     0.053 A 
HETATM   37  C31 UNL     1      10.145   1.313  -1.311  1.00  0.00     0.069 A 
HETATM   38 CL1  UNL     1       9.240   2.378  -2.362  1.00  0.00    -0.081 Cl
ENDBRANCH  30  31
ENDBRANCH  28  30
ENDBRANCH  27  28
ENDBRANCH  26  27
ENDBRANCH  25  26
ENDBRANCH  24  25
ENDBRANCH  22  24
ENDBRANCH  21  22
ENDBRANCH  19  21
BRANCH   7  39
HETATM   39  O1  UNL     1      -3.490  -1.252  -2.160  1.00  0.00    -0.395 OA
ATOM     40  H1  UNL     1      -3.866  -1.925  -2.715  1.00  0.00     0.210 HD
ENDBRANCH   7  39
BRANCH  11  41
HETATM   41  O2  UNL     1      -9.500   0.083   0.061  1.00  0.00    -0.396 OA
ATOM     42  H2  UNL     1     -10.138   0.776   0.187  1.00  0.00     0.210 HD
ENDBRANCH  11  41
TORSDOF 11
