REMARK  6 active torsions:
REMARK  status: ('A' for Active; 'I' for Inactive)
REMARK       I    between atoms: N1_2  and  C2_4 
REMARK    1  A    between atoms: C2_4  and  O2_6 
REMARK    2  A    between atoms: O2_6  and  C3_7 
REMARK    3  A    between atoms: C4_8  and  N2_9 
REMARK    4  A    between atoms: C5_14  and  N4_15 
REMARK       I    between atoms: N4_15  and  C6_17 
REMARK    5  A    between atoms: C6_17  and  C7_19 
REMARK    6  A    between atoms: C7_19  and  O6_20 
ROOT
HETATM    1  C3  UNL     1      -0.667  -0.016   0.752  1.00  0.00     0.199 A 
HETATM    2  C4  UNL     1       0.023   0.788  -0.124  1.00  0.00     0.228 A 
HETATM    3  N3  UNL     1       1.260   0.340  -0.476  1.00  0.00    -0.167 N 
ATOM      4  H3  UNL     1       1.812   0.902  -1.124  1.00  0.00     0.186 HD
HETATM    5  C5  UNL     1       1.790  -0.803  -0.014  1.00  0.00     0.689 A 
HETATM    6  N5  UNL     1       1.122  -1.599   0.847  1.00  0.00    -0.153 N 
ATOM      7  H5  UNL     1       1.524  -2.467   1.200  1.00  0.00     0.187 HD
HETATM    8  C8  UNL     1      -0.115  -1.180   1.218  1.00  0.00     0.297 A 
HETATM    9  O7  UNL     1      -0.757  -1.903   2.017  1.00  0.00    -0.264 OA
ENDROOT
BRANCH   5  10
HETATM   10  N4  UNL     1       2.967  -1.187  -0.376  1.00  0.00    -0.158 N 
HETATM   11  C6  UNL     1       3.711  -0.402  -1.268  1.00  0.00     0.259 C 
HETATM   12  O5  UNL     1       3.450  -0.290  -2.496  1.00  0.00    -0.270 OA
ATOM     13  H4  UNL     1       3.355  -2.058  -0.015  1.00  0.00     0.187 HD
BRANCH  11  14
HETATM   14  C7  UNL     1       4.898   0.370  -0.776  1.00  0.00     0.267 C 
BRANCH  14  15
HETATM   15  O6  UNL     1       5.068   0.153   0.600  1.00  0.00    -0.392 OA
ATOM     16  H6  UNL     1       5.820   0.642   0.912  1.00  0.00     0.210 HD
ENDBRANCH  14  15
ENDBRANCH  11  14
ENDBRANCH   5  10
BRANCH   2  17
HETATM   17  N2  UNL     1      -0.455   2.007  -0.652  1.00  0.00    -0.094 N 
HETATM   18  O3  UNL     1       0.232   2.668  -1.440  1.00  0.00    -0.530 OA
HETATM   19  O4  UNL     1      -1.683   2.467  -0.296  1.00  0.00    -0.530 OA
ENDBRANCH   2  17
BRANCH   1  20
HETATM   20  O2  UNL     1      -1.930   0.356   1.165  1.00  0.00    -0.252 OA
BRANCH  20  21
HETATM   21  C2  UNL     1      -3.034  -0.169   0.509  1.00  0.00     0.365 C 
HETATM   22  N1  UNL     1      -4.344   0.167   0.877  1.00  0.00    -0.341 N 
HETATM   23  C1  UNL     1      -5.477  -0.397   0.173  1.00  0.00     0.151 C 
ATOM     24  H1  UNL     1      -4.501   0.815   1.649  1.00  0.00     0.164 HD
HETATM   25  O1  UNL     1      -2.824  -0.965  -0.439  1.00  0.00    -0.238 OA
ENDBRANCH  20  21
ENDBRANCH   1  20
TORSDOF 6
