REMARK  11 active torsions:
REMARK  status: ('A' for Active; 'I' for Inactive)
REMARK       I    between atoms: C2_2  and  N1_4 
REMARK    1  A    between atoms: N1_4  and  C3_6 
REMARK    2  A    between atoms: C3_6  and  C4_7 
REMARK    3  A    between atoms: N2_8  and  C5_10 
REMARK    4  A    between atoms: C5_10  and  C6_11 
REMARK    5  A    between atoms: C6_11  and  C7_13 
REMARK    6  A    between atoms: C7_13  and  O3_14 
REMARK    7  A    between atoms: O3_14  and  C8_15 
REMARK    8  A    between atoms: C8_15  and  C9_17 
REMARK    9  A    between atoms: C15_23  and  O5_24 
REMARK   10  A    between atoms: C22_33  and  C23_34 
REMARK   11  A    between atoms: C23_34  and  C26_37 
ROOT
HETATM    1  C9  UNL     1      -0.155  -0.764  -0.076  1.00  0.00     0.051 C 
HETATM    2  C10 UNL     1      -0.463  -1.893  -1.101  1.00  0.00     0.026 C 
HETATM    3  C11 UNL     1      -0.744  -1.193   1.217  1.00  0.00     0.020 C 
HETATM    4  C12 UNL     1      -2.232  -0.815   1.119  1.00  0.00     0.007 C 
HETATM    5  C13 UNL     1      -2.393  -0.225  -0.251  1.00  0.00    -0.001 C 
HETATM    6  C14 UNL     1      -1.047   0.401  -0.480  1.00  0.00     0.037 C 
HETATM    7  C15 UNL     1      -0.832   1.668   0.241  1.00  0.00     0.125 C 
HETATM    8  C16 UNL     1      -1.962   2.579  -0.112  1.00  0.00     0.049 C 
HETATM    9  C17 UNL     1      -3.341   2.082   0.033  1.00  0.00     0.023 C 
HETATM   10  C18 UNL     1      -4.188   3.111  -0.750  1.00  0.00     0.024 C 
HETATM   11  C19 UNL     1      -3.730   2.286   1.469  1.00  0.00     0.135 C 
HETATM   12  O6  UNL     1      -3.034   2.924   2.248  1.00  0.00    -0.297 OA
HETATM   13  C20 UNL     1      -4.974   1.704   1.951  1.00  0.00     0.079 C 
HETATM   14  C21 UNL     1      -5.707   0.905   0.919  1.00  0.00     0.013 C 
HETATM   15  C22 UNL     1      -4.822   0.041   0.061  1.00  0.00     0.008 C 
HETATM   16  C27 UNL     1      -3.578   0.684  -0.441  1.00  0.00     0.011 C 
ENDROOT
BRANCH   1  17
HETATM   17  C8  UNL     1       1.263  -0.493  -0.121  1.00  0.00     0.272 C 
HETATM   18  O4  UNL     1       1.785   0.615  -0.182  1.00  0.00    -0.264 OA
BRANCH  17  19
HETATM   19  O3  UNL     1       2.140  -1.608  -0.101  1.00  0.00    -0.287 OA
BRANCH  19  20
HETATM   20  C7  UNL     1       3.512  -1.381  -0.190  1.00  0.00     0.197 C 
BRANCH  20  21
HETATM   21  C6  UNL     1       4.231  -0.740   0.884  1.00  0.00     0.189 C 
HETATM   22  O2  UNL     1       4.037  -0.927   2.047  1.00  0.00    -0.289 OA
BRANCH  21  23
HETATM   23  C5  UNL     1       5.347   0.257   0.487  1.00  0.00     0.203 C 
BRANCH  23  24
HETATM   24  N2  UNL     1       6.252  -0.391  -0.335  1.00  0.00    -0.393 N 
HETATM   25  C4  UNL     1       7.079  -1.434  -0.142  1.00  0.00     0.075 C 
ATOM     26  H2  UNL     1       6.302   0.001  -1.275  1.00  0.00     0.159 HD
BRANCH  25  27
HETATM   27  C3  UNL     1       8.320  -1.501   0.630  1.00  0.00     0.166 C 
BRANCH  27  28
HETATM   28  N1  UNL     1       9.404  -0.665   0.251  1.00  0.00    -0.357 N 
HETATM   29  C2  UNL     1       9.486   0.725   0.269  1.00  0.00     0.213 C 
HETATM   30  C1  UNL     1      10.752   1.391  -0.201  1.00  0.00     0.117 C 
HETATM   31  O1  UNL     1       8.574   1.481   0.650  1.00  0.00    -0.274 OA
ATOM     32  H1  UNL     1      10.238  -1.150  -0.080  1.00  0.00     0.162 HD
ENDBRANCH  27  28
ENDBRANCH  25  27
ENDBRANCH  23  24
ENDBRANCH  21  23
ENDBRANCH  20  21
ENDBRANCH  19  20
ENDBRANCH  17  19
ENDBRANCH   1  17
BRANCH   7  33
HETATM   33  O5  UNL     1      -0.565   1.564   1.599  1.00  0.00    -0.395 OA
ATOM     34  H5  UNL     1      -0.426   2.381   2.064  1.00  0.00     0.210 HD
ENDBRANCH   7  33
BRANCH  15  35
HETATM   35  C23 UNL     1      -5.573  -0.909  -0.768  1.00  0.00     0.054 C 
HETATM   36  C24 UNL     1      -6.335  -1.863   0.192  1.00  0.00     0.024 C 
HETATM   37  C25 UNL     1      -4.794  -1.823  -1.658  1.00  0.00     0.024 C 
BRANCH  35  38
HETATM   38  C26 UNL     1      -6.718  -0.374  -1.596  1.00  0.00     0.395 C 
HETATM   39  F1  UNL     1      -7.243  -1.498  -2.273  1.00  0.00    -0.170 F 
HETATM   40  F2  UNL     1      -6.398   0.508  -2.556  1.00  0.00    -0.170 F 
HETATM   41  F3  UNL     1      -7.825  -0.013  -0.812  1.00  0.00    -0.170 F 
ENDBRANCH  35  38
ENDBRANCH  15  35
TORSDOF 11
