REMARK  1 active torsions:
REMARK  status: ('A' for Active; 'I' for Inactive)
REMARK    1  A    between atoms: C3_7  and  O4_8 
ROOT
HETATM    1  O1  UNL     1       2.551   1.637   1.121  1.00  0.00    -0.196 OA
HETATM    2  S1  UNL     1       2.440   0.794  -0.113  1.00  0.00     0.306 S 
HETATM    3  O2  UNL     1       2.671  -0.848   0.139  1.00  0.00    -0.271 OA
HETATM    4  C1  UNL     1       1.454  -1.571   0.116  1.00  0.00     0.224 C 
HETATM    5  C2  UNL     1       0.363  -0.585   0.234  1.00  0.00     0.180 C 
HETATM    6  O3  UNL     1      -0.889  -1.094   0.484  1.00  0.00    -0.351 OA
HETATM    7  C3  UNL     1      -1.637   0.107   0.519  1.00  0.00     0.260 C 
HETATM    8  C4  UNL     1      -1.207   0.885  -0.703  1.00  0.00     0.096 C 
HETATM    9  C5  UNL     1       0.134   0.225  -1.020  1.00  0.00     0.178 C 
HETATM   10  O5  UNL     1       1.133   1.165  -1.097  1.00  0.00    -0.266 OA
ENDROOT
BRANCH   7  11
HETATM   11  O4  UNL     1      -2.984  -0.112   0.595  1.00  0.00    -0.371 OA
ATOM     12  H4  UNL     1      -3.486   0.694   0.618  1.00  0.00     0.212 HD
ENDBRANCH   7  11
TORSDOF 1
