REMARK  14 active torsions:
REMARK  status: ('A' for Active; 'I' for Inactive)
REMARK    1  A    between atoms: N1_1  and  C1_4 
REMARK    2  A    between atoms: C2_7  and  O1_8 
REMARK    3  A    between atoms: O1_8  and  C3_9 
REMARK    4  A    between atoms: C4_11  and  C5_12 
REMARK    5  A    between atoms: C5_12  and  O3_13 
REMARK    6  A    between atoms: C6_15  and  O4_16 
REMARK    7  A    between atoms: C7_18  and  O5_19 
REMARK    8  A    between atoms: C9_23  and  N4_24 
REMARK    9  A    between atoms: N4_24  and  C10_26 
REMARK   10  A    between atoms: C10_26  and  C11_27 
REMARK   11  A    between atoms: C11_27  and  C12_28 
REMARK   12  A    between atoms: C12_28  and  C13_29 
REMARK   13  A    between atoms: C13_29  and  C14_30 
REMARK   14  A    between atoms: C14_30  and  N5_31 
ROOT
HETATM    1  C1  UNL     1      -0.017  -1.707   1.388  1.00  0.00     0.679 A 
HETATM    2  N2  UNL     1      -1.241  -1.286   1.064  1.00  0.00    -0.169 N 
ATOM      3  H2  UNL     1      -2.058  -1.710   1.503  1.00  0.00     0.186 HD
HETATM    4  C2  UNL     1      -1.398  -0.307   0.163  1.00  0.00     0.188 A 
HETATM    5  C8  UNL     1      -0.275   0.290  -0.452  1.00  0.00     0.142 A 
HETATM    6  N3  UNL     1      -0.442   1.323  -1.402  1.00  0.00    -0.094 NA
HETATM    7  C9  UNL     1       0.968  -0.163  -0.098  1.00  0.00     0.145 A 
HETATM    8  N6  UNL     1       1.061  -1.147   0.810  1.00  0.00    -0.175 N 
ATOM      9  H6  UNL     1       1.987  -1.484   1.073  1.00  0.00     0.186 HD
ENDROOT
BRANCH   4  10
HETATM   10  O1  UNL     1      -2.634   0.176  -0.218  1.00  0.00    -0.299 OA
BRANCH  10  11
HETATM   11  C3  UNL     1      -3.849  -0.257   0.250  1.00  0.00     0.300 C 
HETATM   12  O2  UNL     1      -4.555   0.829   0.828  1.00  0.00    -0.348 OA
HETATM   13  C4  UNL     1      -5.850   0.328   1.005  1.00  0.00     0.179 C 
HETATM   14  C6  UNL     1      -6.154  -0.449  -0.245  1.00  0.00     0.182 C 
HETATM   15  C7  UNL     1      -4.804  -0.682  -0.861  1.00  0.00     0.205 C 
BRANCH  13  16
HETATM   16  C5  UNL     1      -6.773   1.516   1.190  1.00  0.00     0.198 C 
BRANCH  16  17
HETATM   17  O3  UNL     1      -6.743   2.347   0.088  1.00  0.00    -0.398 OA
ATOM     18  H3  UNL     1      -7.321   3.092   0.204  1.00  0.00     0.209 HD
ENDBRANCH  16  17
ENDBRANCH  13  16
BRANCH  14  19
HETATM   19  O4  UNL     1      -7.035   0.192  -1.090  1.00  0.00    -0.390 OA
ATOM     20  H4  UNL     1      -7.227  -0.299  -1.880  1.00  0.00     0.210 HD
ENDBRANCH  14  19
BRANCH  15  21
HETATM   21  O5  UNL     1      -4.639   0.042  -2.012  1.00  0.00    -0.388 OA
ATOM     22  H5  UNL     1      -5.234  -0.223  -2.704  1.00  0.00     0.210 HD
ENDBRANCH  15  21
ENDBRANCH  10  11
ENDBRANCH   4  10
BRANCH   1  23
HETATM   23  N1  UNL     1       0.101  -2.659   2.265  1.00  0.00    -0.234 N 
ATOM     24  H12 UNL     1      -0.716  -3.084   2.703  1.00  0.00     0.174 HD
ATOM     25  H11 UNL     1       1.037  -2.981   2.513  1.00  0.00     0.174 HD
ENDBRANCH   1  23
BRANCH   7  26
HETATM   26  N4  UNL     1       2.060   0.324  -0.611  1.00  0.00    -0.374 N 
ATOM     27  H4  UNL     1       1.995   1.071  -1.302  1.00  0.00     0.161 HD
BRANCH  26  28
HETATM   28  C10 UNL     1       3.361  -0.167  -0.226  1.00  0.00     0.121 C 
BRANCH  28  29
HETATM   29  C11 UNL     1       4.412   0.616  -0.964  1.00  0.00     0.020 C 
BRANCH  29  30
HETATM   30  C12 UNL     1       5.796   0.151  -0.605  1.00  0.00     0.003 C 
BRANCH  30  31
HETATM   31  C13 UNL     1       6.106   0.293   0.860  1.00  0.00     0.027 C 
BRANCH  31  32
HETATM   32  C14 UNL     1       7.539  -0.222   1.048  1.00  0.00     0.229 C 
BRANCH  32  33
HETATM   33  N5  UNL     1       8.372   0.636   0.204  1.00  0.00    -0.079 N 
ATOM     34  H53 UNL     1       8.072   0.670  -0.770  1.00  0.00     0.274 HD
ATOM     35  H52 UNL     1       8.264   1.632   0.397  1.00  0.00     0.274 HD
ATOM     36  H51 UNL     1       9.325   0.294   0.329  1.00  0.00     0.274 HD
ENDBRANCH  32  33
ENDBRANCH  31  32
ENDBRANCH  30  31
ENDBRANCH  29  30
ENDBRANCH  28  29
ENDBRANCH  26  28
ENDBRANCH   7  26
TORSDOF 14
