REMARK  12 active torsions:
REMARK  status: ('A' for Active; 'I' for Inactive)
REMARK    1  A    between atoms: N1_1  and  C1_4 
REMARK    2  A    between atoms: C4_12  and  N4_13 
REMARK    3  A    between atoms: N5_16  and  C5_17 
REMARK    4  A    between atoms: C6_19  and  C7_20 
REMARK    5  A    between atoms: C7_20  and  O3_21 
REMARK    6  A    between atoms: C8_23  and  C9_24 
REMARK    7  A    between atoms: C9_24  and  N6_25 
REMARK    8  A    between atoms: N6_25  and  C10_28 
REMARK    9  A    between atoms: C10_28  and  C11_29 
REMARK   10  A    between atoms: C11_29  and  C12_30 
REMARK   11  A    between atoms: C12_30  and  C13_31 
REMARK   12  A    between atoms: C13_31  and  N7_32 
ROOT
HETATM    1  C5  UNL     1       1.539  -0.636   0.841  1.00  0.00     0.397 C 
HETATM    2  O2  UNL     1       1.865  -2.009   0.887  1.00  0.00    -0.333 OA
HETATM    3  C6  UNL     1       0.551  -2.524   0.759  1.00  0.00     0.180 C 
HETATM    4  C8  UNL     1       0.081  -1.658  -0.408  1.00  0.00     0.183 C 
HETATM    5  O4  UNL     1       0.862  -0.519  -0.322  1.00  0.00    -0.333 OA
ENDROOT
BRANCH   1   6
HETATM    6  N5  UNL     1       2.664   0.196   1.052  1.00  0.00    -0.114 N 
HETATM    7  C4  UNL     1       3.136   0.546   2.260  1.00  0.00     0.684 A 
HETATM    8  N3  UNL     1       4.212   1.337   2.136  1.00  0.00    -0.182 N 
HETATM    9  C3  UNL     1       4.425   1.491   0.810  1.00  0.00     0.163 A 
ATOM     10  H3  UNL     1       4.762   1.743   2.893  1.00  0.00     0.184 HD
HETATM   11  C2  UNL     1       5.362   2.180   0.066  1.00  0.00     0.290 A 
HETATM   12  C14 UNL     1       3.452   0.774   0.138  1.00  0.00     0.176 A 
HETATM   13  N2  UNL     1       5.301   2.132  -1.276  1.00  0.00    -0.154 N 
HETATM   14  O1  UNL     1       6.251   2.836   0.677  1.00  0.00    -0.265 OA
HETATM   15  C1  UNL     1       4.360   1.438  -1.944  1.00  0.00     0.680 A 
ATOM     16  H2  UNL     1       6.000   2.645  -1.813  1.00  0.00     0.187 HD
HETATM   17  N8  UNL     1       3.456   0.774  -1.207  1.00  0.00    -0.173 N 
ATOM     18  H8  UNL     1       2.734   0.241  -1.692  1.00  0.00     0.186 HD
BRANCH   7  19
HETATM   19  N4  UNL     1       2.636   0.181   3.411  1.00  0.00    -0.234 N 
ATOM     20  H42 UNL     1       2.994   0.447   4.328  1.00  0.00     0.174 HD
ATOM     21  H41 UNL     1       1.818  -0.421   3.505  1.00  0.00     0.174 HD
ENDBRANCH   7  19
BRANCH  15  22
HETATM   22  N1  UNL     1       4.361   1.435  -3.244  1.00  0.00    -0.234 N 
ATOM     23  H12 UNL     1       5.048   1.940  -3.804  1.00  0.00     0.174 HD
ATOM     24  H11 UNL     1       3.648   0.909  -3.750  1.00  0.00     0.174 HD
ENDBRANCH  15  22
ENDBRANCH   1   6
BRANCH   3  25
HETATM   25  C7  UNL     1       0.531  -3.976   0.437  1.00  0.00     0.198 C 
BRANCH  25  26
HETATM   26  O3  UNL     1       1.170  -4.670   1.468  1.00  0.00    -0.398 OA
ATOM     27  H3  UNL     1       1.157  -5.597   1.262  1.00  0.00     0.209 HD
ENDBRANCH  25  26
ENDBRANCH   3  25
BRANCH   4  28
HETATM   28  C9  UNL     1      -1.367  -1.252  -0.253  1.00  0.00     0.266 C 
BRANCH  28  29
HETATM   29  N6  UNL     1      -1.708  -0.347  -1.302  1.00  0.00    -0.073 N 
ATOM     30  H62 UNL     1      -1.110   0.479  -1.294  1.00  0.00     0.277 HD
ATOM     31  H61 UNL     1      -1.450  -0.718  -2.216  1.00  0.00     0.277 HD
BRANCH  29  32
HETATM   32  C10 UNL     1      -3.094   0.006  -1.249  1.00  0.00     0.232 C 
BRANCH  32  33
HETATM   33  C11 UNL     1      -3.439   0.861  -0.062  1.00  0.00     0.029 C 
BRANCH  33  34
HETATM   34  C12 UNL     1      -4.912   1.151  -0.079  1.00  0.00     0.029 C 
BRANCH  34  35
HETATM   35  C13 UNL     1      -5.334   1.881  -1.317  1.00  0.00     0.229 C 
BRANCH  35  36
HETATM   36  N7  UNL     1      -6.793   2.108  -1.201  1.00  0.00    -0.079 N 
ATOM     37  H73 UNL     1      -7.322   1.251  -1.039  1.00  0.00     0.274 HD
ATOM     38  H72 UNL     1      -7.059   2.587  -0.341  1.00  0.00     0.274 HD
ATOM     39  H71 UNL     1      -7.080   2.605  -2.044  1.00  0.00     0.274 HD
ENDBRANCH  35  36
ENDBRANCH  34  35
ENDBRANCH  33  34
ENDBRANCH  32  33
ENDBRANCH  29  32
ENDBRANCH  28  29
ENDBRANCH   4  28
TORSDOF 12
