REMARK  2 active torsions:
REMARK  status: ('A' for Active; 'I' for Inactive)
REMARK    1  A    between atoms: C2_2  and  N1_4 
REMARK       I    between atoms: N1_4  and  C4_6 
REMARK       I    between atoms: C4_6  and  N2_8 
REMARK    2  A    between atoms: N2_8  and  C5_10 
ROOT
HETATM    1  C5  UNL     1      -0.546   0.230  -0.525  1.00  0.00     0.162 C 
HETATM    2  C6  UNL     1      -1.134  -0.466  -1.713  1.00  0.00     0.165 C 
HETATM    3  O2  UNL     1      -0.632  -0.427  -2.822  1.00  0.00    -0.294 OA
HETATM    4  C7  UNL     1      -2.378  -1.157  -1.247  1.00  0.00     0.081 C 
HETATM    5  C8  UNL     1      -2.790  -2.311  -2.036  1.00  0.00     0.032 C 
HETATM    6  C9  UNL     1      -1.933  -1.499   0.189  1.00  0.00     0.033 C 
HETATM    7  C10 UNL     1      -1.553  -0.049   0.543  1.00  0.00     0.032 C 
HETATM    8  C11 UNL     1      -2.905   0.614   0.223  1.00  0.00     0.020 C 
HETATM    9  C12 UNL     1      -2.731   2.070  -0.084  1.00  0.00     0.023 C 
HETATM   10  C13 UNL     1      -3.771   0.435   1.454  1.00  0.00     0.023 C 
HETATM   11  C14 UNL     1      -3.425  -0.158  -0.935  1.00  0.00     0.151 C 
HETATM   12  O3  UNL     1      -4.473  -0.005  -1.500  1.00  0.00    -0.296 OA
ENDROOT
BRANCH   1  13
HETATM   13  N2  UNL     1       0.703  -0.373  -0.135  1.00  0.00    -0.331 N 
HETATM   14  C4  UNL     1       1.892   0.424  -0.055  1.00  0.00     0.317 C 
HETATM   15  N1  UNL     1       3.136  -0.112   0.319  1.00  0.00    -0.339 N 
HETATM   16  O1  UNL     1       1.836   1.658  -0.329  1.00  0.00    -0.247 OA
ATOM     17  H1  UNL     1       3.194  -1.106   0.542  1.00  0.00     0.164 HD
ATOM     18  H2  UNL     1       0.741  -1.368   0.085  1.00  0.00     0.165 HD
BRANCH  15  19
HETATM   19  C2  UNL     1       4.323   0.679   0.400  1.00  0.00     0.078 C 
HETATM   20  C1  UNL     1       5.415   0.203  -0.532  1.00  0.00     0.032 C 
HETATM   21  C3  UNL     1       4.886   0.646   1.804  1.00  0.00     0.032 C 
ENDBRANCH  15  19
ENDBRANCH   1  13
TORSDOF 2
