REMARK  4 active torsions:
REMARK  status: ('A' for Active; 'I' for Inactive)
REMARK    1  A    between atoms: C2_2  and  N1_3 
REMARK       I    between atoms: N1_3  and  C3_5 
REMARK       I    between atoms: C3_5  and  N2_6 
REMARK       I    between atoms: C3_5  and  N3_9 
REMARK    2  A    between atoms: N2_6  and  C4_7 
REMARK    3  A    between atoms: N3_9  and  C6_11 
REMARK    4  A    between atoms: C6_11  and  N4_13 
ROOT
HETATM    1  N1  UNL     1      -1.993   1.615  -1.914  1.00  0.00    -0.327 N 
ATOM      2  H1  UNL     1      -1.743   2.469  -1.416  1.00  0.00     0.169 HD
HETATM    3  C3  UNL     1      -1.196   0.438  -1.776  1.00  0.00     0.260 C 
HETATM    4  N2  UNL     1      -1.504  -0.571  -2.321  1.00  0.00    -0.388 NA
HETATM    5  N3  UNL     1      -0.016   0.580  -0.955  1.00  0.00    -0.293 N 
ATOM      6  H3  UNL     1       0.902   0.385  -1.353  1.00  0.00     0.172 HD
ENDROOT
BRANCH   5   7
HETATM    7  C6  UNL     1      -0.120   0.983   0.384  1.00  0.00     0.177 C 
HETATM    8  S1  UNL     1      -1.595   1.280   1.030  1.00  0.00    -0.041 SA
BRANCH   7   9
HETATM    9  N4  UNL     1       1.006   1.127   1.200  1.00  0.00    -0.355 N 
HETATM   10  C7  UNL     1       0.887   1.566   2.605  1.00  0.00     0.155 C 
HETATM   11  C8  UNL     1       1.146   0.328   3.438  1.00  0.00     0.291 C 
HETATM   12  N5  UNL     1       2.034  -0.514   2.715  1.00  0.00     0.087 N 
HETATM   13  C9  UNL     1       2.468  -1.618   3.524  1.00  0.00     0.310 C 
HETATM   14  C10 UNL     1       3.040   0.107   1.938  1.00  0.00     0.291 C 
HETATM   15  C11 UNL     1       2.368   0.860   0.780  1.00  0.00     0.155 C 
ENDBRANCH   7   9
ENDBRANCH   5   7
BRANCH   1  16
HETATM   16  C2  UNL     1      -3.132   1.581  -2.750  1.00  0.00     0.082 C 
HETATM   17  C1  UNL     1      -4.365   1.708  -2.255  1.00  0.00     0.030 C 
ENDBRANCH   1  16
BRANCH   4  18
HETATM   18  C4  UNL     1      -1.659  -1.794  -2.835  1.00  0.00     0.155 C 
HETATM   19  C5  UNL     1      -0.988  -2.967  -2.177  1.00  0.00     0.070 C 
ENDBRANCH   4  18
TORSDOF 4
