REMARK  6 active torsions:
REMARK  status: ('A' for Active; 'I' for Inactive)
REMARK    1  A    between atoms: N3_4  and  C2_6 
REMARK    2  A    between atoms: C2_6  and  C3_7 
REMARK    3  A    between atoms: C4_8  and  C5_9 
REMARK    4  A    between atoms: C5_9  and  N4_10 
REMARK    5  A    between atoms: N4_10  and  C6_13 
REMARK    6  A    between atoms: C6_13  and  C7_14 
ROOT
HETATM    1  N4  UNL     1       1.285  -0.427  -1.657  1.00  0.00    -0.061 N 
ATOM      2  H41 UNL     1       1.489   0.572  -1.634  1.00  0.00     0.278 HD
ATOM      3  H42 UNL     1       1.961  -0.723  -2.361  1.00  0.00     0.278 HD
ENDROOT
BRANCH   1   4
HETATM    4  C5  UNL     1      -0.052  -0.659  -2.111  1.00  0.00     0.326 C 
BRANCH   4   5
HETATM    5  C4  UNL     1      -1.003   0.047  -1.249  1.00  0.00    -0.077 C 
HETATM    6  C3  UNL     1      -1.802   0.614  -0.542  1.00  0.00    -0.085 C 
BRANCH   6   7
HETATM    7  C2  UNL     1      -2.801   1.288   0.328  1.00  0.00     0.216 C 
BRANCH   7   8
HETATM    8  N3  UNL     1      -3.903   0.424   0.615  1.00  0.00    -0.357 N 
HETATM    9  C1  UNL     1      -5.136   0.690   0.599  1.00  0.00     0.197 C 
HETATM   10  N1  UNL     1      -6.086  -0.309   0.916  1.00  0.00    -0.067 NA
HETATM   11  N2  UNL     1      -5.602   1.984   0.267  1.00  0.00    -0.067 NA
ATOM     12  H3  UNL     1      -3.660  -0.534   0.866  1.00  0.00     0.162 HD
ENDBRANCH   7   8
ENDBRANCH   6   7
ENDBRANCH   4   5
ENDBRANCH   1   4
BRANCH   1  13
HETATM   13  C6  UNL     1       1.575  -1.032  -0.391  1.00  0.00     0.271 C 
BRANCH  13  14
HETATM   14  C7  UNL     1       2.983  -0.781   0.039  1.00  0.00    -0.033 A 
HETATM   15  C8  UNL     1       3.986  -1.669  -0.274  1.00  0.00     0.009 A 
HETATM   16  C9  UNL     1       5.288  -1.460   0.110  1.00  0.00     0.001 A 
HETATM   17  C10 UNL     1       5.661  -0.332   0.840  1.00  0.00     0.000 A 
HETATM   18  C11 UNL     1       4.656   0.566   1.158  1.00  0.00     0.001 A 
HETATM   19  C12 UNL     1       3.348   0.342   0.764  1.00  0.00     0.009 A 
ENDBRANCH  13  14
ENDBRANCH   1  13
TORSDOF 6
