REMARK  6 active torsions:
REMARK  status: ('A' for Active; 'I' for Inactive)
REMARK    1  A    between atoms: N1_2  and  C4_5 
REMARK    2  A    between atoms: C4_5  and  C5_6 
REMARK    3  A    between atoms: C5_6  and  C6_7 
REMARK    4  A    between atoms: C6_7  and  N2_8 
REMARK    5  A    between atoms: N2_8  and  C7_10 
REMARK    6  A    between atoms: C10_15  and  N4_16 
ROOT
HETATM    1  C7  UNL     1       2.566  -0.698   0.473  1.00  0.00     0.118 A 
HETATM    2  C8  UNL     1       2.520   0.647   0.256  1.00  0.00     0.066 A 
HETATM    3  C9  UNL     1       3.596   1.295  -0.310  1.00  0.00     0.110 A 
HETATM    4  N3  UNL     1       4.693   0.597  -0.648  1.00  0.00    -0.202 N 
ATOM      5  H3  UNL     1       5.493   1.071  -1.067  1.00  0.00     0.183 HD
HETATM    6  C10 UNL     1       4.732  -0.732  -0.431  1.00  0.00     0.677 A 
HETATM    7  N5  UNL     1       3.697  -1.361   0.115  1.00  0.00    -0.177 N 
ATOM      8  H5  UNL     1       3.753  -2.368   0.270  1.00  0.00     0.185 HD
ENDROOT
BRANCH   1   9
HETATM    9  N2  UNL     1       1.600  -1.354   0.995  1.00  0.00    -0.376 N 
ATOM     10  H2  UNL     1       1.720  -2.359   1.122  1.00  0.00     0.161 HD
BRANCH   9  11
HETATM   11  C6  UNL     1       0.354  -0.766   1.415  1.00  0.00     0.123 C 
BRANCH  11  12
HETATM   12  C5  UNL     1      -0.599  -0.546   0.239  1.00  0.00     0.047 C 
BRANCH  12  13
HETATM   13  C4  UNL     1      -1.841   0.059   0.777  1.00  0.00     0.237 C 
BRANCH  13  14
HETATM   14  N1  UNL     1      -2.865   0.345  -0.170  1.00  0.00    -0.079 N 
HETATM   15  C1  UNL     1      -3.973   0.970   0.559  1.00  0.00     0.271 C 
HETATM   16  C2  UNL     1      -2.400   1.334  -1.121  1.00  0.00     0.271 C 
HETATM   17  C3  UNL     1      -3.389  -0.764  -0.884  1.00  0.00     0.271 C 
ENDBRANCH  13  14
ENDBRANCH  12  13
ENDBRANCH  11  12
ENDBRANCH   9  11
ENDBRANCH   1   9
BRANCH   6  18
HETATM   18  N4  UNL     1       5.822  -1.346  -0.781  1.00  0.00    -0.234 N 
ATOM     19  H42 UNL     1       6.617  -0.863  -1.200  1.00  0.00     0.174 HD
ATOM     20  H41 UNL     1       5.852  -2.352  -0.617  1.00  0.00     0.174 HD
ENDBRANCH   6  18
TORSDOF 6
