REMARK  9 active torsions:
REMARK  status: ('A' for Active; 'I' for Inactive)
REMARK    1  A    between atoms: C2_2  and  C3_3 
REMARK    2  A    between atoms: C3_3  and  C5_5 
REMARK    3  A    between atoms: C5_5  and  N1_6 
REMARK    4  A    between atoms: C5_5  and  C6_10 
REMARK       I    between atoms: C6_10  and  N2_12 
REMARK    5  A    between atoms: N2_12  and  N3_14 
REMARK       I    between atoms: N4_19  and  C11_21 
REMARK    6  A    between atoms: C11_21  and  C12_23 
REMARK    7  A    between atoms: C12_23  and  N5_24 
REMARK    8  A    between atoms: C12_23  and  C15_33 
REMARK       I    between atoms: N5_24  and  C13_26 
REMARK    9  A    between atoms: C13_26  and  C14_28 
ROOT
HETATM    1  N3  UNL     1       0.638   1.188  -1.003  1.00  0.00    -0.278 N 
HETATM    2  C7  UNL     1       0.962   2.353  -1.783  1.00  0.00     0.151 C 
HETATM    3  C8  UNL     1      -0.185   3.299  -1.586  1.00  0.00     0.029 C 
HETATM    4  C9  UNL     1      -1.285   2.467  -0.991  1.00  0.00     0.080 C 
HETATM    5  C10 UNL     1      -0.776   1.082  -0.908  1.00  0.00     0.101 C 
HETATM    6  N4  UNL     1      -1.493   0.017  -0.782  1.00  0.00    -0.313 N 
ATOM      7  H4  UNL     1      -1.013  -0.882  -0.743  1.00  0.00     0.170 HD
HETATM    8  C11 UNL     1      -2.900   0.021  -0.695  1.00  0.00     0.254 C 
HETATM    9  O2  UNL     1      -3.549   0.467  -1.672  1.00  0.00    -0.270 OA
ENDROOT
BRANCH   1  10
HETATM   10  N2  UNL     1       1.583   0.331  -0.450  1.00  0.00    -0.265 N 
HETATM   11  C6  UNL     1       2.596   0.726   0.444  1.00  0.00     0.267 C 
HETATM   12  O1  UNL     1       2.583   1.980   0.724  1.00  0.00    -0.269 OA
ATOM     13  H2  UNL     1       1.539  -0.654  -0.711  1.00  0.00     0.190 HD
BRANCH  11  14
HETATM   14  C5  UNL     1       3.603  -0.141   1.044  1.00  0.00     0.280 C 
BRANCH  14  15
HETATM   15  C3  UNL     1       4.581  -0.758   0.071  1.00  0.00     0.021 C 
HETATM   16  C4  UNL     1       3.973  -1.673  -0.932  1.00  0.00     0.012 C 
BRANCH  15  17
HETATM   17  C2  UNL     1       5.598  -1.598   0.860  1.00  0.00     0.002 C 
HETATM   18  C1  UNL     1       6.664  -2.161  -0.026  1.00  0.00     0.005 C 
ENDBRANCH  15  17
ENDBRANCH  14  15
BRANCH  14  19
HETATM   19  N1  UNL     1       4.390   0.698   1.975  1.00  0.00    -0.066 N 
ATOM     20  H13 UNL     1       5.144   0.188   2.434  1.00  0.00     0.275 HD
ATOM     21  H12 UNL     1       4.971   1.388   1.499  1.00  0.00     0.275 HD
ATOM     22  H11 UNL     1       3.730   1.114   2.632  1.00  0.00     0.275 HD
ENDBRANCH  14  19
ENDBRANCH  11  14
ENDBRANCH   1  10
BRANCH   8  23
HETATM   23  C12 UNL     1      -3.646  -0.476   0.489  1.00  0.00     0.267 C 
BRANCH  23  24
HETATM   24  N5  UNL     1      -5.066  -0.385   0.329  1.00  0.00    -0.334 N 
HETATM   25  C13 UNL     1      -5.867  -1.535   0.304  1.00  0.00     0.283 C 
HETATM   26  O3  UNL     1      -5.319  -2.663   0.424  1.00  0.00    -0.265 OA
ATOM     27  H5  UNL     1      -5.502   0.532   0.232  1.00  0.00     0.164 HD
BRANCH  25  28
HETATM   28  C14 UNL     1      -7.333  -1.428   0.138  1.00  0.00     0.178 C 
HETATM   29  N6  UNL     1      -8.073  -2.479   0.114  1.00  0.00    -0.383 N 
ATOM     30  H62 UNL     1      -7.640  -3.398   0.211  1.00  0.00     0.157 HD
ATOM     31  H61 UNL     1      -9.084  -2.405  -0.000  1.00  0.00     0.157 HD
HETATM   32  N7  UNL     1      -7.933  -0.154   0.004  1.00  0.00    -0.077 NA
ENDBRANCH  25  28
ENDBRANCH  23  24
BRANCH  23  33
HETATM   33  C15 UNL     1      -3.255   0.229   1.727  1.00  0.00     0.263 C 
HETATM   34  N8  UNL     1      -1.890   0.296   2.123  1.00  0.00    -0.060 NA
HETATM   35  O4  UNL     1      -4.112   0.775   2.441  1.00  0.00    -0.274 OA
ENDBRANCH  23  33
ENDBRANCH   8  23
TORSDOF 9
