REMARK  7 active torsions:
REMARK  status: ('A' for Active; 'I' for Inactive)
REMARK    1  A    between atoms: C2_2  and  C3_3 
REMARK    2  A    between atoms: C3_3  and  C4_4 
REMARK    3  A    between atoms: C4_4  and  C5_5 
REMARK    4  A    between atoms: C4_4  and  N3_18 
REMARK    5  A    between atoms: C5_5  and  S1_6 
REMARK    6  A    between atoms: S1_6  and  C6_7 
REMARK    7  A    between atoms: N3_18  and  C12_20 
ROOT
HETATM    1  C6  UNL     1       3.097  -0.596  -0.282  1.00  0.00     0.013 A 
HETATM    2  C7  UNL     1       4.162  -0.683  -1.082  1.00  0.00     0.125 A 
HETATM    3  C8  UNL     1       4.087  -0.331  -2.481  1.00  0.00     0.106 C 
HETATM    4  N1  UNL     1       4.046  -0.047  -3.606  1.00  0.00    -0.191 NA
HETATM    5  C9  UNL     1       5.454  -1.120  -0.578  1.00  0.00     0.269 A 
HETATM    6  O1  UNL     1       6.469  -1.206  -1.344  1.00  0.00    -0.266 OA
HETATM    7  N2  UNL     1       5.516  -1.441   0.797  1.00  0.00    -0.292 N 
ATOM      8  H2  UNL     1       6.405  -1.752   1.189  1.00  0.00     0.172 HD
HETATM    9  C10 UNL     1       4.397  -1.347   1.644  1.00  0.00     0.229 A 
HETATM   10  O2  UNL     1       4.566  -1.632   2.887  1.00  0.00    -0.273 OA
HETATM   11  C11 UNL     1       3.077  -0.940   1.141  1.00  0.00     0.150 A 
ENDROOT
BRANCH   1  12
HETATM   12  S1  UNL     1       1.600  -0.013  -1.075  1.00  0.00    -0.130 SA
BRANCH  12  13
HETATM   13  C5  UNL     1       0.275   0.004   0.160  1.00  0.00     0.103 C 
BRANCH  13  14
HETATM   14  C4  UNL     1      -0.956   0.582  -0.508  1.00  0.00     0.086 C 
BRANCH  14  15
HETATM   15  C3  UNL     1      -0.569   1.971  -0.977  1.00  0.00     0.025 C 
BRANCH  15  16
HETATM   16  C2  UNL     1      -0.141   2.869   0.139  1.00  0.00    -0.002 C 
HETATM   17  C1  UNL     1       0.252   4.248  -0.365  1.00  0.00     0.005 C 
ENDBRANCH  15  16
ENDBRANCH  14  15
BRANCH  14  18
HETATM   18  N3  UNL     1      -2.096   0.699   0.308  1.00  0.00    -0.412 N 
ATOM     19  H3  UNL     1      -2.257   1.565   0.823  1.00  0.00     0.154 HD
BRANCH  18  20
HETATM   20  C12 UNL     1      -3.008  -0.346   0.425  1.00  0.00     0.077 C 
HETATM   21  C13 UNL     1      -2.557  -1.638   1.016  1.00  0.00     0.024 C 
HETATM   22  C14 UNL     1      -3.905  -2.388   1.029  1.00  0.00     0.002 C 
HETATM   23  C15 UNL     1      -4.560  -1.942  -0.285  1.00  0.00     0.002 C 
HETATM   24  C16 UNL     1      -3.686  -0.827  -0.838  1.00  0.00     0.024 C 
ENDBRANCH  18  20
ENDBRANCH  14  18
ENDBRANCH  13  14
ENDBRANCH  12  13
ENDBRANCH   1  12
TORSDOF 7
