REMARK  5 active torsions:
REMARK  status: ('A' for Active; 'I' for Inactive)
REMARK    1  A    between atoms: O1_2  and  C2_3 
REMARK    2  A    between atoms: C2_3  and  C3_5 
REMARK    3  A    between atoms: C4_7  and  C5_8 
REMARK    4  A    between atoms: C10_13  and  N1_14 
REMARK       I    between atoms: N1_14  and  C11_16 
REMARK    5  A    between atoms: C11_16  and  C12_18 
ROOT
HETATM    1  C3  UNL     1      -0.628   1.727   0.320  1.00  0.00     0.107 A 
HETATM    2  S1  UNL     1      -2.322   1.486   0.205  1.00  0.00    -0.086 SA
HETATM    3  C4  UNL     1      -2.358  -0.191  -0.019  1.00  0.00    -0.007 A 
HETATM    4  C9  UNL     1      -1.029  -0.542  -0.001  1.00  0.00     0.046 A 
HETATM    5  C10 UNL     1      -0.123   0.456   0.173  1.00  0.00     0.059 A 
ENDROOT
BRANCH   5   6
HETATM    6  N1  UNL     1       1.289   0.190   0.310  1.00  0.00    -0.325 N 
HETATM    7  C11 UNL     1       1.965  -0.883  -0.299  1.00  0.00     0.229 C 
HETATM    8  O3  UNL     1       1.393  -1.711  -1.039  1.00  0.00    -0.272 OA
ATOM      9  H1  UNL     1       1.836   0.826   0.890  1.00  0.00     0.169 HD
BRANCH   7  10
HETATM   10  C12 UNL     1       3.429  -1.036  -0.049  1.00  0.00     0.030 C 
HETATM   11  C13 UNL     1       4.096  -1.457  -1.336  1.00  0.00     0.025 C 
HETATM   12  C14 UNL     1       4.104   0.192   0.463  1.00  0.00     0.025 C 
HETATM   13  C15 UNL     1       3.668  -2.174   0.940  1.00  0.00     0.025 C 
ENDBRANCH   7  10
ENDBRANCH   5   6
BRANCH   1  14
HETATM   14  C2  UNL     1       0.089   3.016   0.487  1.00  0.00     0.302 C 
HETATM   15  O2  UNL     1       1.328   3.144   0.556  1.00  0.00    -0.259 OA
BRANCH  14  16
HETATM   16  O1  UNL     1      -0.638   4.179   0.569  1.00  0.00    -0.322 OA
HETATM   17  C1  UNL     1       0.010   5.452   0.730  1.00  0.00     0.213 C 
ENDBRANCH  14  16
ENDBRANCH   1  14
BRANCH   3  18
HETATM   18  C5  UNL     1      -3.549  -1.097  -0.219  1.00  0.00    -0.018 C 
HETATM   19  C6  UNL     1      -4.734  -0.163  -0.521  1.00  0.00     0.020 C 
HETATM   20  C7  UNL     1      -3.413  -1.991  -1.401  1.00  0.00     0.020 C 
HETATM   21  C8  UNL     1      -3.944  -1.862   1.002  1.00  0.00     0.020 C 
ENDBRANCH   3  18
TORSDOF 5
