REMARK  2 active torsions:
REMARK  status: ('A' for Active; 'I' for Inactive)
REMARK    1  A    between atoms: O1_1  and  C1_3 
REMARK    2  A    between atoms: C4_9  and  C5_10 
ROOT
HETATM    1  C1  UNL     1       5.342  -0.053  -0.255  1.00  0.00     0.155 A 
HETATM    2  C2  UNL     1       6.135  -0.721   0.632  1.00  0.00     0.109 A 
HETATM    3  S1  UNL     1       4.987  -1.480   1.639  1.00  0.00    -0.061 SA
HETATM    4  C3  UNL     1       3.570  -0.910   0.881  1.00  0.00     0.157 A 
HETATM    5  N1  UNL     1       2.200  -0.929   0.906  1.00  0.00    -0.338 N 
ATOM      6  H1  UNL     1       1.614  -1.432   1.573  1.00  0.00     0.168 HD
HETATM    7  C4  UNL     1       1.776  -0.172  -0.099  1.00  0.00     0.031 A 
HETATM    8  C14 UNL     1       2.895   0.311  -0.739  1.00  0.00     0.126 A 
HETATM    9  N2  UNL     1       4.033  -0.161  -0.112  1.00  0.00    -0.280 N 
ENDROOT
BRANCH   7  10
HETATM   10  C5  UNL     1       0.346   0.113  -0.478  1.00  0.00     0.037 C 
HETATM   11  C6  UNL     1      -0.268   0.900   0.658  1.00  0.00     0.011 C 
HETATM   12  C7  UNL     1      -1.704   1.184   0.278  1.00  0.00     0.012 C 
HETATM   13  C8  UNL     1      -2.477  -0.095   0.184  1.00  0.00    -0.017 C 
HETATM   14  C9  UNL     1      -3.584   0.058  -0.848  1.00  0.00     0.038 C 
HETATM   15  C11 UNL     1      -3.329  -0.193   1.455  1.00  0.00     0.177 C 
HETATM   16  C12 UNL     1      -1.663  -1.314   0.013  1.00  0.00     0.012 C 
HETATM   17  C10 UNL     1      -4.614   0.828  -0.064  1.00  0.00     0.168 C 
HETATM   18  O2  UNL     1      -4.279   0.774   1.261  1.00  0.00    -0.390 OA
HETATM   19  C13 UNL     1      -0.410  -1.134  -0.796  1.00  0.00     0.011 C 
ENDBRANCH   7  10
BRANCH   1  20
HETATM   20  O1  UNL     1       5.983   0.714  -1.272  1.00  0.00    -0.345 OA
ATOM     21  H1  UNL     1       5.431   1.179  -1.890  1.00  0.00     0.219 HD
ENDBRANCH   1  20
TORSDOF 2
