REMARK  4 active torsions:
REMARK  status: ('A' for Active; 'I' for Inactive)
REMARK    1  A    between atoms: C2_2  and  O2_4 
REMARK    2  A    between atoms: O2_4  and  C3_5 
REMARK    3  A    between atoms: C10_14  and  C11_15 
REMARK    4  A    between atoms: C11_15  and  C12_16 
ROOT
HETATM    1  C3  UNL     1       1.973   1.403  -0.408  1.00  0.00     0.143 C 
HETATM    2  C4  UNL     1       0.650   1.870   0.203  1.00  0.00     0.041 C 
HETATM    3  C5  UNL     1      -0.359   1.582  -0.918  1.00  0.00     0.025 C 
HETATM    4  C6  UNL     1      -1.423   2.590  -1.032  1.00  0.00     0.013 C 
HETATM    5  C7  UNL     1      -0.640   0.153  -0.841  1.00  0.00     0.136 C 
HETATM    6  O3  UNL     1      -1.725  -0.160  -1.712  1.00  0.00    -0.225 OA
HETATM    7  O4  UNL     1      -2.009  -1.421  -1.533  1.00  0.00    -0.223 OA
HETATM    8  C8  UNL     1      -1.509  -1.871  -0.345  1.00  0.00     0.161 C 
HETATM    9  C9  UNL     1      -2.342  -2.763   0.473  1.00  0.00     0.056 C 
HETATM   10  C10 UNL     1      -1.111  -0.543   0.334  1.00  0.00     0.092 C 
HETATM   11  C16 UNL     1      -0.223  -2.601  -0.678  1.00  0.00     0.229 C 
HETATM   12  C17 UNL     1      -0.533  -3.507  -1.872  1.00  0.00     0.085 C 
HETATM   13  O5  UNL     1       0.196  -3.456   0.370  1.00  0.00    -0.196 OA
HETATM   14  O6  UNL     1       1.026  -2.921   1.187  1.00  0.00    -0.217 OA
HETATM   15  C18 UNL     1       2.333  -2.793   0.805  1.00  0.00     0.256 C 
HETATM   16 CL1  UNL     1       3.297  -3.694   2.035  1.00  0.00    -0.092 Cl
HETATM   17  C19 UNL     1       2.792  -1.326   0.769  1.00  0.00     0.052 C 
HETATM   18  C20 UNL     1       3.004  -0.792  -0.561  1.00  0.00     0.018 C 
HETATM   19  C21 UNL     1       1.922   0.143  -1.145  1.00  0.00     0.012 C 
HETATM   20  C22 UNL     1       2.577   0.384  -2.527  1.00  0.00     0.020 C 
HETATM   21  C23 UNL     1       0.623  -0.540  -1.374  1.00  0.00     0.174 C 
HETATM   22  O7  UNL     1       0.802  -1.817  -0.981  1.00  0.00    -0.341 OA
ENDROOT
BRANCH  10  23
HETATM   23  C11 UNL     1      -2.149  -0.118   1.244  1.00  0.00    -0.015 C 
BRANCH  23  24
HETATM   24  C12 UNL     1      -3.516   0.145   0.815  1.00  0.00    -0.002 C 
HETATM   25  C13 UNL     1      -4.138   1.214   1.280  1.00  0.00    -0.088 C 
HETATM   26  C14 UNL     1      -5.528   1.508   0.856  1.00  0.00     0.043 C 
HETATM   27  C15 UNL     1      -3.497   2.109   2.248  1.00  0.00     0.043 C 
ENDBRANCH  23  24
ENDBRANCH  10  23
BRANCH   1  28
HETATM   28  O2  UNL     1       3.003   1.442   0.592  1.00  0.00    -0.315 OA
BRANCH  28  29
HETATM   29  C2  UNL     1       4.017   2.388   0.601  1.00  0.00     0.255 C 
HETATM   30  C1  UNL     1       5.087   2.452   1.613  1.00  0.00     0.126 C 
HETATM   31  O1  UNL     1       4.021   3.248  -0.317  1.00  0.00    -0.266 OA
ENDBRANCH  28  29
ENDBRANCH   1  28
TORSDOF 4
