REMARK  1 active torsions:
REMARK  status: ('A' for Active; 'I' for Inactive)
REMARK    1  A    between atoms: N1_1  and  C1_5 
ROOT
HETATM    1  C1  UNL     1       1.064   0.475  -0.367  1.00  0.00     0.357 C 
HETATM    2  N2  UNL     1       0.149   1.390   0.171  1.00  0.00    -0.385 N 
ATOM      3  H2  UNL     1       0.461   2.299   0.513  1.00  0.00     0.155 HD
HETATM    4  C2  UNL     1      -1.214   1.026   0.229  1.00  0.00     0.202 C 
HETATM    5  C3  UNL     1      -1.515  -0.402   0.463  1.00  0.00     0.329 C 
HETATM    6  F1  UNL     1      -2.868  -0.612   0.207  1.00  0.00    -0.198 F 
HETATM    7  F2  UNL     1      -1.254  -0.781   1.748  1.00  0.00    -0.198 F 
HETATM    8  C4  UNL     1      -0.758  -1.235  -0.550  1.00  0.00     0.377 C 
HETATM    9  F3  UNL     1      -1.147  -0.794  -1.801  1.00  0.00    -0.192 F 
HETATM   10  F4  UNL     1      -1.014  -2.566  -0.369  1.00  0.00    -0.192 F 
HETATM   11  C5  UNL     1       0.709  -0.965  -0.301  1.00  0.00     0.358 C 
HETATM   12  F5  UNL     1       1.527  -1.675  -1.140  1.00  0.00    -0.195 F 
HETATM   13  F6  UNL     1       0.966  -1.402   1.004  1.00  0.00    -0.195 F 
ENDROOT
BRANCH   1  14
HETATM   14  N1  UNL     1       2.347   0.636   0.337  1.00  0.00    -0.052 N 
ATOM     15  H13 UNL     1       2.691   1.596   0.312  1.00  0.00     0.277 HD
ATOM     16  H12 UNL     1       2.253   0.549   1.349  1.00  0.00     0.277 HD
ATOM     17  H11 UNL     1       3.013  -0.030  -0.055  1.00  0.00     0.277 HD
ENDBRANCH   1  14
TORSDOF 1
