REMARK  8 active torsions:
REMARK  status: ('A' for Active; 'I' for Inactive)
REMARK    1  A    between atoms: C2_2  and  C3_3 
REMARK    2  A    between atoms: C3_3  and  C4_4 
REMARK    3  A    between atoms: C3_3  and  C6_9 
REMARK    4  A    between atoms: C4_4  and  C5_6 
REMARK    5  A    between atoms: C5_6  and  O2_7 
REMARK    6  A    between atoms: C14_18  and  C15_19 
REMARK    7  A    between atoms: C15_19  and  C16_20 
REMARK       I    between atoms: C16_20  and  N1_22 
REMARK       I    between atoms: N1_22  and  C17_24 
REMARK       I    between atoms: C17_24  and  N2_26 
REMARK    8  A    between atoms: N2_26  and  N3_28 
ROOT
HETATM    1  C6  UNL     1      -2.586   0.211  -0.426  1.00  0.00     0.007 C 
HETATM    2  C7  UNL     1      -3.823  -0.590  -0.635  1.00  0.00     0.022 C 
HETATM    3  C8  UNL     1      -3.512  -2.024  -0.156  1.00  0.00     0.063 C 
HETATM    4 BR1  UNL     1      -4.219  -3.346  -1.347  1.00  0.00    -0.091 Br
HETATM    5  C9  UNL     1      -2.006  -1.993  -0.140  1.00  0.00     0.009 C 
HETATM    6  C10 UNL     1      -1.350  -3.109   0.560  1.00  0.00     0.007 C 
HETATM    7  C11 UNL     1       0.085  -2.754   0.876  1.00  0.00     0.005 C 
HETATM    8  C12 UNL     1       0.233  -1.424   1.552  1.00  0.00    -0.009 C 
HETATM    9  C13 UNL     1       1.661  -1.139   1.848  1.00  0.00     0.010 C 
HETATM   10  C14 UNL     1       2.443  -0.883   0.552  1.00  0.00    -0.005 C 
HETATM   11  C18 UNL     1       1.789   0.278  -0.175  1.00  0.00     0.005 C 
HETATM   12  C19 UNL     1       0.381  -0.174  -0.591  1.00  0.00     0.006 C 
HETATM   13  C20 UNL     1      -0.386  -0.302   0.704  1.00  0.00    -0.002 C 
HETATM   14  C21 UNL     1      -1.824  -0.627   0.555  1.00  0.00    -0.031 C 
HETATM   15  C22 UNL     1      -2.451  -0.771   1.898  1.00  0.00     0.016 C 
ENDROOT
BRANCH  10  16
HETATM   16  C15 UNL     1       3.840  -0.603   0.973  1.00  0.00     0.108 C 
BRANCH  16  17
HETATM   17  C16 UNL     1       4.805  -0.360  -0.126  1.00  0.00     0.226 C 
HETATM   18  O3  UNL     1       4.430  -0.544  -1.303  1.00  0.00    -0.273 OA
HETATM   19  N1  UNL     1       6.111   0.068   0.177  1.00  0.00    -0.278 N 
HETATM   20  C17 UNL     1       7.154   0.349  -0.716  1.00  0.00     0.341 C 
ATOM     21  H1  UNL     1       6.324   0.188   1.167  1.00  0.00     0.173 HD
HETATM   22  O4  UNL     1       8.304   0.737  -0.261  1.00  0.00    -0.245 OA
HETATM   23  N2  UNL     1       7.094   0.252  -2.129  1.00  0.00    -0.258 N 
ATOM     24  H2  UNL     1       6.226  -0.047  -2.574  1.00  0.00     0.191 HD
BRANCH  23  25
HETATM   25  N3  UNL     1       8.219   0.563  -2.937  1.00  0.00    -0.341 N 
ATOM     26  H32 UNL     1       9.079   0.860  -2.476  1.00  0.00     0.177 HD
ATOM     27  H31 UNL     1       8.176   0.493  -3.954  1.00  0.00     0.177 HD
ENDBRANCH  23  25
ENDBRANCH  16  17
ENDBRANCH  10  16
BRANCH   1  28
HETATM   28  C3  UNL     1      -2.682   1.642  -0.193  1.00  0.00     0.062 C 
BRANCH  28  29
HETATM   29  C2  UNL     1      -3.452   2.153   0.976  1.00  0.00     0.008 C 
HETATM   30  C1  UNL     1      -3.146   3.665   1.053  1.00  0.00     0.006 C 
ENDBRANCH  28  29
BRANCH  28  31
HETATM   31  C4  UNL     1      -3.133   2.363  -1.408  1.00  0.00     0.154 C 
HETATM   32  O1  UNL     1      -2.311   2.960  -2.103  1.00  0.00    -0.295 OA
BRANCH  31  33
HETATM   33  C5  UNL     1      -4.536   2.422  -1.863  1.00  0.00     0.242 C 
BRANCH  33  34
HETATM   34  O2  UNL     1      -4.681   3.169  -3.034  1.00  0.00    -0.394 OA
ATOM     35  H2  UNL     1      -5.584   3.207  -3.327  1.00  0.00     0.209 HD
ENDBRANCH  33  34
ENDBRANCH  31  33
ENDBRANCH  28  31
ENDBRANCH   1  28
TORSDOF 8
