REMARK  7 active torsions:
REMARK  status: ('A' for Active; 'I' for Inactive)
REMARK    1  A    between atoms: C7_9  and  N2_10 
REMARK    2  A    between atoms: C8_13  and  C9_14 
REMARK    3  A    between atoms: C9_14  and  N3_15 
REMARK    4  A    between atoms: C12_18  and  O1_19 
REMARK    5  A    between atoms: O1_19  and  C13_20 
REMARK    6  A    between atoms: C15_22  and  N4_23 
REMARK    7  A    between atoms: N4_23  and  C16_25 
ROOT
HETATM    1  N3  UNL     1      -2.315   1.186   1.372  1.00  0.00     0.092 N 
HETATM    2  C10 UNL     1      -1.420   0.302   2.159  1.00  0.00     0.275 C 
HETATM    3  C11 UNL     1      -0.679  -0.671   1.315  1.00  0.00     0.062 C 
HETATM    4  C12 UNL     1       0.171  -0.035   0.270  1.00  0.00     0.132 C 
HETATM    5  C22 UNL     1      -0.742   0.872  -0.570  1.00  0.00     0.062 C 
HETATM    6  C23 UNL     1      -1.488   1.772   0.310  1.00  0.00     0.275 C 
ENDROOT
BRANCH   4   7
HETATM    7  O1  UNL     1       0.742  -0.988  -0.570  1.00  0.00    -0.344 OA
BRANCH   7   8
HETATM    8  C13 UNL     1       2.100  -1.121  -0.853  1.00  0.00     0.091 A 
HETATM    9  C14 UNL     1       3.049  -0.357  -0.262  1.00  0.00     0.086 A 
HETATM   10  C15 UNL     1       4.425  -0.516  -0.580  1.00  0.00     0.103 A 
HETATM   11  N6  UNL     1       4.761  -1.449  -1.489  1.00  0.00    -0.351 N 
HETATM   12  C20 UNL     1       3.806  -2.206  -2.073  1.00  0.00     0.111 A 
ATOM     13  H6  UNL     1       5.741  -1.586  -1.738  1.00  0.00     0.166 HD
HETATM   14  C21 UNL     1       2.470  -2.085  -1.792  1.00  0.00     0.059 A 
HETATM   15 BR1  UNL     1       1.188  -3.196  -2.662  1.00  0.00    -0.047 Br
BRANCH  10  16
HETATM   16  N4  UNL     1       5.242   0.216   0.016  1.00  0.00    -0.370 N 
ATOM     17  H4  UNL     1       4.764   0.840   0.665  1.00  0.00     0.161 HD
BRANCH  16  18
HETATM   18  C16 UNL     1       6.626   0.427   0.050  1.00  0.00     0.110 C 
HETATM   19  C17 UNL     1       7.047   1.106   1.370  1.00  0.00     0.054 C 
HETATM   20  C18 UNL     1       8.493   0.767   1.454  1.00  0.00     0.234 C 
HETATM   21  N5  UNL     1       8.624  -0.564   0.914  1.00  0.00    -0.073 N 
HETATM   22  C19 UNL     1       7.517  -0.771   0.018  1.00  0.00     0.257 C 
ATOM     23  H52 UNL     1       9.530  -0.729   0.475  1.00  0.00     0.277 HD
ATOM     24  H51 UNL     1       8.694  -1.282   1.635  1.00  0.00     0.277 HD
ENDBRANCH  16  18
ENDBRANCH  10  16
ENDBRANCH   7   8
ENDBRANCH   4   7
BRANCH   1  25
HETATM   25  C9  UNL     1      -3.343   0.315   0.765  1.00  0.00     0.315 C 
BRANCH  25  26
HETATM   26  C8  UNL     1      -4.578   0.980   0.390  1.00  0.00     0.024 A 
HETATM   27  C4  UNL     1      -5.463   0.241  -0.373  1.00  0.00    -0.021 A 
HETATM   28  C2  UNL     1      -5.396  -1.158  -0.698  1.00  0.00    -0.077 C 
HETATM   29  C5  UNL     1      -6.650   0.931  -0.749  1.00  0.00     0.029 A 
HETATM   30  C1  UNL     1      -6.039  -1.563  -2.025  1.00  0.00     0.044 C 
HETATM   31  C3  UNL     1      -4.429  -2.134  -0.218  1.00  0.00     0.044 C 
HETATM   32  C6  UNL     1      -6.899   2.218  -0.384  1.00  0.00     0.090 A 
HETATM   33  N1  UNL     1      -6.049   2.891   0.342  1.00  0.00    -0.352 N 
HETATM   34  C7  UNL     1      -4.854   2.309   0.765  1.00  0.00     0.107 A 
ATOM     35  H1  UNL     1      -6.261   3.854   0.603  1.00  0.00     0.166 HD
BRANCH  34  36
HETATM   36  N2  UNL     1      -4.164   2.986   1.526  1.00  0.00    -0.385 N 
ATOM     37  H22 UNL     1      -4.364   3.949   1.798  1.00  0.00     0.157 HD
ATOM     38  H21 UNL     1      -3.290   2.560   1.835  1.00  0.00     0.157 HD
ENDBRANCH  34  36
ENDBRANCH  25  26
ENDBRANCH   1  25
TORSDOF 7
