REMARK  5 active torsions:
REMARK  status: ('A' for Active; 'I' for Inactive)
REMARK    1  A    between atoms: N3_10  and  C5_12 
REMARK    2  A    between atoms: C5_12  and  C6_13 
REMARK    3  A    between atoms: C6_13  and  N4_14 
REMARK    4  A    between atoms: C6_13  and  C7_18 
REMARK    5  A    between atoms: C7_18  and  N5_19 
ROOT
HETATM    1  N1  UNL     1       3.190  -2.323  -0.331  1.00  0.00    -0.380 N 
ATOM      2  H11 UNL     1       2.448  -2.946  -0.650  1.00  0.00     0.158 HD
ATOM      3  H12 UNL     1       4.134  -2.688  -0.206  1.00  0.00     0.158 HD
HETATM    4  C1  UNL     1       2.919  -1.064  -0.087  1.00  0.00     0.146 A 
HETATM    5  C2  UNL     1       3.921  -0.223   0.344  1.00  0.00     0.073 A 
HETATM    6  C3  UNL     1       3.624   1.094   0.597  1.00  0.00     0.096 A 
HETATM    7  N2  UNL     1       2.361   1.502   0.410  1.00  0.00    -0.332 N 
ATOM      8  H2  UNL     1       2.121   2.476   0.593  1.00  0.00     0.168 HD
HETATM    9  C4  UNL     1       1.404   0.659  -0.012  1.00  0.00     0.225 A 
HETATM   10  N3  UNL     1       0.201   1.102  -0.177  1.00  0.00    -0.354 N 
ATOM     11  H3  UNL     1      -0.001   2.083   0.015  1.00  0.00     0.163 HD
HETATM   12  O1  UNL     1       1.706  -0.595  -0.248  1.00  0.00    -0.263 OA
ENDROOT
BRANCH  10  13
HETATM   13  C5  UNL     1      -0.852   0.244  -0.624  1.00  0.00     0.157 C 
BRANCH  13  14
HETATM   14  C6  UNL     1      -2.100   0.447   0.209  1.00  0.00     0.226 C 
BRANCH  14  15
HETATM   15  N4  UNL     1      -2.598   1.793   0.147  1.00  0.00    -0.072 N 
ATOM     16  H43 UNL     1      -1.873   2.463   0.405  1.00  0.00     0.274 HD
ATOM     17  H42 UNL     1      -2.753   2.081  -0.819  1.00  0.00     0.274 HD
ATOM     18  H41 UNL     1      -3.439   1.930   0.708  1.00  0.00     0.274 HD
ENDBRANCH  14  15
BRANCH  14  19
HETATM   19  C7  UNL     1      -3.205  -0.479  -0.275  1.00  0.00     0.264 C 
BRANCH  19  20
HETATM   20  N5  UNL     1      -2.736  -1.822  -0.139  1.00  0.00    -0.077 N 
ATOM     21  H53 UNL     1      -1.848  -1.982  -0.614  1.00  0.00     0.274 HD
ATOM     22  H52 UNL     1      -2.423  -2.039   0.807  1.00  0.00     0.274 HD
ATOM     23  H51 UNL     1      -3.477  -2.443  -0.464  1.00  0.00     0.274 HD
ENDBRANCH  19  20
ENDBRANCH  14  19
ENDBRANCH  13  14
ENDBRANCH  10  13
TORSDOF 5
