REMARK  3 active torsions:
REMARK  status: ('A' for Active; 'I' for Inactive)
REMARK    1  A    between atoms: C2_2  and  C3_3 
REMARK    2  A    between atoms: C3_3  and  C4_4 
REMARK    3  A    between atoms: C4_4  and  C5_5 
ROOT
HETATM    1  C4  UNL     1      -1.370  -0.044  -0.236  1.00  0.00     0.076 C 
HETATM    2  C6  UNL     1      -0.377   1.078  -0.447  1.00  0.00     0.131 C 
HETATM    3 BR1  UNL     1       0.296   1.024  -2.260  1.00  0.00    -0.086 Br
HETATM    4  C7  UNL     1       0.815   0.844   0.458  1.00  0.00     0.343 C 
HETATM    5  N1  UNL     1       1.694   1.986   0.503  1.00  0.00    -0.311 N 
ATOM      6  H1  UNL     1       1.299   2.887   0.771  1.00  0.00     0.166 HD
HETATM    7  C8  UNL     1       3.069   1.927   0.198  1.00  0.00     0.321 C 
HETATM    8  O3  UNL     1       3.842   2.918   0.193  1.00  0.00    -0.247 OA
HETATM    9  N2  UNL     1       3.603   0.633  -0.126  1.00  0.00    -0.312 N 
HETATM   10  C9  UNL     1       4.857   0.488  -0.839  1.00  0.00     0.156 C 
HETATM   11  C10 UNL     1       2.803  -0.502   0.307  1.00  0.00     0.404 C 
HETATM   12  N3  UNL     1       1.448  -0.331  -0.095  1.00  0.00     0.130 N 
HETATM   13  C11 UNL     1       0.639  -1.456   0.309  1.00  0.00     0.287 C 
HETATM   14  C12 UNL     1      -0.763  -1.390  -0.240  1.00  0.00    -0.002 C 
HETATM   15  C13 UNL     1      -1.579  -2.290   0.711  1.00  0.00     0.018 C 
HETATM   16  C14 UNL     1      -0.756  -2.140  -1.544  1.00  0.00     0.018 C 
ENDROOT
BRANCH   1  17
HETATM   17  C3  UNL     1      -2.088   0.161   1.112  1.00  0.00     0.049 C 
BRANCH  17  18
HETATM   18  C2  UNL     1      -2.714   1.481   1.262  1.00  0.00    -0.035 C 
HETATM   19  C1  UNL     1      -4.018   1.637   1.456  1.00  0.00     0.007 C 
ENDBRANCH  17  18
ENDBRANCH   1  17
BRANCH   1  20
HETATM   20  C5  UNL     1      -2.425   0.132  -1.251  1.00  0.00     0.184 C 
HETATM   21  O1  UNL     1      -2.870  -0.778  -1.979  1.00  0.00    -0.647 OA
HETATM   22  O2  UNL     1      -2.973   1.395  -1.420  1.00  0.00    -0.647 OA
ENDBRANCH   1  20
TORSDOF 3
