REMARK  6 active torsions:
REMARK  status: ('A' for Active; 'I' for Inactive)
REMARK    1  A    between atoms: C1_2  and  C2_4 
REMARK    2  A    between atoms: C2_4  and  N1_5 
REMARK    3  A    between atoms: C7_16  and  C8_17 
REMARK    4  A    between atoms: C8_17  and  O5_18 
REMARK    5  A    between atoms: C8_17  and  C9_20 
REMARK    6  A    between atoms: C9_20  and  O6_21 
ROOT
HETATM    1  N1  UNL     1       3.002  -0.285  -0.421  1.00  0.00    -0.254 N 
HETATM    2  C3  UNL     1       2.726  -1.598  -0.386  1.00  0.00     0.330 A 
HETATM    3  O3  UNL     1       3.617  -2.485  -0.402  1.00  0.00    -0.246 OA
HETATM    4  N2  UNL     1       1.443  -2.055  -0.329  1.00  0.00    -0.303 N 
ATOM      5  H2  UNL     1       1.271  -3.060  -0.303  1.00  0.00     0.171 HD
HETATM    6  C4  UNL     1       0.393  -1.200  -0.306  1.00  0.00     0.114 A 
HETATM    7  C5  UNL     1       0.663   0.155  -0.342  1.00  0.00     0.133 A 
HETATM    8  C6  UNL     1       1.984   0.591  -0.399  1.00  0.00     0.281 A 
HETATM    9  O4  UNL     1       2.167   1.835  -0.430  1.00  0.00    -0.265 OA
HETATM   10  N3  UNL     1      -0.428   1.066  -0.318  1.00  0.00    -0.336 N 
ATOM     11  H3  UNL     1      -0.225   2.065  -0.344  1.00  0.00     0.167 HD
HETATM   12  C7  UNL     1      -1.669   0.691  -0.265  1.00  0.00     0.134 A 
HETATM   13  N4  UNL     1      -2.018  -0.701  -0.225  1.00  0.00    -0.225 N 
HETATM   14  N5  UNL     1      -3.234  -1.359  -0.169  1.00  0.00    -0.111 NA
HETATM   15  C10 UNL     1      -2.913  -2.758  -0.153  1.00  0.00     0.258 A 
HETATM   16  N6  UNL     1      -1.502  -2.846  -0.204  1.00  0.00    -0.358 N 
ATOM     17  H6  UNL     1      -0.969  -3.716  -0.207  1.00  0.00     0.162 HD
HETATM   18  C11 UNL     1      -0.995  -1.678  -0.245  1.00  0.00     0.152 A 
ENDROOT
BRANCH  12  19
HETATM   19  C8  UNL     1      -2.742   1.696  -0.243  1.00  0.00     0.210 C 
BRANCH  19  20
HETATM   20  O5  UNL     1      -2.190   2.980  -0.316  1.00  0.00    -0.386 OA
ATOM     21  H5  UNL     1      -2.883   3.629  -0.302  1.00  0.00     0.210 HD
ENDBRANCH  19  20
BRANCH  19  22
HETATM   22  C9  UNL     1      -3.539   1.671   1.042  1.00  0.00     0.203 C 
BRANCH  22  23
HETATM   23  O6  UNL     1      -4.527   2.674   0.951  1.00  0.00    -0.398 OA
ATOM     24  H6  UNL     1      -5.028   2.658   1.758  1.00  0.00     0.209 HD
ENDBRANCH  22  23
ENDBRANCH  19  22
ENDBRANCH  12  19
BRANCH   1  25
HETATM   25  C2  UNL     1       4.347   0.193  -0.480  1.00  0.00     0.250 C 
BRANCH  25  26
HETATM   26  C1  UNL     1       4.948   0.414   0.859  1.00  0.00     0.192 C 
HETATM   27  O1  UNL     1       4.352   0.208   1.945  1.00  0.00    -0.647 OA
HETATM   28  O2  UNL     1       6.254   0.878   0.941  1.00  0.00    -0.647 OA
ENDBRANCH  25  26
ENDBRANCH   1  25
TORSDOF 6
