REMARK  8 active torsions:
REMARK  status: ('A' for Active; 'I' for Inactive)
REMARK    1  A    between atoms: N1_1  and  C1_4 
REMARK    2  A    between atoms: C2_9  and  C3_10 
REMARK    3  A    between atoms: C3_10  and  N4_11 
REMARK    4  A    between atoms: N5_12  and  O1_13 
REMARK    5  A    between atoms: C4_15  and  S1_16 
REMARK    6  A    between atoms: S1_16  and  C5_17 
REMARK    7  A    between atoms: C5_17  and  C6_18 
REMARK    8  A    between atoms: N9_24  and  N10_25 
ROOT
HETATM    1  N4  UNL     1      -1.665   0.259  -0.349  1.00  0.00    -0.089 NA
HETATM    2  N5  UNL     1      -0.443   0.780  -0.023  1.00  0.00    -0.077 NA
HETATM    3  C4  UNL     1       0.310  -0.096   0.788  1.00  0.00     0.276 C 
HETATM    4  N11 UNL     1       0.238  -1.447   0.279  1.00  0.00    -0.276 N 
ATOM      5  H11 UNL     1       0.916  -2.205   0.353  1.00  0.00     0.176 HD
HETATM    6  S2  UNL     1      -1.322  -1.429  -0.496  1.00  0.00     0.316 S 
HETATM    7  O2  UNL     1      -2.317  -2.265   0.243  1.00  0.00    -0.187 OA
HETATM    8  O3  UNL     1      -1.236  -1.873  -1.913  1.00  0.00    -0.187 OA
ENDROOT
BRANCH   3   9
HETATM    9  S1  UNL     1       2.022   0.406   0.932  1.00  0.00    -0.117 SA
BRANCH   9  10
HETATM   10  C5  UNL     1       2.950   0.309  -0.588  1.00  0.00     0.158 C 
BRANCH  10  11
HETATM   11  C6  UNL     1       4.348   0.747  -0.314  1.00  0.00     0.145 A 
HETATM   12  N6  UNL     1       4.853   1.990  -0.387  1.00  0.00    -0.268 N 
HETATM   13  N7  UNL     1       6.147   1.970  -0.067  1.00  0.00    -0.004 NA
ATOM     14  H6  UNL     1       4.326   2.823  -0.648  1.00  0.00     0.185 HD
HETATM   15  N8  UNL     1       6.455   0.703   0.208  1.00  0.00    -0.204 N 
HETATM   16  N9  UNL     1       5.377  -0.032   0.061  1.00  0.00    -0.176 N 
ATOM     17  H8  UNL     1       7.375   0.361   0.486  1.00  0.00     0.208 HD
BRANCH  16  18
HETATM   18  N10 UNL     1       5.324  -1.429   0.269  1.00  0.00    -0.322 N 
ATOM     19 2H10 UNL     1       4.487  -2.000   0.155  1.00  0.00     0.179 HD
ATOM     20 1H10 UNL     1       6.105  -2.020   0.554  1.00  0.00     0.179 HD
ENDBRANCH  16  18
ENDBRANCH  10  11
ENDBRANCH   9  10
ENDBRANCH   3   9
BRANCH   2  21
HETATM   21  O1  UNL     1       0.188   1.366  -1.038  1.00  0.00    -0.294 OA
ATOM     22  H1  UNL     1       1.037   1.728  -0.812  1.00  0.00     0.238 HD
ENDBRANCH   2  21
BRANCH   1  23
HETATM   23  C3  UNL     1      -2.708   0.444   0.602  1.00  0.00     0.216 C 
BRANCH  23  24
HETATM   24  C2  UNL     1      -4.065   0.417  -0.006  1.00  0.00     0.157 A 
HETATM   25  N3  UNL     1      -5.187   0.562   0.707  1.00  0.00    -0.279 N 
HETATM   26  N2  UNL     1      -6.209   0.492  -0.114  1.00  0.00    -0.263 N 
ATOM     27  H3  UNL     1      -5.240   0.703   1.716  1.00  0.00     0.189 HD
HETATM   28  C1  UNL     1      -5.727   0.303  -1.346  1.00  0.00     0.238 A 
ATOM     29  H2  UNL     1      -7.193   0.568   0.142  1.00  0.00     0.190 HD
HETATM   30  O4  UNL     1      -4.424   0.262  -1.248  1.00  0.00    -0.263 OA
BRANCH  28  31
HETATM   31  N1  UNL     1      -6.455   0.189  -2.398  1.00  0.00    -0.364 N 
ATOM     32  H12 UNL     1      -7.472   0.221  -2.474  1.00  0.00     0.159 HD
ATOM     33  H11 UNL     1      -6.087   0.045  -3.338  1.00  0.00     0.159 HD
ENDBRANCH  28  31
ENDBRANCH  23  24
ENDBRANCH   1  23
TORSDOF 8
