REMARK  11 active torsions:
REMARK  status: ('A' for Active; 'I' for Inactive)
REMARK    1  A    between atoms: C4_7  and  C5_8 
REMARK    2  A    between atoms: C5_8  and  N3_9 
REMARK    3  A    between atoms: N3_9  and  N4_11 
REMARK    4  A    between atoms: N4_11  and  C6_12 
REMARK    5  A    between atoms: C7_15  and  O1_16 
REMARK    6  A    between atoms: C8_18  and  C9_19 
REMARK    7  A    between atoms: C9_19  and  N6_20 
REMARK    8  A    between atoms: N6_20  and  N7_21 
REMARK    9  A    between atoms: N7_21  and  C10_23 
REMARK   10  A    between atoms: C12_34  and  N12_35 
REMARK   11  A    between atoms: N12_35  and  N13_37 
ROOT
HETATM    1  C6  UNL     1      -0.980   0.588  -0.365  1.00  0.00     0.251 A 
HETATM    2  N5  UNL     1       0.160  -0.200  -0.385  1.00  0.00    -0.305 N 
ATOM      3  H5  UNL     1       0.053  -1.204  -0.526  1.00  0.00     0.170 HD
HETATM    4  C7  UNL     1       1.383   0.287  -0.230  1.00  0.00     0.172 A 
HETATM    5  C8  UNL     1       1.509   1.645  -0.041  1.00  0.00     0.116 A 
HETATM    6  N11 UNL     1       0.424   2.429  -0.017  1.00  0.00    -0.332 N 
ATOM      7  H11 UNL     1       0.554   3.431   0.125  1.00  0.00     0.168 HD
HETATM    8  C12 UNL     1      -0.848   1.956  -0.173  1.00  0.00     0.182 A 
ENDROOT
BRANCH   5   9
HETATM    9  C9  UNL     1       2.844   2.237   0.131  1.00  0.00     0.243 C 
BRANCH   9  10
HETATM   10  N6  UNL     1       3.941   1.749   0.141  1.00  0.00    -0.321 NA
BRANCH  10  11
HETATM   11  N7  UNL     1       4.911   0.909   0.095  1.00  0.00    -0.064 N 
ATOM     12  H7  UNL     1       4.712   0.026  -0.376  1.00  0.00     0.221 HD
BRANCH  11  13
HETATM   13  C10 UNL     1       6.125   1.040   0.576  1.00  0.00     0.726 A 
HETATM   14  N8  UNL     1       6.622   2.100   1.231  1.00  0.00    -0.126 N 
HETATM   15  N9  UNL     1       7.875   1.832   1.550  1.00  0.00    -0.236 N 
ATOM     16  H8  UNL     1       6.120   2.962   1.445  1.00  0.00     0.206 HD
HETATM   17  C11 UNL     1       8.220   0.585   1.104  1.00  0.00     0.353 A 
ATOM     18  H9  UNL     1       8.496   2.463   2.056  1.00  0.00     0.192 HD
HETATM   19  O2  UNL     1       9.346   0.024   1.245  1.00  0.00    -0.245 OA
HETATM   20  N10 UNL     1       7.112   0.129   0.509  1.00  0.00    -0.137 N 
ATOM     21  H10 UNL     1       7.027  -0.785   0.065  1.00  0.00     0.189 HD
ENDBRANCH  11  13
ENDBRANCH  10  11
ENDBRANCH   9  10
ENDBRANCH   5   9
BRANCH   4  22
HETATM   22  O1  UNL     1       2.494  -0.577  -0.263  1.00  0.00    -0.344 OA
ATOM     23  H1  UNL     1       3.371  -0.228  -0.152  1.00  0.00     0.219 HD
ENDBRANCH   4  22
BRANCH   8  24
HETATM   24  N12 UNL     1      -1.818   2.781  -0.130  1.00  0.00    -0.288 N 
ATOM     25  H12 UNL     1      -1.582   3.762   0.018  1.00  0.00     0.188 HD
BRANCH  24  26
HETATM   26  N13 UNL     1      -3.134   2.480  -0.262  1.00  0.00    -0.343 N 
ATOM     27 2H13 UNL     1      -3.350   1.494  -0.409  1.00  0.00     0.176 HD
ATOM     28 1H13 UNL     1      -3.911   3.140  -0.228  1.00  0.00     0.176 HD
ENDBRANCH  24  26
ENDBRANCH   8  24
BRANCH   1  29
HETATM   29  N4  UNL     1      -2.033   0.043  -0.519  1.00  0.00    -0.303 NA
BRANCH  29  30
HETATM   30  N3  UNL     1      -3.165  -0.490  -0.679  1.00  0.00    -0.243 N 
ATOM     31  H3  UNL     1      -3.798   0.057  -1.262  1.00  0.00     0.201 HD
BRANCH  30  32
HETATM   32  C5  UNL     1      -3.679  -1.598  -0.246  1.00  0.00     0.152 C 
BRANCH  32  33
HETATM   33  C4  UNL     1      -5.026  -2.006  -0.568  1.00  0.00     0.069 A 
HETATM   34  N1  UNL     1      -5.652  -3.135  -0.170  1.00  0.00    -0.296 N 
HETATM   35  C1  UNL     1      -5.094  -4.174   0.670  1.00  0.00     0.178 C 
HETATM   36  N2  UNL     1      -6.866  -3.108  -0.691  1.00  0.00    -0.310 N 
HETATM   37  C2  UNL     1      -7.057  -2.009  -1.412  1.00  0.00     0.109 A 
ATOM     38  H2  UNL     1      -7.566  -3.837  -0.557  1.00  0.00     0.186 HD
HETATM   39  C3  UNL     1      -5.889  -1.264  -1.359  1.00  0.00     0.051 A 
ENDBRANCH  32  33
ENDBRANCH  30  32
ENDBRANCH  29  30
ENDBRANCH   1  29
TORSDOF 11
