REMARK  2 active torsions:
REMARK  status: ('A' for Active; 'I' for Inactive)
REMARK    1  A    between atoms: O1_2  and  C2_3 
REMARK    2  A    between atoms: N2_10  and  O2_11 
ROOT
HETATM    1  C2  UNL     1      -0.783   0.584   0.321  1.00  0.00     0.347 C 
HETATM    2  N1  UNL     1       0.511   1.244   0.318  1.00  0.00    -0.024 N 
ATOM      3  H11 UNL     1       0.650   1.850   1.127  1.00  0.00     0.282 HD
ATOM      4  H12 UNL     1       0.589   1.962  -0.402  1.00  0.00     0.282 HD
HETATM    5  C3  UNL     1       1.513   0.229   0.204  1.00  0.00     0.199 C 
HETATM    6  C4  UNL     1       2.448   0.200   1.420  1.00  0.00     0.066 C 
HETATM    7  C5  UNL     1       2.379   0.529  -0.990  1.00  0.00     0.066 C 
HETATM    8  N2  UNL     1       0.873  -1.045   0.147  1.00  0.00    -0.150 NA
HETATM    9  C6  UNL     1      -0.521  -0.837  -0.114  1.00  0.00     0.085 C 
HETATM   10  C7  UNL     1      -1.418  -1.745   0.685  1.00  0.00     0.039 C 
HETATM   11  C8  UNL     1      -0.799  -1.065  -1.575  1.00  0.00     0.039 C 
ENDROOT
BRANCH   1  12
HETATM   12  O1  UNL     1      -1.695   1.230  -0.483  1.00  0.00    -0.362 OA
HETATM   13  C1  UNL     1      -2.751   1.685   0.270  1.00  0.00     0.204 C 
ENDBRANCH   1  12
BRANCH   8  14
HETATM   14  O2  UNL     1       1.462  -1.912  -0.696  1.00  0.00    -0.310 OA
ATOM     15  H2  UNL     1       1.036  -2.760  -0.734  1.00  0.00     0.237 HD
ENDBRANCH   8  14
TORSDOF 2
