REMARK  9 active torsions:
REMARK  status: ('A' for Active; 'I' for Inactive)
REMARK    1  A    between atoms: C2_2  and  N1_3 
REMARK    2  A    between atoms: C2_2  and  O1_7 
REMARK    3  A    between atoms: C2_2  and  C3_9 
REMARK    4  A    between atoms: C3_9  and  O2_10 
REMARK    5  A    between atoms: C3_9  and  N2_12 
REMARK    6  A    between atoms: C5_17  and  C6_18 
REMARK    7  A    between atoms: C6_18  and  N4_19 
REMARK    8  A    between atoms: C10_33  and  C11_34 
REMARK    9  A    between atoms: C13_39  and  O6_40 
ROOT
HETATM    1  N2  UNL     1      -2.331   0.629   1.007  1.00  0.00    -0.343 N 
ATOM      2  H2  UNL     1      -2.339   1.635   1.177  1.00  0.00     0.164 HD
HETATM    3  C4  UNL     1      -1.230  -0.033   1.139  1.00  0.00     0.149 C 
HETATM    4  N3  UNL     1      -1.199  -1.433   0.906  1.00  0.00    -0.366 N 
ATOM      5  H3  UNL     1      -2.023  -2.009   1.076  1.00  0.00     0.161 HD
HETATM    6  C5  UNL     1       0.030  -2.024   0.421  1.00  0.00     0.123 C 
HETATM    7  C7  UNL     1       1.273  -1.357   0.813  1.00  0.00     0.123 C 
HETATM    8  C8  UNL     1       1.962  -0.558  -0.231  1.00  0.00     0.108 A 
HETATM    9  N5  UNL     1       1.949  -0.559  -1.521  1.00  0.00    -0.262 N 
ATOM     10  H5  UNL     1       1.359  -1.222  -2.024  1.00  0.00     0.190 HD
HETATM   11  N6  UNL     1       2.739   0.344  -2.229  1.00  0.00    -0.119 N 
HETATM   12  C9  UNL     1       3.152   0.856  -3.433  1.00  0.00     0.378 A 
HETATM   13  O3  UNL     1       2.889   0.593  -4.636  1.00  0.00    -0.242 OA
HETATM   14  N7  UNL     1       3.942   1.739  -2.811  1.00  0.00    -0.228 N 
ATOM     15  H7  UNL     1       4.582   2.481  -3.094  1.00  0.00     0.193 HD
HETATM   16  N8  UNL     1       3.518   1.216  -1.647  1.00  0.00    -0.169 N 
HETATM   17  C10 UNL     1       3.645   1.289  -0.237  1.00  0.00     0.332 A 
HETATM   18  N9  UNL     1       2.743   0.392   0.440  1.00  0.00    -0.333 N 
HETATM   19  C12 UNL     1       2.470   0.311   1.913  1.00  0.00     0.174 C 
HETATM   20  C13 UNL     1       1.115  -0.341   1.921  1.00  0.00     0.154 C 
HETATM   21  C14 UNL     1       0.031   0.586   1.528  1.00  0.00     0.229 C 
HETATM   22  O7  UNL     1       0.138   1.830   1.514  1.00  0.00    -0.286 OA
ENDROOT
BRANCH   1  23
HETATM   23  C3  UNL     1      -3.541  -0.035   0.624  1.00  0.00     0.282 C 
BRANCH  23  24
HETATM   24  C2  UNL     1      -4.386   0.916  -0.234  1.00  0.00     0.262 C 
HETATM   25  C1  UNL     1      -4.675   2.161   0.539  1.00  0.00     0.083 C 
BRANCH  24  26
HETATM   26  N1  UNL     1      -3.657   1.271  -1.436  1.00  0.00    -0.043 N 
ATOM     27  H13 UNL     1      -4.144   1.972  -1.994  1.00  0.00     0.278 HD
ATOM     28  H12 UNL     1      -2.814   1.810  -1.236  1.00  0.00     0.278 HD
ATOM     29  H11 UNL     1      -3.460   0.421  -1.964  1.00  0.00     0.278 HD
ENDBRANCH  24  26
BRANCH  24  30
HETATM   30  O1  UNL     1      -5.541   0.206  -0.569  1.00  0.00    -0.362 OA
ATOM     31  H1  UNL     1      -5.357  -0.586  -1.061  1.00  0.00     0.212 HD
ENDBRANCH  24  30
ENDBRANCH  23  24
BRANCH  23  32
HETATM   32  O2  UNL     1      -4.273  -0.283   1.794  1.00  0.00    -0.372 OA
ATOM     33  H2  UNL     1      -3.750  -0.872   2.325  1.00  0.00     0.212 HD
ENDBRANCH  23  32
ENDBRANCH   1  23
BRANCH   6  34
HETATM   34  C6  UNL     1      -0.171  -2.270  -1.056  1.00  0.00     0.255 C 
BRANCH  34  35
HETATM   35  N4  UNL     1      -1.320  -3.190  -1.137  1.00  0.00    -0.077 N 
ATOM     36  H43 UNL     1      -1.206  -4.042  -0.588  1.00  0.00     0.274 HD
ATOM     37  H42 UNL     1      -2.154  -2.852  -0.657  1.00  0.00     0.274 HD
ATOM     38  H41 UNL     1      -1.456  -3.356  -2.134  1.00  0.00     0.274 HD
ENDBRANCH  34  35
ENDBRANCH   6  34
BRANCH  20  39
HETATM   39  O6  UNL     1       0.897  -0.951   3.137  1.00  0.00    -0.379 OA
ATOM     40  H6  UNL     1       0.798  -0.312   3.833  1.00  0.00     0.211 HD
ENDBRANCH  20  39
BRANCH  17  41
HETATM   41  C11 UNL     1       5.066   0.918   0.107  1.00  0.00     0.221 C 
HETATM   42  O4  UNL     1       5.279  -0.043   0.875  1.00  0.00    -0.645 OA
HETATM   43  O5  UNL     1       6.148   1.610  -0.400  1.00  0.00    -0.645 OA
ENDBRANCH  17  41
TORSDOF 9
