REMARK  4 active torsions:
REMARK  status: ('A' for Active; 'I' for Inactive)
REMARK    1  A    between atoms: N2_5  and  C3_6 
REMARK    2  A    between atoms: C3_6  and  C4_7 
REMARK    3  A    between atoms: C4_7  and  C5_8 
REMARK    4  A    between atoms: C5_8  and  N3_9 
ROOT
HETATM    1  C3  UNL     1      -1.113   0.655   1.368  1.00  0.00     0.151 C 
ENDROOT
BRANCH   1   2
HETATM    2  N2  UNL     1      -2.000   0.570   0.231  1.00  0.00    -0.287 N 
HETATM    3  C2  UNL     1      -2.423   1.627  -0.473  1.00  0.00     0.201 A 
HETATM    4  N1  UNL     1      -3.230   1.183  -1.454  1.00  0.00    -0.346 N 
HETATM    5  C1  UNL     1      -3.299  -0.159  -1.346  1.00  0.00     0.198 A 
ATOM      6  H1  UNL     1      -3.703   1.757  -2.152  1.00  0.00     0.167 HD
HETATM    7  N6  UNL     1      -2.536  -0.521  -0.304  1.00  0.00    -0.293 N 
ATOM      8  H6  UNL     1      -2.391  -1.476   0.023  1.00  0.00     0.188 HD
ENDBRANCH   1   2
BRANCH   1   9
HETATM    9  C4  UNL     1       0.326   0.560   0.925  1.00  0.00     0.044 C 
BRANCH   9  10
HETATM   10  C5  UNL     1       0.617  -0.744   0.214  1.00  0.00     0.153 C 
BRANCH  10  11
HETATM   11  N3  UNL     1       2.041  -0.692  -0.154  1.00  0.00    -0.272 N 
HETATM   12  C6  UNL     1       3.175  -1.067   0.456  1.00  0.00     0.219 A 
HETATM   13  N4  UNL     1       3.885  -0.640  -0.597  1.00  0.00    -0.280 N 
HETATM   14  N5  UNL     1       2.759  -0.282  -1.173  1.00  0.00    -0.239 N 
ATOM     15  H4  UNL     1       4.874  -0.607  -0.845  1.00  0.00     0.189 HD
ATOM     16  H5  UNL     1       2.531   0.149  -2.069  1.00  0.00     0.208 HD
ENDBRANCH  10  11
ENDBRANCH   9  10
ENDBRANCH   1   9
TORSDOF 4
