REMARK  5 active torsions:
REMARK  status: ('A' for Active; 'I' for Inactive)
REMARK    1  A    between atoms: N1_1  and  N2_4 
REMARK    2  A    between atoms: C1_6  and  C2_7 
REMARK    3  A    between atoms: N4_14  and  C7_16 
REMARK    4  A    between atoms: C7_16  and  C8_17 
REMARK    5  A    between atoms: C8_17  and  N5_18 
ROOT
HETATM    1  C2  UNL     1       1.514   0.741  -0.381  1.00  0.00     0.025 A 
HETATM    2  C3  UNL     1       2.070   1.965   0.073  1.00  0.00     0.018 A 
HETATM    3  C4  UNL     1       1.282   2.944   0.603  1.00  0.00     0.018 A 
HETATM    4  C5  UNL     1      -0.075   2.768   0.712  1.00  0.00     0.089 A 
HETATM    5  N3  UNL     1      -0.605   1.616   0.286  1.00  0.00    -0.352 N 
ATOM      6  H3  UNL     1      -1.613   1.478   0.363  1.00  0.00     0.166 HD
HETATM    7  C6  UNL     1       0.149   0.634  -0.241  1.00  0.00     0.112 A 
HETATM    8  N4  UNL     1      -0.496  -0.409  -0.603  1.00  0.00    -0.374 N 
ATOM      9  H4  UNL     1       0.046  -1.173  -1.006  1.00  0.00     0.161 HD
ENDROOT
BRANCH   1  10
HETATM   10  C1  UNL     1       2.393  -0.237  -0.923  1.00  0.00     0.121 C 
HETATM   11  N2  UNL     1       2.280  -1.376  -1.400  1.00  0.00    -0.318 N 
ATOM     12  H2  UNL     1       3.179  -1.762  -1.689  1.00  0.00     0.185 HD
BRANCH  11  13
HETATM   13  N1  UNL     1       1.239  -2.252  -1.637  1.00  0.00    -0.345 N 
ATOM     14  H12 UNL     1       0.352  -1.846  -1.341  1.00  0.00     0.176 HD
ATOM     15  H11 UNL     1       1.146  -3.189  -2.029  1.00  0.00     0.176 HD
ENDBRANCH  11  13
ENDBRANCH   1  10
BRANCH   8  16
HETATM   16  C7  UNL     1      -1.894  -0.599  -0.495  1.00  0.00     0.148 C 
BRANCH  16  17
HETATM   17  C8  UNL     1      -2.344  -1.095   0.875  1.00  0.00     0.249 C 
BRANCH  17  18
HETATM   18  N5  UNL     1      -1.701  -2.369   1.133  1.00  0.00    -0.078 N 
ATOM     19  H53 UNL     1      -1.870  -3.051   0.394  1.00  0.00     0.274 HD
ATOM     20  H52 UNL     1      -0.686  -2.321   1.047  1.00  0.00     0.274 HD
ATOM     21  H51 UNL     1      -2.002  -2.701   2.049  1.00  0.00     0.274 HD
ENDBRANCH  17  18
ENDBRANCH  16  17
ENDBRANCH   8  16
TORSDOF 5
