REMARK  9 active torsions:
REMARK  status: ('A' for Active; 'I' for Inactive)
REMARK    1  A    between atoms: O1_2  and  C2_3 
REMARK    2  A    between atoms: C2_3  and  C3_5 
REMARK    3  A    between atoms: C3_5  and  O3_6 
REMARK    4  A    between atoms: C6_10  and  C7_11 
REMARK    5  A    between atoms: C7_11  and  O4_13 
REMARK    6  A    between atoms: C9_15  and  O5_16 
REMARK    7  A    between atoms: C9_15  and  O6_18 
REMARK    8  A    between atoms: N1_21  and  N2_23 
REMARK    9  A    between atoms: C12_26  and  C13_27 
ROOT
HETATM    1  C3  UNL     1       0.904   0.529  -0.625  1.00  0.00     0.186 C 
HETATM    2  C4  UNL     1      -0.494   1.054  -0.425  1.00  0.00    -0.028 C 
HETATM    3  C5  UNL     1      -0.563   2.547  -0.654  1.00  0.00     0.048 C 
HETATM    4  C6  UNL     1      -1.546   0.365  -0.122  1.00  0.00     0.021 C 
HETATM    5  C9  UNL     1      -1.430  -1.168   0.013  1.00  0.00     0.233 C 
HETATM    6  C11 UNL     1      -0.189  -1.689  -0.488  1.00  0.00     0.086 C 
HETATM    7  N1  UNL     1      -0.169  -2.943  -0.835  1.00  0.00    -0.309 N 
ATOM      8  H1  UNL     1      -1.022  -3.493  -0.737  1.00  0.00     0.186 HD
HETATM    9  C12 UNL     1       1.065  -0.930  -0.664  1.00  0.00     0.177 C 
ENDROOT
BRANCH   1  10
HETATM   10  C2  UNL     1       1.825   1.169   0.385  1.00  0.00     0.299 C 
HETATM   11  O2  UNL     1       1.720   0.903   1.623  1.00  0.00    -0.261 OA
BRANCH  10  12
HETATM   12  O1  UNL     1       2.821   2.067   0.035  1.00  0.00    -0.324 OA
HETATM   13  C1  UNL     1       3.684   2.664   0.985  1.00  0.00     0.213 C 
ENDBRANCH  10  12
ENDBRANCH   1  10
BRANCH   1  14
HETATM   14  O3  UNL     1       1.297   1.062  -1.863  1.00  0.00    -0.374 OA
ATOM     15  H3  UNL     1       0.717   0.659  -2.499  1.00  0.00     0.211 HD
ENDBRANCH   1  14
BRANCH   9  16
HETATM   16  C13 UNL     1       2.067  -1.459   0.290  1.00  0.00     0.244 C 
HETATM   17  N3  UNL     1       3.457  -1.082   0.176  1.00  0.00    -0.061 NA
HETATM   18  O7  UNL     1       1.800  -2.240   1.230  1.00  0.00    -0.276 OA
ENDBRANCH   9  16
BRANCH   4  19
HETATM   19  C7  UNL     1      -2.927   0.807   0.091  1.00  0.00     0.149 C 
HETATM   20  C8  UNL     1      -3.240   2.246   0.250  1.00  0.00     0.044 C 
BRANCH  19  21
HETATM   21  O4  UNL     1      -3.807   0.209  -0.852  1.00  0.00    -0.391 OA
ATOM     22  H4  UNL     1      -4.702   0.496  -0.714  1.00  0.00     0.210 HD
ENDBRANCH  19  21
ENDBRANCH   4  19
BRANCH   5  23
HETATM   23  O5  UNL     1      -2.481  -1.657  -0.798  1.00  0.00    -0.357 OA
ATOM     24  H5  UNL     1      -2.410  -2.601  -0.715  1.00  0.00     0.213 HD
ENDBRANCH   5  23
BRANCH   5  25
HETATM   25  O6  UNL     1      -1.637  -1.418   1.333  1.00  0.00    -0.352 OA
HETATM   26  C10 UNL     1      -1.772  -2.713   1.735  1.00  0.00     0.206 C 
ENDBRANCH   5  25
BRANCH   7  27
HETATM   27  N2  UNL     1       0.969  -3.559  -1.333  1.00  0.00    -0.345 N 
ATOM     28  H22 UNL     1       1.813  -2.994  -1.424  1.00  0.00     0.176 HD
ATOM     29  H21 UNL     1       0.985  -4.542  -1.605  1.00  0.00     0.176 HD
ENDBRANCH   7  27
TORSDOF 9
