REMARK  7 active torsions:
REMARK  status: ('A' for Active; 'I' for Inactive)
REMARK    1  A    between atoms: C2_2  and  S1_4 
REMARK    2  A    between atoms: S1_4  and  N1_7 
REMARK    3  A    between atoms: C3_8  and  N2_9 
REMARK    4  A    between atoms: N2_9  and  C5_11 
REMARK    5  A    between atoms: C5_11  and  C6_12 
REMARK    6  A    between atoms: C6_12  and  N3_13 
REMARK    7  A    between atoms: C8_20  and  N5_21 
ROOT
HETATM    1  N1  UNL     1      -0.874   0.213  -0.611  1.00  0.00    -0.046 N 
HETATM    2  C3  UNL     1       0.372  -0.275  -0.540  1.00  0.00     0.699 A 
HETATM    3  N4  UNL     1       0.331  -1.569  -0.100  1.00  0.00    -0.183 N 
ATOM      4  H4  UNL     1       1.139  -2.174   0.043  1.00  0.00     0.184 HD
HETATM    5  C7  UNL     1      -0.951  -1.911   0.112  1.00  0.00     0.139 A 
HETATM    6  C8  UNL     1      -1.552  -3.092   0.558  1.00  0.00     0.146 A 
HETATM    7  N6  UNL     1      -2.886  -3.103   0.663  1.00  0.00    -0.175 N 
ATOM      8  H6  UNL     1      -3.355  -3.949   0.985  1.00  0.00     0.186 HD
HETATM    9  C9  UNL     1      -3.620  -2.021   0.352  1.00  0.00     0.679 A 
HETATM   10  N7  UNL     1      -4.921  -2.047   0.458  1.00  0.00    -0.234 N 
ATOM     11  H71 UNL     1      -5.478  -1.226   0.222  1.00  0.00     0.174 HD
ATOM     12  H72 UNL     1      -5.375  -2.901   0.781  1.00  0.00     0.174 HD
HETATM   13  N8  UNL     1      -3.016  -0.884  -0.078  1.00  0.00    -0.173 N 
ATOM     14  H8  UNL     1      -3.594  -0.075  -0.308  1.00  0.00     0.186 HD
HETATM   15  C10 UNL     1      -1.683  -0.789  -0.211  1.00  0.00     0.186 A 
ENDROOT
BRANCH   2  16
HETATM   16  N2  UNL     1       1.635   0.306  -0.816  1.00  0.00    -0.219 N 
HETATM   17  C4  UNL     1       2.006   0.591  -2.180  1.00  0.00     0.168 C 
BRANCH  16  18
HETATM   18  C5  UNL     1       2.530   0.578   0.285  1.00  0.00     0.168 C 
BRANCH  18  19
HETATM   19  C6  UNL     1       3.745  -0.346   0.249  1.00  0.00     0.250 C 
BRANCH  19  20
HETATM   20  N3  UNL     1       4.579   0.004   1.384  1.00  0.00    -0.078 N 
ATOM     21  H33 UNL     1       4.828   0.993   1.408  1.00  0.00     0.274 HD
ATOM     22  H32 UNL     1       4.079  -0.026   2.273  1.00  0.00     0.274 HD
ATOM     23  H31 UNL     1       5.391  -0.613   1.360  1.00  0.00     0.274 HD
ENDBRANCH  19  20
ENDBRANCH  18  19
ENDBRANCH  16  18
ENDBRANCH   2  16
BRANCH   1  24
HETATM   24  S1  UNL     1      -1.283   1.786  -1.135  1.00  0.00     0.318 S 
HETATM   25  O2  UNL     1      -2.758   2.040  -1.175  1.00  0.00    -0.196 OA
HETATM   26  O3  UNL     1      -0.824   1.961  -2.581  1.00  0.00    -0.196 OA
BRANCH  24  27
HETATM   27  C2  UNL     1      -0.581   2.993  -0.109  1.00  0.00     0.260 C 
HETATM   28  C1  UNL     1      -1.325   3.461   1.089  1.00  0.00     0.111 C 
HETATM   29  O1  UNL     1       0.509   3.489  -0.322  1.00  0.00    -0.279 OA
ENDBRANCH  24  27
ENDBRANCH   1  24
BRANCH   6  30
HETATM   30  N5  UNL     1      -0.823  -4.103   0.851  1.00  0.00    -0.383 N 
ATOM     31  H52 UNL     1       0.194  -4.095   0.771  1.00  0.00     0.157 HD
ATOM     32  H51 UNL     1      -1.261  -4.965   1.176  1.00  0.00     0.157 HD
ENDBRANCH   6  30
TORSDOF 7
