REMARK  8 active torsions:
REMARK  status: ('A' for Active; 'I' for Inactive)
REMARK    1  A    between atoms: C2_2  and  C4_4 
REMARK    2  A    between atoms: C2_2  and  O1_9 
REMARK    3  A    between atoms: C4_4  and  N1_5 
REMARK    4  A    between atoms: O1_9  and  N2_10 
REMARK    5  A    between atoms: N2_10  and  C5_12 
REMARK    6  A    between atoms: C5_12  and  C6_13 
REMARK    7  A    between atoms: C11_28  and  C12_29 
REMARK    8  A    between atoms: C12_29  and  N7_30 
ROOT
HETATM    1  C12 UNL     1      -1.279   1.792   0.008  1.00  0.00     0.324 C 
HETATM    2  C13 UNL     1      -2.139   2.967  -0.612  1.00  0.00     0.097 C 
HETATM    3  N8  UNL     1      -2.796   3.833  -1.092  1.00  0.00    -0.195 NA
ENDROOT
BRANCH   1   4
HETATM    4  C11 UNL     1      -2.308   0.789   0.036  1.00  0.00     0.019 A 
HETATM    5  C10 UNL     1      -3.625   1.173   0.415  1.00  0.00     0.062 A 
HETATM    6  C9  UNL     1      -4.713   0.349   0.337  1.00  0.00     0.114 A 
HETATM    7  N5  UNL     1      -4.532  -0.888  -0.125  1.00  0.00    -0.275 N 
HETATM    8  N6  UNL     1      -5.858   0.766   0.699  1.00  0.00    -0.384 N 
HETATM    9  N4  UNL     1      -3.334  -1.286  -0.486  1.00  0.00    -0.202 N 
ATOM     10  H5  UNL     1      -5.325  -1.526  -0.198  1.00  0.00     0.189 HD
HETATM   11  C8  UNL     1      -3.251  -2.538  -0.941  1.00  0.00     0.348 A 
HETATM   12  C14 UNL     1      -2.198  -0.495  -0.417  1.00  0.00     0.088 A 
HETATM   13  N3  UNL     1      -2.075  -3.029  -1.330  1.00  0.00    -0.273 N 
HETATM   14  O3  UNL     1      -4.265  -3.302  -1.023  1.00  0.00    -0.245 OA
HETATM   15  C7  UNL     1      -0.953  -2.327  -1.285  1.00  0.00     0.263 A 
ATOM     16  H3  UNL     1      -2.037  -3.987  -1.678  1.00  0.00     0.173 HD
HETATM   17  C6  UNL     1      -0.996  -1.004  -0.807  1.00  0.00     0.079 A 
HETATM   18  O2  UNL     1       0.146  -2.769  -1.643  1.00  0.00    -0.267 OA
ATOM     19  H62 UNL     1      -6.670   0.151   0.641  1.00  0.00     0.157 HD
ATOM     20  H61 UNL     1      -5.997   1.713   1.053  1.00  0.00     0.157 HD
BRANCH  17  21
HETATM   21  C5  UNL     1       0.261  -0.342  -0.659  1.00  0.00     0.133 C 
BRANCH  21  22
HETATM   22  N2  UNL     1       1.385  -0.988  -1.010  1.00  0.00    -0.276 N 
ATOM     23  H2  UNL     1       1.274  -1.936  -1.371  1.00  0.00     0.193 HD
BRANCH  22  24
HETATM   24  O1  UNL     1       2.618  -0.523  -0.936  1.00  0.00    -0.269 OA
BRANCH  24  25
HETATM   25  C2  UNL     1       3.475  -0.360   0.130  1.00  0.00     0.105 C 
HETATM   26  C1  UNL     1       3.800  -1.660   0.857  1.00  0.00     0.050 C 
HETATM   27  C3  UNL     1       3.026   0.637   1.161  1.00  0.00     0.050 C 
BRANCH  25  28
HETATM   28  C4  UNL     1       4.812   0.147  -0.423  1.00  0.00     0.269 C 
BRANCH  28  29
HETATM   29  N1  UNL     1       4.672   1.394  -1.107  1.00  0.00    -0.076 N 
ATOM     30  H13 UNL     1       3.966   1.336  -1.841  1.00  0.00     0.274 HD
ATOM     31  H12 UNL     1       4.229   2.094  -0.512  1.00  0.00     0.274 HD
ATOM     32  H11 UNL     1       5.562   1.731  -1.475  1.00  0.00     0.274 HD
ENDBRANCH  28  29
ENDBRANCH  25  28
ENDBRANCH  24  25
ENDBRANCH  22  24
ENDBRANCH  21  22
ENDBRANCH  17  21
ENDBRANCH   1   4
BRANCH   1  33
HETATM   33  N7  UNL     1      -1.066   2.491   1.286  1.00  0.00    -0.058 N 
ATOM     34  H73 UNL     1      -1.942   2.892   1.620  1.00  0.00     0.276 HD
ATOM     35  H72 UNL     1      -0.884   1.819   2.031  1.00  0.00     0.276 HD
ATOM     36  H71 UNL     1      -0.336   3.203   1.266  1.00  0.00     0.276 HD
ENDBRANCH   1  33
TORSDOF 8
