REMARK  7 active torsions:
REMARK  status: ('A' for Active; 'I' for Inactive)
REMARK    1  A    between atoms: O1_2  and  C2_3 
REMARK    2  A    between atoms: C4_5  and  N1_6 
REMARK    3  A    between atoms: C7_12  and  O4_13 
REMARK    4  A    between atoms: O4_13  and  C8_14 
REMARK    5  A    between atoms: C9_17  and  N3_18 
REMARK    6  A    between atoms: C10_21  and  N4_22 
REMARK    7  A    between atoms: N4_22  and  N5_24 
ROOT
HETATM    1  C8  UNL     1       1.117  -0.321  -1.170  1.00  0.00     0.234 C 
HETATM    2  N2  UNL     1       1.700  -0.815  -0.055  1.00  0.00    -0.305 N 
ATOM      3  H2  UNL     1       1.302  -1.678   0.314  1.00  0.00     0.171 HD
HETATM    4  C9  UNL     1       2.763  -0.296   0.641  1.00  0.00     0.148 C 
HETATM    5  C10 UNL     1       3.694   0.596   0.187  1.00  0.00     0.168 C 
HETATM    6  N6  UNL     1       3.462   1.559  -0.740  1.00  0.00    -0.290 N 
ATOM      7  H6  UNL     1       4.110   2.346  -0.737  1.00  0.00     0.172 HD
HETATM    8  C11 UNL     1       2.470   1.607  -1.677  1.00  0.00     0.329 C 
HETATM    9  O5  UNL     1       2.366   2.699  -2.294  1.00  0.00    -0.247 OA
HETATM   10  N7  UNL     1       1.596   0.610  -2.005  1.00  0.00    -0.274 N 
ATOM     11  H7  UNL     1       1.279   0.571  -2.974  1.00  0.00     0.174 HD
ENDROOT
BRANCH   1  12
HETATM   12  O4  UNL     1      -0.101  -0.845  -1.465  1.00  0.00    -0.273 OA
BRANCH  12  13
HETATM   13  C7  UNL     1      -1.342  -0.387  -1.162  1.00  0.00     0.151 A 
HETATM   14  C2  UNL     1      -1.914  -0.746   0.051  1.00  0.00     0.107 A 
HETATM   15  C3  UNL     1      -3.174  -0.304   0.400  1.00  0.00     0.075 A 
HETATM   16  C4  UNL     1      -3.904   0.507  -0.445  1.00  0.00     0.108 A 
HETATM   17  C5  UNL     1      -3.324   0.852  -1.639  1.00  0.00     0.081 A 
HETATM   18  C6  UNL     1      -2.048   0.417  -2.014  1.00  0.00     0.155 A 
HETATM   19  F1  UNL     1      -1.555   0.798  -3.207  1.00  0.00    -0.203 F 
BRANCH  14  20
HETATM   20  O1  UNL     1      -1.177  -1.559   0.894  1.00  0.00    -0.353 OA
HETATM   21  C1  UNL     1      -1.752  -1.927   2.131  1.00  0.00     0.210 C 
ENDBRANCH  14  20
BRANCH  16  22
HETATM   22  N1  UNL     1      -5.196   0.970  -0.106  1.00  0.00    -0.116 N 
HETATM   23  O2  UNL     1      -5.731   0.666   0.972  1.00  0.00    -0.532 OA
HETATM   24  O3  UNL     1      -5.885   1.772  -0.974  1.00  0.00    -0.532 OA
ENDBRANCH  16  22
ENDBRANCH  12  13
ENDBRANCH   1  12
BRANCH   4  25
HETATM   25  N3  UNL     1       2.900  -0.689   1.855  1.00  0.00    -0.382 N 
ATOM     26  H32 UNL     1       2.205  -1.355   2.194  1.00  0.00     0.157 HD
ATOM     27  H31 UNL     1       3.690  -0.303   2.372  1.00  0.00     0.157 HD
ENDBRANCH   4  25
BRANCH   5  28
HETATM   28  N4  UNL     1       4.871   0.507   0.675  1.00  0.00    -0.289 N 
ATOM     29  H4  UNL     1       5.596   1.154   0.364  1.00  0.00     0.188 HD
BRANCH  28  30
HETATM   30  N5  UNL     1       5.174  -0.454   1.617  1.00  0.00    -0.344 N 
ATOM     31  H52 UNL     1       4.438  -1.093   1.917  1.00  0.00     0.176 HD
ATOM     32  H51 UNL     1       6.114  -0.525   2.007  1.00  0.00     0.176 HD
ENDBRANCH  28  30
ENDBRANCH   5  28
TORSDOF 7
