REMARK  7 active torsions:
REMARK  status: ('A' for Active; 'I' for Inactive)
REMARK       I    between atoms: C1_2  and  N2_3 
REMARK       I    between atoms: C1_2  and  N7_16 
REMARK    1  A    between atoms: N2_3  and  N3_5 
REMARK    2  A    between atoms: N3_5  and  C2_7 
REMARK    3  A    between atoms: N7_16  and  N8_18 
REMARK    4  A    between atoms: N8_18  and  C4_20 
REMARK    5  A    between atoms: C4_20  and  C5_21 
REMARK    6  A    between atoms: C6_26  and  S1_27 
REMARK    7  A    between atoms: S1_27  and  N11_28 
ROOT
HETATM    1  N1  UNL     1      -1.435  -2.728  -0.121  1.00  0.00    -0.061 NA
HETATM    2  C1  UNL     1      -1.849  -1.393   0.131  1.00  0.00     0.222 C 
HETATM    3  N2  UNL     1      -2.833  -0.894  -0.536  1.00  0.00    -0.271 N 
ATOM      4  H2  UNL     1      -3.292  -1.479  -1.234  1.00  0.00     0.189 HD
HETATM    5  N7  UNL     1      -1.147  -0.657   1.123  1.00  0.00    -0.273 N 
ATOM      6  H7  UNL     1      -1.643  -0.217   1.898  1.00  0.00     0.189 HD
ENDROOT
BRANCH   5   7
HETATM    7  N8  UNL     1       0.238  -0.552   1.009  1.00  0.00    -0.307 N 
ATOM      8  H8  UNL     1       0.846  -0.838   1.776  1.00  0.00     0.186 HD
BRANCH   7   9
HETATM    9  C4  UNL     1       0.732  -0.088  -0.080  1.00  0.00     0.145 C 
BRANCH   9  10
HETATM   10  C5  UNL     1       2.180   0.046  -0.257  1.00  0.00     0.108 A 
HETATM   11  N9  UNL     1       2.841   0.504  -1.313  1.00  0.00    -0.291 N 
HETATM   12  N10 UNL     1       4.102   0.550  -1.294  1.00  0.00    -0.282 N 
ATOM     13  H9  UNL     1       2.331   0.818  -2.138  1.00  0.00     0.187 HD
HETATM   14  C6  UNL     1       4.768   0.142  -0.219  1.00  0.00     0.207 A 
ATOM     15  H10 UNL     1       4.611   0.901  -2.105  1.00  0.00     0.188 HD
HETATM   16  S2  UNL     1       3.471  -0.329   0.803  1.00  0.00    -0.037 SA
BRANCH  14  17
HETATM   17  S1  UNL     1       6.512   0.107   0.052  1.00  0.00     0.280 S 
HETATM   18  O1  UNL     1       7.205  -0.039  -1.273  1.00  0.00    -0.199 OA
HETATM   19  O2  UNL     1       6.868  -1.072   0.914  1.00  0.00    -0.199 OA
BRANCH  17  20
HETATM   20  N11 UNL     1       6.970   1.597   0.743  1.00  0.00    -0.323 N 
ATOM     21 2H11 UNL     1       6.335   2.366   0.957  1.00  0.00     0.169 HD
ATOM     22 1H11 UNL     1       7.978   1.577   0.900  1.00  0.00     0.169 HD
ENDBRANCH  17  20
ENDBRANCH  14  17
ENDBRANCH   9  10
ENDBRANCH   7   9
ENDBRANCH   5   7
BRANCH   3  23
HETATM   23  N3  UNL     1      -3.298   0.397  -0.352  1.00  0.00    -0.278 N 
ATOM     24  H3  UNL     1      -2.628   1.165  -0.330  1.00  0.00     0.189 HD
BRANCH  23  25
HETATM   25  C2  UNL     1      -4.687   0.686  -0.192  1.00  0.00     0.194 A 
HETATM   26  N4  UNL     1      -5.289   1.870  -0.006  1.00  0.00    -0.266 N 
HETATM   27  N5  UNL     1      -6.586   1.714   0.097  1.00  0.00    -0.239 N 
ATOM     28  H4  UNL     1      -4.805   2.766   0.048  1.00  0.00     0.190 HD
HETATM   29  N6  UNL     1      -6.839   0.427  -0.021  1.00  0.00    -0.258 N 
ATOM     30  H5  UNL     1      -7.273   2.454   0.242  1.00  0.00     0.208 HD
HETATM   31  C3  UNL     1      -5.713  -0.248  -0.199  1.00  0.00     0.251 A 
ATOM     32  H6  UNL     1      -7.769   0.010   0.019  1.00  0.00     0.191 HD
HETATM   33  F1  UNL     1      -5.528  -1.568  -0.361  1.00  0.00    -0.180 F 
ENDBRANCH  23  25
ENDBRANCH   3  23
TORSDOF 7
