REMARK  6 active torsions:
REMARK  status: ('A' for Active; 'I' for Inactive)
REMARK    1  A    between atoms: O1_2  and  C2_3 
REMARK    2  A    between atoms: C3_4  and  O2_5 
REMARK    3  A    between atoms: C4_8  and  C5_9 
REMARK    4  A    between atoms: C10_15  and  O4_16 
REMARK    5  A    between atoms: O4_16  and  C11_17 
REMARK    6  A    between atoms: C13_21  and  O7_22 
ROOT
HETATM    1  C5  UNL     1      -0.075  -1.043   0.447  1.00  0.00    -0.021 C 
HETATM    2  C6  UNL     1      -0.262  -2.182   1.083  1.00  0.00    -0.015 C 
HETATM    3  C7  UNL     1      -1.620  -2.619   1.502  1.00  0.00     0.052 C 
HETATM    4  C8  UNL     1      -2.532  -2.239   0.358  1.00  0.00     0.116 C 
HETATM    5 CL1  UNL     1      -4.142  -2.895   0.519  1.00  0.00    -0.120 Cl
HETATM    6  C9  UNL     1      -2.496  -0.750   0.098  1.00  0.00    -0.035 C 
HETATM    7  C10 UNL     1      -3.611  -0.122  -0.095  1.00  0.00     0.153 C 
HETATM    8  C12 UNL     1      -1.190  -0.100   0.082  1.00  0.00     0.079 C 
ENDROOT
BRANCH   1   9
HETATM    9  C4  UNL     1       1.292  -0.670   0.063  1.00  0.00     0.120 A 
HETATM   10  O3  UNL     1       2.372  -1.423   0.258  1.00  0.00    -0.282 OA
HETATM   11  C3  UNL     1       3.460  -0.858  -0.174  1.00  0.00     0.221 A 
HETATM   12  C2  UNL     1       3.155   0.366  -0.709  1.00  0.00     0.163 A 
HETATM   13  C13 UNL     1       1.768   0.468  -0.549  1.00  0.00     0.139 A 
BRANCH  11  14
HETATM   14  O2  UNL     1       4.774  -1.364  -0.131  1.00  0.00    -0.339 OA
ATOM     15  H2  UNL     1       4.985  -2.213   0.240  1.00  0.00     0.220 HD
ENDBRANCH  11  14
BRANCH  12  16
HETATM   16  O1  UNL     1       3.976   1.320  -1.286  1.00  0.00    -0.349 OA
HETATM   17  C1  UNL     1       4.533   2.308  -0.421  1.00  0.00     0.210 C 
ENDBRANCH  12  16
BRANCH  13  18
HETATM   18  O7  UNL     1       1.035   1.564  -0.957  1.00  0.00    -0.355 OA
ATOM     19  H7  UNL     1       0.094   1.633  -0.848  1.00  0.00     0.218 HD
ENDBRANCH  13  18
ENDBRANCH   1   9
BRANCH   7  20
HETATM   20  O4  UNL     1      -4.060   1.083  -0.343  1.00  0.00    -0.265 OA
BRANCH  20  21
HETATM   21  C11 UNL     1      -3.648   2.293  -0.575  1.00  0.00     0.337 C 
HETATM   22  O5  UNL     1      -2.448   2.574  -0.614  1.00  0.00    -0.623 OA
HETATM   23  O6  UNL     1      -4.525   3.411  -0.808  1.00  0.00    -0.623 OA
ENDBRANCH  20  21
ENDBRANCH   7  20
TORSDOF 6
