REMARK  3 active torsions:
REMARK  status: ('A' for Active; 'I' for Inactive)
REMARK       I    between atoms: N1_2  and  C2_3 
REMARK    1  A    between atoms: N1_2  and  C7_13 
REMARK    2  A    between atoms: C2_3  and  C3_5 
REMARK    3  A    between atoms: C5_7  and  N2_8 
ROOT
HETATM    1  C1  UNL     1       0.858  -2.230  -0.489  1.00  0.00     0.153 C 
HETATM    2  N1  UNL     1       0.432  -0.844  -0.208  1.00  0.00    -0.346 N 
HETATM    3  C2  UNL     1       1.469   0.027   0.140  1.00  0.00     0.224 C 
HETATM    4  O1  UNL     1       1.221   1.231   0.380  1.00  0.00    -0.273 OA
ENDROOT
BRANCH   2   5
HETATM    5  C7  UNL     1      -0.974  -0.568  -0.309  1.00  0.00     0.159 C 
HETATM    6  C8  UNL     1      -1.218   0.457  -1.338  1.00  0.00     0.031 C 
HETATM    7  C9  UNL     1      -2.434   1.301  -1.207  1.00  0.00     0.003 C 
HETATM    8  C10 UNL     1      -2.972   1.466   0.164  1.00  0.00     0.015 C 
HETATM    9  C11 UNL     1      -3.065   0.145   0.865  1.00  0.00     0.020 C 
HETATM   10  C12 UNL     1      -3.575   0.431   2.283  1.00  0.00     0.021 C 
HETATM   11  C13 UNL     1      -3.994  -0.830   0.234  1.00  0.00     0.021 C 
HETATM   12  C14 UNL     1      -1.656  -0.367   1.015  1.00  0.00     0.270 C 
HETATM   13  F1  UNL     1      -1.024   0.442   1.902  1.00  0.00    -0.203 F 
HETATM   14  F2  UNL     1      -1.799  -1.607   1.663  1.00  0.00    -0.203 F 
ENDBRANCH   2   5
BRANCH   3  15
HETATM   15  C3  UNL     1       2.887  -0.391   0.247  1.00  0.00     0.082 C 
HETATM   16  C4  UNL     1       3.811   0.739   0.638  1.00  0.00     0.046 C 
HETATM   17  C5  UNL     1       4.826   0.148  -0.350  1.00  0.00     0.185 C 
HETATM   18  C6  UNL     1       3.629  -0.452  -1.072  1.00  0.00     0.046 C 
BRANCH  17  19
HETATM   19  N2  UNL     1       5.548   1.128  -1.110  1.00  0.00    -0.075 N 
ATOM     20  H23 UNL     1       4.902   1.752  -1.593  1.00  0.00     0.274 HD
ATOM     21  H22 UNL     1       6.003   1.797  -0.489  1.00  0.00     0.274 HD
ATOM     22  H21 UNL     1       6.223   0.735  -1.767  1.00  0.00     0.274 HD
ENDBRANCH  17  19
ENDBRANCH   3  15
TORSDOF 3
