REMARK  2 active torsions:
REMARK  status: ('A' for Active; 'I' for Inactive)
REMARK    1  A    between atoms: C1_4  and  N2_5 
REMARK    2  A    between atoms: N2_5  and  C2_7 
ROOT
HETATM    1  C2  UNL     1       1.127   0.162   0.039  1.00  0.00     0.090 C 
HETATM    2  C3  UNL     1       0.316   0.599   1.229  1.00  0.00     0.010 C 
HETATM    3  C4  UNL     1      -0.458   1.834   0.844  1.00  0.00     0.011 C 
HETATM    4  C5  UNL     1      -1.400   1.455  -0.282  1.00  0.00    -0.012 C 
HETATM    5  C6  UNL     1      -0.646   0.883  -1.467  1.00  0.00     0.011 C 
HETATM    6  C7  UNL     1       0.176  -0.311  -1.029  1.00  0.00     0.010 C 
HETATM    7  C8  UNL     1      -0.775  -1.362  -0.539  1.00  0.00     0.027 C 
HETATM    8  C9  UNL     1      -1.568  -0.826   0.640  1.00  0.00     0.019 C 
HETATM    9 BR1  UNL     1      -2.860  -2.151   1.191  1.00  0.00    -0.086 Br
HETATM   10  C10 UNL     1      -2.342   0.412   0.255  1.00  0.00     0.025 C 
HETATM   11  C11 UNL     1      -0.591  -0.499   1.727  1.00  0.00     0.027 C 
ENDROOT
BRANCH   1  12
HETATM   12  N2  UNL     1       2.086  -0.820   0.425  1.00  0.00    -0.379 N 
ATOM     13  H2  UNL     1       2.106  -1.093   1.407  1.00  0.00     0.160 HD
BRANCH  12  14
HETATM   14  C1  UNL     1       3.008  -1.444  -0.439  1.00  0.00     0.205 C 
HETATM   15  N1  UNL     1       4.114  -0.876  -0.720  1.00  0.00    -0.220 N 
HETATM   16  F1  UNL     1       4.501   0.318  -0.247  1.00  0.00    -0.101 F 
ATOM     17  H1  UNL     1       4.750  -1.365  -1.350  1.00  0.00     0.200 HD
ENDBRANCH  12  14
ENDBRANCH   1  12
TORSDOF 2
