REMARK  2 active torsions:
REMARK  status: ('A' for Active; 'I' for Inactive)
REMARK    1  A    between atoms: N1_2  and  C2_4 
REMARK    2  A    between atoms: N2_5  and  C3_7 
ROOT
HETATM    1  C3  UNL     1       0.563  -0.758  -0.211  1.00  0.00     0.137 C 
HETATM    2  C4  UNL     1       0.015  -0.216  -1.537  1.00  0.00     0.131 C 
HETATM    3 CL1  UNL     1       0.345   1.495  -1.730  1.00  0.00    -0.121 Cl
HETATM    4  C5  UNL     1      -1.382  -0.636  -1.602  1.00  0.00     0.058 C 
HETATM    5 CL2  UNL     1      -1.709  -1.296  -3.253  1.00  0.00    -0.117 Cl
HETATM    6  C6  UNL     1      -2.462   0.290  -1.297  1.00  0.00     0.027 C 
HETATM    7  C7  UNL     1      -2.397   1.241  -0.193  1.00  0.00     0.002 C 
HETATM    8  C8  UNL     1      -1.756   0.861   1.074  1.00  0.00     0.010 C 
HETATM    9  C9  UNL     1      -1.533  -0.574   1.290  1.00  0.00     0.046 C 
HETATM   10  C10 UNL     1      -0.646  -1.055   2.356  1.00  0.00     0.176 C 
HETATM   11  O1  UNL     1      -0.351  -2.163   1.518  1.00  0.00    -0.377 OA
HETATM   12  C11 UNL     1      -0.596  -1.299   0.465  1.00  0.00     0.090 C 
HETATM   13  C12 UNL     1      -1.402  -1.889  -0.704  1.00  0.00     0.068 C 
ENDROOT
BRANCH   1  14
HETATM   14  N2  UNL     1       1.343   0.241   0.440  1.00  0.00    -0.377 N 
HETATM   15  C2  UNL     1       2.517   0.518  -0.035  1.00  0.00     0.171 C 
ATOM     16  H2  UNL     1       0.985   0.728   1.262  1.00  0.00     0.160 HD
BRANCH  15  17
HETATM   17  N1  UNL     1       3.346   1.493   0.554  1.00  0.00    -0.391 N 
HETATM   18  C1  UNL     1       4.677   1.161   0.984  1.00  0.00     0.147 C 
ATOM     19  H1  UNL     1       2.998   2.444   0.677  1.00  0.00     0.159 HD
ENDBRANCH  15  17
ENDBRANCH   1  14
TORSDOF 2
