REMARK  2 active torsions:
REMARK  status: ('A' for Active; 'I' for Inactive)
REMARK    1  A    between atoms: S1_2  and  C2_3 
REMARK    2  A    between atoms: C4_10  and  C5_11 
ROOT
HETATM    1  C2  UNL     1      -0.211   0.438   0.787  1.00  0.00     0.095 A 
HETATM    2  N1  UNL     1      -0.865   1.612   0.789  1.00  0.00    -0.329 N 
ATOM      3  H1  UNL     1      -0.631   2.423   1.362  1.00  0.00     0.168 HD
HETATM    4  C3  UNL     1      -1.894   1.538  -0.102  1.00  0.00     0.154 A 
HETATM    5 BR1  UNL     1      -3.118   2.949  -0.463  1.00  0.00    -0.010 Br
HETATM    6  N2  UNL     1      -1.882   0.318  -0.659  1.00  0.00    -0.337 N 
ATOM      7  H2  UNL     1      -2.534  -0.030  -1.362  1.00  0.00     0.168 HD
HETATM    8  C4  UNL     1      -0.863  -0.358  -0.126  1.00  0.00     0.055 A 
ENDROOT
BRANCH   1   9
HETATM    9  S1  UNL     1       1.222   0.026   1.778  1.00  0.00    -0.115 SA
HETATM   10  C1  UNL     1       2.746   0.473   0.855  1.00  0.00     0.097 C 
ENDBRANCH   1   9
BRANCH   8  11
HETATM   11  C5  UNL     1      -0.475  -1.749  -0.452  1.00  0.00     0.145 C 
HETATM   12 BR2  UNL     1      -1.020  -2.981   0.933  1.00  0.00    -0.090 Br
ENDBRANCH   8  11
TORSDOF 2
