REMARK  2 active torsions:
REMARK  status: ('A' for Active; 'I' for Inactive)
REMARK    1  A    between atoms: N2_12  and  C8_13 
REMARK    2  A    between atoms: C11_16  and  C12_17 
ROOT
HETATM    1  O1  UNL     1       0.165  -2.348   1.833  1.00  0.00    -0.245 OA
HETATM    2  C1  UNL     1      -0.583  -1.726   1.058  1.00  0.00     0.345 C 
HETATM    3  N1  UNL     1      -2.010  -1.684   1.008  1.00  0.00    -0.307 N 
ATOM      4  H1  UNL     1      -2.664  -2.274   1.523  1.00  0.00     0.167 HD
HETATM    5  C2  UNL     1      -2.330  -0.633   0.077  1.00  0.00     0.165 C 
HETATM    6  C3  UNL     1      -3.519  -0.997  -0.781  1.00  0.00     0.064 C 
HETATM    7  C4  UNL     1      -4.027   0.169  -1.555  1.00  0.00     0.005 C 
HETATM    8  C5  UNL     1      -4.318   1.351  -0.647  1.00  0.00     0.000 C 
HETATM    9  C6  UNL     1      -2.969   1.766  -0.056  1.00  0.00     0.005 C 
HETATM   10  C7  UNL     1      -2.548   0.630   0.857  1.00  0.00     0.064 C 
HETATM   11  O2  UNL     1      -1.223  -0.575  -0.731  1.00  0.00    -0.240 OA
HETATM   12  N2  UNL     1      -0.136  -0.882   0.004  1.00  0.00    -0.200 N 
ENDROOT
BRANCH  12  13
HETATM   13  C8  UNL     1       1.175  -0.397  -0.305  1.00  0.00     0.120 C 
HETATM   14  C9  UNL     1       2.202  -1.487  -0.448  1.00  0.00     0.028 C 
HETATM   15  C10 UNL     1       3.486  -1.040   0.162  1.00  0.00     0.012 C 
HETATM   16  C11 UNL     1       3.814   0.412  -0.114  1.00  0.00     0.051 C 
HETATM   17  C13 UNL     1       2.733   1.346   0.315  1.00  0.00     0.012 C 
HETATM   18  C14 UNL     1       1.596   0.485   0.882  1.00  0.00     0.028 C 
BRANCH  16  19
HETATM   19  C12 UNL     1       5.120   0.703   0.636  1.00  0.00     0.357 C 
HETATM   20  F1  UNL     1       6.118  -0.121   0.177  1.00  0.00    -0.214 F 
HETATM   21  F2  UNL     1       5.508   2.004   0.495  1.00  0.00    -0.214 F 
ENDBRANCH  16  19
ENDBRANCH  12  13
TORSDOF 2
