REMARK  8 active torsions:
REMARK  status: ('A' for Active; 'I' for Inactive)
REMARK    1  A    between atoms: C2_2  and  O1_3 
REMARK    2  A    between atoms: O1_3  and  C3_4 
REMARK    3  A    between atoms: C3_4  and  C4_6 
REMARK    4  A    between atoms: N2_9  and  C5_10 
REMARK    5  A    between atoms: C6_11  and  C7_12 
REMARK    6  A    between atoms: C13_19  and  N3_20 
REMARK    7  A    between atoms: C15_24  and  O3_26 
REMARK    8  A    between atoms: O3_26  and  N4_27 
ROOT
HETATM    1  C4  UNL     1       0.966   2.306   0.177  1.00  0.00     0.146 A 
HETATM    2  N1  UNL     1      -0.218   1.705   0.208  1.00  0.00    -0.286 N 
ATOM      3  H1  UNL     1      -1.050   2.288   0.299  1.00  0.00     0.188 HD
HETATM    4  N2  UNL     1      -0.385   0.366   0.126  1.00  0.00    -0.250 N 
HETATM    5  C13 UNL     1       0.693  -0.439   0.004  1.00  0.00     0.131 A 
HETATM    6  C14 UNL     1       1.975   0.094  -0.037  1.00  0.00     0.053 A 
HETATM    7  C15 UNL     1       3.230  -0.654  -0.166  1.00  0.00     0.266 C 
HETATM    8 BR1  UNL     1       4.679   0.624   0.339  1.00  0.00    -0.027 Br
HETATM    9  C18 UNL     1       2.059   1.483   0.053  1.00  0.00     0.077 A 
HETATM   10 CL2  UNL     1       3.626   2.304   0.007  1.00  0.00    -0.106 Cl
ENDROOT
BRANCH   4  11
HETATM   11  C5  UNL     1      -1.728  -0.104   0.176  1.00  0.00     0.119 C 
HETATM   12  C6  UNL     1      -2.196  -1.305   0.125  1.00  0.00     0.032 C 
BRANCH  12  13
HETATM   13  C7  UNL     1      -3.646  -1.560   0.196  1.00  0.00    -0.013 A 
HETATM   14  C8  UNL     1      -4.556  -0.557   0.317  1.00  0.00     0.013 A 
HETATM   15  C9  UNL     1      -5.936  -0.851   0.381  1.00  0.00     0.001 A 
HETATM   16  C10 UNL     1      -6.370  -2.136   0.322  1.00  0.00     0.002 A 
HETATM   17  C11 UNL     1      -5.457  -3.138   0.201  1.00  0.00     0.024 A 
HETATM   18  C12 UNL     1      -4.124  -2.863   0.139  1.00  0.00     0.044 A 
HETATM   19 CL1  UNL     1      -2.980  -4.179  -0.017  1.00  0.00    -0.083 Cl
ENDBRANCH  12  13
ENDBRANCH   4  11
BRANCH   5  20
HETATM   20  N3  UNL     1       0.566  -1.674  -0.084  1.00  0.00    -0.383 N 
ATOM     21  H32 UNL     1      -0.375  -2.065  -0.054  1.00  0.00     0.157 HD
ATOM     22  H31 UNL     1       1.380  -2.282  -0.176  1.00  0.00     0.157 HD
ENDBRANCH   5  20
BRANCH   1  23
HETATM   23  C3  UNL     1       1.098   3.772   0.269  1.00  0.00     0.313 C 
HETATM   24  O2  UNL     1       2.252   4.262   0.232  1.00  0.00    -0.257 OA
BRANCH  23  25
HETATM   25  O1  UNL     1       0.017   4.604   0.392  1.00  0.00    -0.317 OA
BRANCH  25  26
HETATM   26  C2  UNL     1       0.245   6.006   0.474  1.00  0.00     0.175 C 
HETATM   27  C1  UNL     1      -1.028   6.773   0.605  1.00  0.00     0.034 C 
ENDBRANCH  25  26
ENDBRANCH  23  25
ENDBRANCH   1  23
BRANCH   7  28
HETATM   28  O3  UNL     1       3.401  -1.786   0.610  1.00  0.00    -0.258 OA
BRANCH  28  29
HETATM   29  N4  UNL     1       4.147  -2.837   0.246  1.00  0.00    -0.256 N 
HETATM   30  C16 UNL     1       4.220  -3.514  -0.804  1.00  0.00     0.109 C 
HETATM   31  C17 UNL     1       5.222  -4.651  -0.808  1.00  0.00     0.087 C 
HETATM   32  N5  UNL     1       3.456  -3.318  -1.987  1.00  0.00    -0.086 NA
ATOM     33  H4  UNL     1       4.788  -3.150   0.975  1.00  0.00     0.195 HD
ENDBRANCH  28  29
ENDBRANCH   7  28
TORSDOF 8
