REMARK  6 active torsions:
REMARK  status: ('A' for Active; 'I' for Inactive)
REMARK    1  A    between atoms: O1_2  and  C2_3 
REMARK    2  A    between atoms: C5_6  and  C6_7 
REMARK    3  A    between atoms: C6_7  and  N1_8 
REMARK       I    between atoms: N1_8  and  C7_10 
REMARK       I    between atoms: C7_10  and  N3_14 
REMARK    4  A    between atoms: N3_14  and  C8_16 
REMARK    5  A    between atoms: C8_16  and  C10_18 
REMARK    6  A    between atoms: C10_18  and  N4_19 
ROOT
HETATM    1  N1  UNL     1       0.592  -0.238   0.971  1.00  0.00    -0.223 N 
ATOM      2  H1  UNL     1       0.238   0.632   1.369  1.00  0.00     0.178 HD
HETATM    3  C7  UNL     1       1.967  -0.565   1.077  1.00  0.00     0.668 C 
HETATM    4  N2  UNL     1       2.359  -1.750   1.480  1.00  0.00    -0.235 N 
ATOM      5  H21 UNL     1       3.349  -1.985   1.556  1.00  0.00     0.174 HD
ATOM      6  H22 UNL     1       1.610  -2.404   1.707  1.00  0.00     0.174 HD
HETATM    7  N3  UNL     1       3.009   0.344   0.762  1.00  0.00    -0.221 N 
ATOM      8  H3  UNL     1       3.584   0.744   1.503  1.00  0.00     0.178 HD
ENDROOT
BRANCH   1   9
HETATM    9  C6  UNL     1      -0.289  -1.131   0.307  1.00  0.00     0.176 C 
BRANCH   9  10
HETATM   10  C5  UNL     1      -1.692  -0.738   0.230  1.00  0.00    -0.040 A 
HETATM   11  C4  UNL     1      -2.544  -1.635  -0.430  1.00  0.00     0.011 A 
HETATM   12  C3  UNL     1      -3.890  -1.404  -0.582  1.00  0.00     0.037 A 
HETATM   13  C2  UNL     1      -4.456  -0.248  -0.074  1.00  0.00     0.068 A 
HETATM   14  C12 UNL     1      -3.645   0.653   0.579  1.00  0.00     0.037 A 
HETATM   15  C11 UNL     1      -2.277   0.387   0.717  1.00  0.00     0.011 A 
BRANCH  13  16
HETATM   16  O1  UNL     1      -5.814  -0.055  -0.250  1.00  0.00    -0.356 OA
HETATM   17  C1  UNL     1      -6.518   1.064   0.210  1.00  0.00     0.210 C 
ENDBRANCH  13  16
ENDBRANCH   9  10
ENDBRANCH   1   9
BRANCH   7  18
HETATM   18  C8  UNL     1       3.250   0.699  -0.621  1.00  0.00     0.120 C 
HETATM   19  C9  UNL     1       3.597  -0.474  -1.483  1.00  0.00     0.034 C 
BRANCH  18  20
HETATM   20  C10 UNL     1       4.332   1.741  -0.755  1.00  0.00     0.254 C 
BRANCH  20  21
HETATM   21  N4  UNL     1       5.581   1.297  -0.220  1.00  0.00    -0.077 N 
ATOM     22  H43 UNL     1       5.480   0.993   0.748  1.00  0.00     0.274 HD
ATOM     23  H42 UNL     1       5.868   0.412  -0.639  1.00  0.00     0.274 HD
ATOM     24  H41 UNL     1       6.313   2.002  -0.311  1.00  0.00     0.274 HD
ENDBRANCH  20  21
ENDBRANCH  18  20
ENDBRANCH   7  18
TORSDOF 6
