REMARK  8 active torsions:
REMARK  status: ('A' for Active; 'I' for Inactive)
REMARK    1  A    between atoms: C2_2  and  C3_3 
REMARK    2  A    between atoms: C3_3  and  C4_4 
REMARK    3  A    between atoms: C3_3  and  N1_6 
REMARK    4  A    between atoms: C7_11  and  N3_12 
REMARK    5  A    between atoms: N3_12  and  C8_14 
REMARK    6  A    between atoms: C8_14  and  S1_15 
REMARK    7  A    between atoms: S1_15  and  C9_16 
REMARK    8  A    between atoms: C12_22  and  N5_23 
ROOT
HETATM    1  N1  UNL     1      -0.750   0.405   0.085  1.00  0.00    -0.270 N 
HETATM    2  N2  UNL     1      -0.203   1.586  -0.245  1.00  0.00    -0.284 N 
ATOM      3  H2  UNL     1      -0.793   2.275  -0.712  1.00  0.00     0.188 HD
HETATM    4  C6  UNL     1       1.070   1.913   0.002  1.00  0.00     0.147 A 
HETATM    5 CL1  UNL     1       1.620   3.518  -0.506  1.00  0.00    -0.060 Cl
HETATM    6  C7  UNL     1       1.915   1.027   0.629  1.00  0.00     0.104 A 
HETATM    7  C10 UNL     1       1.392  -0.193   0.983  1.00  0.00     0.120 A 
HETATM    8  C11 UNL     1       2.221  -1.150   1.635  1.00  0.00     0.106 C 
HETATM    9  N4  UNL     1       2.908  -1.924   2.152  1.00  0.00    -0.191 NA
HETATM   10  C12 UNL     1       0.065  -0.472   0.699  1.00  0.00     0.139 A 
ENDROOT
BRANCH   6  11
HETATM   11  N3  UNL     1       3.252   1.435   0.861  1.00  0.00    -0.312 N 
ATOM     12  H3  UNL     1       3.600   1.656   1.794  1.00  0.00     0.176 HD
BRANCH  11  13
HETATM   13  C8  UNL     1       4.001   1.508  -0.191  1.00  0.00     0.015 C 
BRANCH  13  14
HETATM   14  S1  UNL     1       5.039   1.180  -1.425  1.00  0.00     0.033 SA
BRANCH  14  15
HETATM   15  C9  UNL     1       5.539  -0.403  -1.288  1.00  0.00     0.317 C 
HETATM   16  F1  UNL     1       4.802  -1.303  -1.884  1.00  0.00    -0.164 F 
HETATM   17  F2  UNL     1       6.604  -0.612  -0.557  1.00  0.00    -0.164 F 
ENDBRANCH  14  15
ENDBRANCH  13  14
ENDBRANCH  11  13
ENDBRANCH   6  11
BRANCH  10  18
HETATM   18  N5  UNL     1      -0.387  -1.630   1.049  1.00  0.00    -0.383 N 
ATOM     19  H52 UNL     1      -1.364  -1.835   0.840  1.00  0.00     0.157 HD
ATOM     20  H51 UNL     1       0.231  -2.295   1.514  1.00  0.00     0.157 HD
ENDBRANCH  10  18
BRANCH   1  21
HETATM   21  C3  UNL     1      -2.138   0.122  -0.215  1.00  0.00     0.109 C 
BRANCH  21  22
HETATM   22  C2  UNL     1      -2.333  -0.998  -1.192  1.00  0.00     0.023 C 
HETATM   23  C1  UNL     1      -1.506  -0.835  -2.436  1.00  0.00     0.007 C 
ENDBRANCH  21  22
BRANCH  21  24
HETATM   24  C4  UNL     1      -2.991  -0.106   1.001  1.00  0.00     0.023 C 
HETATM   25  C5  UNL     1      -2.833   0.997   2.024  1.00  0.00     0.007 C 
ENDBRANCH  21  24
ENDBRANCH   1  21
TORSDOF 8
