REMARK  2 active torsions:
REMARK  status: ('A' for Active; 'I' for Inactive)
REMARK    1  A    between atoms: C8_8  and  O1_9 
REMARK    2  A    between atoms: C13_18  and  O2_19 
ROOT
HETATM    1  C1  UNL     1      -2.319  -1.181   2.150  1.00  0.00     0.022 C 
HETATM    2  C2  UNL     1      -1.968  -0.201   1.338  1.00  0.00    -0.031 C 
HETATM    3  C3  UNL     1      -0.714  -0.258   0.581  1.00  0.00    -0.037 C 
HETATM    4  C4  UNL     1      -0.701   0.376  -0.584  1.00  0.00    -0.013 C 
HETATM    5  C5  UNL     1      -1.820   1.116  -1.164  1.00  0.00     0.053 C 
HETATM    6  C6  UNL     1      -2.959   1.412  -0.270  1.00  0.00     0.019 C 
HETATM    7  C7  UNL     1      -3.257   2.916  -0.336  1.00  0.00     0.013 C 
HETATM    8  C8  UNL     1      -2.817   0.999   1.149  1.00  0.00     0.155 C 
HETATM    9  S1  UNL     1       0.830   0.305  -1.509  1.00  0.00    -0.109 SA
HETATM   10  C9  UNL     1       1.663  -1.245  -1.080  1.00  0.00     0.098 C 
HETATM   11  C10 UNL     1       1.034  -1.942   0.076  1.00  0.00     0.040 C 
HETATM   12  C11 UNL     1       0.451  -0.985   1.106  1.00  0.00     0.042 C 
HETATM   13  S2  UNL     1       1.548  -2.317  -2.576  1.00  0.00    -0.073 SA
HETATM   14  S3  UNL     1       3.523  -3.153  -2.294  1.00  0.00    -0.093 SA
HETATM   15  C12 UNL     1       3.894  -2.217  -0.751  1.00  0.00     0.120 C 
HETATM   16  C13 UNL     1       3.119  -0.948  -0.904  1.00  0.00     0.161 C 
ENDROOT
BRANCH  16  17
HETATM   17  O2  UNL     1       3.268  -0.038   0.075  1.00  0.00    -0.387 OA
HETATM   18  C14 UNL     1       3.772   1.188  -0.260  1.00  0.00     0.202 C 
ENDBRANCH  16  17
BRANCH   8  19
HETATM   19  O1  UNL     1      -4.047   0.749   1.770  1.00  0.00    -0.391 OA
ATOM     20  H1  UNL     1      -4.591   1.518   1.649  1.00  0.00     0.210 HD
ENDBRANCH   8  19
TORSDOF 2
