REMARK  3 active torsions:
REMARK  status: ('A' for Active; 'I' for Inactive)
REMARK    1  A    between atoms: C2_2  and  N1_3 
REMARK    2  A    between atoms: N1_3  and  C4_5 
REMARK    3  A    between atoms: C7_8  and  N2_9 
ROOT
HETATM    1  C4  UNL     1      -0.030  -0.061   0.417  1.00  0.00     0.085 C 
HETATM    2  C5  UNL     1       0.787  -1.283   0.189  1.00  0.00     0.027 C 
HETATM    3  C6  UNL     1       1.895  -0.885  -0.797  1.00  0.00     0.029 C 
HETATM    4  C7  UNL     1       2.115   0.572  -0.458  1.00  0.00     0.100 C 
HETATM    5  C8  UNL     1       0.696   1.067  -0.278  1.00  0.00     0.051 C 
ENDROOT
BRANCH   4   6
HETATM    6  N2  UNL     1       2.841   0.701   0.770  1.00  0.00    -0.338 N 
HETATM    7  N3  UNL     1       2.847   1.775   1.407  1.00  0.00    -0.349 N 
ATOM      8  H32 UNL     1       2.321   2.564   1.033  1.00  0.00     0.176 HD
ATOM      9  H31 UNL     1       3.364   1.867   2.281  1.00  0.00     0.176 HD
ATOM     10  H2  UNL     1       3.362  -0.098   1.130  1.00  0.00     0.180 HD
ENDBRANCH   4   6
BRANCH   1  11
HETATM   11  N1  UNL     1      -1.363  -0.116  -0.091  1.00  0.00    -0.390 N 
HETATM   12  C3  UNL     1      -1.947  -1.237  -0.784  1.00  0.00     0.149 C 
BRANCH  11  13
HETATM   13  C2  UNL     1      -2.168   1.030   0.109  1.00  0.00     0.075 C 
HETATM   14  C1  UNL     1      -3.063   1.022   1.074  1.00  0.00     0.029 C 
ENDBRANCH  11  13
ENDBRANCH   1  11
TORSDOF 3
