REMARK  4 active torsions:
REMARK  status: ('A' for Active; 'I' for Inactive)
REMARK    1  A    between atoms: N1_1  and  C1_4 
REMARK    2  A    between atoms: C6_16  and  N5_17 
REMARK    3  A    between atoms: N6_19  and  C7_21 
REMARK    4  A    between atoms: C10_24  and  O2_25 
ROOT
HETATM    1  C1  UNL     1      -4.876  -0.815   0.581  1.00  0.00     0.680 A 
HETATM    2  N2  UNL     1      -3.560  -1.114   0.530  1.00  0.00    -0.175 N 
ATOM      3  H2  UNL     1      -3.222  -1.982   0.946  1.00  0.00     0.186 HD
HETATM    4  C2  UNL     1      -2.678  -0.265  -0.074  1.00  0.00     0.151 A 
HETATM    5  C3  UNL     1      -3.123   0.910  -0.640  1.00  0.00     0.146 A 
HETATM    6  C4  UNL     1      -4.469   1.204  -0.581  1.00  0.00     0.290 A 
HETATM    7  O1  UNL     1      -4.845   2.277  -1.103  1.00  0.00    -0.265 OA
HETATM    8  N3  UNL     1      -5.281   0.334   0.022  1.00  0.00    -0.154 N 
ATOM      9  H3  UNL     1      -6.275   0.558   0.060  1.00  0.00     0.187 HD
HETATM   10  N4  UNL     1      -2.160   1.753  -1.254  1.00  0.00    -0.358 N 
ATOM     11  H4  UNL     1      -2.483   2.624  -1.675  1.00  0.00     0.165 HD
HETATM   12  C5  UNL     1      -0.916   1.484  -1.309  1.00  0.00     0.109 A 
HETATM   13  C6  UNL     1      -0.346   0.266  -0.740  1.00  0.00     0.238 A 
HETATM   14  N7  UNL     1      -1.310  -0.579  -0.125  1.00  0.00    -0.347 N 
ATOM     15  H7  UNL     1      -0.994  -1.452   0.298  1.00  0.00     0.163 HD
ENDROOT
BRANCH  13  16
HETATM   16  N5  UNL     1       0.374  -0.400  -1.814  1.00  0.00    -0.308 N 
HETATM   17  N6  UNL     1       1.594  -0.601  -1.850  1.00  0.00    -0.303 N 
ATOM     18  H6  UNL     1       1.940  -1.084  -2.679  1.00  0.00     0.186 HD
ATOM     19  H5  UNL     1      -0.175  -0.730  -2.607  1.00  0.00     0.183 HD
BRANCH  17  20
HETATM   20  C7  UNL     1       2.560  -0.253  -0.903  1.00  0.00     0.049 A 
HETATM   21  C8  UNL     1       2.900   1.055  -0.631  1.00  0.00     0.034 A 
HETATM   22  C9  UNL     1       3.857   1.368   0.309  1.00  0.00     0.040 A 
HETATM   23  C10 UNL     1       4.498   0.364   1.000  1.00  0.00     0.083 A 
HETATM   24  C11 UNL     1       4.173  -0.942   0.743  1.00  0.00     0.047 A 
HETATM   25  S1  UNL     1       5.002  -2.248   1.637  1.00  0.00    -0.050 SA
HETATM   26  C12 UNL     1       3.209  -1.249  -0.204  1.00  0.00     0.053 A 
BRANCH  23  27
HETATM   27  O2  UNL     1       5.478   0.622   1.965  1.00  0.00    -0.359 OA
ATOM     28  H2  UNL     1       5.920  -0.071   2.442  1.00  0.00     0.217 HD
ENDBRANCH  23  27
ENDBRANCH  17  20
ENDBRANCH  13  16
BRANCH   1  29
HETATM   29  N1  UNL     1      -5.723  -1.606   1.147  1.00  0.00    -0.234 N 
ATOM     30  H12 UNL     1      -5.415  -2.480   1.572  1.00  0.00     0.174 HD
ATOM     31  H11 UNL     1      -6.717  -1.380   1.186  1.00  0.00     0.174 HD
ENDBRANCH   1  29
TORSDOF 4
