REMARK  2 active torsions:
REMARK  status: ('A' for Active; 'I' for Inactive)
REMARK    1  A    between atoms: C8_10  and  C9_11 
REMARK    2  A    between atoms: C12_20  and  O1_21 
ROOT
HETATM    1  C1  UNL     1      -1.916  -1.639   1.716  1.00  0.00     0.039 C 
HETATM    2  C2  UNL     1      -1.701  -0.136   1.434  1.00  0.00     0.128 A 
HETATM    3  N1  UNL     1      -0.393  -0.033   0.879  1.00  0.00    -0.379 N 
ATOM      4  H1  UNL     1       0.399  -0.310   1.458  1.00  0.00     0.160 HD
HETATM    5  C3  UNL     1      -0.133   0.431  -0.427  1.00  0.00     0.052 A 
HETATM    6  C4  UNL     1      -1.204   0.795  -1.243  1.00  0.00     0.004 A 
HETATM    7  C5  UNL     1      -0.990   1.239  -2.524  1.00  0.00     0.014 A 
HETATM    8  C6  UNL     1       0.315   1.310  -2.972  1.00  0.00     0.002 A 
HETATM    9  C7  UNL     1       1.370   0.951  -2.165  1.00  0.00     0.016 A 
HETATM   10  C8  UNL     1       1.177   0.496  -0.854  1.00  0.00     0.021 A 
HETATM   11  C13 UNL     1      -2.569   0.700  -0.751  1.00  0.00     0.004 A 
HETATM   12  C14 UNL     1      -3.793   0.972  -1.313  1.00  0.00     0.059 A 
HETATM   13  C15 UNL     1      -4.779   0.687  -0.373  1.00  0.00     0.117 A 
HETATM   14  N6  UNL     1      -6.183   0.812  -0.500  1.00  0.00    -0.083 NA
HETATM   15  N7  UNL     1      -4.126   0.257   0.710  1.00  0.00    -0.346 N 
ATOM     16  H7  UNL     1      -4.578  -0.033   1.577  1.00  0.00     0.167 HD
HETATM   17  C16 UNL     1      -2.777   0.255   0.508  1.00  0.00     0.044 A 
ENDROOT
BRANCH  10  18
HETATM   18  C9  UNL     1       2.341   0.162  -0.044  1.00  0.00     0.084 A 
HETATM   19  N2  UNL     1       2.666   0.755   1.115  1.00  0.00    -0.327 N 
HETATM   20  C10 UNL     1       3.717   0.463   1.866  1.00  0.00     0.194 A 
ATOM     21  H2  UNL     1       2.049   1.496   1.447  1.00  0.00     0.168 HD
HETATM   22  N3  UNL     1       4.023   1.128   3.092  1.00  0.00    -0.063 NA
HETATM   23  N4  UNL     1       4.583  -0.519   1.480  1.00  0.00    -0.317 N 
HETATM   24  C11 UNL     1       4.324  -1.164   0.324  1.00  0.00     0.154 A 
ATOM     25  H4  UNL     1       5.398  -0.757   2.046  1.00  0.00     0.169 HD
HETATM   26  N5  UNL     1       5.205  -2.192  -0.107  1.00  0.00    -0.080 NA
HETATM   27  C12 UNL     1       3.220  -0.849  -0.454  1.00  0.00     0.135 A 
BRANCH  27  28
HETATM   28  O1  UNL     1       2.933  -1.495  -1.641  1.00  0.00    -0.356 OA
ATOM     29  H1  UNL     1       3.529  -2.181  -1.919  1.00  0.00     0.218 HD
ENDBRANCH  27  28
ENDBRANCH  10  18
TORSDOF 2
