REMARK  10 active torsions:
REMARK  status: ('A' for Active; 'I' for Inactive)
REMARK    1  A    between atoms: O1_2  and  C2_3 
REMARK    2  A    between atoms: C2_3  and  C3_5 
REMARK    3  A    between atoms: C3_5  and  C4_6 
REMARK    4  A    between atoms: C8_10  and  O3_11 
REMARK    5  A    between atoms: O3_11  and  C9_12 
REMARK    6  A    between atoms: C9_12  and  C10_14 
REMARK    7  A    between atoms: C10_14  and  O5_17 
REMARK    8  A    between atoms: C16_22  and  C17_23 
REMARK    9  A    between atoms: C17_23  and  C19_25 
REMARK   10  A    between atoms: C24_30  and  O6_32 
ROOT
HETATM    1  C4  UNL     1      -0.841   1.306  -0.809  1.00  0.00    -0.030 C 
HETATM    2  C5  UNL     1      -1.007   2.009   0.493  1.00  0.00     0.016 C 
HETATM    3  C6  UNL     1       0.345   1.989  -1.515  1.00  0.00     0.012 C 
HETATM    4  C7  UNL     1       1.687   1.559  -1.186  1.00  0.00     0.034 C 
HETATM    5  C8  UNL     1       1.675   0.446  -0.147  1.00  0.00     0.143 C 
HETATM    6  C13 UNL     1       0.776  -0.606  -0.679  1.00  0.00     0.018 C 
HETATM    7  C14 UNL     1       1.332  -0.858  -2.114  1.00  0.00     0.021 C 
HETATM    8  C15 UNL     1      -0.700  -0.157  -0.807  1.00  0.00     0.012 C 
HETATM    9  C16 UNL     1      -1.575  -1.128  -0.189  1.00  0.00    -0.005 C 
HETATM   10  C22 UNL     1      -1.192  -2.491  -0.858  1.00  0.00     0.008 C 
HETATM   11  C23 UNL     1       0.109  -3.004  -0.388  1.00  0.00     0.038 C 
HETATM   12  C24 UNL     1       1.020  -1.876   0.017  1.00  0.00     0.064 C 
HETATM   13  C25 UNL     1       1.183  -1.894   1.489  1.00  0.00     0.047 C 
ENDROOT
BRANCH   5  14
HETATM   14  O3  UNL     1       2.991  -0.016   0.070  1.00  0.00    -0.313 OA
BRANCH  14  15
HETATM   15  C9  UNL     1       3.751   0.288   1.159  1.00  0.00     0.293 C 
HETATM   16  O4  UNL     1       3.209   1.016   1.998  1.00  0.00    -0.262 OA
BRANCH  15  17
HETATM   17  C10 UNL     1       5.123  -0.188   1.357  1.00  0.00     0.138 C 
HETATM   18  C11 UNL     1       5.162  -1.667   1.529  1.00  0.00     0.056 C 
HETATM   19  C12 UNL     1       6.046   0.224   0.221  1.00  0.00     0.056 C 
BRANCH  17  20
HETATM   20  O5  UNL     1       5.632   0.369   2.539  1.00  0.00    -0.380 OA
ATOM     21  H5  UNL     1       6.521   0.060   2.667  1.00  0.00     0.211 HD
ENDBRANCH  17  20
ENDBRANCH  15  17
ENDBRANCH  14  15
ENDBRANCH   5  14
BRANCH  12  22
HETATM   22  O6  UNL     1       2.282  -2.359  -0.467  1.00  0.00    -0.389 OA
ATOM     23  H6  UNL     1       2.440  -3.181  -0.017  1.00  0.00     0.210 HD
ENDBRANCH  12  22
BRANCH   1  24
HETATM   24  C3  UNL     1      -1.947   1.825  -1.740  1.00  0.00     0.120 C 
BRANCH  24  25
HETATM   25  C2  UNL     1      -1.873   3.291  -1.971  1.00  0.00     0.259 C 
HETATM   26  O2  UNL     1      -1.317   3.840  -2.959  1.00  0.00    -0.265 OA
BRANCH  25  27
HETATM   27  O1  UNL     1      -2.448   4.182  -1.054  1.00  0.00    -0.326 OA
HETATM   28  C1  UNL     1      -2.399   5.585  -1.237  1.00  0.00     0.213 C 
ENDBRANCH  25  27
ENDBRANCH  24  25
ENDBRANCH   1  24
BRANCH   9  29
HETATM   29  C17 UNL     1      -3.024  -1.199  -0.113  1.00  0.00    -0.011 C 
HETATM   30  C18 UNL     1      -3.460  -2.535   0.606  1.00  0.00     0.011 C 
BRANCH  29  31
HETATM   31  C19 UNL     1      -3.744  -0.240   0.853  1.00  0.00    -0.019 C 
HETATM   32  C20 UNL     1      -5.265  -0.529   0.741  1.00  0.00     0.010 C 
HETATM   33  C21 UNL     1      -3.346  -0.479   2.286  1.00  0.00     0.010 C 
ENDBRANCH  29  31
ENDBRANCH   9  29
TORSDOF 10
