REMARK  8 active torsions:
REMARK  status: ('A' for Active; 'I' for Inactive)
REMARK    1  A    between atoms: C7_7  and  C8_8 
REMARK    2  A    between atoms: C8_8  and  O1_9 
REMARK    3  A    between atoms: N1_17  and  C15_18 
REMARK    4  A    between atoms: C15_18  and  C16_19 
REMARK    5  A    between atoms: N2_27  and  C23_28 
REMARK    6  A    between atoms: C23_28  and  C24_29 
REMARK    7  A    between atoms: C24_29  and  C25_30 
REMARK    8  A    between atoms: C25_30  and  N3_31 
ROOT
HETATM    1  C1  UNL     1      -6.518  -3.539   0.340  1.00  0.00     0.077 C 
HETATM    2  C2  UNL     1      -5.424  -2.537   0.232  1.00  0.00     0.052 A 
HETATM    3  C3  UNL     1      -5.457  -1.410  -0.555  1.00  0.00     0.065 A 
HETATM    4  C4  UNL     1      -4.254  -0.737  -0.380  1.00  0.00     0.073 A 
HETATM    5  C5  UNL     1      -3.541  -1.497   0.511  1.00  0.00     0.103 A 
HETATM    6  C6  UNL     1      -2.281  -1.081   0.883  1.00  0.00     0.055 A 
HETATM    7  C7  UNL     1      -1.745   0.083   0.361  1.00  0.00     0.047 A 
HETATM    8  C22 UNL     1      -2.522   0.780  -0.522  1.00  0.00     0.257 A 
HETATM    9  O2  UNL     1      -2.054   1.858  -1.018  1.00  0.00    -0.267 OA
HETATM   10  N2  UNL     1      -3.774   0.393  -0.907  1.00  0.00    -0.311 N 
HETATM   11  O3  UNL     1      -4.261  -2.545   0.849  1.00  0.00    -0.313 OA
ENDROOT
BRANCH   7  12
HETATM   12  C8  UNL     1      -0.368   0.559   0.746  1.00  0.00     0.094 C 
HETATM   13  C9  UNL     1       0.484   0.578  -0.470  1.00  0.00     0.079 C 
HETATM   14  C10 UNL     1       1.996   0.624  -0.147  1.00  0.00     0.226 C 
HETATM   15  C11 UNL     1       2.197   1.881   0.695  1.00  0.00     0.038 C 
HETATM   16  N1  UNL     1       2.321  -0.462   0.681  1.00  0.00     0.098 N 
HETATM   17  C12 UNL     1       2.050   1.377   2.103  1.00  0.00     0.038 C 
HETATM   18  C13 UNL     1       1.696  -0.063   1.958  1.00  0.00     0.226 C 
HETATM   19  C14 UNL     1       0.236  -0.361   1.799  1.00  0.00     0.079 C 
BRANCH  12  20
HETATM   20  O1  UNL     1      -0.583   1.821   1.313  1.00  0.00    -0.385 OA
ATOM     21  H1  UNL     1       0.285   2.121   1.556  1.00  0.00     0.211 HD
ENDBRANCH  12  20
BRANCH  16  22
HETATM   22  C15 UNL     1       3.650  -0.807   0.958  1.00  0.00     0.278 C 
BRANCH  22  23
HETATM   23  C16 UNL     1       4.499  -1.392  -0.115  1.00  0.00     0.014 C 
HETATM   24  C17 UNL     1       5.890  -1.691   0.496  1.00  0.00     0.006 C 
HETATM   25  C18 UNL     1       6.729  -0.441   0.406  1.00  0.00     0.000 C 
HETATM   26  C19 UNL     1       7.142  -0.128  -1.020  1.00  0.00     0.000 C 
HETATM   27  C20 UNL     1       6.131  -0.836  -1.928  1.00  0.00     0.000 C 
HETATM   28  C21 UNL     1       4.766  -0.551  -1.305  1.00  0.00     0.006 C 
ENDBRANCH  22  23
ENDBRANCH  16  22
ENDBRANCH   7  12
BRANCH  10  29
HETATM   29  C23 UNL     1      -4.496   1.234  -1.801  1.00  0.00     0.134 C 
BRANCH  29  30
HETATM   30  C24 UNL     1      -5.149   2.449  -1.288  1.00  0.00     0.047 C 
BRANCH  30  31
HETATM   31  C25 UNL     1      -6.127   2.300  -0.196  1.00  0.00     0.231 C 
BRANCH  31  32
HETATM   32  N3  UNL     1      -5.604   1.806   1.058  1.00  0.00    -0.079 N 
ATOM     33  H33 UNL     1      -5.117   0.923   0.906  1.00  0.00     0.274 HD
ATOM     34  H32 UNL     1      -4.828   2.393   1.365  1.00  0.00     0.274 HD
ATOM     35  H31 UNL     1      -6.281   1.703   1.814  1.00  0.00     0.274 HD
ENDBRANCH  31  32
ENDBRANCH  30  31
ENDBRANCH  29  30
ENDBRANCH  10  29
TORSDOF 8
