REMARK  7 active torsions:
REMARK  status: ('A' for Active; 'I' for Inactive)
REMARK    1  A    between atoms: N1_2  and  C2_3 
REMARK    2  A    between atoms: N1_2  and  C11_28 
REMARK    3  A    between atoms: C5_6  and  C6_7 
REMARK    4  A    between atoms: C6_7  and  N2_8 
REMARK    5  A    between atoms: C6_7  and  N3_11 
REMARK    6  A    between atoms: N3_11  and  N4_13 
REMARK    7  A    between atoms: C15_38  and  N12_39 
ROOT
HETATM    1  C2  UNL     1      -1.637  -1.347  -0.345  1.00  0.00     0.150 A 
HETATM    2  C3  UNL     1      -1.231  -1.761  -1.586  1.00  0.00     0.059 A 
HETATM    3  C4  UNL     1       0.137  -1.505  -1.653  1.00  0.00     0.045 A 
HETATM    4  C5  UNL     1       0.498  -0.947  -0.453  1.00  0.00     0.122 A 
HETATM    5  O2  UNL     1      -0.587  -0.878   0.279  1.00  0.00    -0.290 OA
ENDROOT
BRANCH   4   6
HETATM    6  C6  UNL     1       1.788  -0.485   0.033  1.00  0.00     0.149 C 
BRANCH   6   7
HETATM    7  N2  UNL     1       1.903   0.051   1.219  1.00  0.00    -0.382 N 
ATOM      8  H22 UNL     1       1.049   0.130   1.771  1.00  0.00     0.157 HD
ATOM      9  H21 UNL     1       2.808   0.375   1.560  1.00  0.00     0.157 HD
ENDBRANCH   6   7
BRANCH   6  10
HETATM   10  N3  UNL     1       2.972  -0.595  -0.732  1.00  0.00    -0.264 N 
ATOM     11  H3  UNL     1       2.927  -0.734  -1.741  1.00  0.00     0.190 HD
BRANCH  10  12
HETATM   12  N4  UNL     1       4.218  -0.509  -0.074  1.00  0.00    -0.188 N 
HETATM   13  C7  UNL     1       4.863  -1.480   0.792  1.00  0.00     0.310 C 
HETATM   14  N5  UNL     1       5.628  -0.628   1.692  1.00  0.00    -0.205 N 
HETATM   15  C8  UNL     1       5.961   0.526   0.934  1.00  0.00     0.708 A 
ATOM     16  H5  UNL     1       5.873  -0.820   2.663  1.00  0.00     0.179 HD
HETATM   17  N6  UNL     1       6.890   1.484   1.066  1.00  0.00    -0.164 N 
HETATM   18  N8  UNL     1       5.106   0.588  -0.127  1.00  0.00    -0.013 N 
HETATM   19  C9  UNL     1       7.007   2.495   0.199  1.00  0.00     0.194 A 
ATOM     20  H6  UNL     1       7.532   1.440   1.858  1.00  0.00     0.186 HD
HETATM   21  S1  UNL     1       8.154   3.634   0.406  1.00  0.00    -0.040 SA
HETATM   22  N7  UNL     1       6.174   2.561  -0.840  1.00  0.00    -0.283 N 
HETATM   23  C10 UNL     1       5.249   1.619  -0.984  1.00  0.00     0.364 A 
ATOM     24  H7  UNL     1       6.246   3.323  -1.514  1.00  0.00     0.173 HD
HETATM   25  O1  UNL     1       4.453   1.668  -1.961  1.00  0.00    -0.244 OA
ENDBRANCH  10  12
ENDBRANCH   6  10
ENDBRANCH   4   6
BRANCH   1  26
HETATM   26  N1  UNL     1      -2.914  -1.368   0.256  1.00  0.00    -0.330 N 
HETATM   27  C1  UNL     1      -2.953  -1.935   1.621  1.00  0.00     0.158 C 
BRANCH  26  28
HETATM   28  C11 UNL     1      -4.114  -0.894  -0.296  1.00  0.00     0.069 A 
HETATM   29  C12 UNL     1      -5.000  -1.592  -1.126  1.00  0.00     0.120 A 
HETATM   30  N9  UNL     1      -6.051  -0.819  -1.395  1.00  0.00    -0.349 N 
HETATM   31  C13 UNL     1      -5.912   0.378  -0.782  1.00  0.00     0.122 A 
ATOM     32  H9  UNL     1      -6.843  -1.090  -1.977  1.00  0.00     0.167 HD
HETATM   33  N10 UNL     1      -6.690   1.481  -0.755  1.00  0.00    -0.338 N 
HETATM   34  C16 UNL     1      -4.697   0.335  -0.093  1.00  0.00     0.080 A 
HETATM   35  C14 UNL     1      -6.328   2.570  -0.072  1.00  0.00     0.183 A 
ATOM     36  H10 UNL     1      -7.572   1.483  -1.267  1.00  0.00     0.168 HD
HETATM   37  N11 UNL     1      -5.178   2.569   0.595  1.00  0.00    -0.338 N 
HETATM   38  C15 UNL     1      -4.339   1.472   0.607  1.00  0.00     0.116 A 
ATOM     39  H11 UNL     1      -4.907   3.404   1.114  1.00  0.00     0.168 HD
BRANCH  38  40
HETATM   40  N12 UNL     1      -3.258   1.557   1.243  1.00  0.00    -0.385 N 
ATOM     41 2H12 UNL     1      -2.994   2.396   1.760  1.00  0.00     0.157 HD
ATOM     42 1H12 UNL     1      -2.638   0.747   1.252  1.00  0.00     0.157 HD
ENDBRANCH  38  40
ENDBRANCH  26  28
ENDBRANCH   1  26
TORSDOF 7
