REMARK  10 active torsions:
REMARK  status: ('A' for Active; 'I' for Inactive)
REMARK    1  A    between atoms: C2_2  and  N1_3 
REMARK    2  A    between atoms: C2_2  and  C3_7 
REMARK    3  A    between atoms: C2_2  and  C6_14 
REMARK    4  A    between atoms: C3_7  and  C4_8 
REMARK    5  A    between atoms: C4_8  and  C5_9 
REMARK    6  A    between atoms: C5_9  and  N2_10 
REMARK    7  A    between atoms: C6_14  and  C7_15 
REMARK    8  A    between atoms: C7_15  and  C8_16 
REMARK    9  A    between atoms: C8_16  and  C9_17 
REMARK       I    between atoms: C9_17  and  N3_19 
REMARK   10  A    between atoms: N4_23  and  N5_24 
ROOT
HETATM    1  C9  UNL     1      -1.996   0.100  -1.698  1.00  0.00     0.226 C 
HETATM    2  O1  UNL     1      -2.798   1.068  -1.819  1.00  0.00    -0.273 OA
HETATM    3  N3  UNL     1      -0.605   0.447  -1.513  1.00  0.00    -0.287 N 
HETATM    4  C10 UNL     1       0.402  -0.603  -1.366  1.00  0.00     0.137 C 
HETATM    5  C11 UNL     1       0.966  -0.612   0.036  1.00  0.00     0.042 C 
HETATM    6  C12 UNL     1       0.929  -1.995   0.600  1.00  0.00     0.143 C 
HETATM    7  N4  UNL     1       2.060  -2.306   1.413  1.00  0.00    -0.333 N 
HETATM    8  C13 UNL     1       2.994  -3.232   0.856  1.00  0.00     0.169 C 
HETATM    9  C14 UNL     1       4.181  -2.595   0.188  1.00  0.00     0.253 C 
HETATM   10  N6  UNL     1       5.182  -2.255   1.208  1.00  0.00    -0.072 N 
ATOM     11  H61 UNL     1       5.412  -3.037   1.821  1.00  0.00     0.277 HD
ATOM     12  H62 UNL     1       4.824  -1.627   1.928  1.00  0.00     0.277 HD
HETATM   13  C15 UNL     1       6.326  -1.725   0.512  1.00  0.00     0.259 C 
HETATM   14  C16 UNL     1       6.035  -0.382  -0.116  1.00  0.00     0.259 C 
HETATM   15  N7  UNL     1       6.954   0.650   0.362  1.00  0.00    -0.072 N 
ATOM     16  H71 UNL     1       7.614   0.940  -0.360  1.00  0.00     0.277 HD
ATOM     17  H72 UNL     1       7.625   0.283   1.037  1.00  0.00     0.277 HD
HETATM   18  C17 UNL     1       6.193   1.782   0.900  1.00  0.00     0.259 C 
HETATM   19  C18 UNL     1       5.679   2.620  -0.230  1.00  0.00     0.259 C 
HETATM   20  N8  UNL     1       4.210   2.675  -0.245  1.00  0.00    -0.072 N 
ATOM     21  H81 UNL     1       3.814   2.632   0.694  1.00  0.00     0.277 HD
ATOM     22  H82 UNL     1       3.797   1.820  -0.618  1.00  0.00     0.277 HD
HETATM   23  C19 UNL     1       3.778   3.841  -0.961  1.00  0.00     0.259 C 
HETATM   24  C20 UNL     1       2.335   4.159  -0.654  1.00  0.00     0.260 C 
HETATM   25  N9  UNL     1       1.617   2.935  -0.367  1.00  0.00    -0.065 N 
ATOM     26  H91 UNL     1       0.833   3.103   0.264  1.00  0.00     0.277 HD
ATOM     27  H92 UNL     1       2.167   2.311   0.224  1.00  0.00     0.277 HD
HETATM   28  C21 UNL     1       1.188   2.273  -1.573  1.00  0.00     0.335 C 
HETATM   29  C22 UNL     1      -0.230   1.793  -1.476  1.00  0.00     0.252 C 
HETATM   30  O2  UNL     1      -1.116   2.704  -1.352  1.00  0.00    -0.271 OA
ENDROOT
BRANCH   1  31
HETATM   31  C8  UNL     1      -2.404  -1.321  -1.737  1.00  0.00     0.103 C 
BRANCH  31  32
HETATM   32  C7  UNL     1      -3.878  -1.557  -1.732  1.00  0.00     0.012 C 
BRANCH  32  33
HETATM   33  C6  UNL     1      -4.566  -1.045  -0.456  1.00  0.00     0.038 C 
BRANCH  33  34
HETATM   34  C2  UNL     1      -6.034  -1.311  -0.511  1.00  0.00     0.120 C 
HETATM   35  C1  UNL     1      -6.730  -0.650  -1.657  1.00  0.00     0.046 C 
BRANCH  34  36
HETATM   36  N1  UNL     1      -6.082  -2.781  -0.895  1.00  0.00    -0.071 N 
ATOM     37  H13 UNL     1      -7.015  -3.141  -1.094  1.00  0.00     0.275 HD
ATOM     38  H12 UNL     1      -5.693  -2.996  -1.813  1.00  0.00     0.275 HD
ATOM     39  H11 UNL     1      -5.607  -3.232  -0.113  1.00  0.00     0.275 HD
ENDBRANCH  34  36
BRANCH  34  40
HETATM   40  C3  UNL     1      -6.713  -1.270   0.794  1.00  0.00     0.040 C 
BRANCH  40  41
HETATM   41  C4  UNL     1      -7.066   0.011   1.417  1.00  0.00     0.030 C 
BRANCH  41  42
HETATM   42  C5  UNL     1      -5.987   0.984   1.721  1.00  0.00     0.230 C 
BRANCH  42  43
HETATM   43  N2  UNL     1      -6.558   2.182   2.388  1.00  0.00    -0.079 N 
ATOM     44  H23 UNL     1      -7.310   2.603   1.841  1.00  0.00     0.274 HD
ATOM     45  H22 UNL     1      -7.097   1.937   3.218  1.00  0.00     0.274 HD
ATOM     46  H21 UNL     1      -5.817   2.851   2.597  1.00  0.00     0.274 HD
ENDBRANCH  42  43
ENDBRANCH  41  42
ENDBRANCH  40  41
ENDBRANCH  34  40
ENDBRANCH  33  34
ENDBRANCH  32  33
ENDBRANCH  31  32
ENDBRANCH   1  31
BRANCH   7  47
HETATM   47  N5  UNL     1       2.622  -1.256   2.101  1.00  0.00    -0.347 N 
ATOM     48  H52 UNL     1       1.955  -0.595   2.499  1.00  0.00     0.176 HD
ATOM     49  H51 UNL     1       3.430  -1.478   2.682  1.00  0.00     0.176 HD
ENDBRANCH   7  47
TORSDOF 10
