REMARK  6 active torsions:
REMARK  status: ('A' for Active; 'I' for Inactive)
REMARK    1  A    between atoms: N3_4  and  C2_6 
REMARK    2  A    between atoms: C2_6  and  C3_7 
REMARK    3  A    between atoms: C6_10  and  O1_11 
REMARK    4  A    between atoms: O1_11  and  C7_12 
REMARK    5  A    between atoms: C7_12  and  C8_13 
REMARK    6  A    between atoms: C8_13  and  N4_14 
ROOT
HETATM    1  C3  UNL     1       2.536  -0.826   0.224  1.00  0.00    -0.038 A 
HETATM    2  C4  UNL     1       1.920  -1.139  -0.964  1.00  0.00     0.012 A 
HETATM    3  C5  UNL     1       0.551  -1.154  -0.995  1.00  0.00     0.039 A 
HETATM    4  C6  UNL     1      -0.246  -0.871   0.103  1.00  0.00     0.093 A 
HETATM    5  C14 UNL     1       0.381  -0.555   1.302  1.00  0.00     0.080 A 
HETATM    6  N5  UNL     1      -0.410  -0.260   2.443  1.00  0.00    -0.100 NA
HETATM    7  C15 UNL     1       1.759  -0.536   1.348  1.00  0.00     0.038 A 
ENDROOT
BRANCH   4   8
HETATM    8  O1  UNL     1      -1.632  -0.896   0.033  1.00  0.00    -0.348 OA
BRANCH   8   9
HETATM    9  C7  UNL     1      -2.225  -1.224  -1.209  1.00  0.00     0.196 C 
BRANCH   9  10
HETATM   10  C8  UNL     1      -3.732  -1.210  -1.129  1.00  0.00     0.154 C 
BRANCH  10  11
HETATM   11  N4  UNL     1      -4.277   0.053  -0.754  1.00  0.00    -0.364 N 
HETATM   12  C9  UNL     1      -4.459   0.293   0.568  1.00  0.00     0.090 A 
HETATM   13  C10 UNL     1      -4.979   1.481   1.041  1.00  0.00     0.017 A 
HETATM   14  C11 UNL     1      -5.336   2.480   0.159  1.00  0.00     0.003 A 
HETATM   15  C12 UNL     1      -5.142   2.215  -1.188  1.00  0.00     0.017 A 
HETATM   16  C13 UNL     1      -4.621   1.019  -1.626  1.00  0.00     0.090 A 
ENDBRANCH  10  11
ENDBRANCH   9  10
ENDBRANCH   8   9
ENDBRANCH   4   8
BRANCH   1  17
HETATM   17  C2  UNL     1       4.012  -0.806   0.273  1.00  0.00     0.160 C 
BRANCH  17  18
HETATM   18  N3  UNL     1       4.552   0.500  -0.048  1.00  0.00    -0.363 N 
HETATM   19  C1  UNL     1       5.827   0.645  -0.117  1.00  0.00     0.197 C 
HETATM   20  N1  UNL     1       6.708  -0.443   0.113  1.00  0.00    -0.067 NA
HETATM   21  N2  UNL     1       6.335   1.929  -0.432  1.00  0.00    -0.067 NA
ATOM     22  H3  UNL     1       3.930   1.291  -0.216  1.00  0.00     0.162 HD
ENDBRANCH  17  18
ENDBRANCH   1  17
TORSDOF 6
