REMARK  8 active torsions:
REMARK  status: ('A' for Active; 'I' for Inactive)
REMARK    1  A    between atoms: C2_5  and  C3_6 
REMARK    2  A    between atoms: C2_5  and  N3_8 
REMARK    3  A    between atoms: N3_8  and  C4_10 
REMARK    4  A    between atoms: C4_10  and  C5_11 
REMARK    5  A    between atoms: C5_11  and  C6_12 
REMARK    6  A    between atoms: C6_12  and  C7_13 
REMARK    7  A    between atoms: C7_13  and  N4_14 
REMARK    8  A    between atoms: N4_14  and  C8_16 
ROOT
HETATM    1  N1  UNL     1       7.414  -0.504   1.745  1.00  0.00    -0.172 NA
HETATM    2  C1  UNL     1       6.633  -0.378   0.904  1.00  0.00     0.183 C 
HETATM    3  N2  UNL     1       5.700  -0.248  -0.120  1.00  0.00    -0.277 N 
ATOM      4  H2  UNL     1       5.734  -0.943  -0.866  1.00  0.00     0.179 HD
HETATM    5  C2  UNL     1       4.806   0.658  -0.215  1.00  0.00     0.148 C 
ENDROOT
BRANCH   5   6
HETATM    6  C3  UNL     1       4.657   1.702   0.778  1.00  0.00     0.307 C 
HETATM    7  O1  UNL     1       5.415   1.737   1.769  1.00  0.00    -0.298 OA
ENDBRANCH   5   6
BRANCH   5   8
HETATM    8  N3  UNL     1       3.935   0.633  -1.333  1.00  0.00    -0.373 N 
ATOM      9  H3  UNL     1       4.287   0.885  -2.257  1.00  0.00     0.161 HD
BRANCH   8  10
HETATM   10  C4  UNL     1       2.549   0.252  -1.170  1.00  0.00     0.121 C 
BRANCH  10  11
HETATM   11  C5  UNL     1       2.487  -1.215  -0.818  1.00  0.00     0.021 C 
BRANCH  11  12
HETATM   12  C6  UNL     1       1.090  -1.716  -0.627  1.00  0.00     0.022 C 
BRANCH  12  13
HETATM   13  C7  UNL     1       0.349  -1.007   0.473  1.00  0.00     0.138 C 
BRANCH  13  14
HETATM   14  N4  UNL     1      -0.970  -1.539   0.595  1.00  0.00    -0.226 N 
ATOM     15  H4  UNL     1      -1.068  -2.508   0.899  1.00  0.00     0.177 HD
BRANCH  14  16
HETATM   16  C8  UNL     1      -2.048  -0.870   0.344  1.00  0.00     0.679 A 
HETATM   17  N5  UNL     1      -2.214   0.390  -0.061  1.00  0.00    -0.190 N 
HETATM   18  C9  UNL     1      -3.506   0.701  -0.206  1.00  0.00     0.076 A 
ATOM     19  H5  UNL     1      -1.447   1.039  -0.239  1.00  0.00     0.184 HD
HETATM   20  C10 UNL     1      -4.218   1.827  -0.587  1.00  0.00     0.032 A 
HETATM   21  C14 UNL     1      -4.205  -0.450   0.135  1.00  0.00     0.076 A 
HETATM   22  C11 UNL     1      -5.601   1.825  -0.635  1.00  0.00     0.002 A 
HETATM   23  C12 UNL     1      -6.304   0.690  -0.300  1.00  0.00     0.002 A 
HETATM   24  C13 UNL     1      -5.582  -0.422   0.078  1.00  0.00     0.032 A 
HETATM   25  N6  UNL     1      -3.289  -1.391   0.466  1.00  0.00    -0.190 N 
ATOM     26  H6  UNL     1      -3.502  -2.344   0.761  1.00  0.00     0.184 HD
ENDBRANCH  14  16
ENDBRANCH  13  14
ENDBRANCH  12  13
ENDBRANCH  11  12
ENDBRANCH  10  11
ENDBRANCH   8  10
ENDBRANCH   5   8
TORSDOF 8
