REMARK  14 active torsions:
REMARK  status: ('A' for Active; 'I' for Inactive)
REMARK    1  A    between atoms: C3_4  and  C4_5 
REMARK    2  A    between atoms: C4_5  and  N2_6 
REMARK       I    between atoms: N2_6  and  C5_8 
REMARK    3  A    between atoms: C5_8  and  C6_10 
REMARK    4  A    between atoms: C6_10  and  C7_11 
REMARK    5  A    between atoms: C7_11  and  N3_12 
REMARK    6  A    between atoms: C8_17  and  N4_18 
REMARK    7  A    between atoms: C9_19  and  N5_20 
REMARK    8  A    between atoms: C10_26  and  N8_27 
REMARK    9  A    between atoms: C11_32  and  N10_33 
REMARK   10  A    between atoms: C13_39  and  N12_40 
REMARK       I    between atoms: N12_40  and  C14_42 
REMARK   11  A    between atoms: C14_42  and  C15_44 
REMARK   12  A    between atoms: C15_44  and  N13_45 
REMARK   13  A    between atoms: C15_44  and  C16_49 
REMARK   14  A    between atoms: C16_49  and  O4_50 
ROOT
HETATM    1  C1  UNL     1       1.060  -2.603  -1.689  1.00  0.00     0.221 C 
HETATM    2  N1  UNL     1       0.802  -1.742  -0.957  1.00  0.00    -0.461 NA
HETATM    3  C2  UNL     1       0.519  -0.709  -0.079  1.00  0.00     0.218 C 
HETATM    4  C3  UNL     1       1.365   0.517  -0.448  1.00  0.00     0.179 C 
HETATM    5  O2  UNL     1       0.784   0.979  -1.595  1.00  0.00    -0.353 OA
HETATM    6  C8  UNL     1      -0.565   0.672  -1.604  1.00  0.00     0.291 C 
HETATM    7  C13 UNL     1      -0.856  -0.162  -0.407  1.00  0.00     0.173 C 
ENDROOT
BRANCH   4   8
HETATM    8  C4  UNL     1       2.806   0.114  -0.636  1.00  0.00     0.157 C 
BRANCH   8   9
HETATM    9  N2  UNL     1       3.326  -0.361   0.645  1.00  0.00    -0.358 N 
HETATM   10  C5  UNL     1       4.666  -0.812   0.782  1.00  0.00     0.219 C 
HETATM   11  O1  UNL     1       5.413  -0.797  -0.232  1.00  0.00    -0.274 OA
ATOM     12  H2  UNL     1       2.712  -0.369   1.460  1.00  0.00     0.162 HD
BRANCH  10  13
HETATM   13  C6  UNL     1       5.166  -1.289   2.093  1.00  0.00     0.130 C 
BRANCH  13  14
HETATM   14  C7  UNL     1       6.628  -1.719   1.994  1.00  0.00     0.238 C 
BRANCH  14  15
HETATM   15  N3  UNL     1       7.064  -2.172   3.294  1.00  0.00    -0.079 N 
ATOM     16  H33 UNL     1       6.910  -1.475   4.023  1.00  0.00     0.274 HD
ATOM     17  H32 UNL     1       6.466  -2.906   3.673  1.00  0.00     0.274 HD
ATOM     18  H31 UNL     1       8.040  -2.459   3.228  1.00  0.00     0.274 HD
ENDBRANCH  14  15
ENDBRANCH  13  14
ENDBRANCH  10  13
ENDBRANCH   8   9
ENDBRANCH   4   8
BRANCH   7  19
HETATM   19  N12 UNL     1      -1.728  -1.289  -0.649  1.00  0.00    -0.347 N 
HETATM   20  C14 UNL     1      -2.825  -1.629   0.148  1.00  0.00     0.251 C 
HETATM   21  O3  UNL     1      -3.159  -0.972   1.169  1.00  0.00    -0.271 OA
ATOM     22  H12 UNL     1      -1.529  -1.877  -1.458  1.00  0.00     0.163 HD
BRANCH  20  23
HETATM   23  C15 UNL     1      -3.649  -2.811  -0.201  1.00  0.00     0.297 C 
BRANCH  23  24
HETATM   24  N13 UNL     1      -4.737  -3.030   0.714  1.00  0.00    -0.064 N 
ATOM     25 3H13 UNL     1      -4.398  -3.094   1.674  1.00  0.00     0.275 HD
ATOM     26 2H13 UNL     1      -5.316  -2.195   0.797  1.00  0.00     0.275 HD
ATOM     27 1H13 UNL     1      -5.304  -3.843   0.474  1.00  0.00     0.275 HD
ENDBRANCH  23  24
BRANCH  23  28
HETATM   28  C16 UNL     1      -2.794  -4.069  -0.297  1.00  0.00     0.206 C 
BRANCH  28  29
HETATM   29  O4  UNL     1      -2.278  -4.394   0.942  1.00  0.00    -0.398 OA
ATOM     30  H4  UNL     1      -1.745  -5.178   0.882  1.00  0.00     0.209 HD
ENDBRANCH  28  29
ENDBRANCH  23  28
ENDBRANCH  20  23
ENDBRANCH   7  19
BRANCH   6  31
HETATM   31  N4  UNL     1      -1.420   1.825  -1.747  1.00  0.00     0.019 N 
HETATM   32  C9  UNL     1      -2.177   2.140  -2.816  1.00  0.00     0.711 A 
HETATM   33  N6  UNL     1      -2.823   3.287  -2.553  1.00  0.00    -0.095 N 
HETATM   34  N7  UNL     1      -2.490   3.712  -1.331  1.00  0.00     0.106 N 
ATOM     35  H6  UNL     1      -3.467   3.760  -3.187  1.00  0.00     0.207 HD
HETATM   36  C10 UNL     1      -2.850   4.785  -0.605  1.00  0.00     0.727 A 
HETATM   37  C12 UNL     1      -1.631   2.801  -0.860  1.00  0.00     0.752 A 
HETATM   38  N9  UNL     1      -2.315   4.926   0.635  1.00  0.00    -0.020 N 
HETATM   39  C11 UNL     1      -1.446   4.036   1.155  1.00  0.00     0.705 A 
ATOM     40  H9  UNL     1      -2.581   5.736   1.195  1.00  0.00     0.203 HD
HETATM   41  N11 UNL     1      -1.135   2.985   0.363  1.00  0.00    -0.019 N 
ATOM     42  H11 UNL     1      -0.481   2.291   0.724  1.00  0.00     0.203 HD
BRANCH  32  43
HETATM   43  N5  UNL     1      -2.294   1.490  -3.913  1.00  0.00    -0.233 N 
ATOM     44  H52 UNL     1      -1.803   0.618  -4.113  1.00  0.00     0.174 HD
ATOM     45  H51 UNL     1      -2.867   1.728  -4.722  1.00  0.00     0.174 HD
ENDBRANCH  32  43
BRANCH  36  46
HETATM   46  N8  UNL     1      -3.686   5.673  -1.066  1.00  0.00    -0.232 N 
ATOM     47  H82 UNL     1      -4.088   5.567  -1.997  1.00  0.00     0.174 HD
ATOM     48  H81 UNL     1      -3.959   6.487  -0.515  1.00  0.00     0.174 HD
ENDBRANCH  36  46
BRANCH  39  49
HETATM   49  N10 UNL     1      -0.940   4.175   2.334  1.00  0.00    -0.234 N 
ATOM     50 2H10 UNL     1      -1.175   4.968   2.931  1.00  0.00     0.174 HD
ATOM     51 1H10 UNL     1      -0.283   3.502   2.727  1.00  0.00     0.174 HD
ENDBRANCH  39  49
ENDBRANCH   6  31
TORSDOF 14
