REMARK  9 active torsions:
REMARK  status: ('A' for Active; 'I' for Inactive)
REMARK    1  A    between atoms: N1_1  and  C1_4 
REMARK    2  A    between atoms: C6_15  and  N5_16 
REMARK    3  A    between atoms: N5_16  and  C7_18 
REMARK    4  A    between atoms: C7_18  and  C8_19 
REMARK    5  A    between atoms: C8_19  and  C9_20 
REMARK    6  A    between atoms: C9_20  and  C10_21 
REMARK    7  A    between atoms: C10_21  and  C11_22 
REMARK    8  A    between atoms: C11_22  and  C12_23 
REMARK    9  A    between atoms: C12_23  and  O1_24 
ROOT
HETATM    1  C1  UNL     1      -4.667   1.046   0.961  1.00  0.00     0.677 C 
HETATM    2  N2  UNL     1      -4.994   0.971  -0.325  1.00  0.00    -0.200 N 
ATOM      3  H2  UNL     1      -5.750   1.585  -0.629  1.00  0.00     0.183 HD
HETATM    4  C2  UNL     1      -4.449   0.180  -1.287  1.00  0.00     0.138 C 
HETATM    5  C3  UNL     1      -3.322  -0.622  -1.159  1.00  0.00     0.080 A 
HETATM    6  N3  UNL     1      -2.952  -1.530  -2.075  1.00  0.00    -0.349 N 
ATOM      7  H3  UNL     1      -3.439  -1.732  -2.948  1.00  0.00     0.166 HD
HETATM    8  C4  UNL     1      -1.829  -2.126  -1.642  1.00  0.00     0.181 A 
HETATM    9  N4  UNL     1      -1.511  -1.581  -0.457  1.00  0.00    -0.347 N 
ATOM     10  H4  UNL     1      -0.701  -1.844   0.104  1.00  0.00     0.167 HD
HETATM   11  C5  UNL     1      -2.402  -0.646  -0.114  1.00  0.00     0.106 A 
HETATM   12  C6  UNL     1      -2.394   0.118   1.030  1.00  0.00     0.150 C 
HETATM   13  N6  UNL     1      -3.494   0.708   1.545  1.00  0.00    -0.175 N 
ATOM     14  H6  UNL     1      -3.430   0.936   2.537  1.00  0.00     0.186 HD
ENDROOT
BRANCH  12  15
HETATM   15  N5  UNL     1      -1.340   0.297   1.647  1.00  0.00    -0.354 N 
ATOM     16  H5  UNL     1      -1.499   0.880   2.468  1.00  0.00     0.166 HD
BRANCH  15  17
HETATM   17  C7  UNL     1       0.001  -0.062   1.553  1.00  0.00     0.062 C 
BRANCH  17  18
HETATM   18  C8  UNL     1       0.849   0.812   0.656  1.00  0.00     0.044 C 
BRANCH  18  19
HETATM   19  C9  UNL     1       2.289   0.248   0.689  1.00  0.00     0.005 C 
BRANCH  19  20
HETATM   20  C10 UNL     1       3.129   1.103  -0.192  1.00  0.00     0.002 C 
BRANCH  20  21
HETATM   21  C11 UNL     1       4.562   0.759  -0.285  1.00  0.00     0.026 C 
BRANCH  21  22
HETATM   22  C12 UNL     1       4.913  -0.592  -0.800  1.00  0.00     0.164 C 
BRANCH  22  23
HETATM   23  O1  UNL     1       4.425  -1.618  -0.019  1.00  0.00    -0.401 OA
ATOM     24  H1  UNL     1       4.649  -2.481  -0.348  1.00  0.00     0.209 HD
ENDBRANCH  22  23
ENDBRANCH  21  22
ENDBRANCH  20  21
ENDBRANCH  19  20
ENDBRANCH  18  19
ENDBRANCH  17  18
ENDBRANCH  15  17
ENDBRANCH  12  15
BRANCH   1  25
HETATM   25  N1  UNL     1      -5.601   1.504   1.742  1.00  0.00    -0.234 N 
ATOM     26  H12 UNL     1      -6.485   1.759   1.302  1.00  0.00     0.174 HD
ATOM     27  H11 UNL     1      -5.350   1.562   2.729  1.00  0.00     0.174 HD
ENDBRANCH   1  25
TORSDOF 9
