REMARK  4 active torsions:
REMARK  status: ('A' for Active; 'I' for Inactive)
REMARK    1  A    between atoms: N1_1  and  O1_4 
REMARK    2  A    between atoms: O1_4  and  C1_5 
REMARK    3  A    between atoms: C1_5  and  C2_6 
REMARK    4  A    between atoms: C2_6  and  C3_7 
ROOT
HETATM    1  C3  UNL     1      -0.656  -0.355   0.456  1.00  0.00    -0.056 A 
HETATM    2  C4  UNL     1      -1.746  -1.101   0.500  1.00  0.00     0.010 A 
HETATM    3  C5  UNL     1      -2.933  -0.634   0.000  1.00  0.00     0.043 A 
HETATM    4  C6  UNL     1      -2.969   0.689  -0.595  1.00  0.00     0.116 A 
HETATM    5  F1  UNL     1      -4.133   1.129  -1.144  1.00  0.00    -0.206 F 
HETATM    6  C7  UNL     1      -1.807   1.418  -0.619  1.00  0.00     0.043 A 
HETATM    7  C8  UNL     1      -0.652   0.938  -0.105  1.00  0.00     0.010 A 
ENDROOT
BRANCH   1   8
HETATM    8  C2  UNL     1       0.735  -0.762   0.883  1.00  0.00     0.067 C 
BRANCH   8   9
HETATM    9  C1  UNL     1       1.808  -0.502  -0.110  1.00  0.00     0.205 C 
BRANCH   9  10
HETATM   10  O1  UNL     1       2.983  -0.622   0.766  1.00  0.00    -0.287 OA
BRANCH  10  11
HETATM   11  N1  UNL     1       3.689   0.461   0.591  1.00  0.00    -0.311 N 
ATOM     12  H12 UNL     1       3.458   1.232  -0.035  1.00  0.00     0.184 HD
ATOM     13  H11 UNL     1       4.504   0.378   1.199  1.00  0.00     0.184 HD
ENDBRANCH  10  11
ENDBRANCH   9  10
ENDBRANCH   8   9
ENDBRANCH   1   8
TORSDOF 4
