REMARK  5 active torsions:
REMARK  status: ('A' for Active; 'I' for Inactive)
REMARK    1  A    between atoms: C6_7  and  O2_8 
REMARK    2  A    between atoms: C11_14  and  O3_15 
REMARK    3  A    between atoms: C14_19  and  C15_20 
REMARK    4  A    between atoms: C15_20  and  C17_22 
REMARK    5  A    between atoms: C17_22  and  O5_24 
ROOT
HETATM    1  C1  UNL     1       1.974  -1.111   3.034  1.00  0.00     0.051 C 
HETATM    2  C2  UNL     1       1.181  -1.135   2.000  1.00  0.00     0.064 C 
HETATM    3  O1  UNL     1      -0.210  -1.044   2.124  1.00  0.00    -0.345 OA
HETATM    4  C3  UNL     1      -0.780  -1.580   0.942  1.00  0.00     0.144 C 
HETATM    5  C4  UNL     1      -2.203  -1.406   0.733  1.00  0.00     0.041 C 
HETATM    6  C5  UNL     1      -2.598  -0.368  -0.214  1.00  0.00     0.027 C 
HETATM    7  C6  UNL     1      -3.971   0.227  -0.098  1.00  0.00     0.123 C 
HETATM    8  C7  UNL     1      -3.792   1.538  -0.846  1.00  0.00     0.033 C 
HETATM    9  C8  UNL     1      -2.286   1.706  -1.086  1.00  0.00     0.014 C 
HETATM   10  C9  UNL     1      -1.736   0.849   0.036  1.00  0.00    -0.011 C 
HETATM   11  C10 UNL     1      -2.115   1.569   1.307  1.00  0.00     0.018 C 
HETATM   12  C11 UNL     1      -0.263   0.546  -0.069  1.00  0.00     0.142 C 
HETATM   13  C12 UNL     1       0.142  -0.860  -0.080  1.00  0.00     0.036 C 
HETATM   14  C13 UNL     1      -0.050  -1.656  -1.334  1.00  0.00     0.025 C 
HETATM   15  C14 UNL     1       1.437  -1.252   0.556  1.00  0.00    -0.021 C 
ENDROOT
BRANCH  15  16
HETATM   16  C15 UNL     1       2.733  -0.968   0.034  1.00  0.00     0.114 C 
HETATM   17  C16 UNL     1       3.002  -1.084  -1.440  1.00  0.00     0.025 C 
BRANCH  16  18
HETATM   18  C17 UNL     1       3.355   0.289   0.443  1.00  0.00     0.266 C 
HETATM   19  O4  UNL     1       2.842   1.114   1.201  1.00  0.00    -0.265 OA
BRANCH  18  20
HETATM   20  O5  UNL     1       4.645   0.670  -0.019  1.00  0.00    -0.326 OA
HETATM   21  C18 UNL     1       5.249   1.887   0.376  1.00  0.00     0.213 C 
ENDBRANCH  18  20
ENDBRANCH  16  18
ENDBRANCH  15  16
BRANCH  12  22
HETATM   22  O3  UNL     1       0.248   1.355  -1.055  1.00  0.00    -0.394 OA
ATOM     23  H3  UNL     1       1.176   1.164  -1.121  1.00  0.00     0.210 HD
ENDBRANCH  12  22
BRANCH   7  24
HETATM   24  O2  UNL     1      -4.474   0.350   1.161  1.00  0.00    -0.395 OA
ATOM     25  H2  UNL     1      -5.343   0.727   1.234  1.00  0.00     0.210 HD
ENDBRANCH   7  24
TORSDOF 5
