REMARK  5 active torsions:
REMARK  status: ('A' for Active; 'I' for Inactive)
REMARK    1  A    between atoms: C3_4  and  O1_5 
REMARK    2  A    between atoms: O1_5  and  C4_6 
REMARK    3  A    between atoms: C7_10  and  C8_11 
REMARK    4  A    between atoms: C12_15  and  O3_16 
REMARK    5  A    between atoms: C17_22  and  O4_24 
ROOT
HETATM    1  C1  UNL     1      -3.203   1.774   1.907  1.00  0.00     0.221 C 
HETATM    2  N1  UNL     1      -2.338   1.063   1.606  1.00  0.00    -0.461 NA
HETATM    3  C2  UNL     1      -1.254   0.193   1.252  1.00  0.00     0.225 C 
HETATM    4  C3  UNL     1      -0.699   0.727  -0.036  1.00  0.00     0.176 C 
HETATM    5  C6  UNL     1       0.620   0.200  -0.456  1.00  0.00     0.037 C 
HETATM    6  C7  UNL     1       1.589  -0.224   0.546  1.00  0.00     0.023 C 
HETATM    7  C11 UNL     1       2.439  -1.333  -0.098  1.00  0.00     0.042 C 
HETATM    8  C12 UNL     1       1.881  -1.533  -1.478  1.00  0.00     0.127 C 
HETATM    9  C13 UNL     1       0.442  -1.093  -1.274  1.00  0.00    -0.011 C 
HETATM   10  C14 UNL     1      -0.161  -0.849  -2.604  1.00  0.00     0.018 C 
HETATM   11  C15 UNL     1      -0.195  -2.160  -0.460  1.00  0.00     0.015 C 
HETATM   12  C16 UNL     1      -1.612  -1.928  -0.078  1.00  0.00     0.041 C 
HETATM   13  C17 UNL     1      -1.815  -1.183   1.194  1.00  0.00     0.089 C 
HETATM   14  C18 UNL     1      -3.341  -1.203   1.410  1.00  0.00     0.049 C 
ENDROOT
BRANCH   4  15
HETATM   15  O1  UNL     1      -0.911   2.092  -0.237  1.00  0.00    -0.313 OA
BRANCH  15  16
HETATM   16  C4  UNL     1      -1.752   2.726  -1.085  1.00  0.00     0.255 C 
HETATM   17  C5  UNL     1      -1.823   4.209  -1.141  1.00  0.00     0.126 C 
HETATM   18  O2  UNL     1      -2.454   1.976  -1.807  1.00  0.00    -0.266 OA
ENDBRANCH  15  16
ENDBRANCH   4  15
BRANCH  13  19
HETATM   19  O4  UNL     1      -1.311  -1.999   2.235  1.00  0.00    -0.387 OA
ATOM     20  H4  UNL     1      -1.669  -2.878   2.198  1.00  0.00     0.210 HD
ENDBRANCH  13  19
BRANCH   6  21
HETATM   21  C8  UNL     1       2.574   0.764   1.039  1.00  0.00    -0.088 C 
HETATM   22  C9  UNL     1       2.653   2.029   0.660  1.00  0.00     0.014 C 
HETATM   23  C10 UNL     1       3.598   0.331   2.066  1.00  0.00     0.043 C 
ENDBRANCH   6  21
BRANCH   8  24
HETATM   24  O3  UNL     1       2.530  -0.862  -2.465  1.00  0.00    -0.395 OA
ATOM     25  H3  UNL     1       2.177  -0.989  -3.338  1.00  0.00     0.210 HD
ENDBRANCH   8  24
TORSDOF 5
