REMARK  9 active torsions:
REMARK  status: ('A' for Active; 'I' for Inactive)
REMARK    1  A    between atoms: S1_2  and  C2_3 
REMARK    2  A    between atoms: C2_3  and  C3_4 
REMARK    3  A    between atoms: C3_4  and  C4_5 
REMARK    4  A    between atoms: C4_5  and  N1_6 
REMARK    5  A    between atoms: C4_5  and  C12_20 
REMARK    6  A    between atoms: N1_6  and  C5_8 
REMARK    7  A    between atoms: C5_8  and  N2_10 
REMARK    8  A    between atoms: N2_10  and  C6_12 
REMARK       I    between atoms: C12_20  and  N3_22 
REMARK    9  A    between atoms: C17_27  and  C18_28 
ROOT
HETATM    1  C4  UNL     1       0.916   1.544  -0.935  1.00  0.00     0.177 C 
ENDROOT
BRANCH   1   2
HETATM    2  C3  UNL     1       0.490   2.900  -1.487  1.00  0.00     0.045 C 
BRANCH   2   3
HETATM    3  C2  UNL     1      -0.383   3.704  -0.615  1.00  0.00     0.076 C 
BRANCH   3   4
HETATM    4  S1  UNL     1      -0.774   5.294  -1.411  1.00  0.00    -0.173 SA
HETATM    5  C1  UNL     1       0.748   6.275  -1.546  1.00  0.00     0.089 C 
ENDBRANCH   3   4
ENDBRANCH   2   3
ENDBRANCH   1   2
BRANCH   1   6
HETATM    6  N1  UNL     1       1.762   0.921  -1.971  1.00  0.00    -0.354 N 
ATOM      7  H1  UNL     1       1.807   1.367  -2.887  1.00  0.00     0.162 HD
BRANCH   6   8
HETATM    8  C5  UNL     1       2.508  -0.250  -1.767  1.00  0.00     0.172 C 
HETATM    9  S2  UNL     1       3.374  -0.912  -3.003  1.00  0.00    -0.041 SA
BRANCH   8  10
HETATM   10  N2  UNL     1       2.500  -0.896  -0.524  1.00  0.00    -0.333 N 
ATOM     11  H2  UNL     1       1.918  -0.464   0.193  1.00  0.00     0.168 HD
BRANCH  10  12
HETATM   12  C6  UNL     1       3.185  -2.057  -0.132  1.00  0.00     0.040 A 
HETATM   13  C7  UNL     1       4.412  -2.452  -0.588  1.00  0.00     0.072 A 
HETATM   14  C8  UNL     1       5.020  -3.650  -0.172  1.00  0.00     0.121 A 
HETATM   15  F1  UNL     1       6.233  -4.000  -0.650  1.00  0.00    -0.206 F 
HETATM   16  C9  UNL     1       4.404  -4.489   0.724  1.00  0.00     0.084 A 
HETATM   17  C10 UNL     1       3.171  -4.101   1.191  1.00  0.00     0.121 A 
HETATM   18  F2  UNL     1       2.559  -4.936   2.082  1.00  0.00    -0.206 F 
HETATM   19  C11 UNL     1       2.577  -2.939   0.788  1.00  0.00     0.072 A 
ENDBRANCH  10  12
ENDBRANCH   8  10
ENDBRANCH   6   8
ENDBRANCH   1   6
BRANCH   1  20
HETATM   20  C12 UNL     1      -0.256   0.668  -0.723  1.00  0.00     0.243 C 
HETATM   21  O1  UNL     1      -0.625   0.080  -1.781  1.00  0.00    -0.271 OA
HETATM   22  N3  UNL     1      -0.940   0.453   0.456  1.00  0.00    -0.345 N 
HETATM   23  C13 UNL     1      -0.402   1.111   1.678  1.00  0.00     0.126 C 
HETATM   24  C17 UNL     1      -2.124  -0.271   0.752  1.00  0.00     0.094 C 
HETATM   25  C14 UNL     1      -0.073   0.062   2.667  1.00  0.00     0.020 C 
HETATM   26  C15 UNL     1      -1.084  -0.994   2.923  1.00  0.00     0.004 C 
HETATM   27  C16 UNL     1      -1.881  -1.410   1.738  1.00  0.00     0.026 C 
BRANCH  24  28
HETATM   28  C18 UNL     1      -3.044  -0.730  -0.313  1.00  0.00    -0.031 C 
HETATM   29  C19 UNL     1      -3.594   0.361  -1.175  1.00  0.00     0.016 C 
HETATM   30  C20 UNL     1      -4.311  -1.200   0.503  1.00  0.00     0.016 C 
HETATM   31  C21 UNL     1      -2.666  -1.942  -1.083  1.00  0.00     0.016 C 
ENDBRANCH  24  28
ENDBRANCH   1  20
TORSDOF 9
