REMARK  6 active torsions:
REMARK  status: ('A' for Active; 'I' for Inactive)
REMARK    1  A    between atoms: C1_2  and  C2_4 
REMARK    2  A    between atoms: C4_7  and  C5_8 
REMARK    3  A    between atoms: C6_9  and  O3_10 
REMARK    4  A    between atoms: C6_9  and  N1_15 
REMARK    5  A    between atoms: O3_10  and  C7_11 
REMARK    6  A    between atoms: C10_19  and  O4_20 
ROOT
HETATM    1  C5  UNL     1      -0.013   1.286  -0.587  1.00  0.00     0.076 C 
HETATM    2  C6  UNL     1      -1.265   1.038  -0.638  1.00  0.00     0.157 C 
ENDROOT
BRANCH   2   3
HETATM    3  O3  UNL     1      -2.088   2.031  -1.220  1.00  0.00    -0.238 OA
BRANCH   3   4
HETATM    4  C7  UNL     1      -2.416   3.242  -0.630  1.00  0.00     0.531 C 
HETATM    5  F1  UNL     1      -3.087   3.121   0.565  1.00  0.00    -0.144 F 
HETATM    6  F2  UNL     1      -3.272   3.989  -1.452  1.00  0.00    -0.144 F 
HETATM    7  F3  UNL     1      -1.295   4.024  -0.402  1.00  0.00    -0.144 F 
ENDBRANCH   3   4
ENDBRANCH   2   3
BRANCH   2   8
HETATM    8  N1  UNL     1      -2.024  -0.102  -0.213  1.00  0.00    -0.302 N 
HETATM    9  C8  UNL     1      -2.896   0.000   0.937  1.00  0.00     0.207 C 
HETATM   10  S2  UNL     1      -3.044  -1.762   1.441  1.00  0.00    -0.141 SA
HETATM   11  C9  UNL     1      -2.627  -2.474  -0.165  1.00  0.00     0.160 C 
HETATM   12  C10 UNL     1      -1.978  -1.335  -0.837  1.00  0.00     0.129 C 
BRANCH  12  13
HETATM   13  O4  UNL     1      -1.394  -1.534  -1.982  1.00  0.00    -0.349 OA
ATOM     14  H4  UNL     1      -1.362  -2.381  -2.411  1.00  0.00     0.219 HD
ENDBRANCH  12  13
ENDBRANCH   2   8
BRANCH   1  15
HETATM   15  C4  UNL     1       1.046   0.438  -0.032  1.00  0.00     0.023 C 
HETATM   16  S1  UNL     1       0.871  -1.135   0.803  1.00  0.00    -0.127 SA
HETATM   17  C3  UNL     1       2.494  -1.056   1.676  1.00  0.00     0.100 C 
HETATM   18  C2  UNL     1       3.222  -0.235   0.626  1.00  0.00     0.142 C 
HETATM   19  C11 UNL     1       2.342   0.707  -0.005  1.00  0.00     0.043 C 
HETATM   20 CL1  UNL     1       2.985   2.207  -0.740  1.00  0.00    -0.086 Cl
BRANCH  18  21
HETATM   21  C1  UNL     1       3.833  -1.126  -0.395  1.00  0.00     0.183 C 
HETATM   22  O1  UNL     1       3.488  -1.014  -1.593  1.00  0.00    -0.647 OA
HETATM   23  O2  UNL     1       4.778  -2.091  -0.091  1.00  0.00    -0.647 OA
ENDBRANCH  18  21
ENDBRANCH   1  15
TORSDOF 6
