REMARK  13 active torsions:
REMARK  status: ('A' for Active; 'I' for Inactive)
REMARK    1  A    between atoms: C3_3  and  O1_4 
REMARK    2  A    between atoms: C7_9  and  C8_10 
REMARK    3  A    between atoms: C8_10  and  C9_11 
REMARK    4  A    between atoms: C9_11  and  C10_12 
REMARK    5  A    between atoms: C10_12  and  O2_14 
REMARK    6  A    between atoms: O2_14  and  C12_15 
REMARK    7  A    between atoms: C12_15  and  C13_17 
REMARK    8  A    between atoms: C13_17  and  C16_20 
REMARK    9  A    between atoms: C16_20  and  O4_21 
REMARK   10  A    between atoms: O4_21  and  C17_22 
REMARK   11  A    between atoms: C17_22  and  C18_24 
REMARK   12  A    between atoms: C18_24  and  C19_25 
REMARK   13  A    between atoms: C23_29  and  O6_30 
ROOT
HETATM    1  C10 UNL     1      -1.172  -2.819  -1.040  1.00  0.00     0.128 C 
HETATM    2  C11 UNL     1      -1.289  -4.326  -0.963  1.00  0.00     0.040 C 
ENDROOT
BRANCH   1   3
HETATM    3  C9  UNL     1      -2.431  -2.228  -0.466  1.00  0.00     0.036 C 
BRANCH   3   4
HETATM    4  C8  UNL     1      -2.310  -0.708  -0.553  1.00  0.00     0.037 C 
BRANCH   4   5
HETATM    5  C7  UNL     1      -3.562  -0.137  -0.012  1.00  0.00    -0.075 C 
HETATM    6  C5  UNL     1      -3.427   0.642   1.026  1.00  0.00    -0.079 C 
HETATM    7  C4  UNL     1      -4.514   1.355   1.780  1.00  0.00     0.070 C 
HETATM    8  C6  UNL     1      -2.082   0.882   1.557  1.00  0.00     0.044 C 
HETATM    9  C3  UNL     1      -5.122   2.330   0.807  1.00  0.00     0.152 C 
HETATM   10  C2  UNL     1      -5.956   1.627  -0.220  1.00  0.00    -0.032 C 
HETATM   11  C1  UNL     1      -7.217   2.026  -0.232  1.00  0.00     0.019 C 
HETATM   12  C23 UNL     1      -5.646   0.593  -1.208  1.00  0.00     0.152 C 
HETATM   13  C22 UNL     1      -4.781  -0.536  -0.731  1.00  0.00     0.070 C 
BRANCH   9  14
HETATM   14  O1  UNL     1      -4.041   2.960   0.153  1.00  0.00    -0.391 OA
ATOM     15  H1  UNL     1      -3.512   3.406   0.804  1.00  0.00     0.210 HD
ENDBRANCH   9  14
BRANCH  12  16
HETATM   16  O6  UNL     1      -6.839   0.019  -1.645  1.00  0.00    -0.391 OA
ATOM     17  H6  UNL     1      -6.638  -0.652  -2.286  1.00  0.00     0.210 HD
ENDBRANCH  12  16
ENDBRANCH   4   5
ENDBRANCH   3   4
ENDBRANCH   1   3
BRANCH   1  18
HETATM   18  O2  UNL     1      -0.089  -2.314  -0.324  1.00  0.00    -0.316 OA
BRANCH  18  19
HETATM   19  C12 UNL     1       0.936  -1.576  -0.833  1.00  0.00     0.269 C 
HETATM   20  O3  UNL     1       0.909  -1.316  -2.058  1.00  0.00    -0.264 OA
BRANCH  19  21
HETATM   21  C13 UNL     1       2.106  -1.054  -0.019  1.00  0.00     0.063 C 
HETATM   22  C14 UNL     1       2.784  -2.294   0.471  1.00  0.00     0.028 C 
HETATM   23  C15 UNL     1       1.579  -0.320   1.207  1.00  0.00     0.028 C 
BRANCH  21  24
HETATM   24  C16 UNL     1       2.872  -0.109  -0.853  1.00  0.00     0.198 C 
BRANCH  24  25
HETATM   25  O4  UNL     1       3.951   0.475  -0.267  1.00  0.00    -0.320 OA
BRANCH  25  26
HETATM   26  C17 UNL     1       5.162   0.060   0.119  1.00  0.00     0.259 C 
HETATM   27  O5  UNL     1       5.499  -1.132  -0.070  1.00  0.00    -0.265 OA
BRANCH  26  28
HETATM   28  C18 UNL     1       6.177   0.952   0.785  1.00  0.00     0.115 C 
BRANCH  28  29
HETATM   29  C19 UNL     1       7.251   1.381  -0.190  1.00  0.00    -0.013 C 
HETATM   30  C20 UNL     1       8.206   2.266   0.592  1.00  0.00     0.010 C 
HETATM   31  C21 UNL     1       6.634   2.261  -1.261  1.00  0.00     0.010 C 
ENDBRANCH  28  29
ENDBRANCH  26  28
ENDBRANCH  25  26
ENDBRANCH  24  25
ENDBRANCH  21  24
ENDBRANCH  19  21
ENDBRANCH  18  19
ENDBRANCH   1  18
TORSDOF 13
