REMARK  8 active torsions:
REMARK  status: ('A' for Active; 'I' for Inactive)
REMARK    1  A    between atoms: C2_2  and  C3_3 
REMARK    2  A    between atoms: C3_3  and  C4_4 
REMARK    3  A    between atoms: C4_4  and  N1_5 
REMARK    4  A    between atoms: N1_5  and  C5_7 
REMARK    5  A    between atoms: C9_14  and  N4_15 
REMARK    6  A    between atoms: N4_15  and  C10_17 
REMARK    7  A    between atoms: C10_17  and  C11_18 
REMARK    8  A    between atoms: C11_18  and  C12_19 
ROOT
HETATM    1  C5  UNL     1      -1.727   0.479  -0.400  1.00  0.00     0.680 A 
HETATM    2  N2  UNL     1      -1.710  -0.704  -1.040  1.00  0.00    -0.182 N 
ATOM      3  H2  UNL     1      -2.580  -1.087  -1.409  1.00  0.00     0.185 HD
HETATM    4  C6  UNL     1      -0.576  -1.382  -1.199  1.00  0.00     0.133 A 
HETATM    5  C7  UNL     1      -0.526  -2.650  -1.881  1.00  0.00     0.118 C 
HETATM    6  N3  UNL     1      -0.500  -3.680  -2.424  1.00  0.00    -0.190 NA
HETATM    7  C8  UNL     1       0.608  -0.885  -0.711  1.00  0.00     0.090 A 
HETATM    8  C9  UNL     1       0.602   0.316  -0.058  1.00  0.00     0.119 A 
HETATM    9  N7  UNL     1      -0.573   0.967   0.080  1.00  0.00    -0.177 N 
ATOM     10  H7  UNL     1      -0.584   1.863   0.567  1.00  0.00     0.185 HD
ENDROOT
BRANCH   1  11
HETATM   11  N1  UNL     1      -2.846   1.112  -0.261  1.00  0.00    -0.226 N 
ATOM     12  H1  UNL     1      -2.864   2.009   0.225  1.00  0.00     0.177 HD
BRANCH  11  13
HETATM   13  C4  UNL     1      -4.057   0.563  -0.784  1.00  0.00     0.138 C 
BRANCH  13  14
HETATM   14  C3  UNL     1      -5.263   1.352  -0.290  1.00  0.00     0.020 C 
BRANCH  14  15
HETATM   15  C2  UNL     1      -5.321   1.303   1.236  1.00  0.00    -0.003 C 
HETATM   16  C1  UNL     1      -5.442  -0.154   1.650  1.00  0.00     0.005 C 
ENDBRANCH  14  15
ENDBRANCH  13  14
ENDBRANCH  11  13
ENDBRANCH   1  11
BRANCH   8  17
HETATM   17  N4  UNL     1       1.706   0.814   0.417  1.00  0.00    -0.375 N 
ATOM     18  H4  UNL     1       1.709   1.710   0.905  1.00  0.00     0.161 HD
BRANCH  17  19
HETATM   19  C10 UNL     1       2.931   0.064   0.235  1.00  0.00     0.127 C 
BRANCH  19  20
HETATM   20  C11 UNL     1       4.038   0.855   0.888  1.00  0.00     0.078 C 
BRANCH  20  21
HETATM   21  C12 UNL     1       5.356   0.172   0.761  1.00  0.00     0.027 A 
HETATM   22  C13 UNL     1       5.701  -1.003   0.174  1.00  0.00     0.114 A 
HETATM   23  N5  UNL     1       7.035  -1.172   0.336  1.00  0.00    -0.360 N 
HETATM   24  C14 UNL     1       7.496  -0.102   1.020  1.00  0.00     0.180 A 
ATOM     25  H5  UNL     1       7.589  -1.961   0.003  1.00  0.00     0.166 HD
HETATM   26  N6  UNL     1       6.478   0.708   1.275  1.00  0.00    -0.355 N 
ATOM     27  H6  UNL     1       6.536   1.593   1.779  1.00  0.00     0.166 HD
ENDBRANCH  20  21
ENDBRANCH  19  20
ENDBRANCH  17  19
ENDBRANCH   8  17
TORSDOF 8
