REMARK  9 active torsions:
REMARK  status: ('A' for Active; 'I' for Inactive)
REMARK    1  A    between atoms: C2_2  and  C3_3 
REMARK    2  A    between atoms: C5_7  and  N2_8 
REMARK    3  A    between atoms: N2_8  and  C6_10 
REMARK    4  A    between atoms: C6_10  and  C7_11 
REMARK    5  A    between atoms: C7_11  and  C8_12 
REMARK    6  A    between atoms: N3_15  and  C11_16 
REMARK    7  A    between atoms: C11_16  and  C12_17 
REMARK    8  A    between atoms: C12_17  and  O1_18 
REMARK    9  A    between atoms: C15_23  and  N5_24 
ROOT
HETATM    1  C3  UNL     1      -5.464  -0.018  -0.435  1.00  0.00     0.023 A 
HETATM    2  C4  UNL     1      -5.397  -1.349  -0.100  1.00  0.00     0.121 A 
HETATM    3  N1  UNL     1      -4.184  -1.862   0.261  1.00  0.00    -0.201 N 
ATOM      4  H1  UNL     1      -4.133  -2.850   0.508  1.00  0.00     0.183 HD
HETATM    5  C5  UNL     1      -3.062  -1.143   0.308  1.00  0.00     0.679 A 
HETATM    6  N4  UNL     1      -3.136   0.151  -0.019  1.00  0.00    -0.176 N 
ATOM      7  H4  UNL     1      -2.289   0.718   0.011  1.00  0.00     0.186 HD
HETATM    8  C15 UNL     1      -4.288   0.724  -0.384  1.00  0.00     0.126 A 
ENDROOT
BRANCH   5   9
HETATM    9  N2  UNL     1      -1.977  -1.740   0.664  1.00  0.00    -0.226 N 
ATOM     10  H2  UNL     1      -1.971  -2.731   0.904  1.00  0.00     0.177 HD
BRANCH   9  11
HETATM   11  C6  UNL     1      -0.771  -0.949   0.709  1.00  0.00     0.142 C 
BRANCH  11  12
HETATM   12  C7  UNL     1       0.450  -1.794   1.002  1.00  0.00     0.060 C 
BRANCH  12  13
HETATM   13  C8  UNL     1       1.627  -0.886   1.025  1.00  0.00    -0.040 A 
HETATM   14  C9  UNL     1       2.123  -0.220   2.151  1.00  0.00     0.025 A 
HETATM   15  C10 UNL     1       3.211   0.511   1.747  1.00  0.00     0.091 A 
HETATM   16  N3  UNL     1       3.417   0.336   0.434  1.00  0.00    -0.364 N 
HETATM   17  C14 UNL     1       2.463  -0.506  -0.003  1.00  0.00     0.097 A 
BRANCH  16  18
HETATM   18  C11 UNL     1       4.482   0.940  -0.400  1.00  0.00     0.154 C 
BRANCH  18  19
HETATM   19  C12 UNL     1       5.692   0.076  -0.425  1.00  0.00     0.187 C 
BRANCH  19  20
HETATM   20  O1  UNL     1       6.675   0.618  -1.216  1.00  0.00    -0.394 OA
HETATM   21  C13 UNL     1       7.080   1.838  -0.767  1.00  0.00     0.201 C 
ENDBRANCH  19  20
ENDBRANCH  18  19
ENDBRANCH  16  18
ENDBRANCH  12  13
ENDBRANCH  11  12
ENDBRANCH   9  11
ENDBRANCH   5   9
BRANCH   8  22
HETATM   22  N5  UNL     1      -4.337   1.965  -0.693  1.00  0.00    -0.384 N 
ATOM     23  H52 UNL     1      -5.216   2.402  -0.971  1.00  0.00     0.157 HD
ATOM     24  H51 UNL     1      -3.475   2.509  -0.656  1.00  0.00     0.157 HD
ENDBRANCH   8  22
BRANCH   1  25
HETATM   25  C2  UNL     1      -6.711   0.616  -0.832  1.00  0.00     0.006 C 
HETATM   26  C1  UNL     1      -7.855  -0.007  -0.906  1.00  0.00     0.012 C 
ENDBRANCH   1  25
TORSDOF 9
