REMARK  7 active torsions:
REMARK  status: ('A' for Active; 'I' for Inactive)
REMARK    1  A    between atoms: C3_3  and  C5_5 
REMARK    2  A    between atoms: C5_5  and  O2_7 
REMARK    3  A    between atoms: O2_7  and  C6_8 
REMARK    4  A    between atoms: C14_18  and  C15_19 
REMARK    5  A    between atoms: C15_19  and  O4_21 
REMARK    6  A    between atoms: C17_23  and  O5_24 
REMARK    7  A    between atoms: O5_24  and  C18_25 
ROOT
HETATM    1  C6  UNL     1       0.948   0.285   1.585  1.00  0.00     0.165 C 
HETATM    2  C7  UNL     1       1.531   1.128   2.640  1.00  0.00     0.120 C 
HETATM    3  S1  UNL     1       0.286   1.486   3.903  1.00  0.00    -0.094 SA
HETATM    4  S2  UNL     1      -1.375   0.830   2.733  1.00  0.00    -0.081 SA
HETATM    5  C8  UNL     1      -0.417   0.657   1.156  1.00  0.00     0.080 C 
HETATM    6  C9  UNL     1      -0.591   1.851   0.341  1.00  0.00     0.029 C 
HETATM    7  C10 UNL     1       0.461   2.932   0.496  1.00  0.00     0.016 C 
HETATM    8  C11 UNL     1      -0.805   1.685  -1.108  1.00  0.00    -0.017 C 
HETATM    9  C12 UNL     1      -1.467   0.641  -1.552  1.00  0.00    -0.071 C 
HETATM   10  C13 UNL     1      -1.677   0.488  -3.037  1.00  0.00     0.044 C 
HETATM   11  C14 UNL     1      -1.975  -0.345  -0.598  1.00  0.00     0.145 C 
HETATM   12  C17 UNL     1      -1.013  -0.573   0.521  1.00  0.00     0.172 C 
ENDROOT
BRANCH   1  13
HETATM   13  O2  UNL     1       1.861   0.275   0.506  1.00  0.00    -0.310 OA
BRANCH  13  14
HETATM   14  C5  UNL     1       2.617  -0.773   0.085  1.00  0.00     0.289 C 
HETATM   15  O1  UNL     1       2.535  -1.870   0.690  1.00  0.00    -0.260 OA
BRANCH  14  16
HETATM   16  C3  UNL     1       3.540  -0.701  -1.055  1.00  0.00     0.009 C 
HETATM   17  C2  UNL     1       3.684   0.409  -1.742  1.00  0.00    -0.018 C 
HETATM   18  C1  UNL     1       4.607   0.517  -2.898  1.00  0.00     0.036 C 
HETATM   19  C4  UNL     1       4.343  -1.880  -1.472  1.00  0.00     0.054 C 
ENDBRANCH  14  16
ENDBRANCH  13  14
ENDBRANCH   1  13
BRANCH  12  20
HETATM   20  O5  UNL     1      -1.748  -1.349   1.487  1.00  0.00    -0.313 OA
BRANCH  20  21
HETATM   21  C18 UNL     1      -1.412  -2.660   1.728  1.00  0.00     0.255 C 
HETATM   22  C19 UNL     1      -2.165  -3.486   2.736  1.00  0.00     0.126 C 
HETATM   23  O6  UNL     1      -0.482  -3.250   1.147  1.00  0.00    -0.266 OA
ENDBRANCH  20  21
ENDBRANCH  12  20
BRANCH  11  24
HETATM   24  C15 UNL     1      -3.379  -0.203  -0.207  1.00  0.00     0.269 C 
HETATM   25  O3  UNL     1      -4.166  -1.163  -0.405  1.00  0.00    -0.264 OA
BRANCH  24  26
HETATM   26  O4  UNL     1      -3.915   0.929   0.375  1.00  0.00    -0.326 OA
HETATM   27  C16 UNL     1      -5.288   0.933   0.703  1.00  0.00     0.213 C 
ENDBRANCH  24  26
ENDBRANCH  11  24
TORSDOF 7
