REMARK  4 active torsions:
REMARK  status: ('A' for Active; 'I' for Inactive)
REMARK    1  A    between atoms: C3_4  and  N1_5 
REMARK       I    between atoms: N1_5  and  C4_7 
REMARK    2  A    between atoms: C5_12  and  N4_13 
REMARK    3  A    between atoms: C8_16  and  N5_17 
REMARK       I    between atoms: N5_17  and  C9_19 
REMARK    4  A    between atoms: C10_22  and  O3_24 
ROOT
HETATM    1  C1  UNL     1       0.830  -1.665  -2.893  1.00  0.00     0.042 C 
HETATM    2  C2  UNL     1       0.177  -0.755  -1.874  1.00  0.00     0.156 C 
HETATM    3  O1  UNL     1      -0.132  -1.527  -0.780  1.00  0.00    -0.357 OA
HETATM    4  C3  UNL     1      -0.818  -0.893   0.226  1.00  0.00     0.248 C 
HETATM    5  C5  UNL     1      -0.247   0.406   0.691  1.00  0.00     0.153 C 
HETATM    6  C8  UNL     1       0.664   1.106  -0.264  1.00  0.00     0.149 C 
HETATM    7  C10 UNL     1       1.184   0.265  -1.384  1.00  0.00     0.102 C 
HETATM    8  C11 UNL     1       2.412  -0.513  -0.956  1.00  0.00     0.051 C 
ENDROOT
BRANCH   4   9
HETATM    9  N1  UNL     1      -0.941  -1.864   1.292  1.00  0.00    -0.337 N 
HETATM   10  C4  UNL     1      -1.457  -3.163   1.095  1.00  0.00     0.183 C 
HETATM   11  N2  UNL     1      -0.775  -4.204   0.873  1.00  0.00    -0.374 N 
HETATM   12  N3  UNL     1      -2.892  -3.275   1.160  1.00  0.00    -0.064 NA
ATOM     13  H22 UNL     1       0.241  -4.125   0.827  1.00  0.00     0.158 HD
ATOM     14  H21 UNL     1      -1.148  -5.143   0.731  1.00  0.00     0.158 HD
ATOM     15  H1  UNL     1      -0.641  -1.597   2.230  1.00  0.00     0.164 HD
ENDBRANCH   4   9
BRANCH   5  16
HETATM   16  N4  UNL     1      -1.242   1.312   1.215  1.00  0.00    -0.411 N 
HETATM   17  C6  UNL     1      -1.920   0.830   2.374  1.00  0.00     0.143 C 
HETATM   18  C7  UNL     1      -2.053   1.946   0.240  1.00  0.00     0.143 C 
ENDBRANCH   5  16
BRANCH   6  19
HETATM   19  N5  UNL     1       1.794   1.753   0.379  1.00  0.00    -0.336 N 
HETATM   20  C9  UNL     1       2.001   3.144   0.364  1.00  0.00     0.329 C 
HETATM   21  N6  UNL     1       3.130   3.680   1.020  1.00  0.00    -0.040 NA
HETATM   22  O2  UNL     1       1.220   3.937  -0.209  1.00  0.00    -0.251 OA
ATOM     23  H5  UNL     1       2.473   1.168   0.867  1.00  0.00     0.164 HD
ENDBRANCH   6  19
BRANCH   7  24
HETATM   24  O3  UNL     1       1.562   1.027  -2.489  1.00  0.00    -0.385 OA
ATOM     25  H3  UNL     1       2.194   1.667  -2.182  1.00  0.00     0.210 HD
ENDBRANCH   7  24
TORSDOF 4
