REMARK  8 active torsions:
REMARK  status: ('A' for Active; 'I' for Inactive)
REMARK    1  A    between atoms: C2_2  and  C3_4 
REMARK       I    between atoms: C3_4  and  N2_6 
REMARK    2  A    between atoms: N2_6  and  N3_8 
REMARK    3  A    between atoms: C4_10  and  C5_11 
REMARK       I    between atoms: C5_11  and  N4_13 
REMARK    4  A    between atoms: N4_13  and  C6_15 
REMARK    5  A    between atoms: C6_15  and  O3_16 
REMARK    6  A    between atoms: C6_15  and  N5_18 
REMARK    7  A    between atoms: N5_18  and  N6_19 
REMARK    8  A    between atoms: N6_19  and  C7_21 
ROOT
HETATM    1  C5  UNL     1       0.897  -0.498  -0.572  1.00  0.00     0.266 C 
HETATM    2  O2  UNL     1       1.339   0.282  -1.155  1.00  0.00    -0.267 OA
HETATM    3  N4  UNL     1       1.698  -1.679   0.186  1.00  0.00    -0.275 N 
ATOM      4  H4  UNL     1       1.326  -2.467   0.717  1.00  0.00     0.173 HD
ENDROOT
BRANCH   1   5
HETATM    5  C4  UNL     1      -0.506  -0.673  -0.284  1.00  0.00     0.181 C 
HETATM    6  N3  UNL     1      -1.054  -1.716   0.325  1.00  0.00    -0.304 N 
ATOM      7  H3  UNL     1      -0.637  -2.569   0.699  1.00  0.00     0.186 HD
BRANCH   6   8
HETATM    8  N2  UNL     1      -2.492  -1.245   0.292  1.00  0.00    -0.265 N 
HETATM    9  C3  UNL     1      -2.957  -0.595   1.413  1.00  0.00     0.279 C 
HETATM   10  O1  UNL     1      -2.562  -0.494   2.518  1.00  0.00    -0.265 OA
ATOM     11  H2  UNL     1      -3.088  -1.402  -0.521  1.00  0.00     0.190 HD
BRANCH   9  12
HETATM   12  C2  UNL     1      -4.283   0.167   0.953  1.00  0.00     0.089 C 
HETATM   13  C1  UNL     1      -4.784  -0.344  -0.294  1.00  0.00     0.070 C 
HETATM   14  N1  UNL     1      -4.795   1.107   1.835  1.00  0.00    -0.102 NA
ENDBRANCH   9  12
ENDBRANCH   6   8
ENDBRANCH   1   5
BRANCH   3  15
HETATM   15  C6  UNL     1       3.115  -1.324  -0.088  1.00  0.00     0.321 C 
BRANCH  15  16
HETATM   16  O3  UNL     1       3.787  -2.288   0.613  1.00  0.00    -0.320 OA
ATOM     17  H3  UNL     1       4.693  -2.061   0.438  1.00  0.00     0.222 HD
ENDBRANCH  15  16
BRANCH  15  18
HETATM   18  N5  UNL     1       3.512  -0.358  -0.793  1.00  0.00    -0.278 NA
BRANCH  18  19
HETATM   19  N6  UNL     1       3.965   0.706  -1.568  1.00  0.00    -0.207 N 
ATOM     20  H6  UNL     1       3.638   0.763  -2.532  1.00  0.00     0.204 HD
BRANCH  19  21
HETATM   21  C7  UNL     1       4.836   1.702  -1.119  1.00  0.00     0.210 C 
HETATM   22  N7  UNL     1       5.510   1.512   0.193  1.00  0.00    -0.068 NA
HETATM   23  S1  UNL     1       5.143   3.007  -1.954  1.00  0.00    -0.042 SA
ENDBRANCH  19  21
ENDBRANCH  18  19
ENDBRANCH  15  18
ENDBRANCH   3  15
TORSDOF 8
