REMARK  6 active torsions:
REMARK  status: ('A' for Active; 'I' for Inactive)
REMARK    1  A    between atoms: N1_2  and  C2_4 
REMARK    2  A    between atoms: C2_4  and  N2_6 
REMARK    3  A    between atoms: C4_11  and  O1_12 
REMARK    4  A    between atoms: C4_11  and  C5_14 
REMARK    5  A    between atoms: C7_18  and  N4_19 
REMARK    6  A    between atoms: C7_18  and  C8_23 
ROOT
HETATM    1  N2  UNL     1       0.389  -0.181  -0.189  1.00  0.00    -0.268 N 
HETATM    2  C3  UNL     1      -0.220   1.109  -0.141  1.00  0.00     0.128 C 
HETATM    3  N3  UNL     1       0.339   2.219   0.175  1.00  0.00    -0.386 N 
ATOM      4  H31 UNL     1      -0.096   3.141   0.209  1.00  0.00     0.157 HD
ATOM      5  H32 UNL     1       1.319   2.320   0.438  1.00  0.00     0.157 HD
HETATM    6  C4  UNL     1      -1.669   0.959  -0.529  1.00  0.00     0.208 C 
HETATM    7  C6  UNL     1      -1.964  -0.421  -0.054  1.00  0.00     0.129 C 
HETATM    8  C7  UNL     1      -0.664  -1.124   0.135  1.00  0.00     0.286 C 
ENDROOT
BRANCH   8   9
HETATM    9  N4  UNL     1      -0.562  -2.276  -0.732  1.00  0.00    -0.043 N 
ATOM     10  H43 UNL     1      -0.566  -2.018  -1.719  1.00  0.00     0.278 HD
ATOM     11  H42 UNL     1       0.363  -2.704  -0.697  1.00  0.00     0.278 HD
ATOM     12  H41 UNL     1      -1.303  -2.939  -0.504  1.00  0.00     0.278 HD
ENDBRANCH   8   9
BRANCH   8  13
HETATM   13  C8  UNL     1      -0.584  -1.604   1.529  1.00  0.00     0.288 C 
HETATM   14  N5  UNL     1       0.391  -1.210   2.460  1.00  0.00    -0.058 NA
HETATM   15  O4  UNL     1      -1.457  -2.427   1.903  1.00  0.00    -0.272 OA
ENDBRANCH   8  13
BRANCH   1  16
HETATM   16  C2  UNL     1       1.727  -0.496  -0.492  1.00  0.00     0.177 C 
HETATM   17  S1  UNL     1       2.187  -2.087  -0.475  1.00  0.00    -0.041 SA
BRANCH  16  18
HETATM   18  N1  UNL     1       2.753   0.422  -0.819  1.00  0.00    -0.371 N 
HETATM   19  C1  UNL     1       4.105   0.050  -1.119  1.00  0.00     0.148 C 
ATOM     20  H1  UNL     1       2.515   1.414  -0.843  1.00  0.00     0.161 HD
ENDBRANCH  16  18
ENDBRANCH   1  16
BRANCH   6  21
HETATM   21  O1  UNL     1      -1.725   1.023  -1.902  1.00  0.00    -0.372 OA
ATOM     22  H1  UNL     1      -2.638   0.928  -2.147  1.00  0.00     0.211 HD
ENDBRANCH   6  21
BRANCH   6  23
HETATM   23  C5  UNL     1      -2.496   1.999   0.128  1.00  0.00     0.217 C 
HETATM   24  O2  UNL     1      -3.131   2.793  -0.578  1.00  0.00    -0.645 OA
HETATM   25  O3  UNL     1      -2.564   2.091   1.492  1.00  0.00    -0.645 OA
ENDBRANCH   6  23
TORSDOF 6
