REMARK  3 active torsions:
REMARK  status: ('A' for Active; 'I' for Inactive)
REMARK    1  A    between atoms: C2_2  and  C3_3 
REMARK    2  A    between atoms: C3_3  and  C4_4 
REMARK    3  A    between atoms: C4_4  and  N1_5 
ROOT
HETATM    1  N1  UNL     1      -0.382  -0.063   0.158  1.00  0.00    -0.180 N 
HETATM    2  C5  UNL     1      -1.094  -1.326   0.202  1.00  0.00     0.200 C 
HETATM    3  N2  UNL     1      -2.369  -1.307   0.776  1.00  0.00    -0.364 N 
ATOM      4  H2  UNL     1      -2.641  -2.071   1.395  1.00  0.00     0.165 HD
HETATM    5  C6  UNL     1      -3.282  -0.281   0.532  1.00  0.00     0.081 C 
HETATM    6  C7  UNL     1      -3.297   0.334  -0.837  1.00  0.00     0.182 C 
HETATM    7  N3  UNL     1      -2.256   1.369  -0.842  1.00  0.00    -0.222 N 
ATOM      8  H3  UNL     1      -2.467   2.267  -1.277  1.00  0.00     0.178 HD
HETATM    9  C8  UNL     1      -0.950   1.178  -0.263  1.00  0.00     0.675 C 
HETATM   10  N4  UNL     1      -0.212   2.248  -0.121  1.00  0.00    -0.235 N 
ATOM     11  H41 UNL     1      -0.618   3.134  -0.422  1.00  0.00     0.174 HD
ATOM     12  H42 UNL     1       0.712   2.113   0.289  1.00  0.00     0.174 HD
ENDROOT
BRANCH   1  13
HETATM   13  C4  UNL     1       1.013  -0.058   0.552  1.00  0.00     0.148 C 
BRANCH  13  14
HETATM   14  C3  UNL     1       1.885  -0.737  -0.457  1.00  0.00     0.020 C 
BRANCH  14  15
HETATM   15  C2  UNL     1       3.325  -0.772  -0.005  1.00  0.00    -0.003 C 
HETATM   16  C1  UNL     1       3.918   0.589   0.211  1.00  0.00     0.005 C 
ENDBRANCH  14  15
ENDBRANCH  13  14
ENDBRANCH   1  13
TORSDOF 3
