REMARK  1 active torsions:
REMARK  status: ('A' for Active; 'I' for Inactive)
REMARK    1  A    between atoms: C1_2  and  C2_4 
ROOT
HETATM    1  C2  UNL     1       0.805   0.074  -0.528  1.00  0.00     0.075 C 
HETATM    2  C3  UNL     1       0.433   1.302   0.218  1.00  0.00     0.013 C 
HETATM    3  C4  UNL     1      -0.996   1.589   0.368  1.00  0.00     0.001 C 
HETATM    4  C5  UNL     1      -1.927   0.422   0.318  1.00  0.00     0.000 C 
HETATM    5  C6  UNL     1      -1.821  -0.402  -0.919  1.00  0.00     0.000 C 
HETATM    6  C7  UNL     1      -0.952  -1.608  -0.601  1.00  0.00     0.001 C 
HETATM    7  C8  UNL     1       0.275  -1.167   0.175  1.00  0.00     0.013 C 
ENDROOT
BRANCH   1   8
HETATM    8  C1  UNL     1       2.303  -0.045  -0.484  1.00  0.00     0.235 C 
HETATM    9  N1  UNL     1       2.977  -0.151   0.751  1.00  0.00    -0.062 NA
HETATM   10  O1  UNL     1       3.003  -0.054  -1.531  1.00  0.00    -0.277 OA
ENDBRANCH   1   8
TORSDOF 1
