REMARK  2 active torsions:
REMARK  status: ('A' for Active; 'I' for Inactive)
REMARK    1  A    between atoms: C1_2  and  C2_4 
REMARK    2  A    between atoms: C3_5  and  C4_6 
ROOT
HETATM    1  C4  UNL     1      -0.639  -0.085  -0.795  1.00  0.00     0.008 C 
HETATM    2  C5  UNL     1      -1.504  -1.232  -0.287  1.00  0.00     0.008 C 
HETATM    3  C6  UNL     1      -2.818  -0.462  -0.083  1.00  0.00     0.001 C 
HETATM    4  C7  UNL     1      -2.334   0.698   0.754  1.00  0.00     0.001 C 
HETATM    5  C8  UNL     1      -1.000   1.048   0.092  1.00  0.00     0.008 C 
ENDROOT
BRANCH   1   6
HETATM    6  C3  UNL     1       0.782  -0.404  -0.878  1.00  0.00    -0.017 C 
HETATM    7  C2  UNL     1       1.781   0.189  -0.272  1.00  0.00     0.067 C 
BRANCH   7   8
HETATM    8  C1  UNL     1       3.140  -0.279  -0.485  1.00  0.00     0.254 C 
HETATM    9  N1  UNL     1       4.240   0.343   0.157  1.00  0.00    -0.058 NA
HETATM   10  O1  UNL     1       3.374  -1.251  -1.247  1.00  0.00    -0.272 OA
ENDBRANCH   7   8
ENDBRANCH   1   6
TORSDOF 2
