REMARK  2 active torsions:
REMARK  status: ('A' for Active; 'I' for Inactive)
REMARK    1  A    between atoms: C4_4  and  N1_5 
REMARK    2  A    between atoms: N1_5  and  C5_7 
ROOT
HETATM    1  C1  UNL     1      -2.844  -0.251  -0.213  1.00  0.00     0.000 C 
HETATM    2  C2  UNL     1      -1.910  -1.131   0.595  1.00  0.00     0.002 C 
HETATM    3  C3  UNL     1      -0.544  -1.020  -0.094  1.00  0.00     0.024 C 
HETATM    4  C4  UNL     1      -0.137   0.404  -0.246  1.00  0.00     0.077 C 
HETATM    5  C8  UNL     1      -1.056   1.380   0.434  1.00  0.00     0.024 C 
HETATM    6  C9  UNL     1      -2.505   1.175   0.099  1.00  0.00     0.002 C 
ENDROOT
BRANCH   4   7
HETATM    7  N1  UNL     1       1.197   0.697   0.190  1.00  0.00    -0.413 N 
ATOM      8  H1  UNL     1       1.395   1.339   0.958  1.00  0.00     0.154 HD
BRANCH   7   9
HETATM    9  C5  UNL     1       2.224   0.023  -0.531  1.00  0.00     0.077 A 
HETATM   10  C6  UNL     1       3.627   0.290  -0.119  1.00  0.00     0.027 A 
HETATM   11  C7  UNL     1       2.966  -1.077   0.086  1.00  0.00     0.027 A 
ENDBRANCH   7   9
ENDBRANCH   4   7
TORSDOF 2
