REMARK  1 active torsions:
REMARK  status: ('A' for Active; 'I' for Inactive)
REMARK    1  A    between atoms: N1_1  and  C1_5 
ROOT
HETATM    1  C1  UNL     1       1.150   0.572  -0.221  1.00  0.00     0.206 C 
HETATM    2  C2  UNL     1       0.557  -0.784  -0.523  1.00  0.00     0.018 C 
HETATM    3  C3  UNL     1      -0.221  -1.339   0.639  1.00  0.00     0.007 C 
HETATM    4  C4  UNL     1      -1.499  -0.508   0.744  1.00  0.00     0.006 C 
HETATM    5  C5  UNL     1      -1.261   0.557  -0.325  1.00  0.00     0.006 C 
HETATM    6  C6  UNL     1      -0.613  -0.315  -1.413  1.00  0.00     0.013 C 
HETATM    7  C7  UNL     1      -0.108   1.370   0.133  1.00  0.00     0.117 C 
HETATM    8 CL1  UNL     1      -0.004   2.974  -0.542  1.00  0.00    -0.122 Cl
ENDROOT
BRANCH   1   9
HETATM    9  N1  UNL     1       2.106   0.576   0.824  1.00  0.00    -0.073 N 
ATOM     10  H13 UNL     1       1.709   0.166   1.669  1.00  0.00     0.274 HD
ATOM     11  H12 UNL     1       2.845  -0.100   0.631  1.00  0.00     0.274 HD
ATOM     12  H11 UNL     1       2.506   1.492   1.028  1.00  0.00     0.274 HD
ENDBRANCH   1   9
TORSDOF 1
