REMARK  3 active torsions:
REMARK  status: ('A' for Active; 'I' for Inactive)
REMARK    1  A    between atoms: C2_2  and  N1_5 
REMARK    2  A    between atoms: N1_5  and  C5_6 
REMARK    3  A    between atoms: N1_5  and  C9_10 
ROOT
HETATM    1  N1  UNL     1      -0.153  -0.065  -0.305  1.00  0.00    -0.395 N 
ENDROOT
BRANCH   1   2
HETATM    2  C2  UNL     1      -0.841  -1.270  -0.234  1.00  0.00     0.018 C 
HETATM    3  C1  UNL     1      -1.247  -1.669   1.193  1.00  0.00     0.037 C 
HETATM    4  C3  UNL     1      -2.138  -1.242  -1.026  1.00  0.00     0.037 C 
HETATM    5  C4  UNL     1      -0.124  -2.487  -0.785  1.00  0.00     0.037 C 
ENDBRANCH   1   2
BRANCH   1   6
HETATM    6  C5  UNL     1      -0.908   1.055   0.149  1.00  0.00     0.080 C 
HETATM    7  C6  UNL     1      -2.140   1.524  -0.492  1.00  0.00     0.025 C 
HETATM    8  C7  UNL     1      -1.747   2.940   0.006  1.00  0.00     0.004 C 
HETATM    9  C8  UNL     1      -0.329   2.430  -0.245  1.00  0.00     0.025 C 
ENDBRANCH   1   6
BRANCH   1  10
HETATM   10  C9  UNL     1       1.177   0.118  -0.035  1.00  0.00     0.107 C 
HETATM   11  C10 UNL     1       1.766  -0.149   1.313  1.00  0.00     0.054 C 
HETATM   12  C11 UNL     1       3.180   0.356   1.046  1.00  0.00     0.234 C 
HETATM   13  N2  UNL     1       3.412   0.171  -0.380  1.00  0.00    -0.073 N 
HETATM   14  C12 UNL     1       2.229  -0.587  -0.859  1.00  0.00     0.257 C 
ATOM     15  H22 UNL     1       3.583   1.038  -0.889  1.00  0.00     0.277 HD
ATOM     16  H21 UNL     1       4.305  -0.270  -0.601  1.00  0.00     0.277 HD
ENDBRANCH   1  10
TORSDOF 3
