REMARK  2 active torsions:
REMARK  status: ('A' for Active; 'I' for Inactive)
REMARK    1  A    between atoms: N1_3  and  N2_5 
REMARK    2  A    between atoms: N2_5  and  C3_7 
ROOT
HETATM    1  C3  UNL     1       0.319  -0.092  -0.029  1.00  0.00     0.046 C 
HETATM    2  C4  UNL     1      -0.384  -1.282  -0.660  1.00  0.00     0.037 C 
HETATM    3  C5  UNL     1      -1.857  -1.181  -0.435  1.00  0.00    -0.012 C 
HETATM    4  C6  UNL     1      -2.237  -1.093   1.008  1.00  0.00     0.009 C 
HETATM    5  C7  UNL     1      -1.590   0.141   1.589  1.00  0.00    -0.012 C 
HETATM    6  C8  UNL     1      -2.050   1.394   0.858  1.00  0.00     0.009 C 
HETATM    7  C9  UNL     1      -1.650   1.238  -0.584  1.00  0.00    -0.012 C 
HETATM    8  C10 UNL     1      -2.372   0.033  -1.165  1.00  0.00     0.009 C 
HETATM    9  C11 UNL     1      -0.157   1.138  -0.762  1.00  0.00     0.037 C 
HETATM   10  C12 UNL     1      -0.110   0.033   1.413  1.00  0.00     0.037 C 
ENDROOT
BRANCH   1  11
HETATM   11  N2  UNL     1       1.736  -0.267  -0.078  1.00  0.00    -0.327 N 
ATOM     12  H2  UNL     1       2.264  -0.286   0.794  1.00  0.00     0.181 HD
BRANCH  11  13
HETATM   13  N1  UNL     1       2.425  -0.414  -1.302  1.00  0.00    -0.320 N 
HETATM   14  C2  UNL     1       3.698  -0.292  -1.350  1.00  0.00     0.075 C 
HETATM   15  C1  UNL     1       4.477   0.003  -0.133  1.00  0.00     0.056 C 
ATOM     16  H1  UNL     1       1.904  -0.619  -2.155  1.00  0.00     0.185 HD
ENDBRANCH  11  13
ENDBRANCH   1  11
TORSDOF 2
