REMARK  16 active torsions:
REMARK  status: ('A' for Active; 'I' for Inactive)
REMARK    1  A    between atoms: C2_2  and  C3_3 
REMARK    2  A    between atoms: C3_3  and  C4_4 
REMARK    3  A    between atoms: C3_3  and  C6_6 
REMARK    4  A    between atoms: C3_3  and  C21_40 
REMARK    5  A    between atoms: C6_6  and  O1_7 
REMARK    6  A    between atoms: C6_6  and  N1_9 
REMARK    7  A    between atoms: N2_12  and  C9_13 
REMARK    8  A    between atoms: C9_13  and  C10_14 
REMARK    9  A    between atoms: C10_14  and  C11_15 
REMARK   10  A    between atoms: C11_15  and  C12_16 
REMARK   11  A    between atoms: C12_16  and  N3_17 
REMARK       I    between atoms: N3_17  and  C13_19 
REMARK   12  A    between atoms: C13_19  and  C14_21 
REMARK   13  A    between atoms: C14_21  and  N4_22 
REMARK       I    between atoms: N4_22  and  C15_24 
REMARK   14  A    between atoms: C15_24  and  C16_26 
REMARK   15  A    between atoms: C16_26  and  N5_27 
REMARK   16  A    between atoms: N8_34  and  O4_36 
ROOT
HETATM    1  C9  UNL     1       1.674   2.225  -0.261  1.00  0.00     0.099 C 
HETATM    2  N8  UNL     1       1.464   3.443  -0.625  1.00  0.00    -0.257 N 
ATOM      3  H8  UNL     1       0.604   3.642  -1.136  1.00  0.00     0.195 HD
ENDROOT
BRANCH   1   4
HETATM    4  N2  UNL     1       0.711   1.230  -0.583  1.00  0.00    -0.366 N 
HETATM    5  C8  UNL     1      -0.136   1.411  -1.762  1.00  0.00     0.144 C 
HETATM    6  C7  UNL     1      -1.102   0.271  -1.930  1.00  0.00     0.144 C 
HETATM    7  N1  UNL     1      -1.792  -0.042  -0.676  1.00  0.00    -0.361 N 
HETATM    8  C20 UNL     1      -0.990  -0.042   0.500  1.00  0.00     0.144 C 
HETATM    9  C19 UNL     1       0.502   0.032   0.178  1.00  0.00     0.144 C 
BRANCH   7  10
HETATM   10  C6  UNL     1      -3.160  -0.279  -0.718  1.00  0.00     0.127 C 
BRANCH  10  11
HETATM   11  C3  UNL     1      -4.106  -0.648   0.324  1.00  0.00     0.051 C 
BRANCH  11  12
HETATM   12  C2  UNL     1      -4.049   0.182   1.549  1.00  0.00     0.018 C 
HETATM   13  C1  UNL     1      -4.262   1.650   1.241  1.00  0.00     0.006 C 
ENDBRANCH  11  12
BRANCH  11  14
HETATM   14  C4  UNL     1      -3.825  -2.110   0.741  1.00  0.00     0.018 C 
HETATM   15  C5  UNL     1      -4.868  -2.587   1.733  1.00  0.00     0.006 C 
ENDBRANCH  11  14
BRANCH  11  16
HETATM   16  C21 UNL     1      -5.537  -0.692  -0.174  1.00  0.00    -0.041 A 
HETATM   17  C22 UNL     1      -5.853  -1.384  -1.342  1.00  0.00     0.009 A 
HETATM   18  C23 UNL     1      -7.142  -1.451  -1.842  1.00  0.00     0.008 A 
HETATM   19  C24 UNL     1      -8.167  -0.835  -1.203  1.00  0.00    -0.052 A 
HETATM   20  C25 UNL     1      -7.886  -0.151  -0.054  1.00  0.00    -0.051 A 
HETATM   21  C30 UNL     1      -9.578  -0.864  -1.682  1.00  0.00     0.039 C 
HETATM   22  C26 UNL     1      -6.580  -0.078   0.460  1.00  0.00     0.016 A 
HETATM   23  C27 UNL     1      -8.991   0.523   0.652  1.00  0.00     0.039 C 
HETATM   24  C28 UNL     1      -9.786   1.283  -0.387  1.00  0.00     0.005 C 
HETATM   25  C29 UNL     1     -10.301   0.427  -1.493  1.00  0.00     0.005 C 
ENDBRANCH  11  16
ENDBRANCH  10  11
BRANCH  10  26
HETATM   26  O1  UNL     1      -3.683  -0.143  -1.901  1.00  0.00    -0.349 OA
ATOM     27  H1  UNL     1      -3.065   0.098  -2.581  1.00  0.00     0.219 HD
ENDBRANCH  10  26
ENDBRANCH   7  10
ENDBRANCH   1   4
BRANCH   1  28
HETATM   28  C10 UNL     1       2.909   1.932   0.475  1.00  0.00     0.080 C 
BRANCH  28  29
HETATM   29  C11 UNL     1       3.696   0.919  -0.335  1.00  0.00     0.027 C 
BRANCH  29  30
HETATM   30  C12 UNL     1       4.982   0.597   0.409  1.00  0.00     0.123 C 
BRANCH  30  31
HETATM   31  N3  UNL     1       5.769  -0.370  -0.326  1.00  0.00    -0.360 N 
HETATM   32  C13 UNL     1       7.006  -0.819   0.176  1.00  0.00     0.235 C 
HETATM   33  O2  UNL     1       7.406  -0.350   1.289  1.00  0.00    -0.272 OA
ATOM     34  H3  UNL     1       5.425  -0.730  -1.216  1.00  0.00     0.162 HD
BRANCH  32  35
HETATM   35  C14 UNL     1       7.769  -1.803  -0.608  1.00  0.00     0.225 C 
BRANCH  35  36
HETATM   36  N4  UNL     1       9.010  -2.156   0.010  1.00  0.00    -0.351 N 
HETATM   37  C15 UNL     1      10.011  -1.190   0.232  1.00  0.00     0.237 C 
HETATM   38  O3  UNL     1       9.826  -0.006  -0.117  1.00  0.00    -0.272 OA
ATOM     39  H4  UNL     1       9.173  -3.122   0.294  1.00  0.00     0.163 HD
BRANCH  37  40
HETATM   40  C16 UNL     1      11.279  -1.594   0.882  1.00  0.00     0.252 C 
BRANCH  40  41
HETATM   41  N5  UNL     1      12.196  -0.487   1.036  1.00  0.00    -0.278 N 
HETATM   42  C17 UNL     1      13.113  -0.131   0.123  1.00  0.00     0.201 A 
HETATM   43  N6  UNL     1      13.756   0.928   0.634  1.00  0.00    -0.346 N 
HETATM   44  C18 UNL     1      13.255   1.231   1.838  1.00  0.00     0.198 A 
ATOM     45  H6  UNL     1      14.515   1.429   0.173  1.00  0.00     0.167 HD
HETATM   46  N7  UNL     1      12.272   0.325   2.073  1.00  0.00    -0.293 N 
ATOM     47  H7  UNL     1      11.690   0.280   2.910  1.00  0.00     0.188 HD
ENDBRANCH  40  41
ENDBRANCH  37  40
ENDBRANCH  35  36
ENDBRANCH  32  35
ENDBRANCH  30  31
ENDBRANCH  29  30
ENDBRANCH  28  29
ENDBRANCH   1  28
BRANCH   2  48
HETATM   48  O4  UNL     1       2.300   4.477  -0.380  1.00  0.00    -0.288 OA
ATOM     49  H4  UNL     1       2.145   5.375  -0.648  1.00  0.00     0.244 HD
ENDBRANCH   2  48
TORSDOF 16
