REMARK  15 active torsions:
REMARK  status: ('A' for Active; 'I' for Inactive)
REMARK    1  A    between atoms: C2_2  and  O1_3 
REMARK    2  A    between atoms: O1_3  and  C3_4 
REMARK    3  A    between atoms: C3_4  and  C4_5 
REMARK    4  A    between atoms: C4_5  and  C5_6 
REMARK    5  A    between atoms: C5_6  and  N1_7 
REMARK       I    between atoms: N1_7  and  C6_9 
REMARK    6  A    between atoms: C6_9  and  C7_11 
REMARK    7  A    between atoms: C9_13  and  N2_14 
REMARK       I    between atoms: N2_14  and  C10_16 
REMARK    8  A    between atoms: C10_16  and  C11_18 
REMARK    9  A    between atoms: C11_18  and  N3_19 
REMARK   10  A    between atoms: C11_18  and  C17_28 
REMARK       I    between atoms: N3_19  and  C12_21 
REMARK   11  A    between atoms: C12_21  and  O5_23 
REMARK   12  A    between atoms: O5_23  and  C13_24 
REMARK   13  A    between atoms: N4_33  and  C22_34 
REMARK       I    between atoms: N5_37  and  C25_38 
REMARK   14  A    between atoms: C25_38  and  C26_40 
REMARK   15  A    between atoms: C26_40  and  C27_41 
ROOT
HETATM    1  C27 UNL     1      -6.431   6.810  -0.710  1.00  0.00     0.133 C 
HETATM    2  C28 UNL     1      -6.551   8.025   0.113  1.00  0.00     0.059 C 
HETATM    3  N6  UNL     1      -6.660   8.987   0.746  1.00  0.00    -0.197 NA
ENDROOT
BRANCH   1   4
HETATM    4  C26 UNL     1      -5.285   6.018  -0.168  1.00  0.00     0.117 C 
BRANCH   4   5
HETATM    5  C25 UNL     1      -5.045   4.762  -0.899  1.00  0.00     0.220 C 
HETATM    6  N5  UNL     1      -4.009   3.868  -0.533  1.00  0.00    -0.350 N 
HETATM    7  C24 UNL     1      -3.086   4.102   0.584  1.00  0.00     0.128 C 
HETATM    8  C29 UNL     1      -3.683   2.604  -1.163  1.00  0.00     0.161 C 
HETATM    9  C23 UNL     1      -2.403   2.793   0.800  1.00  0.00     0.057 C 
HETATM   10  C22 UNL     1      -2.309   2.225  -0.600  1.00  0.00     0.243 C 
HETATM   11  O6  UNL     1      -5.780   4.477  -1.871  1.00  0.00    -0.273 OA
BRANCH  10  12
HETATM   12  N4  UNL     1      -2.125   0.814  -0.553  1.00  0.00     0.110 N 
HETATM   13  C7  UNL     1      -1.853   0.148  -1.772  1.00  0.00     0.316 C 
HETATM   14  C8  UNL     1      -0.493  -0.541  -1.641  1.00  0.00     0.072 C 
HETATM   15  C9  UNL     1       0.090   0.201  -0.448  1.00  0.00     0.115 C 
HETATM   16  C21 UNL     1      -1.143   0.389   0.375  1.00  0.00     0.299 C 
BRANCH  13  17
HETATM   17  C6  UNL     1      -2.847  -0.975  -1.936  1.00  0.00     0.251 C 
HETATM   18  N1  UNL     1      -3.853  -1.176  -0.977  1.00  0.00    -0.359 N 
ATOM     19  H1  UNL     1      -3.906  -0.553  -0.171  1.00  0.00     0.162 HD
HETATM   20  O2  UNL     1      -2.786  -1.738  -2.930  1.00  0.00    -0.271 OA
BRANCH  18  21
HETATM   21  C5  UNL     1      -4.806  -2.237  -1.106  1.00  0.00     0.125 C 
BRANCH  21  22
HETATM   22  C4  UNL     1      -4.193  -3.615  -1.099  1.00  0.00     0.046 C 
BRANCH  22  23
HETATM   23  C3  UNL     1      -3.453  -3.821   0.192  1.00  0.00     0.169 C 
BRANCH  23  24
HETATM   24  O1  UNL     1      -4.299  -3.686   1.256  1.00  0.00    -0.391 OA
BRANCH  24  25
HETATM   25  C2  UNL     1      -5.358  -4.555   1.321  1.00  0.00     0.163 C 
HETATM   26  C1  UNL     1      -6.123  -4.209   2.606  1.00  0.00     0.033 C 
ENDBRANCH  24  25
ENDBRANCH  23  24
ENDBRANCH  22  23
ENDBRANCH  21  22
ENDBRANCH  18  21
ENDBRANCH  13  17
BRANCH  15  27
HETATM   27  N2  UNL     1       1.132  -0.541   0.198  1.00  0.00    -0.353 N 
HETATM   28  C10 UNL     1       2.499  -0.178   0.180  1.00  0.00     0.241 C 
HETATM   29  O3  UNL     1       2.748   0.895  -0.482  1.00  0.00    -0.271 OA
ATOM     30  H2  UNL     1       0.871  -1.387   0.704  1.00  0.00     0.163 HD
BRANCH  28  31
HETATM   31  C11 UNL     1       3.619  -0.857   0.800  1.00  0.00     0.186 C 
BRANCH  31  32
HETATM   32  N3  UNL     1       4.871  -0.183   0.443  1.00  0.00    -0.323 N 
HETATM   33  C12 UNL     1       5.888  -0.783  -0.319  1.00  0.00     0.362 C 
HETATM   34  O4  UNL     1       5.794  -1.958  -0.752  1.00  0.00    -0.238 OA
ATOM     35  H3  UNL     1       5.012   0.774   0.766  1.00  0.00     0.165 HD
BRANCH  33  36
HETATM   36  O5  UNL     1       7.042  -0.088  -0.620  1.00  0.00    -0.294 OA
BRANCH  36  37
HETATM   37  C13 UNL     1       8.073  -0.681  -1.385  1.00  0.00     0.061 C 
HETATM   38  C14 UNL     1       9.180   0.340  -1.535  1.00  0.00     0.046 C 
HETATM   39  C15 UNL     1       7.628  -1.104  -2.744  1.00  0.00     0.046 C 
HETATM   40  C16 UNL     1       8.666  -1.884  -0.675  1.00  0.00     0.046 C 
ENDBRANCH  36  37
ENDBRANCH  33  36
ENDBRANCH  31  32
BRANCH  31  41
HETATM   41  C17 UNL     1       3.540  -1.089   2.279  1.00  0.00    -0.022 C 
HETATM   42  C18 UNL     1       3.406   0.157   3.089  1.00  0.00     0.017 C 
HETATM   43  C19 UNL     1       2.535  -2.141   2.590  1.00  0.00     0.017 C 
HETATM   44  C20 UNL     1       4.899  -1.700   2.702  1.00  0.00     0.017 C 
ENDBRANCH  31  41
ENDBRANCH  28  31
ENDBRANCH  15  27
ENDBRANCH  10  12
ENDBRANCH   4   5
ENDBRANCH   1   4
TORSDOF 15
