REMARK  14 active torsions:
REMARK  status: ('A' for Active; 'I' for Inactive)
REMARK    1  A    between atoms: C2_2  and  C3_3 
REMARK    2  A    between atoms: C2_2  and  C5_5 
REMARK       I    between atoms: C5_5  and  N1_7 
REMARK    3  A    between atoms: N1_7  and  C6_9 
REMARK    4  A    between atoms: C6_9  and  C7_10 
REMARK    5  A    between atoms: C7_10  and  C8_11 
REMARK    6  A    between atoms: C7_10  and  C19_24 
REMARK       I    between atoms: C8_11  and  N2_13 
REMARK    7  A    between atoms: C19_24  and  N3_25 
REMARK    8  A    between atoms: C19_24  and  N5_34 
REMARK       I    between atoms: N3_25  and  C20_27 
REMARK    9  A    between atoms: C20_27  and  C21_29 
REMARK   10  A    between atoms: C21_29  and  N4_30 
REMARK       I    between atoms: N5_34  and  C23_36 
REMARK   11  A    between atoms: C23_36  and  O5_38 
REMARK   12  A    between atoms: O5_38  and  C24_39 
REMARK   13  A    between atoms: C24_39  and  C25_40 
REMARK   14  A    between atoms: C25_40  and  C26_41 
ROOT
HETATM    1  C7  UNL     1       0.705  -0.949   0.954  1.00  0.00     0.047 C 
ENDROOT
BRANCH   1   2
HETATM    2  C6  UNL     1       0.622  -2.362   1.412  1.00  0.00     0.167 C 
BRANCH   2   3
HETATM    3  N1  UNL     1       0.353  -3.293   0.331  1.00  0.00    -0.353 N 
HETATM    4  C5  UNL     1       0.252  -4.684   0.554  1.00  0.00     0.247 C 
HETATM    5  O1  UNL     1       0.412  -5.103   1.731  1.00  0.00    -0.268 OA
ATOM      6  H1  UNL     1       0.234  -2.933  -0.616  1.00  0.00     0.163 HD
BRANCH   4   7
HETATM    7  C2  UNL     1      -0.025  -5.652  -0.487  1.00  0.00    -0.000 C 
HETATM    8  C1  UNL     1      -0.101  -6.952  -0.223  1.00  0.00     0.024 C 
BRANCH   7   9
HETATM    9  C3  UNL     1      -0.246  -5.190  -1.877  1.00  0.00     0.039 C 
HETATM   10  C4  UNL     1      -0.526  -6.360  -2.800  1.00  0.00     0.010 C 
ENDBRANCH   7   9
ENDBRANCH   4   7
ENDBRANCH   2   3
ENDBRANCH   1   2
BRANCH   1  11
HETATM   11  C8  UNL     1      -0.489  -0.412   0.295  1.00  0.00     0.251 C 
HETATM   12  O2  UNL     1      -0.552  -0.301  -0.963  1.00  0.00    -0.268 OA
HETATM   13  N2  UNL     1      -1.668   0.021   1.000  1.00  0.00    -0.348 N 
HETATM   14  C9  UNL     1      -1.803   0.004   2.437  1.00  0.00     0.126 C 
HETATM   15  C18 UNL     1      -2.823   0.508   0.278  1.00  0.00     0.135 C 
HETATM   16  C10 UNL     1      -1.955   1.485   2.823  1.00  0.00     0.021 C 
HETATM   17  C11 UNL     1      -3.305   1.903   2.321  1.00  0.00     0.012 C 
HETATM   18  C12 UNL     1      -3.491   1.706   0.849  1.00  0.00    -0.024 C 
HETATM   19  C13 UNL     1      -3.054   2.985   0.160  1.00  0.00     0.011 C 
HETATM   20  C17 UNL     1      -4.984   1.567   0.612  1.00  0.00     0.011 C 
HETATM   21  C14 UNL     1      -3.988   3.396  -0.937  1.00  0.00     0.001 C 
HETATM   22  C15 UNL     1      -5.384   3.701  -0.471  1.00  0.00     0.000 C 
HETATM   23  C16 UNL     1      -5.668   2.922   0.790  1.00  0.00     0.001 C 
ENDBRANCH   1  11
BRANCH   1  24
HETATM   24  C19 UNL     1       1.982  -0.487   0.337  1.00  0.00     0.228 C 
BRANCH  24  25
HETATM   25  N3  UNL     1       2.424  -1.187  -0.828  1.00  0.00    -0.334 N 
HETATM   26  C20 UNL     1       2.598  -0.686  -2.135  1.00  0.00     0.244 C 
HETATM   27  O3  UNL     1       2.346   0.517  -2.355  1.00  0.00    -0.272 OA
ATOM     28  H3  UNL     1       2.641  -2.175  -0.698  1.00  0.00     0.164 HD
BRANCH  26  29
HETATM   29  C21 UNL     1       3.065  -1.484  -3.291  1.00  0.00     0.332 C 
BRANCH  29  30
HETATM   30  N4  UNL     1       3.349  -2.857  -2.987  1.00  0.00    -0.071 N 
ATOM     31  H43 UNL     1       4.016  -2.920  -2.218  1.00  0.00     0.274 HD
ATOM     32  H42 UNL     1       2.539  -3.300  -2.553  1.00  0.00     0.274 HD
ATOM     33  H41 UNL     1       3.671  -3.407  -3.784  1.00  0.00     0.274 HD
ENDBRANCH  29  30
ENDBRANCH  26  29
ENDBRANCH  24  25
BRANCH  24  34
HETATM   34  N5  UNL     1       3.032  -0.271   1.308  1.00  0.00    -0.307 N 
HETATM   35  C22 UNL     1       3.709  -1.387   1.979  1.00  0.00     0.157 C 
HETATM   36  C23 UNL     1       3.447   1.027   1.639  1.00  0.00     0.364 C 
HETATM   37  O4  UNL     1       4.349   1.207   2.508  1.00  0.00    -0.238 OA
BRANCH  36  38
HETATM   38  O5  UNL     1       2.934   2.191   1.080  1.00  0.00    -0.304 OA
BRANCH  38  39
HETATM   39  C24 UNL     1       3.395   3.471   1.489  1.00  0.00     0.185 C 
BRANCH  39  40
HETATM   40  C25 UNL     1       2.740   4.586   0.743  1.00  0.00     0.074 C 
BRANCH  40  41
HETATM   41  C26 UNL     1       3.056   4.499  -0.727  1.00  0.00     0.001 A 
HETATM   42  C27 UNL     1       3.891   3.599  -1.346  1.00  0.00     0.102 A 
HETATM   43  N6  UNL     1       4.021   3.692  -2.632  1.00  0.00    -0.368 N 
HETATM   44  C28 UNL     1       3.361   4.627  -3.296  1.00  0.00     0.138 A 
ATOM     45  H6  UNL     1       4.631   3.045  -3.132  1.00  0.00     0.165 HD
HETATM   46  S1  UNL     1       2.509   5.426  -2.049  1.00  0.00    -0.088 SA
ENDBRANCH  40  41
ENDBRANCH  39  40
ENDBRANCH  38  39
ENDBRANCH  36  38
ENDBRANCH  24  34
ENDBRANCH   1  24
TORSDOF 14
