REMARK  10 active torsions:
REMARK  status: ('A' for Active; 'I' for Inactive)
REMARK    1  A    between atoms: C2_2  and  C4_4 
REMARK    2  A    between atoms: C11_11  and  O1_12 
REMARK    3  A    between atoms: C11_11  and  C12_14 
REMARK    4  A    between atoms: C15_18  and  C16_19 
REMARK    5  A    between atoms: C16_19  and  C18_21 
REMARK    6  A    between atoms: C18_21  and  O3_22 
REMARK    7  A    between atoms: C18_21  and  C19_24 
REMARK    8  A    between atoms: C19_24  and  C20_25 
REMARK    9  A    between atoms: C20_25  and  O5_27 
REMARK   10  A    between atoms: O5_27  and  C21_28 
ROOT
HETATM    1  C4  UNL     1      -5.129   0.750   0.450  1.00  0.00     0.022 C 
HETATM    2  C5  UNL     1      -5.694  -0.426   1.255  1.00  0.00     0.010 C 
HETATM    3  C6  UNL     1      -4.498  -1.364   1.480  1.00  0.00     0.006 C 
HETATM    4  C7  UNL     1      -3.350  -0.540   0.963  1.00  0.00    -0.001 C 
HETATM    5  C8  UNL     1      -2.051  -1.161   0.840  1.00  0.00     0.002 C 
HETATM    6  C9  UNL     1      -1.961  -2.572   0.400  1.00  0.00     0.009 C 
HETATM    7  C10 UNL     1      -0.913  -2.552  -0.684  1.00  0.00     0.042 C 
HETATM    8  C11 UNL     1      -0.059  -1.277  -0.403  1.00  0.00     0.095 C 
HETATM    9  C23 UNL     1      -1.102  -0.335  -0.000  1.00  0.00    -0.006 C 
HETATM   10  C24 UNL     1      -0.705   0.864   0.800  1.00  0.00     0.019 C 
HETATM   11  C25 UNL     1      -1.786   0.195  -1.251  1.00  0.00     0.013 C 
HETATM   12  C26 UNL     1      -3.048   0.966  -0.941  1.00  0.00     0.011 C 
HETATM   13  C27 UNL     1      -4.005   0.058  -0.264  1.00  0.00    -0.033 C 
HETATM   14  C28 UNL     1      -4.533  -0.954  -1.208  1.00  0.00     0.016 C 
ENDROOT
BRANCH   8  15
HETATM   15  O1  UNL     1       0.451  -0.957  -1.675  1.00  0.00    -0.386 OA
ATOM     16  H1  UNL     1       0.971  -0.181  -1.504  1.00  0.00     0.210 HD
ENDBRANCH   8  15
BRANCH   8  17
HETATM   17  C12 UNL     1       0.982  -1.714   0.538  1.00  0.00     0.187 C 
HETATM   18  O2  UNL     1       0.634  -2.057   1.814  1.00  0.00    -0.374 OA
HETATM   19  C13 UNL     1       1.857  -1.568   2.273  1.00  0.00     0.205 C 
HETATM   20  C14 UNL     1       1.970  -0.751   1.041  1.00  0.00    -0.028 C 
HETATM   21  C15 UNL     1       2.627   0.286   0.616  1.00  0.00    -0.012 C 
BRANCH  21  22
HETATM   22  C16 UNL     1       3.600   1.102   1.364  1.00  0.00     0.034 C 
HETATM   23  C17 UNL     1       3.822   0.684   2.789  1.00  0.00     0.017 C 
BRANCH  22  24
HETATM   24  C18 UNL     1       4.969   1.093   0.691  1.00  0.00     0.134 C 
BRANCH  24  25
HETATM   25  O3  UNL     1       5.479  -0.196   0.607  1.00  0.00    -0.394 OA
ATOM     26  H3  UNL     1       6.332  -0.202   0.188  1.00  0.00     0.210 HD
ENDBRANCH  24  25
BRANCH  24  27
HETATM   27  C19 UNL     1       4.903   1.662  -0.696  1.00  0.00     0.143 C 
BRANCH  27  28
HETATM   28  C20 UNL     1       6.264   1.623  -1.287  1.00  0.00     0.261 C 
HETATM   29  O4  UNL     1       7.162   2.427  -0.950  1.00  0.00    -0.265 OA
BRANCH  28  30
HETATM   30  O5  UNL     1       6.607   0.675  -2.258  1.00  0.00    -0.322 OA
BRANCH  30  31
HETATM   31  C21 UNL     1       7.888   0.614  -2.836  1.00  0.00     0.174 C 
HETATM   32  C22 UNL     1       8.971   0.368  -1.802  1.00  0.00     0.034 C 
ENDBRANCH  30  31
ENDBRANCH  28  30
ENDBRANCH  27  28
ENDBRANCH  24  27
ENDBRANCH  22  24
ENDBRANCH  21  22
ENDBRANCH   8  17
BRANCH   1  33
HETATM   33  C2  UNL     1      -6.102   1.487  -0.318  1.00  0.00    -0.088 C 
HETATM   34  C1  UNL     1      -6.212   2.793  -0.102  1.00  0.00     0.014 C 
HETATM   35  C3  UNL     1      -7.017   0.894  -1.315  1.00  0.00     0.043 C 
ENDBRANCH   1  33
TORSDOF 10
