REMARK  8 active torsions:
REMARK  status: ('A' for Active; 'I' for Inactive)
REMARK    1  A    between atoms: C2_2  and  C3_3 
REMARK    2  A    between atoms: C3_3  and  C4_4 
REMARK    3  A    between atoms: C4_4  and  C5_5 
REMARK    4  A    between atoms: C14_17  and  C15_18 
REMARK    5  A    between atoms: N1_21  and  C18_22 
REMARK    6  A    between atoms: C18_22  and  O2_23 
REMARK    7  A    between atoms: C18_22  and  C19_25 
REMARK    8  A    between atoms: C21_29  and  O3_30 
ROOT
HETATM    1  C5  UNL     1      -3.835  -0.009   0.080  1.00  0.00    -0.000 C 
HETATM    2  C6  UNL     1      -2.696  -0.590   0.892  1.00  0.00    -0.003 C 
HETATM    3  C7  UNL     1      -3.204  -1.880   1.463  1.00  0.00     0.011 C 
HETATM    4  C8  UNL     1      -3.986  -2.747   0.561  1.00  0.00     0.080 C 
HETATM    5  C9  UNL     1      -4.766  -2.141  -0.525  1.00  0.00     0.247 C 
HETATM    6  F1  UNL     1      -6.080  -1.921  -0.084  1.00  0.00    -0.206 F 
HETATM    7  F2  UNL     1      -4.887  -3.064  -1.558  1.00  0.00    -0.206 F 
HETATM    8  C10 UNL     1      -4.247  -0.815  -1.062  1.00  0.00     0.062 C 
HETATM    9  C11 UNL     1      -3.347  -1.066  -2.187  1.00  0.00     0.013 C 
HETATM   10  C12 UNL     1      -2.015  -1.643  -1.923  1.00  0.00     0.033 C 
HETATM   11  C13 UNL     1      -1.190  -0.642  -1.166  1.00  0.00     0.126 C 
HETATM   12  O1  UNL     1       0.147  -1.015  -1.375  1.00  0.00    -0.378 OA
HETATM   13  C14 UNL     1       0.605  -1.676  -0.255  1.00  0.00     0.151 C 
HETATM   14  C25 UNL     1      -0.526  -1.826   0.699  1.00  0.00     0.042 C 
HETATM   15  C26 UNL     1      -1.371  -0.601   0.289  1.00  0.00     0.022 C 
ENDROOT
BRANCH  13  16
HETATM   16  C15 UNL     1       1.764  -0.827   0.261  1.00  0.00     0.152 C 
HETATM   17  C16 UNL     1       2.367  -1.349   1.531  1.00  0.00     0.054 C 
HETATM   18  C17 UNL     1       3.159  -0.235   2.165  1.00  0.00     0.127 C 
HETATM   19  N1  UNL     1       4.076   0.361   1.118  1.00  0.00    -0.359 N 
HETATM   20  C23 UNL     1       3.560   1.247   0.132  1.00  0.00     0.151 C 
HETATM   21  C24 UNL     1       3.127   0.483  -1.073  1.00  0.00     0.188 C 
HETATM   22  O4  UNL     1       2.674  -0.793  -0.788  1.00  0.00    -0.382 OA
BRANCH  19  23
HETATM   23  C18 UNL     1       5.396  -0.020   1.232  1.00  0.00     0.150 C 
BRANCH  23  24
HETATM   24  O2  UNL     1       5.638  -0.822   2.236  1.00  0.00    -0.346 OA
ATOM     25  H2  UNL     1       6.548  -1.085   2.315  1.00  0.00     0.219 HD
ENDBRANCH  23  24
BRANCH  23  26
HETATM   26  C19 UNL     1       6.527   0.327   0.426  1.00  0.00     0.034 A 
HETATM   27  C20 UNL     1       7.845  -0.121   0.735  1.00  0.00     0.106 A 
HETATM   28  N2  UNL     1       8.669   0.345  -0.188  1.00  0.00    -0.346 N 
HETATM   29  C21 UNL     1       8.040   1.069  -1.099  1.00  0.00     0.140 A 
ATOM     30  H2  UNL     1       9.673   0.167  -0.197  1.00  0.00     0.167 HD
HETATM   31  C22 UNL     1       6.700   1.063  -0.722  1.00  0.00     0.073 A 
BRANCH  29  32
HETATM   32  O3  UNL     1       8.538   1.718  -2.208  1.00  0.00    -0.346 OA
ATOM     33  H3  UNL     1       8.086   2.238  -2.862  1.00  0.00     0.219 HD
ENDBRANCH  29  32
ENDBRANCH  23  26
ENDBRANCH  19  23
ENDBRANCH  13  16
BRANCH   1  34
HETATM   34  C4  UNL     1      -3.672   1.444  -0.042  1.00  0.00     0.005 C 
BRANCH  34  35
HETATM   35  C3  UNL     1      -4.717   2.177  -0.821  1.00  0.00     0.000 C 
BRANCH  35  36
HETATM   36  C2  UNL     1      -4.342   3.662  -0.814  1.00  0.00    -0.005 C 
HETATM   37  C1  UNL     1      -4.316   4.098   0.625  1.00  0.00     0.005 C 
ENDBRANCH  35  36
ENDBRANCH  34  35
ENDBRANCH   1  34
TORSDOF 8
