REMARK  6 active torsions:
REMARK  status: ('A' for Active; 'I' for Inactive)
REMARK    1  A    between atoms: C2_2  and  C3_3 
REMARK    2  A    between atoms: C2_2  and  C5_7 
REMARK    3  A    between atoms: C3_3  and  C4_4 
REMARK    4  A    between atoms: C12_16  and  O5_17 
REMARK    5  A    between atoms: C20_26  and  O6_27 
REMARK    6  A    between atoms: O6_27  and  C21_28 
ROOT
HETATM    1  C5  UNL     1      -3.181   1.293  -0.346  1.00  0.00     0.145 C 
HETATM    2  O3  UNL     1      -2.255   1.870  -1.281  1.00  0.00    -0.315 OA
HETATM    3  C6  UNL     1      -1.080   1.907  -0.598  1.00  0.00     0.264 C 
HETATM    4  O4  UNL     1      -0.225   2.828  -0.563  1.00  0.00    -0.265 OA
HETATM    5  C7  UNL     1      -0.993   0.591   0.131  1.00  0.00     0.101 C 
HETATM    6  C8  UNL     1       0.184  -0.077  -0.408  1.00  0.00     0.011 C 
HETATM    7  C9  UNL     1       0.168  -0.479  -1.853  1.00  0.00     0.007 C 
HETATM    8  C10 UNL     1      -0.202  -1.894  -2.109  1.00  0.00     0.008 C 
HETATM    9  C11 UNL     1      -0.581  -2.634  -0.878  1.00  0.00     0.023 C 
HETATM   10  C12 UNL     1      -1.922  -2.346  -0.340  1.00  0.00     0.123 C 
HETATM   11  C13 UNL     1      -2.601  -1.112  -0.814  1.00  0.00     0.044 C 
HETATM   12  C14 UNL     1      -2.370   0.075   0.056  1.00  0.00    -0.002 C 
HETATM   13  C15 UNL     1      -2.933  -0.291   1.431  1.00  0.00     0.019 C 
HETATM   14  C16 UNL     1       0.498  -2.490   0.210  1.00  0.00    -0.028 C 
HETATM   15  C17 UNL     1      -0.008  -3.254   1.409  1.00  0.00     0.016 C 
HETATM   16  C18 UNL     1       1.740  -3.277  -0.249  1.00  0.00     0.013 C 
HETATM   17  C19 UNL     1       2.801  -2.516   0.516  1.00  0.00     0.034 C 
HETATM   18  C20 UNL     1       2.414  -1.105   0.100  1.00  0.00     0.131 C 
HETATM   19  C27 UNL     1       0.909  -1.094   0.468  1.00  0.00    -0.006 C 
HETATM   20  C28 UNL     1       0.942  -0.632   1.880  1.00  0.00     0.019 C 
ENDROOT
BRANCH  18  21
HETATM   21  O6  UNL     1       3.136  -0.152   0.759  1.00  0.00    -0.380 OA
BRANCH  21  22
HETATM   22  C21 UNL     1       3.875   0.717   0.013  1.00  0.00     0.122 C 
HETATM   23  C22 UNL     1       3.619   2.129   0.444  1.00  0.00     0.035 C 
HETATM   24  C23 UNL     1       4.696   2.598   1.394  1.00  0.00     0.040 C 
HETATM   25  C24 UNL     1       6.033   2.704   0.655  1.00  0.00     0.170 C 
HETATM   26  F1  UNL     1       7.042   2.916   1.564  1.00  0.00    -0.249 F 
HETATM   27  C25 UNL     1       6.257   1.466  -0.162  1.00  0.00     0.040 C 
HETATM   28  C26 UNL     1       5.350   0.374   0.308  1.00  0.00     0.035 C 
ENDBRANCH  21  22
ENDBRANCH  18  21
BRANCH  10  29
HETATM   29  O5  UNL     1      -2.744  -3.472  -0.630  1.00  0.00    -0.395 OA
ATOM     30  H5  UNL     1      -3.609  -3.286  -0.283  1.00  0.00     0.210 HD
ENDBRANCH  10  29
BRANCH   1  31
HETATM   31  C2  UNL     1      -4.506   1.104  -0.935  1.00  0.00     0.022 C 
HETATM   32  C1  UNL     1      -5.523   0.566   0.019  1.00  0.00     0.013 C 
BRANCH  31  33
HETATM   33  C3  UNL     1      -5.039   2.377  -1.539  1.00  0.00     0.120 C 
BRANCH  33  34
HETATM   34  C4  UNL     1      -5.354   3.447  -0.613  1.00  0.00     0.172 C 
HETATM   35  O1  UNL     1      -5.221   3.301   0.625  1.00  0.00    -0.648 OA
HETATM   36  O2  UNL     1      -5.820   4.696  -1.021  1.00  0.00    -0.648 OA
ENDBRANCH  33  34
ENDBRANCH  31  33
ENDBRANCH   1  31
TORSDOF 6
