REMARK  8 active torsions:
REMARK  status: ('A' for Active; 'I' for Inactive)
REMARK    1  A    between atoms: O1_2  and  C2_3 
REMARK    2  A    between atoms: C6_11  and  N3_12 
REMARK    3  A    between atoms: N3_12  and  C7_14 
REMARK    4  A    between atoms: C9_16  and  N4_17 
REMARK    5  A    between atoms: C14_27  and  O2_28 
REMARK    6  A    between atoms: O2_28  and  C15_29 
REMARK    7  A    between atoms: C15_29  and  C16_30 
REMARK    8  A    between atoms: C16_30  and  C17_31 
ROOT
HETATM    1  C2  UNL     1      -0.567  -3.195   2.480  1.00  0.00     0.103 A 
HETATM    2  C3  UNL     1       0.181  -4.165   1.903  1.00  0.00     0.070 A 
HETATM    3  C4  UNL     1       1.002  -3.866   0.843  1.00  0.00     0.050 A 
HETATM    4  N1  UNL     1       1.746  -4.811   0.259  1.00  0.00    -0.351 N 
ATOM      5  H1  UNL     1       1.713  -5.773   0.597  1.00  0.00     0.166 HD
HETATM    6  C5  UNL     1       2.543  -4.483  -0.784  1.00  0.00     0.182 A 
HETATM    7  N2  UNL     1       2.574  -3.208  -1.220  1.00  0.00    -0.338 N 
ATOM      8  H2  UNL     1       3.177  -2.972  -2.008  1.00  0.00     0.168 HD
HETATM    9  C6  UNL     1       1.831  -2.228  -0.648  1.00  0.00     0.120 A 
HETATM   10  C12 UNL     1       1.028  -2.551   0.401  1.00  0.00     0.038 A 
HETATM   11  C13 UNL     1       0.259  -1.547   0.993  1.00  0.00     0.057 A 
HETATM   12  C14 UNL     1      -0.555  -1.854   2.046  1.00  0.00     0.103 A 
ENDROOT
BRANCH   9  13
HETATM   13  N3  UNL     1       1.870  -1.010  -1.068  1.00  0.00    -0.328 N 
ATOM     14  H3  UNL     1       1.309  -0.277  -0.634  1.00  0.00     0.169 HD
BRANCH  13  15
HETATM   15  C7  UNL     1       2.738  -0.734  -2.173  1.00  0.00     0.108 A 
HETATM   16  C8  UNL     1       4.064  -0.417  -1.963  1.00  0.00     0.080 A 
HETATM   17  C9  UNL     1       4.933  -0.148  -3.007  1.00  0.00     0.065 A 
HETATM   18  C10 UNL     1       4.434  -0.204  -4.301  1.00  0.00     0.053 A 
HETATM   19 BR1  UNL     1       5.574   0.153  -5.792  1.00  0.00    -0.047 Br
HETATM   20  C11 UNL     1       3.112  -0.521  -4.491  1.00  0.00     0.111 A 
HETATM   21  N5  UNL     1       2.326  -0.769  -3.451  1.00  0.00    -0.351 N 
ATOM     22  H5  UNL     1       1.349  -1.000  -3.633  1.00  0.00     0.166 HD
BRANCH  17  23
HETATM   23  N4  UNL     1       6.283   0.172  -2.744  1.00  0.00    -0.297 N 
HETATM   24 CL1  UNL     1       7.334   0.513  -4.084  1.00  0.00     0.011 Cl
ATOM     25  H4  UNL     1       6.634   0.202  -1.787  1.00  0.00     0.180 HD
ENDBRANCH  17  23
ENDBRANCH  13  15
ENDBRANCH   9  13
BRANCH  12  26
HETATM   26  O2  UNL     1      -1.344  -0.947   2.683  1.00  0.00    -0.348 OA
BRANCH  26  27
HETATM   27  C15 UNL     1      -1.493   0.385   2.353  1.00  0.00     0.178 C 
BRANCH  27  28
HETATM   28  C16 UNL     1      -2.136   0.557   1.035  1.00  0.00     0.062 C 
BRANCH  28  29
HETATM   29  C17 UNL     1      -2.329   1.984   0.597  1.00  0.00     0.224 C 
HETATM   30  C18 UNL     1      -3.205   2.771   1.566  1.00  0.00     0.036 C 
HETATM   31  C19 UNL     1      -4.244   3.575   0.856  1.00  0.00     0.002 C 
HETATM   32  C20 UNL     1      -3.741   4.658  -0.030  1.00  0.00     0.002 C 
HETATM   33  C21 UNL     1      -2.421   4.411  -0.679  1.00  0.00     0.030 C 
HETATM   34  C22 UNL     1      -1.307   4.122   0.285  1.00  0.00     0.272 C 
HETATM   35  N6  UNL     1      -1.114   2.687   0.289  1.00  0.00     0.088 N 
HETATM   36  C23 UNL     1      -0.448   2.257  -0.890  1.00  0.00     0.310 C 
ENDBRANCH  28  29
ENDBRANCH  27  28
ENDBRANCH  26  27
ENDBRANCH  12  26
BRANCH   1  37
HETATM   37  O1  UNL     1      -1.422  -3.455   3.569  1.00  0.00    -0.353 OA
HETATM   38  C1  UNL     1      -1.484  -4.776   4.055  1.00  0.00     0.210 C 
ENDBRANCH   1  37
TORSDOF 8
