REMARK  7 active torsions:
REMARK  status: ('A' for Active; 'I' for Inactive)
REMARK    1  A    between atoms: O1_2  and  C2_3 
REMARK    2  A    between atoms: C6_8  and  N2_9 
REMARK    3  A    between atoms: N2_9  and  C7_11 
REMARK    4  A    between atoms: C7_11  and  C8_12 
REMARK    5  A    between atoms: C8_12  and  C9_13 
REMARK    6  A    between atoms: C8_12  and  N3_17 
REMARK    7  A    between atoms: N3_17  and  C11_19 
ROOT
HETATM    1  N2  UNL     1      -2.769  -1.188   0.197  1.00  0.00    -0.223 N 
ATOM      2  H2  UNL     1      -2.636  -2.190   0.060  1.00  0.00     0.177 HD
ENDROOT
BRANCH   1   3
HETATM    3  C6  UNL     1      -3.951  -1.071  -0.028  1.00  0.00     0.686 A 
HETATM    4  N1  UNL     1      -4.666   0.067   0.012  1.00  0.00    -0.153 N 
HETATM    5  C5  UNL     1      -4.010   1.228   0.334  1.00  0.00     0.116 A 
HETATM    6  C26 UNL     1      -5.992   0.104  -0.252  1.00  0.00     0.121 A 
HETATM    7  C4  UNL     1      -4.688   2.417   0.390  1.00  0.00     0.021 A 
HETATM    8  C3  UNL     1      -6.032   2.438   0.119  1.00  0.00     0.040 A 
HETATM    9  C2  UNL     1      -6.721   1.270  -0.211  1.00  0.00     0.098 A 
HETATM   10  C25 UNL     1      -6.650  -1.066  -0.577  1.00  0.00     0.126 A 
HETATM   11  C24 UNL     1      -5.913  -2.230  -0.617  1.00  0.00     0.167 A 
HETATM   12  N7  UNL     1      -7.926  -1.333  -0.881  1.00  0.00    -0.280 N 
HETATM   13  N4  UNL     1      -4.606  -2.243  -0.352  1.00  0.00    -0.172 N 
HETATM   14  N5  UNL     1      -6.801  -3.206  -0.956  1.00  0.00    -0.269 N 
ATOM     15  H4  UNL     1      -4.089  -3.121  -0.389  1.00  0.00     0.186 HD
HETATM   16  N6  UNL     1      -7.979  -2.656  -1.107  1.00  0.00    -0.240 N 
ATOM     17  H5  UNL     1      -6.585  -4.196  -1.072  1.00  0.00     0.190 HD
ATOM     18  H6  UNL     1      -8.825  -3.165  -1.363  1.00  0.00     0.208 HD
ATOM     19  H7  UNL     1      -8.699  -0.669  -0.931  1.00  0.00     0.188 HD
BRANCH   9  20
HETATM   20  O1  UNL     1      -8.054   1.409  -0.460  1.00  0.00    -0.354 OA
HETATM   21  C1  UNL     1      -8.775   2.599  -0.414  1.00  0.00     0.210 C 
ENDBRANCH   9  20
ENDBRANCH   1   3
BRANCH   1  22
HETATM   22  C7  UNL     1      -1.511  -0.792   0.522  1.00  0.00     0.167 C 
BRANCH  22  23
HETATM   23  C8  UNL     1      -0.565  -1.998   0.524  1.00  0.00     0.122 C 
BRANCH  23  24
HETATM   24  C9  UNL     1      -1.197  -2.920   1.565  1.00  0.00     0.054 C 
HETATM   25  C10 UNL     1      -1.187  -4.227   1.332  1.00  0.00     0.184 C 
HETATM   26  F1  UNL     1      -0.623  -4.725   0.186  1.00  0.00    -0.193 F 
HETATM   27 CL1  UNL     1      -1.875  -5.391   2.434  1.00  0.00    -0.052 Cl
ENDBRANCH  23  24
BRANCH  23  28
HETATM   28  N3  UNL     1       0.769  -1.773   0.843  1.00  0.00    -0.408 N 
ATOM     29  H3  UNL     1       1.149  -2.217   1.679  1.00  0.00     0.154 HD
BRANCH  28  30
HETATM   30  C11 UNL     1       1.624  -0.961   0.069  1.00  0.00     0.077 C 
HETATM   31  C12 UNL     1       1.778  -1.412  -1.360  1.00  0.00     0.024 C 
HETATM   32  C13 UNL     1       3.014  -1.000  -2.052  1.00  0.00     0.002 C 
HETATM   33  C14 UNL     1       4.288  -1.632  -1.629  1.00  0.00     0.000 C 
HETATM   34  C15 UNL     1       5.419  -0.697  -2.005  1.00  0.00     0.000 C 
HETATM   35  C16 UNL     1       6.577  -0.734  -1.066  1.00  0.00     0.000 C 
HETATM   36  C17 UNL     1       6.556   0.267   0.034  1.00  0.00     0.000 C 
HETATM   37  C18 UNL     1       6.358   1.687  -0.363  1.00  0.00     0.000 C 
HETATM   38  C19 UNL     1       5.262   2.389   0.445  1.00  0.00     0.000 C 
HETATM   39  C20 UNL     1       4.176   2.945  -0.411  1.00  0.00     0.000 C 
HETATM   40  C21 UNL     1       2.788   2.547  -0.065  1.00  0.00     0.000 C 
HETATM   41  C22 UNL     1       2.633   1.248   0.632  1.00  0.00     0.002 C 
HETATM   42  C23 UNL     1       1.341   0.499   0.254  1.00  0.00     0.024 C 
ENDBRANCH  28  30
ENDBRANCH  23  28
ENDBRANCH  22  23
ENDBRANCH   1  22
TORSDOF 7
