REMARK  9 active torsions:
REMARK  status: ('A' for Active; 'I' for Inactive)
REMARK    1  A    between atoms: C1_2  and  O2_7 
REMARK    2  A    between atoms: N2_3  and  O1_5 
REMARK    3  A    between atoms: O2_7  and  C2_8 
REMARK    4  A    between atoms: C2_8  and  N3_9 
REMARK    5  A    between atoms: N3_9  and  C3_12 
REMARK    6  A    between atoms: C4_15  and  N5_16 
REMARK    7  A    between atoms: N5_16  and  C5_18 
REMARK    8  A    between atoms: C5_18  and  C6_19 
REMARK    9  A    between atoms: C6_19  and  C7_20 
ROOT
HETATM    1  C3  UNL     1      -1.174   0.094   1.093  1.00  0.00     0.530 C 
HETATM    2  N4  UNL     1       0.110  -0.436   1.258  1.00  0.00    -0.319 N 
ATOM      3  H4  UNL     1       0.227  -1.012   2.091  1.00  0.00     0.165 HD
HETATM    4  C4  UNL     1       1.167  -0.319   0.536  1.00  0.00     0.141 C 
HETATM    5  S1  UNL     1       0.951   0.690  -0.917  1.00  0.00    -0.054 SA
HETATM    6  C8  UNL     1      -0.821   0.732  -1.230  1.00  0.00     0.357 A 
HETATM    7  N10 UNL     1      -1.644   0.569  -0.111  1.00  0.00     0.189 N 
HETATM    8  C9  UNL     1      -1.601   1.897  -0.619  1.00  0.00     0.364 A 
HETATM    9  C10 UNL     1      -2.715   2.471  -1.370  1.00  0.00     0.278 C 
HETATM   10  O3  UNL     1      -3.875   2.010  -1.285  1.00  0.00    -0.269 OA
HETATM   11  N11 UNL     1      -2.448   3.583  -2.213  1.00  0.00    -0.276 N 
ATOM     12  H11 UNL     1      -3.081   3.792  -2.985  1.00  0.00     0.173 HD
HETATM   13  C11 UNL     1      -1.296   4.419  -1.994  1.00  0.00     0.329 C 
HETATM   14  O4  UNL     1      -1.068   5.407  -2.751  1.00  0.00    -0.247 OA
HETATM   15  N12 UNL     1      -0.446   4.086  -0.905  1.00  0.00    -0.276 N 
ATOM     16  H12 UNL     1       0.383   4.648  -0.710  1.00  0.00     0.173 HD
HETATM   17  C12 UNL     1      -0.759   2.963  -0.089  1.00  0.00     0.278 C 
HETATM   18  O5  UNL     1      -0.264   2.981   1.074  1.00  0.00    -0.269 OA
ENDROOT
BRANCH   1  19
HETATM   19  N3  UNL     1      -2.117  -0.938   1.576  1.00  0.00    -0.004 N 
ATOM     20  H32 UNL     1      -3.078  -0.596   1.572  1.00  0.00     0.284 HD
ATOM     21  H31 UNL     1      -2.011  -1.100   2.577  1.00  0.00     0.284 HD
BRANCH  19  22
HETATM   22  C2  UNL     1      -1.992  -2.152   0.835  1.00  0.00     0.414 C 
BRANCH  22  23
HETATM   23  O2  UNL     1      -2.909  -3.117   1.329  1.00  0.00    -0.295 OA
BRANCH  23  24
HETATM   24  C1  UNL     1      -4.273  -2.867   1.306  1.00  0.00     0.253 C 
HETATM   25  N1  UNL     1      -5.122  -3.396   2.305  1.00  0.00    -0.054 NA
HETATM   26  N2  UNL     1      -4.781  -2.154   0.379  1.00  0.00    -0.235 N 
ATOM     27  H2  UNL     1      -4.135  -1.792  -0.323  1.00  0.00     0.197 HD
BRANCH  26  28
HETATM   28  O1  UNL     1      -6.086  -1.826   0.226  1.00  0.00    -0.287 OA
ATOM     29  H1  UNL     1      -6.464  -1.295  -0.465  1.00  0.00     0.244 HD
ENDBRANCH  26  28
ENDBRANCH  23  24
ENDBRANCH  22  23
ENDBRANCH  19  22
ENDBRANCH   1  19
BRANCH   4  30
HETATM   30  N5  UNL     1       2.334  -0.966   0.944  1.00  0.00    -0.370 N 
ATOM     31  H5  UNL     1       2.710  -0.717   1.859  1.00  0.00     0.161 HD
BRANCH  30  32
HETATM   32  C5  UNL     1       3.046  -1.947   0.189  1.00  0.00     0.129 C 
BRANCH  32  33
HETATM   33  C6  UNL     1       3.722  -1.345  -1.019  1.00  0.00     0.098 C 
BRANCH  33  34
HETATM   34  C7  UNL     1       4.696  -0.314  -0.576  1.00  0.00     0.108 C 
HETATM   35  N6  UNL     1       4.758   0.931  -0.887  1.00  0.00    -0.274 N 
HETATM   36  N7  UNL     1       5.844   1.505  -0.228  1.00  0.00    -0.007 NA
ATOM     37  H6  UNL     1       4.118   1.419  -1.513  1.00  0.00     0.185 HD
HETATM   38  N8  UNL     1       6.676   0.460   0.196  1.00  0.00    -0.007 NA
HETATM   39  N9  UNL     1       5.774  -0.596   0.318  1.00  0.00    -0.274 N 
ATOM     40  H9  UNL     1       5.866  -1.410   0.926  1.00  0.00     0.185 HD
ENDBRANCH  33  34
ENDBRANCH  32  33
ENDBRANCH  30  32
ENDBRANCH   4  30
TORSDOF 9
