REMARK  3 active torsions:
REMARK  status: ('A' for Active; 'I' for Inactive)
REMARK    1  A    between atoms: C2_2  and  C3_3 
REMARK    2  A    between atoms: C3_3  and  C4_4 
REMARK    3  A    between atoms: C4_4  and  N1_6 
ROOT
HETATM    1  C3  UNL     1       0.280  -0.275  -0.205  1.00  0.00     0.011 C 
HETATM    2  C6  UNL     1       1.353  -0.656   0.736  1.00  0.00     0.135 C 
HETATM    3  N2  UNL     1       1.167  -2.030   1.148  1.00  0.00    -0.178 NA
HETATM    4  S1  UNL     1       0.970  -2.757  -0.468  1.00  0.00    -0.065 SA
HETATM    5  C7  UNL     1      -0.043  -1.397  -1.125  1.00  0.00     0.105 C 
ENDROOT
BRANCH   1   6
HETATM    6  C2  UNL     1       0.772   0.891  -1.042  1.00  0.00     0.009 C 
HETATM    7  C1  UNL     1       1.132   2.087  -0.208  1.00  0.00     0.006 C 
ENDBRANCH   1   6
BRANCH   1   8
HETATM    8  C4  UNL     1      -0.955   0.168   0.557  1.00  0.00     0.190 C 
HETATM    9  C5  UNL     1      -2.062   0.601  -0.355  1.00  0.00     0.040 C 
BRANCH   8  10
HETATM   10  N1  UNL     1      -1.340  -0.946   1.408  1.00  0.00    -0.075 N 
ATOM     11  H13 UNL     1      -1.474  -1.818   0.895  1.00  0.00     0.274 HD
ATOM     12  H12 UNL     1      -0.586  -1.269   2.015  1.00  0.00     0.274 HD
ATOM     13  H11 UNL     1      -2.170  -0.648   1.920  1.00  0.00     0.274 HD
ENDBRANCH   8  10
ENDBRANCH   1   8
TORSDOF 3
