REMARK  3 active torsions:
REMARK  status: ('A' for Active; 'I' for Inactive)
REMARK    1  A    between atoms: C1_2  and  C2_3 
REMARK       I    between atoms: C1_2  and  N1_9 
REMARK    2  A    between atoms: N1_9  and  C8_10 
REMARK    3  A    between atoms: N1_9  and  C14_16 
ROOT
HETATM    1  O1  UNL     1       1.026  -1.437   0.652  1.00  0.00    -0.273 OA
HETATM    2  C1  UNL     1       0.668  -0.232   0.389  1.00  0.00     0.224 C 
HETATM    3  N1  UNL     1      -0.666  -0.032  -0.048  1.00  0.00    -0.342 N 
ENDROOT
BRANCH   3   4
HETATM    4  C8  UNL     1      -1.548  -1.205  -0.217  1.00  0.00     0.087 C 
HETATM    5  C9  UNL     1      -1.800  -1.797   1.123  1.00  0.00     0.025 C 
HETATM    6  C10 UNL     1      -1.812  -3.313   1.094  1.00  0.00     0.002 C 
HETATM    7  C11 UNL     1      -2.684  -3.702  -0.078  1.00  0.00     0.000 C 
HETATM    8  C12 UNL     1      -2.035  -3.310  -1.357  1.00  0.00     0.002 C 
HETATM    9  C13 UNL     1      -1.086  -2.144  -1.266  1.00  0.00     0.025 C 
ENDBRANCH   3   4
BRANCH   3  10
HETATM   10  C14 UNL     1      -1.279   1.249  -0.316  1.00  0.00     0.090 C 
HETATM   11  C15 UNL     1      -0.673   2.045  -1.428  1.00  0.00     0.053 C 
HETATM   12  C16 UNL     1      -1.769   3.063  -1.827  1.00  0.00     0.234 C 
HETATM   13  N2  UNL     1      -2.136   3.854  -0.678  1.00  0.00    -0.075 N 
HETATM   14  C17 UNL     1      -1.340   3.584   0.490  1.00  0.00     0.234 C 
ATOM     15  H22 UNL     1      -2.116   4.848  -0.905  1.00  0.00     0.277 HD
ATOM     16  H21 UNL     1      -3.129   3.746  -0.469  1.00  0.00     0.277 HD
HETATM   17  C18 UNL     1      -1.446   2.117   0.913  1.00  0.00     0.053 C 
ENDBRANCH   3  10
BRANCH   2  18
HETATM   18  C2  UNL     1       1.715   0.773   0.580  1.00  0.00     0.078 C 
HETATM   19  C3  UNL     1       2.654   0.483   1.723  1.00  0.00     0.014 C 
HETATM   20  C4  UNL     1       3.591  -0.649   1.552  1.00  0.00     0.001 C 
HETATM   21  C5  UNL     1       4.259  -0.695   0.175  1.00  0.00     0.000 C 
HETATM   22  C6  UNL     1       4.011   0.687  -0.412  1.00  0.00     0.001 C 
HETATM   23  C7  UNL     1       2.556   0.816  -0.703  1.00  0.00     0.014 C 
ENDBRANCH   2  18
TORSDOF 3
