REMARK  4 active torsions:
REMARK  status: ('A' for Active; 'I' for Inactive)
REMARK    1  A    between atoms: C5_6  and  C6_7 
REMARK    2  A    between atoms: C6_7  and  N1_8 
REMARK    3  A    between atoms: N1_8  and  C7_10 
REMARK    4  A    between atoms: C7_10  and  C8_12 
ROOT
HETATM    1  C7  UNL     1      -0.078  -0.493   0.876  1.00  0.00     0.082 C 
HETATM    2  S1  UNL     1       0.441  -2.004   1.129  1.00  0.00    -0.065 SA
ENDROOT
BRANCH   1   3
HETATM    3  N1  UNL     1       0.773   0.600   1.038  1.00  0.00    -0.381 N 
ATOM      4  H1  UNL     1       0.337   1.513   0.909  1.00  0.00     0.160 HD
BRANCH   3   5
HETATM    5  C6  UNL     1       2.160   0.631   1.356  1.00  0.00     0.152 C 
BRANCH   5   6
HETATM    6  C5  UNL     1       3.010   0.203   0.219  1.00  0.00     0.142 C 
HETATM    7  C2  UNL     1       4.504   0.244   0.596  1.00  0.00     0.014 C 
HETATM    8  C1  UNL     1       5.004   1.610   0.232  1.00  0.00     0.012 C 
HETATM    9  C3  UNL     1       5.102  -0.863  -0.206  1.00  0.00     0.033 C 
HETATM   10  C4  UNL     1       3.948  -1.389  -1.039  1.00  0.00     0.168 C 
HETATM   11  O1  UNL     1       2.859  -1.043  -0.283  1.00  0.00    -0.384 OA
ENDBRANCH   5   6
ENDBRANCH   3   5
ENDBRANCH   1   3
BRANCH   1  12
HETATM   12  C8  UNL     1      -1.504  -0.303   0.514  1.00  0.00     0.014 C 
HETATM   13  C9  UNL     1      -2.252   0.485   1.565  1.00  0.00     0.021 C 
HETATM   14  C10 UNL     1      -3.675   0.644   1.068  1.00  0.00    -0.013 C 
HETATM   15  C11 UNL     1      -3.698   1.428  -0.225  1.00  0.00     0.009 C 
HETATM   16  C15 UNL     1      -4.318  -0.684   0.834  1.00  0.00     0.009 C 
HETATM   17  C12 UNL     1      -2.919   0.650  -1.254  1.00  0.00    -0.013 C 
HETATM   18  C13 UNL     1      -3.483  -0.708  -1.519  1.00  0.00     0.009 C 
HETATM   19  C17 UNL     1      -1.503   0.534  -0.761  1.00  0.00     0.021 C 
HETATM   20  C14 UNL     1      -3.546  -1.470  -0.202  1.00  0.00    -0.013 C 
HETATM   21  C16 UNL     1      -2.143  -1.635   0.308  1.00  0.00     0.021 C 
ENDBRANCH   1  12
TORSDOF 4
