REMARK  1 active torsions:
REMARK  status: ('A' for Active; 'I' for Inactive)
REMARK    1  A    between atoms: N1_7  and  C7_8 
ROOT
HETATM    1  C7  UNL     1       0.044   0.078   0.686  1.00  0.00     0.092 C 
HETATM    2  C8  UNL     1       0.821   1.185  -0.022  1.00  0.00     0.009 C 
HETATM    3  C9  UNL     1       1.960   1.574   0.918  1.00  0.00     0.011 C 
HETATM    4  C10 UNL     1       2.806   0.382   1.279  1.00  0.00    -0.013 C 
HETATM    5  C11 UNL     1       3.480  -0.079  -0.016  1.00  0.00     0.009 C 
HETATM    6  C12 UNL     1       2.411  -0.456  -1.001  1.00  0.00    -0.013 C 
HETATM    7  C13 UNL     1       1.486   0.694  -1.280  1.00  0.00     0.011 C 
HETATM    8  C14 UNL     1       1.576  -1.580  -0.440  1.00  0.00     0.011 C 
HETATM    9  C15 UNL     1       0.908  -1.139   0.824  1.00  0.00     0.009 C 
HETATM   10  C16 UNL     1       2.028  -0.775   1.809  1.00  0.00     0.011 C 
ENDROOT
BRANCH   1  11
HETATM   11  N1  UNL     1      -1.260  -0.115   0.300  1.00  0.00    -0.383 N 
HETATM   12  C3  UNL     1      -2.232   0.880   0.476  1.00  0.00     0.084 C 
HETATM   13  C2  UNL     1      -2.688   1.343  -0.890  1.00  0.00     0.026 C 
HETATM   14  C4  UNL     1      -3.433  -0.014   0.859  1.00  0.00     0.035 C 
HETATM   15  C1  UNL     1      -3.341   0.075  -1.463  1.00  0.00     0.012 C 
HETATM   16  C5  UNL     1      -3.262  -0.944  -0.356  1.00  0.00     0.026 C 
HETATM   17  C6  UNL     1      -1.782  -1.292  -0.204  1.00  0.00     0.064 C 
ENDBRANCH   1  11
TORSDOF 1
