REMARK  1 active torsions:
REMARK  status: ('A' for Active; 'I' for Inactive)
REMARK       I    between atoms: C1_2  and  N2_4 
REMARK    1  A    between atoms: N2_4  and  N3_6 
ROOT
HETATM    1  N3  UNL     1      -0.228  -0.434  -0.006  1.00  0.00    -0.134 N 
HETATM    2  N4  UNL     1      -1.220   0.033  -0.741  1.00  0.00    -0.225 N 
ATOM      3  H4  UNL     1      -1.296   0.992  -1.079  1.00  0.00     0.194 HD
HETATM    4  C2  UNL     1      -2.131  -0.958  -0.982  1.00  0.00     0.344 A 
HETATM    5  O2  UNL     1      -3.194  -0.885  -1.640  1.00  0.00    -0.245 OA
HETATM    6  N5  UNL     1      -1.692  -2.072  -0.379  1.00  0.00    -0.257 N 
ATOM      7  H5  UNL     1      -2.145  -2.986  -0.370  1.00  0.00     0.175 HD
HETATM    8  C3  UNL     1      -0.541  -1.738   0.207  1.00  0.00     0.365 A 
HETATM    9  O3  UNL     1       0.178  -2.525   0.878  1.00  0.00    -0.243 OA
ENDROOT
BRANCH   1  10
HETATM   10  N2  UNL     1       0.906   0.223   0.471  1.00  0.00    -0.228 N 
HETATM   11  C1  UNL     1       1.209   1.573   0.239  1.00  0.00     0.348 C 
HETATM   12  N1  UNL     1       2.408   2.114   0.790  1.00  0.00    -0.038 NA
HETATM   13  O1  UNL     1       0.514   2.380  -0.424  1.00  0.00    -0.249 OA
ATOM     14  H2  UNL     1       1.565  -0.319   1.031  1.00  0.00     0.193 HD
ENDBRANCH   1  10
TORSDOF 1
