REMARK  2 active torsions:
REMARK  status: ('A' for Active; 'I' for Inactive)
REMARK       I    between atoms: N3_4  and  C2_6 
REMARK    1  A    between atoms: N5_8  and  N6_10 
REMARK    2  A    between atoms: N6_10  and  C3_12 
ROOT
HETATM    1  N6  UNL     1       1.011  -1.020  -0.098  1.00  0.00    -0.127 N 
ATOM      2  H6  UNL     1       0.258  -1.707  -0.139  1.00  0.00     0.206 HD
ENDROOT
BRANCH   1   3
HETATM    3  N5  UNL     1       0.745   0.334  -0.158  1.00  0.00    -0.259 N 
HETATM    4  C2  UNL     1      -0.368   0.805   0.242  1.00  0.00     0.209 C 
HETATM    5  N3  UNL     1      -1.354  -0.052   0.755  1.00  0.00    -0.306 N 
HETATM    6  N4  UNL     1      -0.615   2.188   0.171  1.00  0.00    -0.062 NA
HETATM    7  C1  UNL     1      -2.573   0.117   0.368  1.00  0.00     0.203 C 
ATOM      8  H3  UNL     1      -1.113  -0.790   1.417  1.00  0.00     0.170 HD
HETATM    9  N1  UNL     1      -2.915   1.141  -0.553  1.00  0.00    -0.066 NA
HETATM   10  N2  UNL     1      -3.642  -0.701   0.832  1.00  0.00    -0.066 NA
ATOM     11  H5  UNL     1       1.453   0.968  -0.529  1.00  0.00     0.190 HD
ENDBRANCH   1   3
BRANCH   1  12
HETATM   12  C3  UNL     1       2.250  -1.391   0.012  1.00  0.00     0.728 A 
HETATM   13  N7  UNL     1       2.650  -2.670   0.081  1.00  0.00    -0.114 N 
HETATM   14  N8  UNL     1       3.959  -2.640   0.186  1.00  0.00    -0.213 N 
ATOM     15  H7  UNL     1       2.057  -3.499   0.057  1.00  0.00     0.207 HD
HETATM   16  N9  UNL     1       4.397  -1.403   0.186  1.00  0.00    -0.213 N 
ATOM     17  H8  UNL     1       4.554  -3.466   0.258  1.00  0.00     0.210 HD
HETATM   18  N10 UNL     1       3.343  -0.615   0.079  1.00  0.00    -0.114 N 
ATOM     19  H9  UNL     1       5.370  -1.106   0.256  1.00  0.00     0.210 HD
ATOM     20  H10 UNL     1       3.357   0.405   0.052  1.00  0.00     0.207 HD
ENDBRANCH   1  12
TORSDOF 2
