REMARK  1 active torsions:
REMARK  status: ('A' for Active; 'I' for Inactive)
REMARK    1  A    between atoms: N1_1  and  C1_4 
ROOT
HETATM    1  C1  UNL     1      -1.434   0.699  -0.011  1.00  0.00     0.700 A 
HETATM    2  N2  UNL     1      -2.423  -0.244   0.065  1.00  0.00    -0.186 N 
ATOM      3  H2  UNL     1      -3.403   0.039   0.070  1.00  0.00     0.185 HD
HETATM    4  C2  UNL     1      -2.094  -1.543   0.133  1.00  0.00     0.200 A 
HETATM    5  N3  UNL     1      -0.787  -1.888   0.126  1.00  0.00    -0.332 N 
ATOM      6  H3  UNL     1      -0.537  -2.875   0.179  1.00  0.00     0.168 HD
HETATM    7  C3  UNL     1       0.194  -0.971   0.052  1.00  0.00     0.215 A 
HETATM    8  C4  UNL     1       1.528  -1.319   0.044  1.00  0.00     0.296 A 
HETATM    9  O1  UNL     1       1.788  -2.563   0.111  1.00  0.00    -0.264 OA
HETATM   10  N4  UNL     1       2.500  -0.398  -0.029  1.00  0.00    -0.271 N 
ATOM     11  H4  UNL     1       3.481  -0.678  -0.033  1.00  0.00     0.174 HD
HETATM   12  C5  UNL     1       2.161   0.896  -0.097  1.00  0.00     0.342 A 
HETATM   13  O2  UNL     1       3.059   1.774  -0.166  1.00  0.00    -0.245 OA
HETATM   14  N5  UNL     1       0.842   1.219  -0.088  1.00  0.00    -0.228 N 
ATOM     15  H5  UNL     1       0.596   2.207  -0.140  1.00  0.00     0.193 HD
HETATM   16  N6  UNL     1      -0.137   0.351  -0.017  1.00  0.00    -0.060 N 
ENDROOT
BRANCH   1  17
HETATM   17  N1  UNL     1      -1.769   1.919  -0.074  1.00  0.00    -0.233 N 
ATOM     18  H12 UNL     1      -2.754   2.183  -0.069  1.00  0.00     0.174 HD
ATOM     19  H11 UNL     1      -1.032   2.622  -0.131  1.00  0.00     0.174 HD
ENDBRANCH   1  17
TORSDOF 1
