REMARK  3 active torsions:
REMARK  status: ('A' for Active; 'I' for Inactive)
REMARK    1  A    between atoms: N1_2  and  O1_3 
REMARK    2  A    between atoms: N1_2  and  C2_5 
REMARK    3  A    between atoms: C3_8  and  N3_9 
ROOT
HETATM    1  C2  UNL     1      -0.648  -0.248   0.024  1.00  0.00     0.211 C 
HETATM    2  N2  UNL     1       0.293  -1.177  -0.218  1.00  0.00    -0.169 N 
ATOM      3  H2  UNL     1      -0.061  -2.094  -0.490  1.00  0.00     0.186 HD
HETATM    4  C3  UNL     1       1.651  -1.074  -0.154  1.00  0.00     0.681 C 
HETATM    5  N4  UNL     1       2.361   0.048   0.063  1.00  0.00    -0.141 N 
ATOM      6  H4  UNL     1       3.368  -0.047  -0.065  1.00  0.00     0.189 HD
HETATM    7  C4  UNL     1       1.941   1.292   0.428  1.00  0.00     0.341 C 
HETATM    8  O2  UNL     1       2.828   2.052   0.893  1.00  0.00    -0.246 OA
HETATM    9  N5  UNL     1       0.670   1.776   0.337  1.00  0.00    -0.272 N 
ATOM     10  H5  UNL     1       0.550   2.760   0.578  1.00  0.00     0.174 HD
HETATM   11  C5  UNL     1      -0.456   1.115  -0.033  1.00  0.00     0.296 C 
HETATM   12  O3  UNL     1      -1.409   1.813  -0.468  1.00  0.00    -0.264 OA
ENDROOT
BRANCH   1  13
HETATM   13  N1  UNL     1      -1.820  -0.685   0.323  1.00  0.00    -0.244 N 
HETATM   14  C1  UNL     1      -2.975   0.121   0.621  1.00  0.00     0.187 C 
BRANCH  13  15
HETATM   15  O1  UNL     1      -2.017  -2.070   0.360  1.00  0.00    -0.286 OA
ATOM     16  H1  UNL     1      -1.255  -2.602   0.163  1.00  0.00     0.244 HD
ENDBRANCH  13  15
ENDBRANCH   1  13
BRANCH   4  17
HETATM   17  N3  UNL     1       2.305  -2.172  -0.321  1.00  0.00    -0.234 N 
ATOM     18  H32 UNL     1       1.767  -3.023  -0.486  1.00  0.00     0.174 HD
ATOM     19  H31 UNL     1       3.321  -2.095  -0.273  1.00  0.00     0.174 HD
ENDBRANCH   4  17
TORSDOF 3
