REMARK  0 active torsions:
REMARK  status: ('A' for Active; 'I' for Inactive)
REMARK       I    between atoms: C2_4  and  N3_6 
REMARK       I    between atoms: N3_6  and  C3_8 
REMARK       I    between atoms: C3_8  and  N4_10 
ROOT
HETATM    1  C1  UNL     1      -2.941   1.542  -1.026  1.00  0.00     0.148 C 
HETATM    2  N1  UNL     1      -3.113   0.470  -0.096  1.00  0.00    -0.369 N 
ATOM      3  H1  UNL     1      -4.068   0.265   0.196  1.00  0.00     0.161 HD
HETATM    4  C2  UNL     1      -2.193  -0.254   0.404  1.00  0.00     0.191 C 
HETATM    5  N2  UNL     1      -2.533  -1.274   1.311  1.00  0.00    -0.063 NA
HETATM    6  N3  UNL     1      -0.845  -0.041   0.058  1.00  0.00    -0.280 N 
ATOM      7  H3  UNL     1      -0.626   0.706  -0.601  1.00  0.00     0.173 HD
HETATM    8  C3  UNL     1       0.228  -0.818   0.584  1.00  0.00     0.361 C 
HETATM    9  O1  UNL     1      -0.039  -1.740   1.398  1.00  0.00    -0.243 OA
HETATM   10  N4  UNL     1       1.555  -0.556   0.198  1.00  0.00    -0.121 N 
HETATM   11  N5  UNL     1       2.703  -1.224   0.623  1.00  0.00     0.009 NA
HETATM   12  N6  UNL     1       3.731  -0.270   0.538  1.00  0.00    -0.232 N 
ATOM     13  H6  UNL     1       4.580  -0.235   1.101  1.00  0.00     0.189 HD
HETATM   14  C4  UNL     1       3.350   0.640  -0.494  1.00  0.00     0.353 C 
HETATM   15  O2  UNL     1       4.064   1.467  -1.125  1.00  0.00    -0.244 OA
HETATM   16  N7  UNL     1       1.953   0.437  -0.692  1.00  0.00    -0.226 N 
ATOM     17  H7  UNL     1       1.358   0.927  -1.360  1.00  0.00     0.193 HD
ENDROOT
TORSDOF 0
