REMARK  4 active torsions:
REMARK  status: ('A' for Active; 'I' for Inactive)
REMARK    1  A    between atoms: C3_3  and  O1_4 
REMARK    2  A    between atoms: O1_4  and  N1_5 
REMARK    3  A    between atoms: C4_7  and  C5_8 
REMARK    4  A    between atoms: N2_10  and  C7_11 
ROOT
HETATM    1  C1  UNL     1       7.241   0.716   0.326  1.00  0.00     0.014 C 
HETATM    2  C2  UNL     1       6.216   0.336  -0.178  1.00  0.00    -0.089 C 
HETATM    3  C3  UNL     1       4.981  -0.146  -0.780  1.00  0.00     0.294 C 
ENDROOT
BRANCH   3   4
HETATM    4  O1  UNL     1       3.940  -0.140   0.182  1.00  0.00    -0.269 OA
BRANCH   4   5
HETATM    5  N1  UNL     1       2.674  -0.531  -0.068  1.00  0.00    -0.276 N 
HETATM    6  C4  UNL     1       1.626   0.006   0.407  1.00  0.00     0.131 C 
ATOM      7  H1  UNL     1       2.547  -1.327  -0.693  1.00  0.00     0.193 HD
BRANCH   6   8
HETATM    8  C5  UNL     1       0.266  -0.490   0.079  1.00  0.00     0.057 A 
HETATM    9  C6  UNL     1      -0.868   0.052   0.562  1.00  0.00     0.124 A 
HETATM   10  N2  UNL     1      -2.022  -0.493   0.185  1.00  0.00    -0.274 N 
HETATM   11  S1  UNL     1      -1.572  -1.750  -0.833  1.00  0.00     0.038 SA
HETATM   12  C11 UNL     1       0.119  -1.563  -0.765  1.00  0.00     0.242 A 
HETATM   13  O2  UNL     1       1.047  -2.238  -1.345  1.00  0.00    -0.278 OA
BRANCH  10  14
HETATM   14  C7  UNL     1      -3.350  -0.062   0.590  1.00  0.00     0.119 A 
HETATM   15  C8  UNL     1      -4.113   0.874  -0.073  1.00  0.00     0.070 A 
HETATM   16  C9  UNL     1      -5.310   1.033   0.592  1.00  0.00     0.030 A 
HETATM   17 BR1  UNL     1      -6.761   2.191   0.140  1.00  0.00    -0.050 Br
HETATM   18  C10 UNL     1      -5.240   0.172   1.665  1.00  0.00     0.109 A 
HETATM   19  N3  UNL     1      -4.062  -0.465   1.637  1.00  0.00    -0.350 N 
ATOM     20  H3  UNL     1      -3.756  -1.158   2.320  1.00  0.00     0.166 HD
ENDBRANCH  10  14
ENDBRANCH   6   8
ENDBRANCH   4   5
ENDBRANCH   3   4
TORSDOF 4
