REMARK  4 active torsions:
REMARK  status: ('A' for Active; 'I' for Inactive)
REMARK    1  A    between atoms: C2_2  and  O1_3 
REMARK    2  A    between atoms: O1_3  and  C3_4 
REMARK    3  A    between atoms: C4_5  and  O2_6 
REMARK    4  A    between atoms: C14_18  and  O4_20 
ROOT
HETATM    1  C3  UNL     1       2.237   0.166   0.966  1.00  0.00     0.174 C 
HETATM    2  C4  UNL     1       1.860  -1.075   0.717  1.00  0.00     0.088 C 
HETATM    3  C6  UNL     1       0.465  -1.559   0.765  1.00  0.00     0.110 C 
HETATM    4  C7  UNL     1      -0.562  -0.478   0.794  1.00  0.00     0.116 C 
HETATM    5  C8  UNL     1      -1.738  -0.973   1.609  1.00  0.00     0.121 C 
HETATM    6  C9  UNL     1      -2.950  -0.162   1.403  1.00  0.00     0.140 C 
HETATM    7  O3  UNL     1      -3.807  -0.201   2.285  1.00  0.00    -0.297 OA
HETATM    8  C10 UNL     1      -3.220   0.687   0.236  1.00  0.00     0.047 C 
HETATM    9  C11 UNL     1      -3.721   2.035   0.774  1.00  0.00     0.026 C 
HETATM   10  C12 UNL     1      -4.389   0.137  -0.593  1.00  0.00     0.026 C 
HETATM   11  C13 UNL     1      -2.040   0.951  -0.630  1.00  0.00     0.222 C 
HETATM   12  F1  UNL     1      -2.410   1.174  -1.938  1.00  0.00    -0.245 F 
HETATM   13  C14 UNL     1      -1.011  -0.149  -0.621  1.00  0.00     0.118 C 
HETATM   14  C15 UNL     1      -1.469  -1.391  -1.306  1.00  0.00     0.052 C 
HETATM   15  O5  UNL     1      -0.097   0.719   1.369  1.00  0.00    -0.300 OA
HETATM   16  C16 UNL     1       1.219   1.144   1.316  1.00  0.00     0.320 C 
HETATM   17  O6  UNL     1       1.557   2.347   1.561  1.00  0.00    -0.257 OA
ENDROOT
BRANCH  13  18
HETATM   18  O4  UNL     1       0.117   0.345  -1.290  1.00  0.00    -0.384 OA
ATOM     19  H4  UNL     1      -0.164   0.551  -2.174  1.00  0.00     0.210 HD
ENDBRANCH  13  18
BRANCH   2  20
HETATM   20  O2  UNL     1       2.829  -2.018   0.381  1.00  0.00    -0.357 OA
HETATM   21  C5  UNL     1       3.161  -2.352  -0.941  1.00  0.00     0.209 C 
ENDBRANCH   2  20
BRANCH   1  22
HETATM   22  O1  UNL     1       3.579   0.526   0.895  1.00  0.00    -0.344 OA
BRANCH  22  23
HETATM   23  C2  UNL     1       4.063   1.402  -0.111  1.00  0.00     0.171 C 
HETATM   24  C1  UNL     1       5.543   1.607   0.064  1.00  0.00     0.034 C 
ENDBRANCH  22  23
ENDBRANCH   1  22
TORSDOF 4
