REMARK  3 active torsions:
REMARK  status: ('A' for Active; 'I' for Inactive)
REMARK    1  A    between atoms: C5_8  and  N2_9 
REMARK    2  A    between atoms: N2_9  and  C6_11 
REMARK    3  A    between atoms: C6_11  and  N3_12 
ROOT
HETATM    1  C1  UNL     1      -1.497   1.709  -0.420  1.00  0.00     0.042 C 
HETATM    2  C2  UNL     1      -1.060   0.269  -0.367  1.00  0.00     0.204 C 
HETATM    3  N1  UNL     1      -2.195  -0.530   0.060  1.00  0.00    -0.069 N 
ATOM      4  H11 UNL     1      -2.945  -0.602  -0.628  1.00  0.00     0.277 HD
ATOM      5  H12 UNL     1      -2.763  -0.102   0.791  1.00  0.00     0.277 HD
HETATM    6  C3  UNL     1      -1.597  -1.790   0.428  1.00  0.00     0.235 C 
HETATM    7  C4  UNL     1      -0.137  -1.512   0.775  1.00  0.00     0.054 C 
HETATM    8  C5  UNL     1      -0.095   0.002   0.768  1.00  0.00     0.110 C 
ENDROOT
BRANCH   8   9
HETATM    9  N2  UNL     1       1.193   0.562   0.568  1.00  0.00    -0.394 N 
ATOM     10  H2  UNL     1       1.570   1.277   1.190  1.00  0.00     0.155 HD
BRANCH   9  11
HETATM   11  C6  UNL     1       1.934   0.071  -0.551  1.00  0.00     0.347 C 
BRANCH  11  12
HETATM   12  N3  UNL     1       3.204   0.796  -0.571  1.00  0.00    -0.064 N 
ATOM     13  H33 UNL     1       3.088   1.809  -0.580  1.00  0.00     0.276 HD
ATOM     14  H32 UNL     1       3.716   0.732   0.309  1.00  0.00     0.276 HD
ATOM     15  H31 UNL     1       3.733   0.446  -1.370  1.00  0.00     0.276 HD
ENDBRANCH  11  12
ENDBRANCH   9  11
ENDBRANCH   8   9
TORSDOF 3
