REMARK  16 active torsions:
REMARK  status: ('A' for Active; 'I' for Inactive)
REMARK    1  A    between atoms: C2_2  and  C3_3 
REMARK    2  A    between atoms: C3_3  and  C4_4 
REMARK    3  A    between atoms: C4_4  and  N1_5 
REMARK       I    between atoms: N1_5  and  C5_7 
REMARK       I    between atoms: C5_7  and  N8_54 
REMARK    4  A    between atoms: N2_8  and  C6_10 
REMARK    5  A    between atoms: C6_10  and  C7_11 
REMARK    6  A    between atoms: C7_11  and  C8_12 
REMARK    7  A    between atoms: C8_12  and  C9_13 
REMARK    8  A    between atoms: C11_18  and  C12_19 
REMARK    9  A    between atoms: C16_26  and  N5_27 
REMARK       I    between atoms: N5_27  and  C17_29 
REMARK   10  A    between atoms: C17_29  and  C18_31 
REMARK   11  A    between atoms: C18_31  and  N6_33 
REMARK   12  A    between atoms: C20_37  and  C21_38 
REMARK   13  A    between atoms: C21_38  and  C22_39 
REMARK   14  A    between atoms: C28_45  and  C29_46 
REMARK   15  A    between atoms: C29_46  and  N7_47 
REMARK   16  A    between atoms: N7_47  and  C30_49 
ROOT
HETATM    1  N1  UNL     1       7.439   1.278   1.186  1.00  0.00    -0.226 N 
ATOM      2  H1  UNL     1       7.759   1.627   2.089  1.00  0.00     0.177 HD
HETATM    3  C5  UNL     1       6.053   1.333   0.828  1.00  0.00     0.682 C 
HETATM    4  N2  UNL     1       5.274   0.335   1.028  1.00  0.00    -0.226 N 
ATOM      5  H2  UNL     1       5.639  -0.519   1.449  1.00  0.00     0.177 HD
HETATM    6  N8  UNL     1       5.541   2.506   0.244  1.00  0.00    -0.126 N 
ATOM      7  H8  UNL     1       4.806   3.034   0.715  1.00  0.00     0.197 HD
HETATM    8  C34 UNL     1       6.041   2.941  -0.977  1.00  0.00     0.196 C 
HETATM    9  N9  UNL     1       6.454   3.325  -2.000  1.00  0.00    -0.171 NA
ENDROOT
BRANCH   1  10
HETATM   10  C4  UNL     1       8.370   0.718   0.239  1.00  0.00     0.138 C 
BRANCH  10  11
HETATM   11  C3  UNL     1       8.141  -0.788   0.071  1.00  0.00     0.020 C 
BRANCH  11  12
HETATM   12  C2  UNL     1       9.163  -1.277  -0.935  1.00  0.00    -0.003 C 
HETATM   13  C1  UNL     1      10.557  -1.008  -0.428  1.00  0.00     0.005 C 
ENDBRANCH  11  12
ENDBRANCH  10  11
ENDBRANCH   1  10
BRANCH   4  14
HETATM   14  C6  UNL     1       3.851   0.420   0.650  1.00  0.00     0.138 C 
BRANCH  14  15
HETATM   15  C7  UNL     1       3.495  -0.661  -0.294  1.00  0.00     0.024 C 
BRANCH  15  16
HETATM   16  C8  UNL     1       2.098  -0.611  -0.788  1.00  0.00     0.055 C 
BRANCH  16  17
HETATM   17  C9  UNL     1       0.997  -0.692   0.202  1.00  0.00     0.224 C 
HETATM   18  N3  UNL     1       0.868   0.328   1.180  1.00  0.00    -0.329 N 
HETATM   19  C10 UNL     1       0.686   1.696   1.045  1.00  0.00     0.266 C 
ATOM     20  H3  UNL     1       0.917  -0.000   2.144  1.00  0.00     0.165 HD
HETATM   21  O1  UNL     1       1.106   2.401   2.053  1.00  0.00    -0.266 OA
HETATM   22  C11 UNL     1       0.106   2.511  -0.029  1.00  0.00     0.083 C 
HETATM   23  N4  UNL     1      -0.679   1.925  -1.023  1.00  0.00    -0.324 N 
HETATM   24  C15 UNL     1      -1.661   0.951  -1.126  1.00  0.00     0.245 C 
ATOM     25  H4  UNL     1      -0.471   2.329  -1.936  1.00  0.00     0.169 HD
HETATM   26  O2  UNL     1      -1.759   0.339  -2.263  1.00  0.00    -0.271 OA
HETATM   27  C16 UNL     1      -2.655   0.470  -0.142  1.00  0.00     0.183 C 
HETATM   28  C20 UNL     1      -2.476  -0.843   0.494  1.00  0.00     0.052 C 
HETATM   29  C28 UNL     1      -1.154  -1.491   0.344  1.00  0.00     0.148 C 
HETATM   30  O4  UNL     1      -0.212  -0.946  -0.466  1.00  0.00    -0.359 OA
BRANCH  22  31
HETATM   31  C12 UNL     1      -0.358   3.884   0.442  1.00  0.00     0.033 C 
HETATM   32  C13 UNL     1       0.769   4.731   0.999  1.00  0.00     0.016 C 
HETATM   33  C14 UNL     1      -1.360   3.785   1.594  1.00  0.00     0.016 C 
ENDBRANCH  22  31
BRANCH  27  34
HETATM   34  N5  UNL     1      -3.898   0.395  -0.949  1.00  0.00    -0.346 N 
HETATM   35  C17 UNL     1      -4.854   1.404  -1.068  1.00  0.00     0.248 C 
HETATM   36  O3  UNL     1      -4.762   2.539  -0.485  1.00  0.00    -0.271 OA
ATOM     37  H5  UNL     1      -4.068  -0.470  -1.462  1.00  0.00     0.163 HD
BRANCH  35  38
HETATM   38  C18 UNL     1      -6.058   1.196  -1.906  1.00  0.00     0.270 C 
HETATM   39  C19 UNL     1      -6.855   0.097  -1.202  1.00  0.00     0.050 C 
BRANCH  38  40
HETATM   40  N6  UNL     1      -6.871   2.399  -1.976  1.00  0.00    -0.067 N 
ATOM     41  H63 UNL     1      -7.117   2.738  -1.046  1.00  0.00     0.275 HD
ATOM     42  H62 UNL     1      -6.326   3.200  -2.297  1.00  0.00     0.275 HD
ATOM     43  H61 UNL     1      -7.700   2.256  -2.553  1.00  0.00     0.275 HD
ENDBRANCH  38  40
ENDBRANCH  35  38
ENDBRANCH  27  34
BRANCH  28  44
HETATM   44  C21 UNL     1      -2.742  -0.734   2.004  1.00  0.00     0.048 C 
BRANCH  44  45
HETATM   45  C22 UNL     1      -4.092  -0.296   2.381  1.00  0.00    -0.058 A 
HETATM   46  C23 UNL     1      -4.401   0.991   2.737  1.00  0.00     0.007 A 
HETATM   47  C24 UNL     1      -5.688   1.334   3.064  1.00  0.00     0.001 A 
HETATM   48  C25 UNL     1      -6.725   0.433   3.056  1.00  0.00     0.000 A 
HETATM   49  C26 UNL     1      -6.403  -0.871   2.694  1.00  0.00     0.001 A 
HETATM   50  C27 UNL     1      -5.117  -1.219   2.366  1.00  0.00     0.007 A 
ENDBRANCH  44  45
ENDBRANCH  28  44
BRANCH  29  51
HETATM   51  C29 UNL     1      -1.259  -2.956  -0.058  1.00  0.00     0.146 C 
BRANCH  51  52
HETATM   52  N7  UNL     1      -1.632  -3.070  -1.425  1.00  0.00    -0.415 N 
ATOM     53  H7  UNL     1      -1.812  -2.251  -2.006  1.00  0.00     0.153 HD
BRANCH  52  54
HETATM   54  C30 UNL     1      -1.739  -4.391  -1.934  1.00  0.00     0.076 C 
HETATM   55  C31 UNL     1      -2.751  -5.310  -1.355  1.00  0.00     0.024 C 
HETATM   56  C32 UNL     1      -3.722  -4.876  -2.427  1.00  0.00     0.004 C 
HETATM   57  C33 UNL     1      -2.526  -4.413  -3.231  1.00  0.00     0.024 C 
ENDBRANCH  52  54
ENDBRANCH  51  52
ENDBRANCH  29  51
ENDBRANCH  16  17
ENDBRANCH  15  16
ENDBRANCH  14  15
ENDBRANCH   4  14
TORSDOF 16
