REMARK  3 active torsions:
REMARK  status: ('A' for Active; 'I' for Inactive)
REMARK       I    between atoms: C2_4  and  N3_6 
REMARK    1  A    between atoms: N3_6  and  C3_8 
REMARK    2  A    between atoms: C3_8  and  C4_9 
REMARK    3  A    between atoms: C4_9  and  N4_10 
REMARK       I    between atoms: N5_13  and  C7_14 
REMARK       I    between atoms: C7_14  and  N6_16 
REMARK       I    between atoms: C8_18  and  N8_20 
ROOT
HETATM    1  N4  UNL     1       0.850  -0.533  -0.394  1.00  0.00     0.093 N 
HETATM    2  C5  UNL     1       0.217  -1.761  -0.025  1.00  0.00     0.292 C 
HETATM    3  C6  UNL     1      -1.068  -1.842  -0.870  1.00  0.00     0.158 C 
HETATM    4  N5  UNL     1      -1.917  -0.777  -0.312  1.00  0.00    -0.331 N 
HETATM    5  C7  UNL     1      -3.310  -0.849  -0.442  1.00  0.00     0.324 C 
HETATM    6  O1  UNL     1      -3.817  -1.837  -1.048  1.00  0.00    -0.247 OA
HETATM    7  N6  UNL     1      -4.120   0.176   0.102  1.00  0.00    -0.283 N 
ATOM      8  H6  UNL     1      -3.805   1.140  -0.006  1.00  0.00     0.173 HD
HETATM    9  C8  UNL     1      -5.233  -0.029   0.727  1.00  0.00     0.191 C 
HETATM   10  N7  UNL     1      -5.783  -1.319   0.946  1.00  0.00    -0.063 NA
HETATM   11  N8  UNL     1      -5.940   1.095   1.214  1.00  0.00    -0.369 N 
ATOM     12  H8  UNL     1      -6.216   1.157   2.194  1.00  0.00     0.161 HD
HETATM   13  C9  UNL     1      -6.263   2.163   0.276  1.00  0.00     0.148 C 
HETATM   14  C10 UNL     1      -1.324   0.347   0.371  1.00  0.00     0.158 C 
HETATM   15  C11 UNL     1       0.087   0.635  -0.029  1.00  0.00     0.292 C 
ENDROOT
BRANCH   1  16
HETATM   16  C4  UNL     1       2.174  -0.354   0.175  1.00  0.00     0.292 C 
BRANCH  16  17
HETATM   17  C3  UNL     1       3.189  -1.316  -0.383  1.00  0.00     0.152 C 
BRANCH  17  18
HETATM   18  N3  UNL     1       4.470  -1.077   0.236  1.00  0.00    -0.363 N 
HETATM   19  C2  UNL     1       5.218   0.098   0.004  1.00  0.00     0.183 C 
HETATM   20  N1  UNL     1       4.908   1.259   0.492  1.00  0.00    -0.369 N 
HETATM   21  N2  UNL     1       6.402   0.020  -0.818  1.00  0.00    -0.064 NA
HETATM   22  C1  UNL     1       5.719   2.432   0.222  1.00  0.00     0.148 C 
ATOM     23  H1  UNL     1       4.078   1.350   1.077  1.00  0.00     0.161 HD
ATOM     24  H3  UNL     1       4.850  -1.784   0.865  1.00  0.00     0.162 HD
ENDBRANCH  17  18
ENDBRANCH  16  17
ENDBRANCH   1  16
TORSDOF 3
