REMARK  5 active torsions:
REMARK  status: ('A' for Active; 'I' for Inactive)
REMARK    1  A    between atoms: C2_2  and  C5_5 
REMARK       I    between atoms: C5_5  and  N1_7 
REMARK       I    between atoms: N1_7  and  C6_9 
REMARK    2  A    between atoms: C6_9  and  O3_11 
REMARK    3  A    between atoms: O3_11  and  C7_12 
REMARK    4  A    between atoms: C12_17  and  N2_18 
REMARK       I    between atoms: N2_18  and  C13_20 
REMARK    5  A    between atoms: C13_20  and  C14_22 
ROOT
HETATM    1  C7  UNL     1       0.057  -2.245  -1.561  1.00  0.00     0.107 A 
HETATM    2  C8  UNL     1      -0.685  -3.019  -2.390  1.00  0.00     0.040 A 
HETATM    3  C9  UNL     1      -0.138  -3.570  -3.534  1.00  0.00     0.003 A 
HETATM    4  C10 UNL     1       1.187  -3.311  -3.815  1.00  0.00     0.002 A 
HETATM    5  C11 UNL     1       1.978  -2.515  -2.976  1.00  0.00     0.032 A 
HETATM    6  C12 UNL     1       1.412  -1.986  -1.855  1.00  0.00     0.069 A 
ENDROOT
BRANCH   1   7
HETATM    7  O3  UNL     1      -0.529  -1.717  -0.430  1.00  0.00    -0.259 OA
BRANCH   7   8
HETATM    8  C6  UNL     1      -1.150  -0.485  -0.457  1.00  0.00     0.372 C 
HETATM    9  N1  UNL     1      -1.740   0.039   0.697  1.00  0.00    -0.272 N 
HETATM   10  C5  UNL     1      -2.375   1.301   0.670  1.00  0.00     0.233 C 
ATOM     11  H1  UNL     1      -1.712  -0.494   1.566  1.00  0.00     0.174 HD
HETATM   12  O1  UNL     1      -2.388   1.931  -0.429  1.00  0.00    -0.272 OA
HETATM   13  O2  UNL     1      -1.180   0.163  -1.525  1.00  0.00    -0.238 OA
BRANCH  10  14
HETATM   14  C2  UNL     1      -3.017   1.895   1.880  1.00  0.00     0.030 C 
HETATM   15  C1  UNL     1      -1.985   2.064   2.946  1.00  0.00     0.025 C 
HETATM   16  C3  UNL     1      -3.684   3.172   1.461  1.00  0.00     0.025 C 
HETATM   17  C4  UNL     1      -4.042   0.885   2.389  1.00  0.00     0.025 C 
ENDBRANCH  10  14
ENDBRANCH   7   8
ENDBRANCH   1   7
BRANCH   6  18
HETATM   18  N2  UNL     1       2.086  -1.171  -0.928  1.00  0.00    -0.320 N 
HETATM   19  C13 UNL     1       3.434  -0.759  -0.980  1.00  0.00     0.258 C 
HETATM   20  O4  UNL     1       4.244  -1.081  -1.902  1.00  0.00    -0.267 OA
ATOM     21  H2  UNL     1       1.541  -0.842  -0.131  1.00  0.00     0.169 HD
BRANCH  19  22
HETATM   22  C14 UNL     1       3.928   0.104   0.116  1.00  0.00     0.056 A 
HETATM   23  C15 UNL     1       5.202   0.587   0.214  1.00  0.00     0.043 A 
HETATM   24  C16 UNL     1       5.248   1.350   1.386  1.00  0.00     0.142 A 
HETATM   25  O5  UNL     1       4.065   1.291   1.904  1.00  0.00    -0.334 OA
HETATM   26  C17 UNL     1       3.232   0.562   1.195  1.00  0.00     0.158 A 
ENDBRANCH  19  22
ENDBRANCH   6  18
TORSDOF 5
