REMARK  5 active torsions:
REMARK  status: ('A' for Active; 'I' for Inactive)
REMARK    1  A    between atoms: C2_2  and  O1_4 
REMARK    2  A    between atoms: O1_4  and  C4_5 
REMARK    3  A    between atoms: C5_8  and  N2_9 
REMARK    4  A    between atoms: N3_12  and  C8_13 
REMARK    5  A    between atoms: C12_20  and  N6_21 
ROOT
HETATM    1  C8  UNL     1       5.254   1.121   0.108  1.00  0.00     0.250 C 
HETATM    2  C9  UNL     1       6.031   0.344   1.069  1.00  0.00     0.079 C 
HETATM    3  N4  UNL     1       6.635  -0.263   1.826  1.00  0.00    -0.196 NA
ENDROOT
BRANCH   1   4
HETATM    4  N3  UNL     1       3.898   0.729  -0.010  1.00  0.00    -0.358 N 
HETATM    5  C7  UNL     1       3.063   0.963   1.077  1.00  0.00     0.084 C 
HETATM    6  C6  UNL     1       1.763   0.251   1.140  1.00  0.00     0.186 C 
HETATM    7  N2  UNL     1       1.516  -0.606  -0.007  1.00  0.00    -0.208 N 
HETATM    8  C11 UNL     1       2.670  -1.245  -0.572  1.00  0.00     0.186 C 
HETATM    9  C10 UNL     1       3.542  -0.111  -1.066  1.00  0.00     0.084 C 
BRANCH   7  10
HETATM   10  C5  UNL     1       0.202  -0.778  -0.522  1.00  0.00     0.684 A 
HETATM   11  N1  UNL     1      -0.826  -0.169   0.046  1.00  0.00    -0.169 N 
HETATM   12  C4  UNL     1      -2.143  -0.259  -0.371  1.00  0.00     0.182 A 
ATOM     13  H1  UNL     1      -0.632   0.416   0.859  1.00  0.00     0.186 HD
HETATM   14  C13 UNL     1      -2.369  -1.054  -1.466  1.00  0.00     0.140 A 
HETATM   15  C12 UNL     1      -1.307  -1.695  -2.067  1.00  0.00     0.140 A 
HETATM   16  C14 UNL     1      -3.689  -1.269  -2.041  1.00  0.00     0.107 C 
HETATM   17  N5  UNL     1      -0.053  -1.553  -1.596  1.00  0.00    -0.175 N 
ATOM     18  H5  UNL     1       0.715  -2.039  -2.059  1.00  0.00     0.186 HD
HETATM   19  N7  UNL     1      -4.707  -1.456  -2.510  1.00  0.00    -0.191 NA
BRANCH  12  20
HETATM   20  O1  UNL     1      -3.084   0.404   0.288  1.00  0.00    -0.330 OA
BRANCH  20  21
HETATM   21  C2  UNL     1      -4.353   0.704   0.378  1.00  0.00     0.122 C 
HETATM   22  C1  UNL     1      -4.963   0.135   1.704  1.00  0.00     0.040 C 
HETATM   23  C3  UNL     1      -4.568   2.240   0.440  1.00  0.00     0.040 C 
ENDBRANCH  20  21
ENDBRANCH  12  20
BRANCH  15  24
HETATM   24  N6  UNL     1      -1.533  -2.446  -3.101  1.00  0.00    -0.384 N 
ATOM     25  H62 UNL     1      -0.747  -2.920  -3.546  1.00  0.00     0.157 HD
ATOM     26  H61 UNL     1      -2.483  -2.554  -3.458  1.00  0.00     0.157 HD
ENDBRANCH  15  24
ENDBRANCH   7  10
ENDBRANCH   1   4
TORSDOF 5
