REMARK  6 active torsions:
REMARK  status: ('A' for Active; 'I' for Inactive)
REMARK    1  A    between atoms: N1_2  and  C2_4 
REMARK    2  A    between atoms: C3_7  and  N3_8 
REMARK    3  A    between atoms: C5_15  and  C6_16 
REMARK    4  A    between atoms: N6_17  and  N7_19 
REMARK       I    between atoms: N7_19  and  C7_21 
REMARK    5  A    between atoms: C7_21  and  C8_23 
REMARK    6  A    between atoms: C12_31  and  O3_32 
ROOT
HETATM    1  C6  UNL     1       2.075   0.084  -0.460  1.00  0.00     0.126 C 
HETATM    2  N6  UNL     1       0.918  -0.073  -0.196  1.00  0.00    -0.308 N 
ATOM      3  H6  UNL     1       0.869  -1.079  -0.035  1.00  0.00     0.186 HD
ENDROOT
BRANCH   2   4
HETATM    4  N7  UNL     1      -0.330   0.302   0.007  1.00  0.00    -0.266 N 
HETATM    5  C7  UNL     1      -0.940   1.520  -0.418  1.00  0.00     0.274 C 
HETATM    6  O1  UNL     1      -0.117   2.266  -1.088  1.00  0.00    -0.266 OA
ATOM      7  H7  UNL     1      -0.923  -0.348   0.523  1.00  0.00     0.190 HD
BRANCH   5   8
HETATM    8  C8  UNL     1      -2.276   2.000  -0.200  1.00  0.00     0.089 A 
HETATM    9  C9  UNL     1      -2.617   3.170  -0.925  1.00  0.00     0.127 A 
HETATM   10  N8  UNL     1      -3.858   3.638  -0.862  1.00  0.00    -0.306 N 
HETATM   11  N9  UNL     1      -4.827   3.090  -0.163  1.00  0.00    -0.260 N 
ATOM     12  H8  UNL     1      -4.074   4.482  -1.393  1.00  0.00     0.186 HD
HETATM   13  C10 UNL     1      -6.179   3.648  -0.124  1.00  0.00     0.181 C 
HETATM   14  C11 UNL     1      -4.544   1.996   0.528  1.00  0.00     0.296 A 
HETATM   15  O2  UNL     1      -5.431   1.414   1.225  1.00  0.00    -0.263 OA
HETATM   16  C12 UNL     1      -3.269   1.416   0.536  1.00  0.00     0.155 A 
BRANCH  16  17
HETATM   17  O3  UNL     1      -3.051   0.291   1.291  1.00  0.00    -0.350 OA
HETATM   18  C13 UNL     1      -2.732   0.400   2.689  1.00  0.00     0.210 C 
ENDBRANCH  16  17
ENDBRANCH   5   8
ENDBRANCH   2   4
BRANCH   1  19
HETATM   19  C5  UNL     1       3.089  -0.977  -0.507  1.00  0.00     0.067 A 
HETATM   20  C2  UNL     1       2.667  -2.254  -0.217  1.00  0.00     0.131 A 
HETATM   21  N2  UNL     1       3.617  -3.212  -0.266  1.00  0.00    -0.176 N 
HETATM   22  C3  UNL     1       4.891  -2.917  -0.581  1.00  0.00     0.678 A 
ATOM     23  H2  UNL     1       3.364  -4.178  -0.060  1.00  0.00     0.186 HD
HETATM   24  N4  UNL     1       5.322  -1.661  -0.869  1.00  0.00    -0.178 N 
HETATM   25  C4  UNL     1       4.397  -0.692  -0.828  1.00  0.00     0.147 A 
ATOM     26  H4  UNL     1       6.295  -1.466  -1.103  1.00  0.00     0.185 HD
HETATM   27  N5  UNL     1       4.815   0.632  -1.131  1.00  0.00    -0.081 NA
BRANCH  20  28
HETATM   28  N1  UNL     1       1.428  -2.522   0.108  1.00  0.00    -0.379 N 
HETATM   29  C1  UNL     1       1.055  -3.863   0.425  1.00  0.00     0.147 C 
ATOM     30  H1  UNL     1       0.732  -1.777   0.135  1.00  0.00     0.160 HD
ENDBRANCH  20  28
BRANCH  22  31
HETATM   31  N3  UNL     1       5.788  -3.843  -0.622  1.00  0.00    -0.234 N 
ATOM     32  H32 UNL     1       5.464  -4.786  -0.406  1.00  0.00     0.174 HD
ATOM     33  H31 UNL     1       6.754  -3.619  -0.861  1.00  0.00     0.174 HD
ENDBRANCH  22  31
ENDBRANCH   1  19
TORSDOF 6
