REMARK  6 active torsions:
REMARK  status: ('A' for Active; 'I' for Inactive)
REMARK    1  A    between atoms: O1_2  and  C2_3 
REMARK    2  A    between atoms: C2_3  and  C3_5 
REMARK    3  A    between atoms: C7_13  and  O4_14 
REMARK    4  A    between atoms: C9_16  and  N3_17 
REMARK    5  A    between atoms: N3_17  and  N4_18 
REMARK       I    between atoms: N4_18  and  C10_20 
REMARK    6  A    between atoms: C13_27  and  N6_28 
ROOT
HETATM    1  C3  UNL     1      -2.035   0.526  -0.040  1.00  0.00     0.093 C 
HETATM    2  C4  UNL     1      -1.876  -0.688   0.433  1.00  0.00     0.036 C 
HETATM    3  C5  UNL     1      -3.072  -1.211   1.092  1.00  0.00     0.070 C 
HETATM    4  N1  UNL     1      -0.758  -1.623   0.437  1.00  0.00    -0.248 N 
HETATM    5  C6  UNL     1      -0.397  -2.596   1.404  1.00  0.00     0.330 A 
HETATM    6  O3  UNL     1      -0.835  -3.028   2.518  1.00  0.00    -0.247 OA
HETATM    7  N2  UNL     1       0.711  -2.951   0.640  1.00  0.00    -0.289 N 
ATOM      8  H2  UNL     1       1.473  -3.620   0.749  1.00  0.00     0.169 HD
HETATM    9  C7  UNL     1       0.343  -1.989  -0.369  1.00  0.00     0.267 A 
HETATM   10  C9  UNL     1       1.435  -0.976  -0.515  1.00  0.00     0.279 C 
HETATM   11  N5  UNL     1       1.143   0.107  -1.415  1.00  0.00    -0.330 N 
ATOM     12  H5  UNL     1       1.787   0.138  -2.206  1.00  0.00     0.164 HD
HETATM   13  C12 UNL     1       0.170   1.148  -1.468  1.00  0.00     0.270 C 
HETATM   14  O6  UNL     1       0.440   2.055  -2.306  1.00  0.00    -0.266 OA
HETATM   15  C13 UNL     1      -1.068   1.401  -0.771  1.00  0.00     0.112 C 
ENDROOT
BRANCH  10  16
HETATM   16  N3  UNL     1       1.892  -0.449   0.770  1.00  0.00    -0.106 NA
BRANCH  16  17
HETATM   17  N4  UNL     1       2.912   0.488   0.473  1.00  0.00    -0.272 N 
HETATM   18  C10 UNL     1       3.939   0.800   1.382  1.00  0.00     0.229 C 
HETATM   19  C11 UNL     1       4.973   1.783   1.015  1.00  0.00     0.118 C 
HETATM   20  O5  UNL     1       3.969   0.242   2.497  1.00  0.00    -0.273 OA
ATOM     21  H4  UNL     1       2.901   0.954  -0.434  1.00  0.00     0.185 HD
ENDBRANCH  16  17
ENDBRANCH  10  16
BRANCH   9  22
HETATM   22  O4  UNL     1       0.061  -2.640  -1.561  1.00  0.00    -0.345 OA
HETATM   23  C8  UNL     1       1.181  -2.981  -2.296  1.00  0.00     0.207 C 
ENDBRANCH   9  22
BRANCH  15  24
HETATM   24  N6  UNL     1      -1.441   2.640  -0.762  1.00  0.00    -0.394 N 
ATOM     25  H62 UNL     1      -2.316   2.819  -0.269  1.00  0.00     0.156 HD
ATOM     26  H61 UNL     1      -0.781   3.237  -1.261  1.00  0.00     0.156 HD
ENDBRANCH  15  24
BRANCH   1  27
HETATM   27  C2  UNL     1      -3.289   1.195   0.119  1.00  0.00     0.297 C 
HETATM   28  O2  UNL     1      -4.336   0.816   0.661  1.00  0.00    -0.259 OA
BRANCH  27  29
HETATM   29  O1  UNL     1      -3.407   2.510  -0.413  1.00  0.00    -0.322 OA
HETATM   30  C1  UNL     1      -4.609   3.245  -0.302  1.00  0.00     0.213 C 
ENDBRANCH  27  29
ENDBRANCH   1  27
TORSDOF 6
