REMARK  5 active torsions:
REMARK  status: ('A' for Active; 'I' for Inactive)
REMARK    1  A    between atoms: C2_2  and  N1_3 
REMARK    2  A    between atoms: C2_2  and  C3_7 
REMARK    3  A    between atoms: C6_12  and  C7_13 
REMARK    4  A    between atoms: C7_13  and  C8_14 
REMARK    5  A    between atoms: C8_14  and  C9_15 
ROOT
HETATM    1  C3  UNL     1       2.302   0.655  -0.123  1.00  0.00     0.032 A 
HETATM    2  S1  UNL     1       3.579   1.687  -0.556  1.00  0.00    -0.084 SA
HETATM    3  C4  UNL     1       2.681   3.040  -1.073  1.00  0.00     0.053 A 
HETATM    4 BR1  UNL     1       3.302   4.735  -1.754  1.00  0.00    -0.043 Br
HETATM    5  C5  UNL     1       1.388   2.643  -0.891  1.00  0.00     0.048 A 
HETATM    6  C6  UNL     1       1.190   1.397  -0.394  1.00  0.00     0.034 A 
ENDROOT
BRANCH   1   7
HETATM    7  C2  UNL     1       2.434  -0.728   0.424  1.00  0.00     0.220 C 
HETATM    8  C1  UNL     1       3.893  -1.094   0.455  1.00  0.00     0.045 C 
BRANCH   7   9
HETATM    9  N1  UNL     1       1.635  -1.665  -0.316  1.00  0.00    -0.071 N 
ATOM     10  H13 UNL     1       2.000  -1.788  -1.261  1.00  0.00     0.275 HD
ATOM     11  H12 UNL     1       1.765  -2.613   0.037  1.00  0.00     0.275 HD
ATOM     12  H11 UNL     1       0.646  -1.417  -0.337  1.00  0.00     0.275 HD
ENDBRANCH   7   9
ENDBRANCH   1   7
BRANCH   6  13
HETATM   13  C7  UNL     1      -0.142   0.823  -0.146  1.00  0.00    -0.065 C 
BRANCH  13  14
HETATM   14  C8  UNL     1      -1.232   0.348   0.036  1.00  0.00    -0.092 C 
BRANCH  14  15
HETATM   15  C9  UNL     1      -2.561  -0.225   0.231  1.00  0.00     0.013 C 
HETATM   16  C10 UNL     1      -2.467  -1.682  -0.165  1.00  0.00     0.028 C 
HETATM   17  C11 UNL     1      -3.588   0.415  -0.682  1.00  0.00     0.028 C 
HETATM   18  C12 UNL     1      -3.039  -0.156   1.649  1.00  0.00     0.028 C 
ENDBRANCH  14  15
ENDBRANCH  13  14
ENDBRANCH   6  13
TORSDOF 5
