REMARK  4 active torsions:
REMARK  status: ('A' for Active; 'I' for Inactive)
REMARK    1  A    between atoms: C3_3  and  N1_4 
REMARK    2  A    between atoms: C3_3  and  C4_8 
REMARK       I    between atoms: C4_8  and  N2_10 
REMARK    3  A    between atoms: N2_10  and  N3_12 
REMARK       I    between atoms: N3_12  and  C5_14 
REMARK       I    between atoms: C5_14  and  N4_16 
REMARK    4  A    between atoms: N4_16  and  C6_18 
ROOT
HETATM    1  C1  UNL     1       5.463   2.104   1.257  1.00  0.00     0.015 C 
HETATM    2  C2  UNL     1       5.327   1.149   0.528  1.00  0.00    -0.075 C 
HETATM    3  C3  UNL     1       5.134  -0.011  -0.363  1.00  0.00     0.353 C 
ENDROOT
BRANCH   3   4
HETATM    4  N1  UNL     1       5.269  -1.194   0.450  1.00  0.00    -0.056 N 
ATOM      5  H13 UNL     1       6.148  -1.227   0.966  1.00  0.00     0.276 HD
ATOM      6  H12 UNL     1       4.644  -1.200   1.256  1.00  0.00     0.276 HD
ATOM      7  H11 UNL     1       5.136  -1.996  -0.166  1.00  0.00     0.276 HD
ENDBRANCH   3   4
BRANCH   3   8
HETATM    8  C4  UNL     1       3.743   0.025  -0.905  1.00  0.00     0.278 C 
HETATM    9  O1  UNL     1       3.452   0.883  -1.749  1.00  0.00    -0.268 OA
HETATM   10  N2  UNL     1       2.817  -0.935  -0.415  1.00  0.00    -0.264 N 
ATOM     11  H2  UNL     1       3.099  -1.627   0.279  1.00  0.00     0.190 HD
BRANCH  10  12
HETATM   12  N3  UNL     1       1.514  -0.906  -0.908  1.00  0.00    -0.249 N 
HETATM   13  C5  UNL     1       0.459  -0.401  -0.114  1.00  0.00     0.335 C 
HETATM   14  O2  UNL     1       0.674   0.056   1.062  1.00  0.00    -0.246 OA
HETATM   15  N4  UNL     1      -0.869  -0.393  -0.612  1.00  0.00    -0.337 N 
ATOM     16  H4  UNL     1      -1.084  -0.756  -1.541  1.00  0.00     0.164 HD
ATOM     17  H3  UNL     1       1.320  -1.251  -1.848  1.00  0.00     0.192 HD
BRANCH  15  18
HETATM   18  C6  UNL     1      -1.913   0.147   0.239  1.00  0.00     0.086 C 
HETATM   19  C7  UNL     1      -2.755  -1.029   0.681  1.00  0.00     0.025 C 
HETATM   20  C8  UNL     1      -4.042  -0.635   1.314  1.00  0.00     0.002 C 
HETATM   21  C9  UNL     1      -4.614   0.665   0.792  1.00  0.00     0.000 C 
HETATM   22  C10 UNL     1      -4.159   0.814  -0.646  1.00  0.00     0.002 C 
HETATM   23  C11 UNL     1      -2.682   1.127  -0.598  1.00  0.00     0.025 C 
ENDBRANCH  15  18
ENDBRANCH  10  12
ENDBRANCH   3   8
TORSDOF 4
