REMARK  6 active torsions:
REMARK  status: ('A' for Active; 'I' for Inactive)
REMARK    1  A    between atoms: C2_2  and  N1_3 
REMARK    2  A    between atoms: C2_2  and  C20_28 
REMARK    3  A    between atoms: N1_3  and  C3_6 
REMARK       I    between atoms: N2_8  and  C5_9 
REMARK    4  A    between atoms: C5_9  and  C6_11 
REMARK    5  A    between atoms: C13_19  and  C14_20 
REMARK       I    between atoms: C14_20  and  N3_22 
REMARK       I    between atoms: C20_28  and  N4_30 
REMARK    6  A    between atoms: C24_34  and  C25_35 
REMARK       I    between atoms: C25_35  and  N5_37 
ROOT
HETATM    1  C3  UNL     1      -2.078  -0.763  -0.372  1.00  0.00     0.219 C 
HETATM    2  C4  UNL     1      -2.139  -2.151   0.246  1.00  0.00     0.160 C 
HETATM    3  N2  UNL     1      -3.508  -2.302   0.670  1.00  0.00    -0.345 N 
HETATM    4  C5  UNL     1      -4.253  -3.507   0.610  1.00  0.00     0.256 C 
HETATM    5  O1  UNL     1      -3.711  -4.573   0.152  1.00  0.00    -0.267 OA
HETATM    6  C12 UNL     1      -3.909  -0.993   1.141  1.00  0.00     0.142 C 
HETATM    7  C13 UNL     1      -3.388  -0.141  -0.024  1.00  0.00     0.128 C 
ENDROOT
BRANCH   1   8
HETATM    8  N1  UNL     1      -0.928  -0.030   0.135  1.00  0.00    -0.056 N 
ATOM      9  H12 UNL     1      -0.977   0.145   1.139  1.00  0.00     0.278 HD
ATOM     10  H11 UNL     1      -0.911   0.944  -0.168  1.00  0.00     0.278 HD
BRANCH   8  11
HETATM   11  C2  UNL     1       0.254  -0.764  -0.254  1.00  0.00     0.273 C 
HETATM   12  C1  UNL     1       0.281  -0.785  -1.767  1.00  0.00     0.050 C 
BRANCH  11  13
HETATM   13  C20 UNL     1       1.519  -0.064   0.223  1.00  0.00     0.251 C 
HETATM   14  O3  UNL     1       1.274   1.063   0.722  1.00  0.00    -0.271 OA
HETATM   15  N4  UNL     1       2.730  -0.706   0.066  1.00  0.00    -0.337 N 
HETATM   16  C21 UNL     1       2.854  -2.082  -0.491  1.00  0.00     0.127 C 
HETATM   17  C24 UNL     1       4.100  -0.420   0.306  1.00  0.00     0.179 C 
HETATM   18  C22 UNL     1       3.716  -2.706   0.616  1.00  0.00     0.022 C 
HETATM   19  C23 UNL     1       4.394  -1.524   1.325  1.00  0.00     0.037 C 
BRANCH  17  20
HETATM   20  C25 UNL     1       4.552   0.885   0.678  1.00  0.00     0.242 C 
HETATM   21  O4  UNL     1       3.803   1.851   0.955  1.00  0.00    -0.271 OA
HETATM   22  N5  UNL     1       5.945   1.179   0.755  1.00  0.00    -0.350 N 
HETATM   23  C26 UNL     1       6.928   0.188   0.452  1.00  0.00     0.126 C 
HETATM   24  C30 UNL     1       6.371   2.499   1.163  1.00  0.00     0.126 C 
HETATM   25  C27 UNL     1       8.172   0.726  -0.241  1.00  0.00     0.020 C 
HETATM   26  C28 UNL     1       8.663   1.915   0.542  1.00  0.00     0.003 C 
HETATM   27  C29 UNL     1       7.571   2.983   0.388  1.00  0.00     0.020 C 
ENDBRANCH  17  20
ENDBRANCH  11  13
ENDBRANCH   8  11
ENDBRANCH   1   8
BRANCH   7  28
HETATM   28  C14 UNL     1      -3.378   1.286   0.290  1.00  0.00     0.227 C 
HETATM   29  O2  UNL     1      -3.505   1.591   1.524  1.00  0.00    -0.273 OA
HETATM   30  N3  UNL     1      -3.238   2.342  -0.639  1.00  0.00    -0.352 N 
HETATM   31  C15 UNL     1      -3.232   3.722  -0.155  1.00  0.00     0.125 C 
HETATM   32  C19 UNL     1      -3.112   2.168  -2.064  1.00  0.00     0.125 C 
HETATM   33  C16 UNL     1      -2.381   4.556  -1.084  1.00  0.00     0.020 C 
HETATM   34  C17 UNL     1      -3.077   4.659  -2.429  1.00  0.00     0.003 C 
HETATM   35  C18 UNL     1      -3.721   3.349  -2.795  1.00  0.00     0.020 C 
ENDBRANCH   7  28
BRANCH   4  36
HETATM   36  C6  UNL     1      -5.633  -3.660   1.036  1.00  0.00     0.070 A 
HETATM   37  C7  UNL     1      -5.907  -4.024   2.344  1.00  0.00     0.020 A 
HETATM   38  C8  UNL     1      -7.215  -4.169   2.738  1.00  0.00     0.001 A 
HETATM   39  C9  UNL     1      -8.234  -3.950   1.829  1.00  0.00     0.003 A 
HETATM   40  C10 UNL     1      -7.947  -3.588   0.535  1.00  0.00     0.043 A 
HETATM   41  C11 UNL     1      -6.633  -3.433   0.105  1.00  0.00     0.132 A 
HETATM   42  F1  UNL     1      -6.319  -3.070  -1.169  1.00  0.00    -0.205 F 
ENDBRANCH   4  36
TORSDOF 6
