REMARK  6 active torsions:
REMARK  status: ('A' for Active; 'I' for Inactive)
REMARK    1  A    between atoms: C2_2  and  N1_5 
REMARK    2  A    between atoms: C6_10  and  C7_11 
REMARK    3  A    between atoms: C7_11  and  C8_12 
REMARK    4  A    between atoms: C8_12  and  C9_13 
REMARK    5  A    between atoms: C17_23  and  C18_24 
REMARK    6  A    between atoms: C22_32  and  N6_33 
ROOT
HETATM    1  N1  UNL     1      -1.618  -2.120  -0.214  1.00  0.00    -0.366 N 
ATOM      2  H1  UNL     1      -2.622  -1.940  -0.188  1.00  0.00     0.162 HD
HETATM    3  C5  UNL     1      -0.943  -1.083  -0.119  1.00  0.00     0.133 A 
HETATM    4  N2  UNL     1       0.393  -1.077  -0.128  1.00  0.00    -0.320 N 
ATOM      5  H2  UNL     1       0.888  -1.964  -0.217  1.00  0.00     0.169 HD
HETATM    6  C6  UNL     1       1.114   0.065  -0.023  1.00  0.00     0.164 A 
HETATM    7  N3  UNL     1       0.483   1.226   0.094  1.00  0.00    -0.333 N 
ATOM      8  H3  UNL     1       1.035   2.080   0.172  1.00  0.00     0.168 HD
HETATM    9  C15 UNL     1      -0.879   1.317   0.113  1.00  0.00     0.066 A 
HETATM   10  C16 UNL     1      -1.497   2.541   0.237  1.00  0.00     0.048 A 
HETATM   11  C17 UNL     1      -2.894   2.620   0.255  1.00  0.00     0.023 A 
HETATM   12  C22 UNL     1      -3.570   1.423   0.144  1.00  0.00     0.110 A 
HETATM   13  N7  UNL     1      -2.922   0.226   0.023  1.00  0.00    -0.337 N 
ATOM     14  H7  UNL     1      -3.475  -0.628  -0.056  1.00  0.00     0.167 HD
HETATM   15  C23 UNL     1      -1.583   0.136   0.004  1.00  0.00     0.105 A 
ENDROOT
BRANCH   6  16
HETATM   16  C7  UNL     1       2.563   0.014  -0.039  1.00  0.00    -0.025 C 
BRANCH  16  17
HETATM   17  C8  UNL     1       3.771  -0.008  -0.049  1.00  0.00    -0.059 C 
BRANCH  17  18
HETATM   18  C9  UNL     1       5.208  -0.036  -0.077  1.00  0.00     0.018 A 
HETATM   19  C10 UNL     1       5.966   0.948  -0.680  1.00  0.00     0.020 A 
HETATM   20  C11 UNL     1       7.342   0.923  -0.708  1.00  0.00     0.001 A 
HETATM   21  C12 UNL     1       7.989  -0.128  -0.108  1.00  0.00     0.000 A 
HETATM   22  C13 UNL     1       7.245  -1.123   0.501  1.00  0.00     0.001 A 
HETATM   23  C14 UNL     1       5.859  -1.078   0.517  1.00  0.00     0.020 A 
ENDBRANCH  17  18
ENDBRANCH  16  17
ENDBRANCH   6  16
BRANCH   1  24
HETATM   24  C2  UNL     1      -1.315  -3.490  -0.350  1.00  0.00     0.021 C 
HETATM   25  C1  UNL     1      -0.366  -3.859  -1.438  1.00  0.00     0.037 C 
HETATM   26  C3  UNL     1      -0.728  -3.975   0.983  1.00  0.00     0.037 C 
HETATM   27  C4  UNL     1      -2.593  -4.338  -0.535  1.00  0.00     0.037 C 
ENDBRANCH   1  24
BRANCH  11  28
HETATM   28  C18 UNL     1      -3.564   3.915   0.389  1.00  0.00     0.009 A 
HETATM   29  C19 UNL     1      -4.602   4.084   1.279  1.00  0.00     0.102 A 
HETATM   30  N4  UNL     1      -5.215   5.297   1.388  1.00  0.00    -0.361 N 
HETATM   31  C20 UNL     1      -4.832   6.350   0.641  1.00  0.00     0.180 A 
ATOM     32  H4  UNL     1      -5.982   5.410   2.051  1.00  0.00     0.166 HD
HETATM   33  N5  UNL     1      -3.811   6.147  -0.220  1.00  0.00    -0.361 N 
HETATM   34  C21 UNL     1      -3.177   4.989  -0.368  1.00  0.00     0.102 A 
ATOM     35  H5  UNL     1      -3.507   6.934  -0.794  1.00  0.00     0.166 HD
ENDBRANCH  11  28
BRANCH  12  36
HETATM   36  N6  UNL     1      -4.866   1.427   0.150  1.00  0.00    -0.385 N 
ATOM     37  H62 UNL     1      -5.350   2.320   0.240  1.00  0.00     0.157 HD
ATOM     38  H61 UNL     1      -5.366   0.542   0.068  1.00  0.00     0.157 HD
ENDBRANCH  12  36
TORSDOF 6
