REMARK  6 active torsions:
REMARK  status: ('A' for Active; 'I' for Inactive)
REMARK    1  A    between atoms: C7_15  and  S1_16 
REMARK    2  A    between atoms: S1_16  and  C8_17 
REMARK    3  A    between atoms: C8_17  and  C9_18 
REMARK       I    between atoms: C9_18  and  N4_20 
REMARK    4  A    between atoms: N4_20  and  N5_22 
REMARK    5  A    between atoms: N5_22  and  C10_24 
REMARK    6  A    between atoms: N8_31  and  O4_32 
ROOT
HETATM    1  C1  UNL     1      -6.250   1.547  -1.849  1.00  0.00     0.049 C 
HETATM    2  C2  UNL     1      -5.158   1.366  -1.156  1.00  0.00     0.096 C 
HETATM    3  N1  UNL     1      -3.992   1.026  -1.917  1.00  0.00    -0.319 N 
ATOM      4  H1  UNL     1      -4.064   1.147  -2.927  1.00  0.00     0.169 HD
HETATM    5  C3  UNL     1      -2.754   0.543  -1.433  1.00  0.00     0.263 C 
HETATM    6  O1  UNL     1      -1.756   0.531  -2.199  1.00  0.00    -0.267 OA
HETATM    7  C4  UNL     1      -2.480   0.031  -0.081  1.00  0.00     0.112 A 
HETATM    8  C5  UNL     1      -3.176   0.302   1.087  1.00  0.00     0.159 A 
HETATM    9  N2  UNL     1      -2.777  -0.260   2.234  1.00  0.00    -0.292 N 
ATOM     10  H2  UNL     1      -3.283  -0.067   3.099  1.00  0.00     0.172 HD
HETATM   11  C6  UNL     1      -1.721  -1.070   2.248  1.00  0.00     0.326 A 
HETATM   12  O2  UNL     1      -1.312  -1.623   3.323  1.00  0.00    -0.247 OA
HETATM   13  N3  UNL     1      -1.039  -1.334   1.105  1.00  0.00    -0.302 N 
ATOM     14  H3  UNL     1      -0.233  -1.958   1.148  1.00  0.00     0.171 HD
HETATM   15  C7  UNL     1      -1.383  -0.806  -0.082  1.00  0.00     0.093 A 
HETATM   16  N8  UNL     1      -4.333   1.142   1.281  1.00  0.00    -0.168 N 
HETATM   17  C13 UNL     1      -5.286   1.538   0.293  1.00  0.00     0.299 C 
HETATM   18  O5  UNL     1      -6.348   2.095   0.726  1.00  0.00    -0.263 OA
ENDROOT
BRANCH  15  19
HETATM   19  S1  UNL     1      -0.508  -1.130  -1.597  1.00  0.00    -0.102 SA
BRANCH  19  20
HETATM   20  C8  UNL     1       0.898  -2.214  -1.371  1.00  0.00     0.185 C 
BRANCH  20  21
HETATM   21  C9  UNL     1       1.983  -1.613  -0.570  1.00  0.00     0.245 C 
HETATM   22  O3  UNL     1       1.857  -0.450  -0.135  1.00  0.00    -0.271 OA
HETATM   23  N4  UNL     1       3.155  -2.342  -0.294  1.00  0.00    -0.267 N 
ATOM     24  H4  UNL     1       3.225  -3.290  -0.664  1.00  0.00     0.190 HD
BRANCH  23  25
HETATM   25  N5  UNL     1       4.220  -1.855   0.448  1.00  0.00    -0.269 N 
ATOM     26  H5  UNL     1       4.568  -2.394   1.241  1.00  0.00     0.190 HD
BRANCH  25  27
HETATM   27  C10 UNL     1       4.838  -0.610   0.119  1.00  0.00     0.190 C 
HETATM   28  N6  UNL     1       4.756  -0.057  -1.050  1.00  0.00    -0.360 N 
HETATM   29  C11 UNL     1       5.472   1.187  -1.095  1.00  0.00     0.142 C 
ATOM     30  H6  UNL     1       4.247  -0.455  -1.839  1.00  0.00     0.162 HD
HETATM   31  C12 UNL     1       5.680   1.518   0.355  1.00  0.00     0.142 C 
HETATM   32  N7  UNL     1       5.628   0.217   0.990  1.00  0.00    -0.360 N 
ATOM     33  H7  UNL     1       6.062  -0.056   1.872  1.00  0.00     0.162 HD
ENDBRANCH  25  27
ENDBRANCH  23  25
ENDBRANCH  20  21
ENDBRANCH  19  20
ENDBRANCH  15  19
BRANCH  16  34
HETATM   34  O4  UNL     1      -4.523   1.593   2.531  1.00  0.00    -0.278 OA
ATOM     35  H4  UNL     1      -5.285   2.146   2.659  1.00  0.00     0.245 HD
ENDBRANCH  16  34
TORSDOF 6
