REMARK  7 active torsions:
REMARK  status: ('A' for Active; 'I' for Inactive)
REMARK    1  A    between atoms: N1_1  and  C1_4 
REMARK    2  A    between atoms: C2_7  and  S1_8 
REMARK    3  A    between atoms: S1_8  and  N3_11 
REMARK    4  A    between atoms: C3_14  and  C4_15 
REMARK    5  A    between atoms: C8_24  and  C9_25 
REMARK    6  A    between atoms: C9_25  and  N7_26 
REMARK    7  A    between atoms: C9_25  and  N8_30 
ROOT
HETATM    1  C1  UNL     1       0.214   0.100   3.779  1.00  0.00     0.678 A 
HETATM    2  N2  UNL     1       0.824   0.765   2.798  1.00  0.00    -0.178 N 
ATOM      3  H2  UNL     1       1.734   1.182   2.995  1.00  0.00     0.185 HD
HETATM    4  C2  UNL     1       0.305   0.921   1.546  1.00  0.00     0.181 A 
HETATM    5  C6  UNL     1      -0.920   0.351   1.293  1.00  0.00     0.050 A 
HETATM    6  C7  UNL     1      -1.471   0.475   0.040  1.00  0.00     0.030 A 
HETATM    7  C8  UNL     1      -2.711  -0.131  -0.156  1.00  0.00     0.015 A 
HETATM    8  C10 UNL     1      -3.364  -0.823   0.841  1.00  0.00     0.100 A 
HETATM    9  N9  UNL     1      -2.777  -0.913   2.047  1.00  0.00    -0.350 N 
ATOM     10  H9  UNL     1      -3.254  -1.423   2.790  1.00  0.00     0.166 HD
HETATM   11  C11 UNL     1      -1.588  -0.356   2.306  1.00  0.00     0.134 A 
HETATM   12  N10 UNL     1      -0.979  -0.440   3.493  1.00  0.00    -0.176 N 
ATOM     13  H10 UNL     1      -1.457  -0.952   4.235  1.00  0.00     0.186 HD
ENDROOT
BRANCH   4  14
HETATM   14  S1  UNL     1       1.117   1.780   0.298  1.00  0.00     0.313 S 
HETATM   15  O1  UNL     1       2.231   2.562   1.046  1.00  0.00    -0.196 OA
HETATM   16  O2  UNL     1       0.375   2.860  -0.378  1.00  0.00    -0.196 OA
BRANCH  14  17
HETATM   17  N3  UNL     1       2.027   0.764  -0.776  1.00  0.00    -0.107 N 
HETATM   18  N4  UNL     1       3.047  -0.022  -0.480  1.00  0.00    -0.260 N 
HETATM   19  C3  UNL     1       3.507  -0.663  -1.566  1.00  0.00     0.185 A 
ATOM     20  H4  UNL     1       3.436  -0.128   0.457  1.00  0.00     0.190 HD
HETATM   21  C5  UNL     1       2.722  -0.247  -2.602  1.00  0.00     0.295 A 
HETATM   22  O4  UNL     1       2.862  -0.643  -3.787  1.00  0.00    -0.264 OA
HETATM   23  N6  UNL     1       1.841   0.614  -2.077  1.00  0.00    -0.233 N 
ATOM     24  H6  UNL     1       1.118   1.094  -2.613  1.00  0.00     0.193 HD
BRANCH  19  25
HETATM   25  C4  UNL     1       4.614  -1.609  -1.643  1.00  0.00     0.288 C 
HETATM   26  N5  UNL     1       5.373  -1.978  -0.504  1.00  0.00    -0.056 NA
HETATM   27  O3  UNL     1       4.923  -2.126  -2.744  1.00  0.00    -0.269 OA
ENDBRANCH  19  25
ENDBRANCH  14  17
ENDBRANCH   4  14
BRANCH   1  28
HETATM   28  N1  UNL     1       0.751  -0.025   4.971  1.00  0.00    -0.234 N 
ATOM     29  H12 UNL     1       1.659   0.386   5.189  1.00  0.00     0.174 HD
ATOM     30  H11 UNL     1       0.284  -0.534   5.722  1.00  0.00     0.174 HD
ENDBRANCH   1  28
BRANCH   7  31
HETATM   31  C9  UNL     1      -3.345  -0.026  -1.485  1.00  0.00     0.412 C 
BRANCH  31  32
HETATM   32  N7  UNL     1      -4.734   0.305  -1.267  1.00  0.00    -0.046 N 
ATOM     33  H73 UNL     1      -5.209  -0.351  -0.647  1.00  0.00     0.277 HD
ATOM     34  H72 UNL     1      -4.862   1.140  -0.695  1.00  0.00     0.277 HD
ATOM     35  H71 UNL     1      -5.172   0.378  -2.185  1.00  0.00     0.277 HD
ENDBRANCH  31  32
BRANCH  31  36
HETATM   36  N8  UNL     1      -2.673   0.975  -2.288  1.00  0.00    -0.046 N 
ATOM     37  H83 UNL     1      -2.633   1.877  -1.814  1.00  0.00     0.277 HD
ATOM     38  H82 UNL     1      -1.671   0.796  -2.358  1.00  0.00     0.277 HD
ATOM     39  H81 UNL     1      -3.111   1.048  -3.206  1.00  0.00     0.277 HD
ENDBRANCH  31  36
ENDBRANCH   7  31
TORSDOF 7
