REMARK  5 active torsions:
REMARK  status: ('A' for Active; 'I' for Inactive)
REMARK    1  A    between atoms: C5_5  and  N1_6 
REMARK    2  A    between atoms: N1_6  and  S1_8 
REMARK    3  A    between atoms: S1_8  and  C6_11 
REMARK    4  A    between atoms: C6_11  and  C7_12 
REMARK       I    between atoms: N2_17  and  C10_18 
REMARK       I    between atoms: C10_18  and  N3_20 
REMARK    5  A    between atoms: N3_20  and  C11_22 
ROOT
HETATM    1  C1  UNL     1       2.965  -3.633   1.011  1.00  0.00     0.016 C 
HETATM    2  C2  UNL     1       2.357  -2.664  -0.006  1.00  0.00    -0.035 C 
HETATM    3  C3  UNL     1       3.443  -2.506  -1.087  1.00  0.00     0.012 C 
HETATM    4  C4  UNL     1       4.249  -1.346  -0.480  1.00  0.00     0.027 C 
HETATM    5  C5  UNL     1       3.071  -0.407  -0.187  1.00  0.00     0.099 C 
HETATM    6  C8  UNL     1       2.165  -1.329   0.590  1.00  0.00     0.035 C 
HETATM    7  C9  UNL     1       0.770  -0.838   0.701  1.00  0.00     0.135 C 
HETATM    8  N2  UNL     1      -0.260  -1.830   0.594  1.00  0.00    -0.334 N 
HETATM    9  C10 UNL     1      -1.618  -1.413   0.595  1.00  0.00     0.318 C 
HETATM   10  O5  UNL     1      -2.537  -2.300   0.501  1.00  0.00    -0.247 OA
HETATM   11  N3  UNL     1      -1.961  -0.038   0.697  1.00  0.00    -0.338 N 
ATOM     12  H3  UNL     1      -1.213   0.652   0.771  1.00  0.00     0.164 HD
HETATM   13  C18 UNL     1       0.053  -3.245   0.482  1.00  0.00     0.128 C 
HETATM   14  C19 UNL     1       1.152  -3.313  -0.588  1.00  0.00     0.029 C 
ENDROOT
BRANCH  11  15
HETATM   15  C11 UNL     1      -3.335   0.419   0.700  1.00  0.00     0.086 C 
HETATM   16  C12 UNL     1      -3.660   1.131   1.967  1.00  0.00     0.025 C 
HETATM   17  C13 UNL     1      -4.061   2.571   1.761  1.00  0.00     0.002 C 
HETATM   18  C14 UNL     1      -5.275   2.750   0.921  1.00  0.00     0.000 C 
HETATM   19  C15 UNL     1      -5.884   1.486   0.414  1.00  0.00     0.000 C 
HETATM   20  C16 UNL     1      -5.139   1.045  -0.837  1.00  0.00     0.002 C 
HETATM   21  C17 UNL     1      -3.656   1.212  -0.547  1.00  0.00     0.025 C 
ENDBRANCH  11  15
BRANCH   5  22
HETATM   22  N1  UNL     1       2.550  -0.028  -1.464  1.00  0.00    -0.314 N 
ATOM     23  H1  UNL     1       2.179  -0.694  -2.141  1.00  0.00     0.172 HD
BRANCH  22  24
HETATM   24  S1  UNL     1       2.615   1.661  -1.736  1.00  0.00     0.236 S 
HETATM   25  O1  UNL     1       2.104   1.927  -3.126  1.00  0.00    -0.205 OA
HETATM   26  O2  UNL     1       1.772   2.455  -0.793  1.00  0.00    -0.205 OA
BRANCH  24  27
HETATM   27  C6  UNL     1       4.315   2.247  -1.708  1.00  0.00     0.275 C 
BRANCH  27  28
HETATM   28  C7  UNL     1       4.355   3.704  -1.947  1.00  0.00     0.188 C 
HETATM   29  O3  UNL     1       4.293   4.538  -1.013  1.00  0.00    -0.647 OA
HETATM   30  O4  UNL     1       4.461   4.185  -3.238  1.00  0.00    -0.647 OA
ENDBRANCH  27  28
ENDBRANCH  24  27
ENDBRANCH  22  24
ENDBRANCH   5  22
TORSDOF 5
