REMARK  5 active torsions:
REMARK  status: ('A' for Active; 'I' for Inactive)
REMARK    1  A    between atoms: C5_6  and  C6_7 
REMARK    2  A    between atoms: C5_6  and  N5_28 
REMARK       I    between atoms: C6_7  and  N2_9 
REMARK    3  A    between atoms: N2_9  and  C7_11 
REMARK    4  A    between atoms: C7_11  and  N3_12 
REMARK       I    between atoms: N3_12  and  C8_14 
REMARK       I    between atoms: C8_14  and  N4_16 
REMARK    5  A    between atoms: N4_16  and  C9_18 
ROOT
HETATM    1  C7  UNL     1       0.068  -0.998  -1.640  1.00  0.00     0.251 C 
ENDROOT
BRANCH   1   2
HETATM    2  N2  UNL     1       1.414  -1.394  -1.271  1.00  0.00    -0.341 N 
HETATM    3  C6  UNL     1       2.274  -0.558  -0.518  1.00  0.00     0.279 C 
HETATM    4  O1  UNL     1       1.829   0.554  -0.169  1.00  0.00    -0.268 OA
ATOM      5  H2  UNL     1       1.754  -2.310  -1.565  1.00  0.00     0.164 HD
BRANCH   3   6
HETATM    6  C5  UNL     1       3.623  -0.968  -0.156  1.00  0.00     0.310 C 
HETATM    7  N1  UNL     1       3.998  -2.159  -0.834  1.00  0.00    -0.376 N 
HETATM    8  C1  UNL     1       4.381  -2.183  -2.174  1.00  0.00     0.146 C 
HETATM    9  C2  UNL     1       4.843  -2.964   0.031  1.00  0.00     0.119 C 
HETATM   10  C3  UNL     1       4.726  -2.353   1.414  1.00  0.00     0.024 C 
HETATM   11  C4  UNL     1       3.479  -1.567   1.273  1.00  0.00     0.076 C 
BRANCH   6  12
HETATM   12  N5  UNL     1       4.643   0.026  -0.164  1.00  0.00     0.127 N 
HETATM   13  C19 UNL     1       4.444   1.096   0.819  1.00  0.00     0.276 C 
HETATM   14  C20 UNL     1       5.827   1.777   0.888  1.00  0.00     0.030 C 
HETATM   15  C21 UNL     1       6.197   2.453  -0.392  1.00  0.00     0.003 C 
HETATM   16  C22 UNL     1       6.074   1.454  -1.524  1.00  0.00     0.030 C 
HETATM   17  C23 UNL     1       4.680   0.812  -1.419  1.00  0.00     0.276 C 
ENDBRANCH   6  12
ENDBRANCH   3   6
ENDBRANCH   1   2
BRANCH   1  18
HETATM   18  N3  UNL     1      -0.744  -0.743  -0.473  1.00  0.00    -0.327 N 
HETATM   19  C8  UNL     1      -2.095  -0.339  -0.603  1.00  0.00     0.318 C 
HETATM   20  O2  UNL     1      -2.580  -0.204  -1.755  1.00  0.00    -0.247 OA
HETATM   21  N4  UNL     1      -2.915  -0.083   0.515  1.00  0.00    -0.334 N 
ATOM     22  H4  UNL     1      -2.496  -0.202   1.437  1.00  0.00     0.165 HD
ATOM     23  H3  UNL     1      -0.339  -0.855   0.456  1.00  0.00     0.165 HD
BRANCH  21  24
HETATM   24  C9  UNL     1      -4.285   0.329   0.467  1.00  0.00     0.035 C 
HETATM   25  C10 UNL     1      -4.499   1.630  -0.241  1.00  0.00     0.035 C 
HETATM   26  C11 UNL     1      -5.936   2.064  -0.136  1.00  0.00    -0.012 C 
HETATM   27  C12 UNL     1      -6.443   2.161   1.265  1.00  0.00     0.009 C 
HETATM   28  C16 UNL     1      -6.752   1.040  -0.928  1.00  0.00     0.009 C 
HETATM   29  C13 UNL     1      -6.282   0.795   1.916  1.00  0.00    -0.012 C 
HETATM   30  C14 UNL     1      -7.101  -0.214   1.171  1.00  0.00     0.009 C 
HETATM   31  C18 UNL     1      -4.808   0.479   1.898  1.00  0.00     0.035 C 
HETATM   32  C15 UNL     1      -6.578  -0.299  -0.251  1.00  0.00    -0.012 C 
HETATM   33  C17 UNL     1      -5.143  -0.740  -0.176  1.00  0.00     0.035 C 
ENDBRANCH  21  24
ENDBRANCH   1  18
TORSDOF 5
