REMARK  4 active torsions:
REMARK  status: ('A' for Active; 'I' for Inactive)
REMARK    1  A    between atoms: C2_2  and  N1_3 
REMARK    2  A    between atoms: N4_16  and  C9_17 
REMARK    3  A    between atoms: C9_17  and  C10_18 
REMARK    4  A    between atoms: C10_18  and  N5_19 
ROOT
HETATM    1  N1  UNL     1       3.955   0.016   0.120  1.00  0.00     0.091 N 
HETATM    2  C3  UNL     1       3.971  -1.439  -0.057  1.00  0.00     0.299 C 
HETATM    3  C4  UNL     1       2.712  -1.967  -0.650  1.00  0.00     0.262 C 
HETATM    4  N2  UNL     1       2.304  -3.213   0.011  1.00  0.00    -0.072 N 
ATOM      5  H21 UNL     1       3.007  -3.527   0.680  1.00  0.00     0.277 HD
ATOM      6  H22 UNL     1       2.334  -4.003  -0.633  1.00  0.00     0.277 HD
HETATM    7  C5  UNL     1       1.006  -3.087   0.631  1.00  0.00     0.259 C 
HETATM    8  C6  UNL     1      -0.090  -3.540  -0.333  1.00  0.00     0.259 C 
HETATM    9  N3  UNL     1      -0.879  -2.439  -0.800  1.00  0.00    -0.072 N 
ATOM     10  H31 UNL     1      -1.139  -2.557  -1.779  1.00  0.00     0.277 HD
ATOM     11  H32 UNL     1      -0.320  -1.590  -0.884  1.00  0.00     0.277 HD
HETATM   12  C7  UNL     1      -2.059  -2.220   0.043  1.00  0.00     0.251 C 
HETATM   13  C8  UNL     1      -3.211  -1.663  -0.765  1.00  0.00     0.144 C 
HETATM   14  N4  UNL     1      -3.484  -0.327  -0.366  1.00  0.00    -0.408 N 
HETATM   15  C11 UNL     1      -3.799   0.603  -1.391  1.00  0.00     0.136 C 
HETATM   16  C12 UNL     1      -2.696   1.663  -1.519  1.00  0.00     0.133 C 
HETATM   17  N6  UNL     1      -2.831   2.539  -0.397  1.00  0.00    -0.418 N 
ATOM     18  H6  UNL     1      -3.538   2.398   0.325  1.00  0.00     0.153 HD
HETATM   19  C13 UNL     1      -1.905   3.626  -0.359  1.00  0.00     0.140 C 
HETATM   20  C14 UNL     1      -0.607   3.307   0.339  1.00  0.00     0.189 C 
HETATM   21  O1  UNL     1       0.460   3.186  -0.578  1.00  0.00    -0.363 OA
HETATM   22  C15 UNL     1       1.608   3.003   0.184  1.00  0.00     0.399 C 
HETATM   23  N7  UNL     1       2.766   2.778  -0.650  1.00  0.00    -0.053 N 
ATOM     24  H71 UNL     1       3.629   2.844  -0.110  1.00  0.00     0.279 HD
ATOM     25  H72 UNL     1       2.916   3.557  -1.291  1.00  0.00     0.279 HD
HETATM   26  C16 UNL     1       2.690   1.522  -1.362  1.00  0.00     0.265 C 
HETATM   27  C17 UNL     1       3.890   0.649  -1.164  1.00  0.00     0.300 C 
ENDROOT
BRANCH  14  28
HETATM   28  C9  UNL     1      -4.097  -0.145   0.899  1.00  0.00     0.144 C 
BRANCH  28  29
HETATM   29  C10 UNL     1      -5.517  -0.642   0.999  1.00  0.00     0.248 C 
BRANCH  29  30
HETATM   30  N5  UNL     1      -5.984  -0.374   2.364  1.00  0.00    -0.078 N 
ATOM     31  H53 UNL     1      -5.373  -0.770   3.078  1.00  0.00     0.274 HD
ATOM     32  H52 UNL     1      -5.886   0.605   2.633  1.00  0.00     0.274 HD
ATOM     33  H51 UNL     1      -6.945  -0.710   2.432  1.00  0.00     0.274 HD
ENDBRANCH  29  30
ENDBRANCH  28  29
ENDBRANCH  14  28
BRANCH   1  34
HETATM   34  C2  UNL     1       5.278   0.342   0.678  1.00  0.00     0.268 C 
HETATM   35  C1  UNL     1       5.437  -0.190   2.075  1.00  0.00     0.037 C 
ENDBRANCH   1  34
TORSDOF 4
