REMARK  6 active torsions:
REMARK  status: ('A' for Active; 'I' for Inactive)
REMARK    1  A    between atoms: C4_6  and  C5_7 
REMARK    2  A    between atoms: C5_7  and  N2_8 
REMARK    3  A    between atoms: C5_7  and  C6_12 
REMARK    4  A    between atoms: C6_12  and  C7_13 
REMARK    5  A    between atoms: C7_13  and  N3_14 
REMARK    6  A    between atoms: N3_14  and  C8_16 
ROOT
HETATM    1  C6  UNL     1       1.710  -0.842   0.057  1.00  0.00     0.011 A 
HETATM    2  C18 UNL     1       2.367  -1.377  -1.150  1.00  0.00     0.014 A 
HETATM    3  C19 UNL     1       2.309  -2.282  -0.006  1.00  0.00     0.014 A 
ENDROOT
BRANCH   1   4
HETATM    4  C5  UNL     1       2.455   0.148   0.886  1.00  0.00     0.268 C 
BRANCH   4   5
HETATM    5  C4  UNL     1       3.904   0.162   0.577  1.00  0.00     0.155 A 
HETATM    6  N1  UNL     1       4.814  -0.702   1.047  1.00  0.00    -0.346 N 
HETATM    7  C3  UNL     1       6.018  -0.385   0.553  1.00  0.00     0.122 A 
ATOM      8  H1  UNL     1       4.621  -1.478   1.680  1.00  0.00     0.167 HD
HETATM    9  C2  UNL     1       5.820   0.717  -0.247  1.00  0.00     0.066 A 
HETATM   10  C1  UNL     1       6.876   1.449  -1.031  1.00  0.00     0.078 C 
HETATM   11  O1  UNL     1       4.546   0.998  -0.195  1.00  0.00    -0.299 OA
ENDBRANCH   4   5
BRANCH   4  12
HETATM   12  N2  UNL     1       2.232  -0.155   2.288  1.00  0.00    -0.067 N 
ATOM     13  H23 UNL     1       2.686  -1.026   2.563  1.00  0.00     0.275 HD
ATOM     14  H22 UNL     1       2.742   0.483   2.898  1.00  0.00     0.275 HD
ATOM     15  H21 UNL     1       1.234  -0.165   2.501  1.00  0.00     0.275 HD
ENDBRANCH   4  12
ENDBRANCH   1   4
BRANCH   1  16
HETATM   16  C7  UNL     1       0.211  -0.908   0.274  1.00  0.00     0.126 C 
BRANCH  16  17
HETATM   17  N3  UNL     1      -0.468   0.309   0.015  1.00  0.00    -0.412 N 
ATOM     18  H3  UNL     1       0.045   1.174  -0.157  1.00  0.00     0.154 HD
BRANCH  17  19
HETATM   19  C8  UNL     1      -1.888   0.282   0.004  1.00  0.00     0.026 C 
HETATM   20  C9  UNL     1      -2.314  -0.624  -1.161  1.00  0.00     0.035 C 
HETATM   21  C10 UNL     1      -3.780  -0.533  -1.437  1.00  0.00    -0.012 C 
HETATM   22  C11 UNL     1      -4.519  -0.992  -0.180  1.00  0.00     0.009 C 
HETATM   23  C15 UNL     1      -4.209   0.873  -1.725  1.00  0.00     0.009 C 
HETATM   24  C12 UNL     1      -4.096  -0.110   0.975  1.00  0.00    -0.012 C 
HETATM   25  C13 UNL     1      -4.548   1.288   0.730  1.00  0.00     0.009 C 
HETATM   26  C17 UNL     1      -2.595  -0.213   1.208  1.00  0.00     0.035 C 
HETATM   27  C14 UNL     1      -3.868   1.746  -0.550  1.00  0.00    -0.012 C 
HETATM   28  C16 UNL     1      -2.384   1.674  -0.314  1.00  0.00     0.035 C 
ENDBRANCH  17  19
ENDBRANCH  16  17
ENDBRANCH   1  16
TORSDOF 6
