REMARK  11 active torsions:
REMARK  status: ('A' for Active; 'I' for Inactive)
REMARK    1  A    between atoms: C2_2  and  N1_3 
REMARK    2  A    between atoms: C2_2  and  C8_12 
REMARK       I    between atoms: N1_3  and  C3_5 
REMARK    3  A    between atoms: C3_5  and  O2_7 
REMARK    4  A    between atoms: O2_7  and  C4_8 
REMARK       I    between atoms: C8_12  and  N2_14 
REMARK    5  A    between atoms: N2_14  and  C9_16 
REMARK    6  A    between atoms: C9_16  and  C11_18 
REMARK       I    between atoms: C11_18  and  N3_20 
REMARK    7  A    between atoms: N3_20  and  C12_22 
REMARK    8  A    between atoms: C12_22  and  C13_23 
REMARK    9  A    between atoms: C12_22  and  C14_25 
REMARK       I    between atoms: C14_25  and  N4_27 
REMARK   10  A    between atoms: C18_31  and  C19_32 
REMARK   11  A    between atoms: C19_32  and  N5_34 
ROOT
HETATM    1  C11 UNL     1       0.033   1.579  -1.180  1.00  0.00     0.240 C 
HETATM    2  O4  UNL     1      -0.381   1.666  -0.003  1.00  0.00    -0.271 OA
HETATM    3  N3  UNL     1      -0.909   1.575  -2.237  1.00  0.00    -0.345 N 
ATOM      4  H3  UNL     1      -0.593   1.506  -3.204  1.00  0.00     0.163 HD
ENDROOT
BRANCH   1   5
HETATM    5  C9  UNL     1       1.488   1.485  -1.424  1.00  0.00     0.172 C 
HETATM    6  C10 UNL     1       1.902   2.691  -2.221  1.00  0.00     0.042 C 
BRANCH   5   7
HETATM    7  N2  UNL     1       2.205   1.520  -0.164  1.00  0.00    -0.346 N 
HETATM    8  C8  UNL     1       3.084   0.466   0.235  1.00  0.00     0.240 C 
HETATM    9  O3  UNL     1       3.215  -0.505  -0.557  1.00  0.00    -0.271 OA
ATOM     10  H2  UNL     1       2.078   2.320   0.456  1.00  0.00     0.163 HD
BRANCH   8  11
HETATM   11  C2  UNL     1       3.819   0.477   1.505  1.00  0.00     0.174 C 
HETATM   12  C1  UNL     1       2.918   0.603   2.715  1.00  0.00     0.042 C 
BRANCH  11  13
HETATM   13  N1  UNL     1       4.597  -0.726   1.635  1.00  0.00    -0.324 N 
HETATM   14  C3  UNL     1       6.004  -0.736   1.807  1.00  0.00     0.362 C 
HETATM   15  O1  UNL     1       6.680   0.342   1.858  1.00  0.00    -0.238 OA
ATOM     16  H1  UNL     1       4.109  -1.621   1.602  1.00  0.00     0.165 HD
BRANCH  14  17
HETATM   17  O2  UNL     1       6.715  -1.905   1.927  1.00  0.00    -0.294 OA
BRANCH  17  18
HETATM   18  C4  UNL     1       8.093  -2.036   2.102  1.00  0.00     0.061 C 
HETATM   19  C5  UNL     1       8.593  -1.366   3.366  1.00  0.00     0.046 C 
HETATM   20  C6  UNL     1       8.439  -3.500   2.204  1.00  0.00     0.046 C 
HETATM   21  C7  UNL     1       8.792  -1.457   0.905  1.00  0.00     0.046 C 
ENDBRANCH  17  18
ENDBRANCH  14  17
ENDBRANCH  11  13
ENDBRANCH   8  11
ENDBRANCH   5   7
ENDBRANCH   1   5
BRANCH   3  22
HETATM   22  C12 UNL     1      -2.364   1.672  -1.930  1.00  0.00     0.186 C 
BRANCH  22  23
HETATM   23  C13 UNL     1      -2.735   3.015  -2.602  1.00  0.00     0.120 C 
HETATM   24  S1  UNL     1      -4.444   3.465  -2.438  1.00  0.00    -0.095 SA
ENDBRANCH  22  23
BRANCH  22  25
HETATM   25  C14 UNL     1      -3.078   0.602  -2.654  1.00  0.00     0.243 C 
HETATM   26  O5  UNL     1      -2.738   0.440  -3.853  1.00  0.00    -0.271 OA
HETATM   27  N4  UNL     1      -4.074  -0.215  -2.101  1.00  0.00    -0.344 N 
HETATM   28  C15 UNL     1      -4.761  -1.227  -2.940  1.00  0.00     0.126 C 
HETATM   29  C18 UNL     1      -4.646  -0.408  -0.814  1.00  0.00     0.109 C 
HETATM   30  C16 UNL     1      -4.937  -2.413  -2.025  1.00  0.00     0.022 C 
HETATM   31  C17 UNL     1      -4.694  -1.889  -0.630  1.00  0.00     0.029 C 
BRANCH  29  32
HETATM   32  C19 UNL     1      -5.845   0.339  -0.410  1.00  0.00     0.097 C 
HETATM   33  C20 UNL     1      -7.069   0.151  -1.275  1.00  0.00     0.034 C 
BRANCH  32  34
HETATM   34  N5  UNL     1      -6.122   0.045   0.965  1.00  0.00    -0.415 N 
HETATM   35  C21 UNL     1      -5.209   0.376   1.951  1.00  0.00     0.143 C 
HETATM   36  C22 UNL     1      -7.231  -0.702   1.323  1.00  0.00     0.143 C 
ENDBRANCH  32  34
ENDBRANCH  29  32
ENDBRANCH  22  25
ENDBRANCH   3  22
TORSDOF 11
