REMARK  1 active torsions:
REMARK  status: ('A' for Active; 'I' for Inactive)
REMARK    1  A    between atoms: C2_2  and  N1_4 
ROOT
HETATM    1  N1  UNL     1       0.550  -0.284   0.098  1.00  0.00     0.098 N 
HETATM    2  C4  UNL     1       0.260  -1.197  -1.019  1.00  0.00     0.281 C 
HETATM    3  C5  UNL     1      -1.058  -0.506  -1.163  1.00  0.00     0.073 C 
HETATM    4  C6  UNL     1      -2.074  -1.026  -0.174  1.00  0.00     0.240 C 
HETATM    5  N2  UNL     1      -3.098  -0.053   0.134  1.00  0.00    -0.075 N 
ATOM      6  H21 UNL     1      -3.351  -0.042   1.122  1.00  0.00     0.277 HD
ATOM      7  H22 UNL     1      -4.014  -0.309  -0.235  1.00  0.00     0.277 HD
HETATM    8  C7  UNL     1      -2.637   1.233  -0.345  1.00  0.00     0.234 C 
HETATM    9  C8  UNL     1      -1.252   1.443   0.279  1.00  0.00     0.064 C 
HETATM   10  C9  UNL     1      -0.285   0.679  -0.579  1.00  0.00     0.232 C 
ENDROOT
BRANCH   1  11
HETATM   11  C2  UNL     1       1.971   0.006   0.076  1.00  0.00     0.215 C 
HETATM   12  C1  UNL     1       2.650  -1.352   0.308  1.00  0.00     0.042 C 
HETATM   13  C3  UNL     1       2.385   0.980   1.140  1.00  0.00     0.042 C 
ENDBRANCH   1  11
TORSDOF 1
