REMARK  3 active torsions:
REMARK  status: ('A' for Active; 'I' for Inactive)
REMARK    1  A    between atoms: C3_8  and  S1_9 
REMARK    2  A    between atoms: S1_9  and  N4_10 
REMARK    3  A    between atoms: C5_18  and  C6_19 
ROOT
HETATM    1  C1  UNL     1      -3.549   1.257  -0.595  1.00  0.00     0.071 C 
HETATM    2  C2  UNL     1      -2.138   0.981  -0.317  1.00  0.00     0.043 A 
HETATM    3  N1  UNL     1      -1.142   1.859  -0.535  1.00  0.00    -0.281 N 
ATOM      4  H1  UNL     1      -1.268   2.798  -0.913  1.00  0.00     0.189 HD
HETATM    5  N2  UNL     1       0.011   1.341  -0.194  1.00  0.00    -0.176 N 
HETATM    6  N3  UNL     1       1.311   1.573  -0.125  1.00  0.00    -0.251 N 
ATOM      7  H3  UNL     1       1.769   2.441  -0.405  1.00  0.00     0.191 HD
HETATM    8  C3  UNL     1       1.939   0.490   0.371  1.00  0.00     0.241 A 
HETATM    9  N5  UNL     1       0.976  -0.404   0.599  1.00  0.00    -0.313 N 
ATOM     10  H5  UNL     1       1.129  -1.338   0.979  1.00  0.00     0.170 HD
HETATM   11  C4  UNL     1      -0.219   0.096   0.260  1.00  0.00     0.165 A 
HETATM   12  C5  UNL     1      -1.575  -0.150   0.190  1.00  0.00     0.100 A 
ENDROOT
BRANCH   8  13
HETATM   13  S1  UNL     1       3.626   0.233   0.676  1.00  0.00     0.290 S 
HETATM   14  O1  UNL     1       4.194   1.206   1.655  1.00  0.00    -0.198 OA
HETATM   15  O2  UNL     1       3.877  -1.146   1.149  1.00  0.00    -0.198 OA
BRANCH  13  16
HETATM   16  N4  UNL     1       4.455   0.409  -0.852  1.00  0.00    -0.322 N 
ATOM     17  H42 UNL     1       4.015   0.623  -1.747  1.00  0.00     0.169 HD
ATOM     18  H41 UNL     1       5.448   0.258  -0.673  1.00  0.00     0.169 HD
ENDBRANCH  13  16
ENDBRANCH   8  13
BRANCH  12  19
HETATM   19  C6  UNL     1      -2.228  -1.373   0.585  1.00  0.00     0.270 C 
HETATM   20  N6  UNL     1      -1.454  -2.476   1.105  1.00  0.00    -0.057 NA
HETATM   21  O3  UNL     1      -3.458  -1.571   0.513  1.00  0.00    -0.271 OA
ENDBRANCH  12  19
TORSDOF 3
