REMARK  20 active torsions:
REMARK  status: ('A' for Active; 'I' for Inactive)
REMARK    1  A    between atoms: C1_2  and  O2_4 
REMARK    2  A    between atoms: O2_4  and  C2_5 
REMARK    3  A    between atoms: C2_5  and  C3_7 
REMARK    4  A    between atoms: C3_7  and  O4_8 
REMARK    5  A    between atoms: C3_7  and  O5_10 
REMARK    6  A    between atoms: C3_7  and  C4_12 
REMARK    7  A    between atoms: C6_14  and  O6_15 
REMARK    8  A    between atoms: C8_18  and  O7_19 
REMARK    9  A    between atoms: C11_23  and  O8_24 
REMARK   10  A    between atoms: C13_27  and  O9_28 
REMARK   11  A    between atoms: C14_31  and  C15_32 
REMARK   12  A    between atoms: C15_32  and  O11_33 
REMARK   13  A    between atoms: C15_32  and  C16_35 
REMARK   14  A    between atoms: C16_35  and  O12_36 
REMARK   15  A    between atoms: C16_35  and  C17_38 
REMARK   16  A    between atoms: C17_38  and  O13_39 
REMARK   17  A    between atoms: C17_38  and  C18_41 
REMARK   18  A    between atoms: C18_41  and  O14_42 
REMARK   19  A    between atoms: C18_41  and  C19_44 
REMARK   20  A    between atoms: C19_44  and  O15_45 
ROOT
HETATM    1  C4  UNL     1       4.273  -0.197  -0.434  1.00  0.00     0.051 A 
HETATM    2  C5  UNL     1       4.160  -1.454   0.032  1.00  0.00     0.053 A 
HETATM    3  C6  UNL     1       2.871  -2.004   0.250  1.00  0.00     0.080 A 
HETATM    4  C7  UNL     1       1.787  -1.197  -0.036  1.00  0.00     0.047 A 
HETATM    5  C8  UNL     1       0.483  -1.702   0.165  1.00  0.00     0.099 A 
HETATM    6  C9  UNL     1      -0.611  -0.917  -0.112  1.00  0.00     0.109 A 
HETATM    7  C10 UNL     1      -0.455   0.358  -0.585  1.00  0.00     0.125 A 
HETATM    8  C11 UNL     1       0.807   0.895  -0.798  1.00  0.00     0.114 A 
HETATM    9  C12 UNL     1       1.901   0.102  -0.517  1.00  0.00     0.050 A 
HETATM   10  C13 UNL     1       3.169   0.636  -0.729  1.00  0.00     0.092 A 
HETATM   11  O10 UNL     1      -1.576   1.140  -0.860  1.00  0.00    -0.313 OA
HETATM   12  C14 UNL     1      -2.742   0.874  -0.050  1.00  0.00     0.307 C 
HETATM   13  O16 UNL     1      -3.002  -0.488  -0.259  1.00  0.00    -0.282 OA
HETATM   14  C20 UNL     1      -1.966  -1.385   0.068  1.00  0.00     0.301 C 
HETATM   15  O17 UNL     1      -2.199  -2.528   0.492  1.00  0.00    -0.259 OA
ENDROOT
BRANCH  12  16
HETATM   16  C15 UNL     1      -3.859   1.796  -0.466  1.00  0.00     0.205 C 
BRANCH  16  17
HETATM   17  O11 UNL     1      -3.248   3.113  -0.280  1.00  0.00    -0.388 OA
ATOM     18  H11 UNL     1      -3.952   3.694  -0.542  1.00  0.00     0.210 HD
ENDBRANCH  16  17
BRANCH  16  19
HETATM   19  C16 UNL     1      -5.021   1.813   0.455  1.00  0.00     0.183 C 
BRANCH  19  20
HETATM   20  O12 UNL     1      -5.970   2.806   0.176  1.00  0.00    -0.390 OA
ATOM     21  H12 UNL     1      -6.714   2.817   0.766  1.00  0.00     0.210 HD
ENDBRANCH  19  20
BRANCH  19  22
HETATM   22  C17 UNL     1      -5.586   0.540   0.927  1.00  0.00     0.180 C 
BRANCH  22  23
HETATM   23  O13 UNL     1      -6.191   0.911   2.227  1.00  0.00    -0.390 OA
ATOM     24  H13 UNL     1      -6.556   0.089   2.532  1.00  0.00     0.210 HD
ENDBRANCH  22  23
BRANCH  22  25
HETATM   25  C18 UNL     1      -6.808   0.060   0.139  1.00  0.00     0.173 C 
BRANCH  25  26
HETATM   26  O14 UNL     1      -7.339  -0.983   1.011  1.00  0.00    -0.391 OA
ATOM     27  H14 UNL     1      -8.097  -1.281   0.522  1.00  0.00     0.210 HD
ENDBRANCH  25  26
BRANCH  25  28
HETATM   28  C19 UNL     1      -6.511  -0.675  -1.126  1.00  0.00     0.198 C 
BRANCH  28  29
HETATM   29  O15 UNL     1      -6.073   0.076  -2.189  1.00  0.00    -0.398 OA
ATOM     30  H15 UNL     1      -5.884  -0.392  -2.994  1.00  0.00     0.209 HD
ENDBRANCH  28  29
ENDBRANCH  25  28
ENDBRANCH  22  25
ENDBRANCH  19  22
ENDBRANCH  16  19
ENDBRANCH  12  16
BRANCH   8  31
HETATM   31  O8  UNL     1       0.910   2.206  -1.283  1.00  0.00    -0.357 OA
ATOM     32  H8  UNL     1       1.774   2.574  -1.429  1.00  0.00     0.217 HD
ENDBRANCH   8  31
BRANCH   5  33
HETATM   33  O7  UNL     1       0.361  -2.963   0.633  1.00  0.00    -0.359 OA
ATOM     34  H7  UNL     1      -0.516  -3.303   0.768  1.00  0.00     0.217 HD
ENDBRANCH   5  33
BRANCH  10  35
HETATM   35  O9  UNL     1       3.375   1.870  -1.188  1.00  0.00    -0.359 OA
ATOM     36  H9  UNL     1       2.633   2.430  -1.386  1.00  0.00     0.217 HD
ENDBRANCH  10  35
BRANCH   3  37
HETATM   37  O6  UNL     1       2.798  -3.263   0.716  1.00  0.00    -0.360 OA
ATOM     38  H6  UNL     1       1.935  -3.631   0.862  1.00  0.00     0.217 HD
ENDBRANCH   3  37
BRANCH   1  39
HETATM   39  C3  UNL     1       5.595   0.444  -0.678  1.00  0.00     0.284 C 
BRANCH  39  40
HETATM   40  C2  UNL     1       6.734  -0.446  -0.413  1.00  0.00     0.335 C 
HETATM   41  O3  UNL     1       6.937  -1.517  -1.067  1.00  0.00    -0.258 OA
BRANCH  40  42
HETATM   42  O2  UNL     1       7.635  -0.100   0.606  1.00  0.00    -0.225 OA
BRANCH  42  43
HETATM   43  C1  UNL     1       8.713  -0.907   0.884  1.00  0.00     0.380 C 
HETATM   44  N1  UNL     1       9.669  -0.640   1.887  1.00  0.00    -0.032 NA
HETATM   45  O1  UNL     1       8.864  -1.963   0.197  1.00  0.00    -0.242 OA
ENDBRANCH  42  43
ENDBRANCH  40  42
ENDBRANCH  39  40
BRANCH  39  46
HETATM   46  O4  UNL     1       5.707   1.575   0.130  1.00  0.00    -0.354 OA
ATOM     47  H4  UNL     1       4.971   2.150  -0.041  1.00  0.00     0.214 HD
ENDBRANCH  39  46
BRANCH  39  48
HETATM   48  O5  UNL     1       5.625   0.940  -1.998  1.00  0.00    -0.354 OA
ATOM     49  H5  UNL     1       4.889   1.515  -2.169  1.00  0.00     0.214 HD
ENDBRANCH  39  48
ENDBRANCH   1  39
TORSDOF 20
