REMARK  9 active torsions:
REMARK  status: ('A' for Active; 'I' for Inactive)
REMARK    1  A    between atoms: C2_2  and  C3_3 
REMARK    2  A    between atoms: C3_3  and  C4_4 
REMARK    3  A    between atoms: C4_4  and  C5_5 
REMARK    4  A    between atoms: C5_5  and  C6_6 
REMARK    5  A    between atoms: C6_6  and  C7_7 
REMARK    6  A    between atoms: C9_12  and  C10_13 
REMARK    7  A    between atoms: C10_13  and  C11_14 
REMARK    8  A    between atoms: C15_21  and  C16_22 
REMARK    9  A    between atoms: C21_29  and  C22_30 
ROOT
HETATM    1  C7  UNL     1       2.134   0.877  -1.402  1.00  0.00     0.176 C 
HETATM    2  N1  UNL     1       0.853   0.729  -0.745  1.00  0.00    -0.346 N 
ATOM      3  H1  UNL     1       0.126   1.374  -1.054  1.00  0.00     0.163 HD
HETATM    4  C8  UNL     1       0.472  -0.165   0.245  1.00  0.00     0.241 C 
HETATM    5  O1  UNL     1      -0.004   0.339   1.336  1.00  0.00    -0.271 OA
HETATM    6  C9  UNL     1       0.562  -1.652   0.167  1.00  0.00     0.177 C 
HETATM    7  N2  UNL     1      -0.115  -2.289   1.271  1.00  0.00    -0.346 N 
ATOM      8  H2  UNL     1       0.338  -3.140   1.606  1.00  0.00     0.163 HD
HETATM    9  C14 UNL     1      -1.268  -1.952   1.956  1.00  0.00     0.241 C 
HETATM   10  O2  UNL     1      -1.150  -1.824   3.233  1.00  0.00    -0.271 OA
HETATM   11  C15 UNL     1      -2.638  -1.716   1.437  1.00  0.00     0.182 C 
HETATM   12  N3  UNL     1      -3.331  -0.608   2.081  1.00  0.00    -0.341 N 
HETATM   13  C19 UNL     1      -3.374  -0.576   3.558  1.00  0.00     0.153 C 
HETATM   14  C20 UNL     1      -4.006   0.444   1.425  1.00  0.00     0.243 C 
HETATM   15  O3  UNL     1      -5.252   0.602   1.748  1.00  0.00    -0.271 OA
HETATM   16  C21 UNL     1      -3.485   1.400   0.414  1.00  0.00     0.181 C 
HETATM   17  N4  UNL     1      -3.489   2.763   0.967  1.00  0.00    -0.330 N 
ATOM     18  H4  UNL     1      -4.377   3.264   0.958  1.00  0.00     0.165 HD
HETATM   19  C25 UNL     1      -2.380   3.437   1.506  1.00  0.00     0.316 C 
HETATM   20  O4  UNL     1      -2.489   3.846   2.725  1.00  0.00    -0.247 OA
HETATM   21  N5  UNL     1      -1.154   3.721   0.867  1.00  0.00    -0.343 N 
ATOM     22  H5  UNL     1      -0.307   3.493   1.387  1.00  0.00     0.164 HD
HETATM   23  C26 UNL     1      -0.970   4.296  -0.435  1.00  0.00     0.126 C 
HETATM   24  C27 UNL     1       0.407   4.896  -0.539  1.00  0.00     0.039 C 
HETATM   25  C28 UNL     1       1.494   3.842  -0.545  1.00  0.00     0.124 C 
HETATM   26  N6  UNL     1       1.726   3.371  -1.883  1.00  0.00    -0.359 N 
ATOM     27  H6  UNL     1       1.553   4.036  -2.637  1.00  0.00     0.162 HD
HETATM   28  C29 UNL     1       2.168   2.087  -2.263  1.00  0.00     0.240 C 
HETATM   29  O5  UNL     1       2.635   1.969  -3.449  1.00  0.00    -0.271 OA
ENDROOT
BRANCH   1  30
HETATM   30  C6  UNL     1       3.311   0.916  -0.482  1.00  0.00     0.035 C 
BRANCH  30  31
HETATM   31  C5  UNL     1       4.567   1.074  -1.312  1.00  0.00     0.002 C 
BRANCH  31  32
HETATM   32  C4  UNL     1       5.806   1.115  -0.443  1.00  0.00     0.000 C 
BRANCH  32  33
HETATM   33  C3  UNL     1       5.994  -0.119   0.372  1.00  0.00    -0.000 C 
BRANCH  33  34
HETATM   34  C2  UNL     1       7.279   0.086   1.185  1.00  0.00    -0.005 C 
HETATM   35  C1  UNL     1       8.468   0.296   0.272  1.00  0.00     0.005 C 
ENDBRANCH  33  34
ENDBRANCH  32  33
ENDBRANCH  31  32
ENDBRANCH  30  31
ENDBRANCH   1  30
BRANCH   6  36
HETATM   36  C10 UNL     1       0.120  -2.213  -1.165  1.00  0.00     0.038 C 
BRANCH  36  37
HETATM   37  C11 UNL     1       0.275  -3.720  -1.153  1.00  0.00    -0.020 C 
HETATM   38  C12 UNL     1      -0.182  -4.249  -2.496  1.00  0.00     0.009 C 
HETATM   39  C13 UNL     1       1.780  -4.035  -1.075  1.00  0.00     0.009 C 
ENDBRANCH  36  37
ENDBRANCH   6  36
BRANCH  11  40
HETATM   40  C16 UNL     1      -3.505  -2.945   1.689  1.00  0.00     0.009 C 
HETATM   41  C17 UNL     1      -3.005  -4.180   1.031  1.00  0.00     0.012 C 
HETATM   42  C18 UNL     1      -4.900  -2.657   1.235  1.00  0.00     0.012 C 
ENDBRANCH  11  40
BRANCH  16  43
HETATM   43  C22 UNL     1      -4.290   1.447  -0.855  1.00  0.00     0.009 C 
HETATM   44  C23 UNL     1      -5.716   1.827  -0.715  1.00  0.00     0.012 C 
HETATM   45  C24 UNL     1      -4.145   0.241  -1.716  1.00  0.00     0.012 C 
ENDBRANCH  16  43
TORSDOF 9
