REMARK  12 active torsions:
REMARK  status: ('A' for Active; 'I' for Inactive)
REMARK       I    between atoms: N1_2  and  C2_4 
REMARK       I    between atoms: C2_4  and  N3_11 
REMARK    1  A    between atoms: N2_5  and  C3_7 
REMARK    2  A    between atoms: C10_15  and  C11_16 
REMARK    3  A    between atoms: C11_16  and  O1_17 
REMARK    4  A    between atoms: C11_16  and  N4_19 
REMARK    5  A    between atoms: N4_19  and  C12_21 
REMARK    6  A    between atoms: C12_21  and  C13_22 
REMARK    7  A    between atoms: C12_21  and  C16_27 
REMARK    8  A    between atoms: C13_22  and  C14_23 
REMARK    9  A    between atoms: C14_23  and  C15_24 
REMARK       I    between atoms: C16_27  and  N5_29 
REMARK   10  A    between atoms: N5_29  and  C17_31 
REMARK   11  A    between atoms: C17_31  and  C18_32 
REMARK       I    between atoms: C18_32  and  N6_34 
REMARK   12  A    between atoms: N6_34  and  C19_36 
ROOT
HETATM    1  C12 UNL     1      -0.632  -3.390   1.148  1.00  0.00     0.176 C 
ENDROOT
BRANCH   1   2
HETATM    2  N4  UNL     1      -1.847  -2.524   0.868  1.00  0.00    -0.359 N 
ATOM      3  H4  UNL     1      -2.139  -1.812   1.538  1.00  0.00     0.162 HD
BRANCH   2   4
HETATM    4  C11 UNL     1      -2.556  -2.712  -0.309  1.00  0.00     0.136 C 
BRANCH   4   5
HETATM    5  C10 UNL     1      -3.713  -2.057  -0.786  1.00  0.00     0.176 C 
HETATM    6  N3  UNL     1      -4.116  -0.739  -0.612  1.00  0.00    -0.206 N 
HETATM    7  C2  UNL     1      -3.695   0.557  -0.211  1.00  0.00     0.672 C 
HETATM    8  C7  UNL     1      -5.546  -0.849  -1.112  1.00  0.00     0.142 C 
HETATM    9  N1  UNL     1      -2.458   0.789   0.444  1.00  0.00    -0.231 N 
HETATM   10  N2  UNL     1      -4.415   1.573  -0.444  1.00  0.00    -0.218 N 
HETATM   11  C1  UNL     1      -2.314   1.268   1.805  1.00  0.00     0.165 C 
ATOM     12  H1  UNL     1      -1.604   0.605  -0.083  1.00  0.00     0.177 HD
ATOM     13  H2  UNL     1      -5.260   1.243  -0.911  1.00  0.00     0.178 HD
HETATM   14  C8  UNL     1      -5.219  -1.458  -2.483  1.00  0.00     0.023 C 
HETATM   15  C9  UNL     1      -3.902  -2.198  -2.319  1.00  0.00     0.036 C 
BRANCH  10  16
HETATM   16  C3  UNL     1      -4.522   2.918  -0.327  1.00  0.00     0.036 C 
HETATM   17  C4  UNL     1      -4.958   3.518   0.991  1.00  0.00     0.038 C 
HETATM   18  C5  UNL     1      -5.646   3.369  -1.328  1.00  0.00     0.038 C 
HETATM   19  C6  UNL     1      -3.283   3.633  -0.883  1.00  0.00     0.038 C 
ENDBRANCH  10  16
ENDBRANCH   4   5
BRANCH   4  20
HETATM   20  O1  UNL     1      -2.074  -3.646  -1.081  1.00  0.00    -0.348 OA
ATOM     21  H1  UNL     1      -1.296  -4.087  -0.760  1.00  0.00     0.219 HD
ENDBRANCH   4  20
ENDBRANCH   2   4
ENDBRANCH   1   2
BRANCH   1  22
HETATM   22  C13 UNL     1      -1.020  -4.117   2.410  1.00  0.00     0.045 C 
BRANCH  22  23
HETATM   23  C14 UNL     1      -0.063  -5.089   2.968  1.00  0.00     0.116 C 
BRANCH  23  24
HETATM   24  C15 UNL     1       0.183  -6.197   2.029  1.00  0.00     0.172 C 
HETATM   25  O2  UNL     1      -0.355  -6.324   0.914  1.00  0.00    -0.648 OA
HETATM   26  O3  UNL     1       1.089  -7.196   2.400  1.00  0.00    -0.648 OA
ENDBRANCH  23  24
ENDBRANCH  22  23
ENDBRANCH   1  22
BRANCH   1  27
HETATM   27  C16 UNL     1       0.505  -2.468   1.323  1.00  0.00     0.240 C 
HETATM   28  O4  UNL     1       0.286  -1.231   1.374  1.00  0.00    -0.271 OA
HETATM   29  N5  UNL     1       1.860  -2.862   1.437  1.00  0.00    -0.351 N 
ATOM     30  H5  UNL     1       2.069  -3.859   1.389  1.00  0.00     0.163 HD
BRANCH  29  31
HETATM   31  C17 UNL     1       2.954  -1.963   1.614  1.00  0.00     0.225 C 
BRANCH  31  32
HETATM   32  C18 UNL     1       3.123  -0.968   0.528  1.00  0.00     0.235 C 
HETATM   33  O5  UNL     1       2.392  -0.901  -0.476  1.00  0.00    -0.272 OA
HETATM   34  N6  UNL     1       4.197  -0.040   0.668  1.00  0.00    -0.350 N 
ATOM     35  H6  UNL     1       4.798  -0.104   1.490  1.00  0.00     0.163 HD
BRANCH  34  36
HETATM   36  C19 UNL     1       4.462   0.981  -0.307  1.00  0.00     0.034 C 
HETATM   37  C20 UNL     1       4.765   0.444  -1.662  1.00  0.00     0.035 C 
HETATM   38  C21 UNL     1       5.137   1.584  -2.595  1.00  0.00    -0.012 C 
HETATM   39  C22 UNL     1       3.951   2.519  -2.726  1.00  0.00     0.009 C 
HETATM   40  C26 UNL     1       6.355   2.265  -2.039  1.00  0.00     0.009 C 
HETATM   41  C23 UNL     1       3.651   3.050  -1.357  1.00  0.00    -0.012 C 
HETATM   42  C24 UNL     1       4.843   3.822  -0.837  1.00  0.00     0.009 C 
HETATM   43  C28 UNL     1       3.316   1.965  -0.380  1.00  0.00     0.035 C 
HETATM   44  C25 UNL     1       6.003   2.886  -0.692  1.00  0.00    -0.012 C 
HETATM   45  C27 UNL     1       5.665   1.773   0.236  1.00  0.00     0.035 C 
ENDBRANCH  34  36
ENDBRANCH  31  32
ENDBRANCH  29  31
ENDBRANCH   1  27
TORSDOF 12
