REMARK  7 active torsions:
REMARK  status: ('A' for Active; 'I' for Inactive)
REMARK    1  A    between atoms: C2_2  and  C5_5 
REMARK    2  A    between atoms: C5_5  and  S1_6 
REMARK    3  A    between atoms: S1_6  and  O1_7 
REMARK    4  A    between atoms: S1_6  and  O2_9 
REMARK    5  A    between atoms: S1_6  and  N1_11 
REMARK    6  A    between atoms: S1_6  and  C10_24 
REMARK    7  A    between atoms: N1_11  and  N2_13 
ROOT
HETATM    1  S1  UNL     1      -0.505   0.717  -0.124  1.00  0.00     0.004 SA
ENDROOT
BRANCH   1   2
HETATM    2  C5  UNL     1      -0.812  -0.864  -0.895  1.00  0.00     0.068 C 
BRANCH   2   3
HETATM    3  C2  UNL     1      -1.929  -1.817  -0.418  1.00  0.00    -0.025 C 
HETATM    4  C1  UNL     1      -1.867  -2.230   0.990  1.00  0.00     0.019 C 
HETATM    5  C3  UNL     1      -1.793  -3.036  -1.312  1.00  0.00     0.019 C 
HETATM    6  C4  UNL     1      -3.298  -1.257  -0.708  1.00  0.00     0.019 C 
ENDBRANCH   2   3
ENDBRANCH   1   2
BRANCH   1   7
HETATM    7  O1  UNL     1      -2.175   0.741   0.352  1.00  0.00    -0.318 OA
ATOM      8  H1  UNL     1      -2.012   1.582   0.762  1.00  0.00     0.229 HD
ENDBRANCH   1   7
BRANCH   1   9
HETATM    9  O2  UNL     1       0.028   1.441  -1.794  1.00  0.00    -0.318 OA
ATOM     10  H2  UNL     1       0.191   2.282  -1.384  1.00  0.00     0.229 HD
ENDBRANCH   1   9
BRANCH   1  11
HETATM   11  N1  UNL     1       0.902   0.209   0.946  1.00  0.00    -0.245 N 
ATOM     12  H1  UNL     1       0.826   0.431   1.939  1.00  0.00     0.198 HD
BRANCH  11  13
HETATM   13  N2  UNL     1       2.013  -0.421   0.554  1.00  0.00    -0.176 N 
HETATM   14  C6  UNL     1       3.296   0.188   0.299  1.00  0.00     0.293 C 
HETATM   15  O3  UNL     1       3.694   1.380   0.337  1.00  0.00    -0.264 OA
HETATM   16  C7  UNL     1       4.245  -0.867  -0.062  1.00  0.00     0.101 C 
HETATM   17  N3  UNL     1       5.515  -0.920   0.001  1.00  0.00    -0.396 N 
HETATM   18  C8  UNL     1       3.395  -2.002  -0.569  1.00  0.00     0.231 C 
ATOM     19  H32 UNL     1       6.091  -0.151   0.344  1.00  0.00     0.156 HD
ATOM     20  H31 UNL     1       6.176  -1.655  -0.250  1.00  0.00     0.156 HD
HETATM   21 CL1  UNL     1       2.908  -1.763  -2.227  1.00  0.00    -0.108 Cl
HETATM   22  C9  UNL     1       2.232  -1.835   0.341  1.00  0.00     0.271 C 
HETATM   23  O4  UNL     1       1.592  -2.815   0.812  1.00  0.00    -0.269 OA
ENDBRANCH  11  13
ENDBRANCH   1  11
BRANCH   1  24
HETATM   24  C10 UNL     1      -0.455   2.379   0.475  1.00  0.00     0.036 C 
HETATM   25  C11 UNL     1      -0.702   2.539   1.997  1.00  0.00     0.030 C 
HETATM   26  C12 UNL     1       0.812   3.197   0.322  1.00  0.00     0.030 C 
HETATM   27  C13 UNL     1      -1.487   3.379  -0.136  1.00  0.00     0.030 C 
ENDBRANCH   1  24
TORSDOF 7
