REMARK  4 active torsions:
REMARK  status: ('A' for Active; 'I' for Inactive)
REMARK    1  A    between atoms: C1_2  and  C2_3 
REMARK       I    between atoms: C1_2  and  N1_10 
REMARK    2  A    between atoms: C2_3  and  C3_4 
REMARK    3  A    between atoms: N1_10  and  N2_11 
REMARK    4  A    between atoms: C14_22  and  C15_23 
ROOT
HETATM    1  N2  UNL     1       0.891   2.323  -0.020  1.00  0.00    -0.238 N 
ATOM      2  H2  UNL     1       0.646   3.085  -0.652  1.00  0.00     0.201 HD
HETATM    3  C9  UNL     1       2.086   2.194   0.382  1.00  0.00     0.048 C 
HETATM    4  C10 UNL     1       3.170   3.110  -0.028  1.00  0.00     0.141 C 
HETATM    5  C11 UNL     1       4.392   2.251  -0.264  1.00  0.00     0.168 C 
HETATM    6  O2  UNL     1       5.485   2.823  -0.379  1.00  0.00    -0.292 OA
HETATM    7  C12 UNL     1       4.241   0.762  -0.347  1.00  0.00     0.060 A 
HETATM    8  C13 UNL     1       3.300   0.158   0.429  1.00  0.00     0.055 A 
HETATM    9  N3  UNL     1       3.186  -1.155   0.362  1.00  0.00    -0.327 N 
ATOM     10  H3  UNL     1       2.536  -1.751   0.874  1.00  0.00     0.174 HD
HETATM   11  S1  UNL     1       4.342  -1.625  -0.747  1.00  0.00    -0.007 SA
HETATM   12  C14 UNL     1       4.994  -0.065  -1.137  1.00  0.00     0.114 A 
HETATM   13  C16 UNL     1       2.455   1.090   1.297  1.00  0.00     0.181 C 
HETATM   14 CL1  UNL     1       3.517   1.791   2.541  1.00  0.00    -0.112 Cl
ENDROOT
BRANCH   1  15
HETATM   15  N1  UNL     1      -0.082   1.433   0.397  1.00  0.00    -0.287 NA
HETATM   16  C1  UNL     1      -0.985   0.617   0.791  1.00  0.00     0.312 C 
HETATM   17  O1  UNL     1      -1.754   0.685   1.818  1.00  0.00    -0.255 OA
BRANCH  16  18
HETATM   18  C2  UNL     1      -1.268  -0.661  -0.018  1.00  0.00     0.126 C 
BRANCH  18  19
HETATM   19  C3  UNL     1      -2.617  -1.183   0.402  1.00  0.00    -0.005 C 
HETATM   20  C4  UNL     1      -2.974  -2.455  -0.319  1.00  0.00     0.005 C 
HETATM   21  C5  UNL     1      -4.448  -2.749  -0.342  1.00  0.00     0.000 C 
HETATM   22  C6  UNL     1      -5.287  -2.006   0.624  1.00  0.00     0.000 C 
HETATM   23  C7  UNL     1      -4.911  -0.545   0.809  1.00  0.00     0.000 C 
HETATM   24  C8  UNL     1      -3.713  -0.184  -0.038  1.00  0.00     0.005 C 
ENDBRANCH  18  19
ENDBRANCH  16  18
ENDBRANCH   1  15
BRANCH  12  25
HETATM   25  C15 UNL     1       6.068   0.223  -2.096  1.00  0.00     0.219 C 
HETATM   26  O3  UNL     1       6.585  -0.808  -2.666  1.00  0.00    -0.643 OA
HETATM   27  O4  UNL     1       6.574   1.422  -2.451  1.00  0.00    -0.643 OA
ENDBRANCH  12  25
TORSDOF 4
