REMARK  3 active torsions:
REMARK  status: ('A' for Active; 'I' for Inactive)
REMARK    1  A    between atoms: C6_6  and  N1_7 
REMARK    2  A    between atoms: N1_7  and  C7_9 
REMARK    3  A    between atoms: N5_23  and  O1_24 
ROOT
HETATM    1  C7  UNL     1      -0.669  -0.105  -0.216  1.00  0.00     0.132 A 
HETATM    2  N2  UNL     1      -0.424   1.191  -0.443  1.00  0.00    -0.283 N 
ATOM      3  H2  UNL     1       0.547   1.468  -0.588  1.00  0.00     0.188 HD
HETATM    4  N3  UNL     1      -1.353   2.151  -0.494  1.00  0.00    -0.280 N 
ATOM      5  H3  UNL     1      -1.068   3.114  -0.674  1.00  0.00     0.188 HD
HETATM    6  C8  UNL     1      -2.662   1.870  -0.311  1.00  0.00     0.180 A 
HETATM    7  C9  UNL     1      -2.960   0.554  -0.075  1.00  0.00     0.055 A 
HETATM    8  C10 UNL     1      -4.310   0.420   0.090  1.00  0.00     0.065 A 
HETATM    9  C11 UNL     1      -4.756  -0.866   0.337  1.00  0.00     0.032 A 
HETATM   10  C12 UNL     1      -3.838  -1.919   0.403  1.00  0.00     0.003 A 
HETATM   11  C13 UNL     1      -2.463  -1.715   0.225  1.00  0.00     0.016 A 
HETATM   12  C14 UNL     1      -2.017  -0.434  -0.021  1.00  0.00     0.026 A 
HETATM   13  N4  UNL     1      -4.876   1.731  -0.054  1.00  0.00    -0.272 N 
ATOM     14  H4  UNL     1      -5.866   1.966   0.014  1.00  0.00     0.189 HD
HETATM   15  N5  UNL     1      -3.908   2.569  -0.287  1.00  0.00    -0.144 N 
ENDROOT
BRANCH   1  16
HETATM   16  N1  UNL     1       0.212  -1.024  -0.167  1.00  0.00    -0.341 N 
ATOM     17  H1  UNL     1      -0.113  -1.973   0.015  1.00  0.00     0.167 HD
BRANCH  16  18
HETATM   18  C6  UNL     1       1.590  -0.841  -0.342  1.00  0.00     0.034 A 
HETATM   19  C5  UNL     1       2.264  -1.365  -1.434  1.00  0.00     0.029 A 
HETATM   20  C4  UNL     1       3.623  -1.183  -1.603  1.00  0.00     0.003 A 
HETATM   21  C3  UNL     1       4.333  -0.462  -0.666  1.00  0.00     0.007 A 
HETATM   22  C2  UNL     1       3.699   0.079   0.439  1.00  0.00    -0.060 A 
HETATM   23  C1  UNL     1       4.439   0.866   1.474  1.00  0.00     0.048 C 
HETATM   24  C15 UNL     1       2.333  -0.127   0.573  1.00  0.00     0.036 A 
ENDBRANCH  16  18
ENDBRANCH   1  16
BRANCH  15  25
HETATM   25  O1  UNL     1      -4.053   3.897  -0.478  1.00  0.00    -0.266 OA
ATOM     26  H1  UNL     1      -4.881   4.362  -0.462  1.00  0.00     0.247 HD
ENDBRANCH  15  25
TORSDOF 3
