REMARK  4 active torsions:
REMARK  status: ('A' for Active; 'I' for Inactive)
REMARK    1  A    between atoms: N3_9  and  N4_10 
REMARK    2  A    between atoms: N4_10  and  N5_11 
REMARK    3  A    between atoms: N5_11  and  C5_12 
REMARK    4  A    between atoms: C8_15  and  N6_16 
ROOT
HETATM    1  N4  UNL     1      -0.003  -0.847  -0.206  1.00  0.00    -0.027 NA
ENDROOT
BRANCH   1   2
HETATM    2  N3  UNL     1      -1.393  -0.728  -0.176  1.00  0.00    -0.266 N 
HETATM    3  C4  UNL     1      -2.022  -1.566   0.774  1.00  0.00     0.091 C 
HETATM    4  C3  UNL     1      -3.460  -1.749   1.058  1.00  0.00     0.096 C 
HETATM    5  N2  UNL     1      -1.228  -2.265   1.488  1.00  0.00    -0.388 N 
HETATM    6  C2  UNL     1      -4.072  -0.343   1.142  1.00  0.00     0.124 C 
HETATM    7  N1  UNL     1      -4.116   0.170  -0.184  1.00  0.00    -0.415 N 
HETATM    8  C1  UNL     1      -5.410   0.560  -0.639  1.00  0.00     0.143 C 
HETATM    9  C12 UNL     1      -3.054   1.054  -0.527  1.00  0.00     0.137 C 
HETATM   10  C11 UNL     1      -1.925   0.229  -1.123  1.00  0.00     0.167 C 
ATOM     11  H22 UNL     1      -1.682  -2.869   2.173  1.00  0.00     0.157 HD
ATOM     12  H21 UNL     1      -0.235  -2.139   1.292  1.00  0.00     0.157 HD
ENDBRANCH   1   2
BRANCH   1  13
HETATM   13  N5  UNL     1       0.631   0.029   0.684  1.00  0.00    -0.121 NA
BRANCH  13  14
HETATM   14  C5  UNL     1       1.876   0.428   0.078  1.00  0.00     0.097 C 
HETATM   15  C6  UNL     1       2.681   1.373   0.912  1.00  0.00     0.025 C 
HETATM   16  C7  UNL     1       3.903   1.785   0.143  1.00  0.00     0.034 C 
HETATM   17  C8  UNL     1       4.667   0.643  -0.440  1.00  0.00     0.183 C 
HETATM   18  C9  UNL     1       3.811  -0.341  -1.178  1.00  0.00     0.034 C 
HETATM   19  C10 UNL     1       2.719  -0.796  -0.201  1.00  0.00     0.025 C 
BRANCH  17  20
HETATM   20  N6  UNL     1       5.487  -0.016   0.559  1.00  0.00    -0.075 N 
ATOM     21  H63 UNL     1       6.106   0.645   1.029  1.00  0.00     0.274 HD
ATOM     22  H62 UNL     1       4.931  -0.311   1.362  1.00  0.00     0.274 HD
ATOM     23  H61 UNL     1       6.009  -0.796   0.161  1.00  0.00     0.274 HD
ENDBRANCH  17  20
ENDBRANCH  13  14
ENDBRANCH   1  13
TORSDOF 4
