REMARK  5 active torsions:
REMARK  status: ('A' for Active; 'I' for Inactive)
REMARK    1  A    between atoms: C10_10  and  C11_11 
REMARK    2  A    between atoms: C11_11  and  N1_12 
REMARK    3  A    between atoms: C11_11  and  C12_16 
REMARK    4  A    between atoms: C12_16  and  C13_17 
REMARK    5  A    between atoms: C13_17  and  C14_18 
ROOT
HETATM    1  C1  UNL     1      -4.475  -0.877  -0.821  1.00  0.00     0.015 C 
HETATM    2  C2  UNL     1      -3.553   0.131  -0.168  1.00  0.00    -0.040 C 
HETATM    3  C3  UNL     1      -4.437   1.056   0.661  1.00  0.00     0.009 C 
HETATM    4  C4  UNL     1      -4.279   0.451   2.040  1.00  0.00     0.001 C 
HETATM    5  C5  UNL     1      -2.761   0.225   2.067  1.00  0.00     0.006 C 
HETATM    6  C6  UNL     1      -2.580  -0.509   0.761  1.00  0.00    -0.002 C 
HETATM    7  C7  UNL     1      -1.161  -0.540   0.279  1.00  0.00    -0.006 C 
HETATM    8  C8  UNL     1      -1.024  -1.563  -0.788  1.00  0.00     0.006 C 
HETATM    9  C9  UNL     1      -0.015  -1.232  -1.847  1.00  0.00     0.007 C 
HETATM   10  C10 UNL     1       1.140  -0.411  -1.310  1.00  0.00     0.016 C 
HETATM   11  C17 UNL     1       0.674   0.871  -0.728  1.00  0.00     0.011 C 
HETATM   12  C18 UNL     1      -0.677   0.828  -0.054  1.00  0.00    -0.010 C 
HETATM   13  C19 UNL     1      -1.677   1.682  -0.772  1.00  0.00     0.006 C 
HETATM   14  C20 UNL     1      -2.906   0.969  -1.237  1.00  0.00     0.010 C 
ENDROOT
BRANCH  10  15
HETATM   15  C11 UNL     1       2.097  -1.201  -0.504  1.00  0.00     0.187 C 
BRANCH  15  16
HETATM   16  N1  UNL     1       2.722  -2.284  -1.220  1.00  0.00    -0.075 N 
ATOM     17  H13 UNL     1       2.016  -2.893  -1.633  1.00  0.00     0.274 HD
ATOM     18  H12 UNL     1       3.171  -1.938  -2.068  1.00  0.00     0.274 HD
ATOM     19  H11 UNL     1       3.382  -2.829  -0.664  1.00  0.00     0.274 HD
ENDBRANCH  15  16
BRANCH  15  20
HETATM   20  C12 UNL     1       3.188  -0.427   0.176  1.00  0.00     0.033 C 
BRANCH  20  21
HETATM   21  C13 UNL     1       4.053   0.334  -0.773  1.00  0.00     0.007 C 
BRANCH  21  22
HETATM   22  C14 UNL     1       5.132   1.071  -0.030  1.00  0.00    -0.014 A 
HETATM   23  C15 UNL     1       6.128   0.343   0.798  1.00  0.00     0.005 A 
HETATM   24  C16 UNL     1       5.057   1.177   1.470  1.00  0.00     0.005 A 
ENDBRANCH  21  22
ENDBRANCH  20  21
ENDBRANCH  15  20
ENDBRANCH  10  15
TORSDOF 5
