REMARK  4 active torsions:
REMARK  status: ('A' for Active; 'I' for Inactive)
REMARK    1  A    between atoms: C4_5  and  C5_6 
REMARK       I    between atoms: C5_6  and  N1_8 
REMARK    2  A    between atoms: N1_8  and  N2_10 
REMARK       I    between atoms: N2_10  and  C6_12 
REMARK    3  A    between atoms: C6_12  and  O3_14 
REMARK    4  A    between atoms: O3_14  and  C7_15 
ROOT
HETATM    1  C5  UNL     1       1.783  -0.190   1.221  1.00  0.00     0.277 C 
HETATM    2  O1  UNL     1       1.774  -0.966   2.227  1.00  0.00    -0.265 OA
HETATM    3  N1  UNL     1       0.564   0.021   0.528  1.00  0.00    -0.261 N 
ATOM      4  H1  UNL     1       0.563   0.642  -0.281  1.00  0.00     0.190 HD
ENDROOT
BRANCH   3   5
HETATM    5  N2  UNL     1      -0.626  -0.581   0.903  1.00  0.00    -0.242 N 
HETATM    6  C6  UNL     1      -1.698  -0.669  -0.012  1.00  0.00     0.379 C 
HETATM    7  O2  UNL     1      -1.591  -0.198  -1.193  1.00  0.00    -0.237 OA
ATOM      8  H2  UNL     1      -0.728  -0.962   1.844  1.00  0.00     0.192 HD
BRANCH   6   9
HETATM    9  O3  UNL     1      -2.914  -1.251   0.280  1.00  0.00    -0.298 OA
BRANCH   9  10
HETATM   10  C7  UNL     1      -3.966  -1.325  -0.654  1.00  0.00     0.125 C 
HETATM   11  C8  UNL     1      -4.437  -2.706  -0.940  1.00  0.00     0.040 C 
HETATM   12  C9  UNL     1      -5.127  -0.523  -0.104  1.00  0.00     0.040 C 
ENDBRANCH   9  10
ENDBRANCH   6   9
ENDBRANCH   3   5
BRANCH   1  13
HETATM   13  C4  UNL     1       3.039   0.440   0.831  1.00  0.00     0.074 A 
HETATM   14  S1  UNL     1       4.562   0.269   1.570  1.00  0.00    -0.096 SA
HETATM   15  C3  UNL     1       5.482   1.288   0.558  1.00  0.00     0.057 A 
HETATM   16  C2  UNL     1       4.555   1.738  -0.341  1.00  0.00    -0.054 A 
HETATM   17  C1  UNL     1       4.972   2.696  -1.445  1.00  0.00     0.048 C 
HETATM   18  C10 UNL     1       3.295   1.302  -0.202  1.00  0.00     0.031 A 
ENDBRANCH   1  13
TORSDOF 4
