REMARK  3 active torsions:
REMARK  status: ('A' for Active; 'I' for Inactive)
REMARK    1  A    between atoms: N1_4  and  C3_6 
REMARK    2  A    between atoms: C4_8  and  N2_9 
REMARK    3  A    between atoms: N2_9  and  N3_11 
ROOT
HETATM    1  C3  UNL     1       1.736   0.345   0.521  1.00  0.00     0.116 A 
HETATM    2  S2  UNL     1       0.607   1.630   0.948  1.00  0.00    -0.032 SA
HETATM    3  C4  UNL     1      -0.819   0.719   1.006  1.00  0.00     0.166 A 
HETATM    4  N4  UNL     1      -0.397  -0.500   0.706  1.00  0.00    -0.325 N 
ATOM      5  H4  UNL     1      -1.056  -1.278   0.665  1.00  0.00     0.169 HD
HETATM    6  C8  UNL     1       0.886  -0.698   0.460  1.00  0.00     0.150 A 
HETATM    7  C9  UNL     1       1.333  -2.066   0.122  1.00  0.00     0.120 C 
HETATM    8  N5  UNL     1       1.641  -3.150  -0.141  1.00  0.00    -0.190 NA
ENDROOT
BRANCH   1   9
HETATM    9  N1  UNL     1       3.099   0.611   0.348  1.00  0.00    -0.343 N 
HETATM   10  C2  UNL     1       4.276   0.004   0.054  1.00  0.00     0.074 C 
HETATM   11  C1  UNL     1       5.526   0.908   0.006  1.00  0.00     0.081 C 
HETATM   12  S1  UNL     1       4.602  -1.517  -0.252  1.00  0.00    -0.066 SA
ATOM     13  H1  UNL     1       3.265   1.607   0.493  1.00  0.00     0.167 HD
ENDBRANCH   1   9
BRANCH   3  14
HETATM   14  N2  UNL     1      -2.051   1.105   1.279  1.00  0.00    -0.280 N 
ATOM     15  H2  UNL     1      -2.232   2.085   1.495  1.00  0.00     0.189 HD
BRANCH  14  16
HETATM   16  N3  UNL     1      -3.102   0.204   1.278  1.00  0.00    -0.308 N 
HETATM   17  C5  UNL     1      -3.707  -0.005   0.150  1.00  0.00    -0.004 C 
HETATM   18  C6  UNL     1      -3.329   0.662  -1.103  1.00  0.00     0.064 C 
HETATM   19  C7  UNL     1      -4.832  -0.970   0.149  1.00  0.00     0.064 C 
ATOM     20  H3  UNL     1      -3.389  -0.276   2.131  1.00  0.00     0.186 HD
ENDBRANCH  14  16
ENDBRANCH   3  14
TORSDOF 3
