REMARK  7 active torsions:
REMARK  status: ('A' for Active; 'I' for Inactive)
REMARK    1  A    between atoms: C2_2  and  C3_3 
REMARK    2  A    between atoms: C2_2  and  C12_13 
REMARK    3  A    between atoms: C3_3  and  C4_4 
REMARK    4  A    between atoms: C4_4  and  C5_5 
REMARK    5  A    between atoms: C5_5  and  C6_7 
REMARK    6  A    between atoms: C14_15  and  O2_17 
REMARK    7  A    between atoms: C22_26  and  O4_27 
ROOT
HETATM    1  C12 UNL     1      -1.005   0.946  -0.232  1.00  0.00    -0.002 C 
HETATM    2  C13 UNL     1      -0.923   2.208  -1.087  1.00  0.00     0.019 C 
HETATM    3  C14 UNL     1      -0.999   1.481   1.182  1.00  0.00     0.062 C 
HETATM    4  C15 UNL     1      -0.711   0.501   2.247  1.00  0.00     0.046 C 
HETATM    5  C16 UNL     1      -2.185   2.303   1.580  1.00  0.00     0.038 C 
HETATM    6  C17 UNL     1      -3.386   2.146   0.749  1.00  0.00     0.009 C 
HETATM    7  C18 UNL     1      -3.498   0.797   0.089  1.00  0.00    -0.001 C 
HETATM    8  C19 UNL     1      -4.791   0.882  -0.646  1.00  0.00     0.046 C 
HETATM    9  C20 UNL     1      -5.287  -0.434  -1.118  1.00  0.00    -0.024 A 
HETATM   10  C21 UNL     1      -6.353  -0.642  -1.922  1.00  0.00     0.152 A 
HETATM   11  O3  UNL     1      -6.446  -1.940  -2.094  1.00  0.00    -0.299 OA
HETATM   12  C22 UNL     1      -5.499  -2.580  -1.446  1.00  0.00     0.189 A 
HETATM   13  C23 UNL     1      -4.695  -1.645  -0.777  1.00  0.00     0.008 A 
HETATM   14  C24 UNL     1      -3.534  -1.890   0.062  1.00  0.00     0.045 C 
HETATM   15  C25 UNL     1      -2.248  -1.241  -0.344  1.00  0.00     0.015 C 
HETATM   16  C26 UNL     1      -2.304   0.275  -0.600  1.00  0.00    -0.029 C 
HETATM   17  C27 UNL     1      -2.512   0.427  -2.091  1.00  0.00     0.016 C 
ENDROOT
BRANCH   1  18
HETATM   18  C2  UNL     1       0.241   0.212  -0.482  1.00  0.00    -0.006 C 
HETATM   19  C1  UNL     1       0.555  -0.200  -1.892  1.00  0.00     0.011 C 
BRANCH  18  20
HETATM   20  C3  UNL     1       1.528   0.813   0.013  1.00  0.00     0.013 C 
BRANCH  20  21
HETATM   21  C4  UNL     1       2.690  -0.200  -0.087  1.00  0.00     0.084 C 
BRANCH  21  22
HETATM   22  C5  UNL     1       3.876   0.516   0.489  1.00  0.00     0.155 C 
HETATM   23  O1  UNL     1       3.808   1.684   0.920  1.00  0.00    -0.293 OA
BRANCH  22  24
HETATM   24  C6  UNL     1       5.187  -0.154   0.563  1.00  0.00    -0.016 C 
HETATM   25  C7  UNL     1       5.308  -1.395   0.117  1.00  0.00    -0.016 C 
HETATM   26  C8  UNL     1       6.592  -2.139   0.157  1.00  0.00     0.028 C 
HETATM   27  C9  UNL     1       7.184  -1.839   1.542  1.00  0.00     0.004 C 
HETATM   28  C10 UNL     1       7.474  -0.375   1.565  1.00  0.00     0.005 C 
HETATM   29  C11 UNL     1       6.371   0.514   1.118  1.00  0.00     0.042 C 
ENDBRANCH  22  24
ENDBRANCH  21  22
ENDBRANCH  20  21
ENDBRANCH  18  20
ENDBRANCH   1  18
BRANCH   3  30
HETATM   30  O2  UNL     1       0.044   2.459   1.283  1.00  0.00    -0.389 OA
ATOM     31  H2  UNL     1       0.048   2.795   2.172  1.00  0.00     0.210 HD
ENDBRANCH   3  30
BRANCH  12  32
HETATM   32  O4  UNL     1      -5.278  -3.954  -1.392  1.00  0.00    -0.340 OA
ATOM     33  H4  UNL     1      -4.593  -4.417  -0.923  1.00  0.00     0.220 HD
ENDBRANCH  12  32
TORSDOF 7
