REMARK  18 active torsions:
REMARK  status: ('A' for Active; 'I' for Inactive)
REMARK    1  A    between atoms: N1_2  and  C2_4 
REMARK    2  A    between atoms: C3_5  and  N2_6 
REMARK    3  A    between atoms: C5_11  and  N3_12 
REMARK    4  A    between atoms: C6_16  and  O1_17 
REMARK    5  A    between atoms: O1_17  and  C7_18 
REMARK    6  A    between atoms: C8_19  and  N4_20 
REMARK    7  A    between atoms: C10_27  and  C11_28 
REMARK    8  A    between atoms: C11_28  and  O3_30 
REMARK    9  A    between atoms: N6_35  and  O4_36 
REMARK   10  A    between atoms: N7_39  and  C17_40 
REMARK   11  A    between atoms: C17_40  and  O5_41 
REMARK   12  A    between atoms: C18_43  and  O6_44 
REMARK   13  A    between atoms: O6_44  and  C19_45 
REMARK   14  A    between atoms: C19_45  and  O7_46 
REMARK   15  A    between atoms: C19_45  and  C20_48 
REMARK   16  A    between atoms: C20_48  and  O8_49 
REMARK   17  A    between atoms: C20_48  and  C21_51 
REMARK   18  A    between atoms: C21_51  and  O9_52 
ROOT
HETATM    1  C2  UNL     1      -3.696  -1.928  -0.096  1.00  0.00     0.138 C 
HETATM    2  C3  UNL     1      -4.606  -1.169  -0.973  1.00  0.00     0.210 C 
HETATM    3  C4  UNL     1      -3.822  -0.104  -1.713  1.00  0.00     0.070 C 
HETATM    4  C5  UNL     1      -2.364  -0.141  -1.507  1.00  0.00     0.217 C 
HETATM    5  C6  UNL     1      -1.865  -0.363  -0.095  1.00  0.00     0.185 C 
HETATM    6  C18 UNL     1      -2.897  -0.978   0.808  1.00  0.00     0.180 C 
ENDROOT
BRANCH   5   7
HETATM    7  O1  UNL     1      -0.630  -0.976  -0.076  1.00  0.00    -0.345 OA
BRANCH   7   8
HETATM    8  C7  UNL     1       0.311  -0.032   0.355  1.00  0.00     0.397 C 
HETATM    9  C8  UNL     1       1.400  -0.491   1.218  1.00  0.00     0.268 C 
HETATM   10  C9  UNL     1       2.603   0.431   0.918  1.00  0.00     0.162 C 
HETATM   11  N5  UNL     1       3.813  -0.237   0.777  1.00  0.00    -0.398 N 
HETATM   12  C16 UNL     1       2.105   1.154  -0.298  1.00  0.00     0.353 C 
HETATM   13  C10 UNL     1       4.658  -0.015  -0.332  1.00  0.00     0.202 C 
ATOM     14  H5  UNL     1       4.098  -0.905   1.493  1.00  0.00     0.154 HD
HETATM   15  C13 UNL     1       4.463   1.477  -0.722  1.00  0.00     0.063 C 
HETATM   16  C14 UNL     1       4.650   2.395   0.465  1.00  0.00     0.037 C 
HETATM   17  C15 UNL     1       5.402   1.921  -1.773  1.00  0.00     0.037 C 
HETATM   18  N6  UNL     1       3.118   1.549  -1.245  1.00  0.00    -0.153 NA
HETATM   19  N7  UNL     1       1.051   0.404  -0.874  1.00  0.00     0.164 N 
BRANCH   9  20
HETATM   20  N4  UNL     1       0.990  -0.348   2.592  1.00  0.00    -0.069 N 
ATOM     21  H43 UNL     1       0.690   0.601   2.813  1.00  0.00     0.275 HD
ATOM     22  H42 UNL     1       0.109  -0.823   2.788  1.00  0.00     0.275 HD
ATOM     23  H41 UNL     1       1.749  -0.668   3.194  1.00  0.00     0.275 HD
ENDBRANCH   9  20
BRANCH  13  24
HETATM   24  C11 UNL     1       6.091  -0.213   0.005  1.00  0.00     0.283 C 
HETATM   25  O2  UNL     1       6.925   0.601   0.388  1.00  0.00    -0.263 OA
BRANCH  24  26
HETATM   26  O3  UNL     1       6.511  -1.561  -0.143  1.00  0.00    -0.325 OA
HETATM   27  C12 UNL     1       7.787  -2.064   0.138  1.00  0.00     0.213 C 
ENDBRANCH  24  26
ENDBRANCH  13  24
BRANCH  18  28
HETATM   28  O4  UNL     1       2.952   2.792  -1.722  1.00  0.00    -0.310 OA
ATOM     29  H4  UNL     1       2.068   2.839  -2.066  1.00  0.00     0.237 HD
ENDBRANCH  18  28
BRANCH  19  30
HETATM   30  C17 UNL     1       1.373  -0.790  -1.568  1.00  0.00     0.443 C 
BRANCH  30  31
HETATM   31  O5  UNL     1       2.020  -0.598  -2.767  1.00  0.00    -0.372 OA
ATOM     32  H5  UNL     1       2.236  -1.398  -3.232  1.00  0.00     0.211 HD
ENDBRANCH  30  31
ENDBRANCH  19  30
ENDBRANCH   7   8
ENDBRANCH   5   7
BRANCH   4  33
HETATM   33  N3  UNL     1      -1.854   1.151  -1.999  1.00  0.00    -0.072 N 
ATOM     34  H33 UNL     1      -2.125   1.356  -2.961  1.00  0.00     0.274 HD
ATOM     35  H32 UNL     1      -2.306   1.958  -1.569  1.00  0.00     0.274 HD
ATOM     36  H31 UNL     1      -0.844   1.125  -1.856  1.00  0.00     0.274 HD
ENDBRANCH   4  33
BRANCH   6  37
HETATM   37  O6  UNL     1      -3.606   0.069   1.274  1.00  0.00    -0.349 OA
BRANCH  37  38
HETATM   38  C19 UNL     1      -4.115   0.208   2.485  1.00  0.00     0.288 C 
BRANCH  38  39
HETATM   39  O7  UNL     1      -2.729   0.266   3.267  1.00  0.00    -0.369 OA
ATOM     40  H7  UNL     1      -3.095   0.366   4.138  1.00  0.00     0.212 HD
ENDBRANCH  38  39
BRANCH  38  41
HETATM   41  C20 UNL     1      -4.625   1.559   2.816  1.00  0.00     0.196 C 
BRANCH  41  42
HETATM   42  O8  UNL     1      -3.565   2.449   3.107  1.00  0.00    -0.389 OA
ATOM     43  H8  UNL     1      -3.892   3.315   3.319  1.00  0.00     0.210 HD
ENDBRANCH  41  42
BRANCH  41  44
HETATM   44  C21 UNL     1      -5.280   2.250   1.564  1.00  0.00     0.200 C 
BRANCH  44  45
HETATM   45  O9  UNL     1      -4.214   2.590   0.743  1.00  0.00    -0.398 OA
ATOM     46  H9  UNL     1      -4.610   3.007  -0.013  1.00  0.00     0.209 HD
ENDBRANCH  44  45
ENDBRANCH  41  44
ENDBRANCH  38  41
ENDBRANCH  37  38
ENDBRANCH   6  37
BRANCH   1  47
HETATM   47  N1  UNL     1      -4.383  -2.885   0.706  1.00  0.00    -0.417 N 
HETATM   48  C1  UNL     1      -3.786  -4.174   0.777  1.00  0.00     0.140 C 
ATOM     49  H1  UNL     1      -5.248  -2.660   1.198  1.00  0.00     0.153 HD
ENDBRANCH   1  47
BRANCH   2  50
HETATM   50  N2  UNL     1      -5.279  -2.050  -1.918  1.00  0.00    -0.073 N 
ATOM     51  H23 UNL     1      -4.612  -2.603  -2.457  1.00  0.00     0.274 HD
ATOM     52  H22 UNL     1      -5.764  -2.811  -1.442  1.00  0.00     0.274 HD
ATOM     53  H21 UNL     1      -5.909  -1.525  -2.525  1.00  0.00     0.274 HD
ENDBRANCH   2  50
TORSDOF 18
