REMARK  6 active torsions:
REMARK  status: ('A' for Active; 'I' for Inactive)
REMARK    1  A    between atoms: C3_4  and  C4_5 
REMARK    2  A    between atoms: C5_7  and  C6_8 
REMARK    3  A    between atoms: C6_8  and  O2_9 
REMARK    4  A    between atoms: C7_11  and  O3_12 
REMARK    5  A    between atoms: C8_14  and  O4_15 
REMARK    6  A    between atoms: C9_17  and  O5_18 
ROOT
HETATM    1  C4  UNL     1       0.683   0.369  -0.009  1.00  0.00     0.177 C 
HETATM    2  O1  UNL     1      -0.121  -0.437   0.790  1.00  0.00    -0.369 OA
HETATM    3  C5  UNL     1      -1.154  -1.003   0.091  1.00  0.00     0.177 C 
HETATM    4  C7  UNL     1      -2.092   0.065  -0.450  1.00  0.00     0.180 C 
HETATM    5  C8  UNL     1      -1.241   0.926  -1.390  1.00  0.00     0.181 C 
HETATM    6  C9  UNL     1      -0.173   1.533  -0.490  1.00  0.00     0.182 C 
ENDROOT
BRANCH   1   7
HETATM    7  C3  UNL     1       1.869   0.830   0.719  1.00  0.00     0.022 C 
HETATM    8  C2  UNL     1       2.961   0.092   0.799  1.00  0.00    -0.016 C 
HETATM    9  C1  UNL     1       2.972  -1.225   0.136  1.00  0.00     0.056 C 
HETATM   10  S1  UNL     1       4.419   0.628   1.677  1.00  0.00    -0.058 SA
ENDBRANCH   1   7
BRANCH   6  11
HETATM   11  O5  UNL     1       0.576   2.459  -1.203  1.00  0.00    -0.390 OA
ATOM     12  H5  UNL     1       0.042   3.185  -1.503  1.00  0.00     0.210 HD
ENDBRANCH   6  11
BRANCH   3  13
HETATM   13  C6  UNL     1      -1.877  -1.996   0.965  1.00  0.00     0.198 C 
BRANCH  13  14
HETATM   14  O2  UNL     1      -2.406  -1.394   2.108  1.00  0.00    -0.398 OA
ATOM     15  H2  UNL     1      -2.862  -2.020   2.659  1.00  0.00     0.209 HD
ENDBRANCH  13  14
ENDBRANCH   3  13
BRANCH   5  16
HETATM   16  O4  UNL     1      -2.017   1.913  -1.993  1.00  0.00    -0.390 OA
ATOM     17  H4  UNL     1      -1.490   2.447  -2.576  1.00  0.00     0.210 HD
ENDBRANCH   5  16
BRANCH   4  18
HETATM   18  O3  UNL     1      -3.191  -0.461  -1.067  1.00  0.00    -0.390 OA
ATOM     19  H3  UNL     1      -3.777   0.206  -1.405  1.00  0.00     0.210 HD
ENDBRANCH   4  18
TORSDOF 6
