REMARK  6 active torsions:
REMARK  status: ('A' for Active; 'I' for Inactive)
REMARK       I    between atoms: C1_2  and  N1_3 
REMARK    1  A    between atoms: C1_2  and  C6_9 
REMARK    2  A    between atoms: N1_3  and  C2_5 
REMARK    3  A    between atoms: C7_12  and  S1_13 
REMARK    4  A    between atoms: S1_13  and  C8_14 
REMARK    5  A    between atoms: C8_14  and  C9_15 
REMARK    6  A    between atoms: C9_15  and  C10_16 
ROOT
HETATM    1  C6  UNL     1       1.608   1.131   0.114  1.00  0.00     0.191 A 
HETATM    2  N2  UNL     1       0.426   1.495  -0.409  1.00  0.00    -0.316 N 
ATOM      3  H2  UNL     1       0.127   1.331  -1.370  1.00  0.00     0.169 HD
HETATM    4  C7  UNL     1      -0.293   2.107   0.534  1.00  0.00     0.160 A 
HETATM    5  N3  UNL     1       0.466   2.115   1.651  1.00  0.00    -0.278 N 
ATOM      6  H3  UNL     1       0.191   2.515   2.548  1.00  0.00     0.189 HD
HETATM    7  N4  UNL     1       1.604   1.532   1.403  1.00  0.00    -0.279 N 
ATOM      8  H4  UNL     1       2.364   1.401   2.070  1.00  0.00     0.189 HD
ENDROOT
BRANCH   1   9
HETATM    9  C1  UNL     1       2.692   0.437  -0.564  1.00  0.00     0.287 C 
HETATM   10  O1  UNL     1       2.574   0.117  -1.772  1.00  0.00    -0.264 OA
HETATM   11  N1  UNL     1       3.896   0.104   0.097  1.00  0.00    -0.350 N 
ATOM     12  H1  UNL     1       4.003   0.359   1.079  1.00  0.00     0.163 HD
BRANCH  11  13
HETATM   13  C2  UNL     1       4.989  -0.588  -0.568  1.00  0.00     0.084 C 
HETATM   14  C3  UNL     1       6.341   0.019  -0.255  1.00  0.00     0.025 C 
HETATM   15  C4  UNL     1       6.371  -0.843   0.995  1.00  0.00     0.004 C 
HETATM   16  C5  UNL     1       5.414  -1.792   0.278  1.00  0.00     0.025 C 
ENDBRANCH  11  13
ENDBRANCH   1   9
BRANCH   4  17
HETATM   17  S1  UNL     1      -1.924   2.798   0.421  1.00  0.00    -0.092 SA
BRANCH  17  18
HETATM   18  C8  UNL     1      -3.173   1.569   0.827  1.00  0.00     0.083 C 
BRANCH  18  19
HETATM   19  C9  UNL     1      -3.159   0.495  -0.232  1.00  0.00     0.016 C 
BRANCH  19  20
HETATM   20  C10 UNL     1      -4.203  -0.581   0.060  1.00  0.00    -0.004 C 
HETATM   21  C11 UNL     1      -5.531   0.090   0.080  1.00  0.00     0.015 C 
HETATM   22  C12 UNL     1      -6.600  -0.986   0.113  1.00  0.00     0.074 C 
HETATM   23  S2  UNL     1      -5.876  -2.192  -1.069  1.00  0.00    -0.169 SA
HETATM   24  C13 UNL     1      -4.154  -1.553  -1.077  1.00  0.00     0.078 C 
ENDBRANCH  19  20
ENDBRANCH  18  19
ENDBRANCH  17  18
ENDBRANCH   4  17
TORSDOF 6
