REMARK  5 active torsions:
REMARK  status: ('A' for Active; 'I' for Inactive)
REMARK    1  A    between atoms: C4_4  and  N1_5 
REMARK    2  A    between atoms: C9_12  and  C10_13 
REMARK    3  A    between atoms: C10_13  and  O1_14 
REMARK    4  A    between atoms: C10_13  and  N2_16 
REMARK    5  A    between atoms: N2_16  and  O2_18 
ROOT
HETATM    1  C1  UNL     1       2.638  -2.007   0.037  1.00  0.00     0.050 C 
HETATM    2  C2  UNL     1       1.673  -0.826  -0.060  1.00  0.00    -0.038 A 
HETATM    3  C3  UNL     1       0.327  -0.979  -0.077  1.00  0.00     0.045 A 
HETATM    4  C4  UNL     1      -0.428   0.159  -0.167  1.00  0.00     0.073 A 
HETATM    5  S1  UNL     1       0.731   1.396  -0.224  1.00  0.00    -0.068 SA
HETATM    6  C9  UNL     1       2.151   0.453  -0.133  1.00  0.00     0.065 A 
ENDROOT
BRANCH   6   7
HETATM    7  C10 UNL     1       3.545   0.906  -0.133  1.00  0.00     0.178 C 
BRANCH   7   8
HETATM    8  O1  UNL     1       3.835   2.267  -0.216  1.00  0.00    -0.344 OA
ATOM      9  H1  UNL     1       4.738   2.561  -0.216  1.00  0.00     0.219 HD
ENDBRANCH   7   8
BRANCH   7  10
HETATM   10  N2  UNL     1       4.473   0.052  -0.058  1.00  0.00    -0.246 N 
ATOM     11  H2  UNL     1       4.190  -0.926   0.000  1.00  0.00     0.196 HD
BRANCH  10  12
HETATM   12  O2  UNL     1       5.803   0.301  -0.047  1.00  0.00    -0.288 OA
ATOM     13  H2  UNL     1       6.501  -0.341   0.009  1.00  0.00     0.244 HD
ENDBRANCH  10  12
ENDBRANCH   7  10
ENDBRANCH   6   7
BRANCH   4  14
HETATM   14  N1  UNL     1      -1.864   0.269  -0.204  1.00  0.00    -0.372 N 
HETATM   15  C5  UNL     1      -2.748  -0.849  -0.150  1.00  0.00     0.126 C 
HETATM   16  C6  UNL     1      -3.868  -0.323   0.751  1.00  0.00     0.058 C 
HETATM   17  C7  UNL     1      -4.003   1.100   0.208  1.00  0.00     0.189 C 
HETATM   18  F1  UNL     1      -4.923   1.026  -0.822  1.00  0.00    -0.248 F 
HETATM   19  C8  UNL     1      -2.629   1.473  -0.298  1.00  0.00     0.160 C 
ENDBRANCH   4  14
TORSDOF 5
