REMARK  6 active torsions:
REMARK  status: ('A' for Active; 'I' for Inactive)
REMARK    1  A    between atoms: N1_4  and  C4_5 
REMARK    2  A    between atoms: C4_5  and  C5_6 
REMARK    3  A    between atoms: C5_6  and  C6_7 
REMARK    4  A    between atoms: C6_7  and  N3_12 
REMARK    5  A    between atoms: N2_8  and  O1_10 
REMARK    6  A    between atoms: N4_17  and  C9_18 
ROOT
HETATM    1  C1  UNL     1      -2.170   1.308   1.380  1.00  0.00     0.038 C 
HETATM    2  C2  UNL     1      -1.944   0.803  -0.032  1.00  0.00     0.120 C 
HETATM    3  C3  UNL     1      -0.522   0.776  -0.425  1.00  0.00     0.088 C 
HETATM    4  N1  UNL     1       0.149  -0.424  -0.290  1.00  0.00    -0.370 N 
HETATM    5  C7  UNL     1      -0.492  -1.591   0.121  1.00  0.00     0.083 C 
HETATM    6  C8  UNL     1      -1.967  -1.672  -0.074  1.00  0.00     0.169 C 
HETATM    7  N4  UNL     1      -2.646  -0.435  -0.153  1.00  0.00    -0.356 N 
ENDROOT
BRANCH   4   8
HETATM    8  C4  UNL     1       1.518  -0.484  -0.591  1.00  0.00     0.134 C 
BRANCH   8   9
HETATM    9  C5  UNL     1       2.399   0.285   0.403  1.00  0.00     0.099 C 
BRANCH   9  10
HETATM   10  C6  UNL     1       3.814   0.148  -0.015  1.00  0.00     0.110 C 
HETATM   11  N2  UNL     1       4.581   1.146  -0.184  1.00  0.00    -0.240 N 
ATOM     12  H2  UNL     1       5.536   0.933  -0.473  1.00  0.00     0.197 HD
BRANCH  11  13
HETATM   13  O1  UNL     1       4.286   2.457  -0.028  1.00  0.00    -0.189 OA
HETATM   14  S1  UNL     1       3.243   3.337  -1.088  1.00  0.00     0.125 SA
ENDBRANCH  11  13
BRANCH  10  15
HETATM   15  N3  UNL     1       4.327  -1.160  -0.221  1.00  0.00    -0.308 N 
HETATM   16  S2  UNL     1       5.563  -1.833   0.833  1.00  0.00     0.043 SA
ATOM     17  H3  UNL     1       3.971  -1.720  -0.996  1.00  0.00     0.176 HD
ENDBRANCH  10  15
ENDBRANCH   9  10
ENDBRANCH   8   9
ENDBRANCH   4   8
BRANCH   7  18
HETATM   18  C9  UNL     1      -4.048  -0.404  -0.350  1.00  0.00     0.094 A 
HETATM   19  N5  UNL     1      -4.970  -0.670  -1.349  1.00  0.00    -0.371 N 
HETATM   20  C10 UNL     1      -5.471  -0.225  -0.104  1.00  0.00     0.197 A 
ATOM     21  H5  UNL     1      -5.156  -0.973  -2.305  1.00  0.00     0.161 HD
ENDBRANCH   7  18
TORSDOF 6
