REMARK  15 active torsions:
REMARK  status: ('A' for Active; 'I' for Inactive)
REMARK    1  A    between atoms: O1_2  and  C2_3 
REMARK    2  A    between atoms: C2_3  and  C3_4 
REMARK    3  A    between atoms: C3_4  and  O2_5 
REMARK    4  A    between atoms: O2_5  and  C4_6 
REMARK    5  A    between atoms: C4_6  and  C5_7 
REMARK    6  A    between atoms: C6_9  and  C7_10 
REMARK    7  A    between atoms: C7_10  and  C8_11 
REMARK    8  A    between atoms: C8_11  and  C9_12 
REMARK    9  A    between atoms: C9_12  and  O4_13 
REMARK   10  A    between atoms: C12_17  and  C13_18 
REMARK   11  A    between atoms: C15_20  and  O5_21 
REMARK   12  A    between atoms: C16_23  and  O6_24 
REMARK   13  A    between atoms: C17_27  and  O7_28 
REMARK   14  A    between atoms: C18_30  and  O8_31 
REMARK   15  A    between atoms: C19_33  and  O9_34 
ROOT
HETATM    1  C5  UNL     1      -2.881  -1.284   0.842  1.00  0.00     0.177 C 
HETATM    2  O3  UNL     1      -1.797  -1.213  -0.006  1.00  0.00    -0.373 OA
HETATM    3  C6  UNL     1      -0.724  -1.988   0.406  1.00  0.00     0.153 C 
HETATM    4  C17 UNL     1      -1.111  -3.436   0.186  1.00  0.00     0.178 C 
HETATM    5  C18 UNL     1      -2.525  -3.712   0.649  1.00  0.00     0.180 C 
HETATM    6  C19 UNL     1      -2.902  -2.616   1.608  1.00  0.00     0.180 C 
ENDROOT
BRANCH   3   7
HETATM    7  C7  UNL     1       0.519  -1.730  -0.412  1.00  0.00     0.037 C 
BRANCH   7   8
HETATM    8  C8  UNL     1       0.978  -0.299  -0.332  1.00  0.00     0.041 C 
BRANCH   8   9
HETATM    9  C9  UNL     1       2.206  -0.022  -1.135  1.00  0.00     0.066 C 
HETATM   10  C10 UNL     1       2.076  -0.088  -2.627  1.00  0.00     0.039 C 
HETATM   11  C11 UNL     1       3.095   1.037  -2.694  1.00  0.00     0.016 C 
HETATM   12  C12 UNL     1       2.620   1.395  -1.283  1.00  0.00     0.060 C 
BRANCH   9  13
HETATM   13  O4  UNL     1       3.300  -0.803  -0.719  1.00  0.00    -0.389 OA
ATOM     14  H4  UNL     1       4.081  -0.627  -1.230  1.00  0.00     0.210 HD
ENDBRANCH   9  13
BRANCH  12  15
HETATM   15  C13 UNL     1       3.832   1.778  -0.483  1.00  0.00    -0.005 A 
HETATM   16  C14 UNL     1       4.010   2.925   0.246  1.00  0.00     0.055 A 
HETATM   17  C15 UNL     1       5.183   3.066   0.891  1.00  0.00     0.107 A 
HETATM   18  C16 UNL     1       6.095   2.054   0.763  1.00  0.00     0.141 A 
HETATM   19  S1  UNL     1       5.294   0.942  -0.248  1.00  0.00    -0.067 SA
BRANCH  17  20
HETATM   20  O5  UNL     1       5.523   4.191   1.687  1.00  0.00    -0.357 OA
ATOM     21  H5  UNL     1       6.351   4.291   2.142  1.00  0.00     0.217 HD
ENDBRANCH  17  20
BRANCH  18  22
HETATM   22  O6  UNL     1       7.384   1.973   1.339  1.00  0.00    -0.352 OA
ATOM     23  H6  UNL     1       8.017   1.270   1.250  1.00  0.00     0.218 HD
ENDBRANCH  18  22
ENDBRANCH  12  15
ENDBRANCH   8   9
ENDBRANCH   7   8
ENDBRANCH   3   7
BRANCH   4  24
HETATM   24  O7  UNL     1      -0.240  -4.268   0.881  1.00  0.00    -0.390 OA
ATOM     25  H7  UNL     1      -0.483  -5.176   0.743  1.00  0.00     0.210 HD
ENDBRANCH   4  24
BRANCH   1  26
HETATM   26  C4  UNL     1      -2.740  -0.230   1.915  1.00  0.00     0.202 C 
BRANCH  26  27
HETATM   27  O2  UNL     1      -2.660   1.058   1.480  1.00  0.00    -0.386 OA
BRANCH  27  28
HETATM   28  C3  UNL     1      -3.773   1.467   0.767  1.00  0.00     0.193 C 
BRANCH  28  29
HETATM   29  C2  UNL     1      -3.637   2.904   0.331  1.00  0.00     0.193 C 
BRANCH  29  30
HETATM   30  O1  UNL     1      -2.553   3.156  -0.475  1.00  0.00    -0.394 OA
HETATM   31  C1  UNL     1      -2.593   2.422  -1.652  1.00  0.00     0.201 C 
ENDBRANCH  29  30
ENDBRANCH  28  29
ENDBRANCH  27  28
ENDBRANCH  26  27
ENDBRANCH   1  26
BRANCH   5  32
HETATM   32  O8  UNL     1      -3.331  -3.765  -0.462  1.00  0.00    -0.390 OA
ATOM     33  H8  UNL     1      -4.219  -3.938  -0.171  1.00  0.00     0.210 HD
ENDBRANCH   5  32
BRANCH   6  34
HETATM   34  O9  UNL     1      -4.212  -2.827   2.013  1.00  0.00    -0.390 OA
ATOM     35  H9  UNL     1      -4.225  -3.650   2.487  1.00  0.00     0.210 HD
ENDBRANCH   6  34
TORSDOF 15
