REMARK  4 active torsions:
REMARK  status: ('A' for Active; 'I' for Inactive)
REMARK    1  A    between atoms: C2_2  and  C3_3 
REMARK    2  A    between atoms: C3_3  and  N1_4 
REMARK    3  A    between atoms: N2_7  and  C6_8 
REMARK    4  A    between atoms: N5_20  and  C12_21 
ROOT
HETATM    1  C6  UNL     1       0.462   0.079   0.714  1.00  0.00     0.073 A 
HETATM    2  C7  UNL     1       0.221  -0.244   2.037  1.00  0.00     0.129 A 
HETATM    3 CL1  UNL     1       1.479  -0.297   3.260  1.00  0.00    -0.076 Cl
HETATM    4  C8  UNL     1      -1.090  -0.466   2.407  1.00  0.00     0.271 A 
HETATM    5  O1  UNL     1      -1.305  -0.764   3.617  1.00  0.00    -0.266 OA
HETATM    6  N3  UNL     1      -2.122  -0.378   1.539  1.00  0.00    -0.306 N 
ATOM      7  H3  UNL     1      -3.071  -0.552   1.869  1.00  0.00     0.170 HD
HETATM    8  C9  UNL     1      -1.918  -0.065   0.247  1.00  0.00     0.139 A 
HETATM    9  C10 UNL     1      -0.625   0.168  -0.188  1.00  0.00     0.055 A 
HETATM   10  C11 UNL     1      -0.714   0.438  -1.525  1.00  0.00     0.125 A 
HETATM   11  N4  UNL     1      -2.043   0.362  -1.845  1.00  0.00    -0.307 N 
ATOM     12  H4  UNL     1      -2.419   0.518  -2.780  1.00  0.00     0.186 HD
HETATM   13  N5  UNL     1      -2.775   0.061  -0.791  1.00  0.00    -0.271 N 
ENDROOT
BRANCH   1  14
HETATM   14  N2  UNL     1       1.780   0.217   0.260  1.00  0.00    -0.375 N 
HETATM   15  C5  UNL     1       2.907  -0.427   0.887  1.00  0.00     0.153 C 
HETATM   16  C4  UNL     1       3.910  -1.022  -0.124  1.00  0.00     0.292 C 
HETATM   17  N1  UNL     1       4.356  -0.163  -1.134  1.00  0.00     0.095 N 
HETATM   18  C18 UNL     1       3.166   0.354  -1.787  1.00  0.00     0.292 C 
HETATM   19  C17 UNL     1       2.295   1.076  -0.772  1.00  0.00     0.153 C 
BRANCH  17  20
HETATM   20  C3  UNL     1       5.326   0.823  -0.796  1.00  0.00     0.299 C 
BRANCH  20  21
HETATM   21  C2  UNL     1       6.638   0.201  -0.472  1.00  0.00    -0.007 C 
HETATM   22  C1  UNL     1       7.225   0.350   0.710  1.00  0.00     0.008 C 
ENDBRANCH  20  21
ENDBRANCH  17  20
ENDBRANCH   1  14
BRANCH  13  23
HETATM   23  C12 UNL     1      -4.239  -0.108  -0.742  1.00  0.00     0.114 C 
HETATM   24  C13 UNL     1      -4.917   0.974   0.042  1.00  0.00     0.053 C 
HETATM   25  C14 UNL     1      -6.416   0.834  -0.202  1.00  0.00     0.169 C 
HETATM   26  O2  UNL     1      -6.734  -0.457  -0.576  1.00  0.00    -0.391 OA
HETATM   27  C15 UNL     1      -6.062  -1.403   0.225  1.00  0.00     0.169 C 
HETATM   28  C16 UNL     1      -4.657  -1.489  -0.383  1.00  0.00     0.053 C 
ENDBRANCH  13  23
TORSDOF 4
