REMARK  7 active torsions:
REMARK  status: ('A' for Active; 'I' for Inactive)
REMARK    1  A    between atoms: C2_2  and  N1_3 
REMARK    2  A    between atoms: C4_5  and  C5_6 
REMARK    3  A    between atoms: C5_6  and  C6_7 
REMARK    4  A    between atoms: C6_7  and  O1_8 
REMARK    5  A    between atoms: C7_12  and  N3_13 
REMARK    6  A    between atoms: C10_16  and  O2_17 
REMARK    7  A    between atoms: C17_24  and  N4_25 
ROOT
HETATM    1  N1  UNL     1       2.674  -1.093  -0.549  1.00  0.00    -0.339 N 
HETATM    2  C3  UNL     1       3.270   0.121  -0.770  1.00  0.00     0.117 A 
HETATM    3  C4  UNL     1       2.523   1.246  -0.905  1.00  0.00     0.028 A 
HETATM    4  N2  UNL     1       1.207   1.140  -0.818  1.00  0.00    -0.342 N 
ATOM      5  H2  UNL     1       0.662   1.996  -0.923  1.00  0.00     0.167 HD
HETATM    6  C7  UNL     1       0.534   0.010  -0.605  1.00  0.00     0.149 A 
HETATM    7  C17 UNL     1       1.331  -1.165  -0.464  1.00  0.00     0.151 A 
ENDROOT
BRANCH   6   8
HETATM    8  N3  UNL     1      -0.860  -0.030  -0.524  1.00  0.00    -0.351 N 
HETATM    9  C8  UNL     1      -1.867  -0.745  -1.321  1.00  0.00     0.089 C 
HETATM   10  C9  UNL     1      -2.651  -1.441  -0.245  1.00  0.00     0.059 C 
HETATM   11  C16 UNL     1      -2.670   0.457  -1.809  1.00  0.00     0.036 C 
HETATM   12  C10 UNL     1      -2.447  -0.576   0.974  1.00  0.00     0.146 C 
HETATM   13  C12 UNL     1      -1.785   0.651   0.410  1.00  0.00     0.123 C 
HETATM   14  C13 UNL     1      -2.677   1.360  -0.579  1.00  0.00    -0.023 C 
HETATM   15  C14 UNL     1      -4.121   1.468  -0.076  1.00  0.00     0.017 C 
HETATM   16  C15 UNL     1      -2.257   2.751  -0.891  1.00  0.00     0.017 C 
BRANCH  12  17
HETATM   17  O2  UNL     1      -3.551  -0.364   1.729  1.00  0.00    -0.389 OA
HETATM   18  C11 UNL     1      -3.394  -0.815   3.043  1.00  0.00     0.202 C 
ENDBRANCH  12  17
ENDBRANCH   6   8
BRANCH   7  19
HETATM   19  N4  UNL     1       0.734  -2.215  -0.262  1.00  0.00    -0.359 N 
HETATM   20  C18 UNL     1       0.761  -3.562  -0.046  1.00  0.00     0.120 C 
ATOM     21  H4  UNL     1      -0.254  -1.962  -0.249  1.00  0.00     0.166 HD
ENDBRANCH   7  19
BRANCH   3  22
HETATM   22  C5  UNL     1       3.133   2.583  -1.146  1.00  0.00     0.084 C 
BRANCH  22  23
HETATM   23  C6  UNL     1       3.435   3.297   0.153  1.00  0.00     0.170 C 
BRANCH  23  24
HETATM   24  O1  UNL     1       4.315   2.599   0.955  1.00  0.00    -0.400 OA
ATOM     25  H1  UNL     1       4.505   3.047   1.771  1.00  0.00     0.209 HD
ENDBRANCH  23  24
ENDBRANCH  22  23
ENDBRANCH   3  22
BRANCH   1  26
HETATM   26  C2  UNL     1       3.584  -2.190  -0.429  1.00  0.00     0.126 C 
HETATM   27  C1  UNL     1       3.993  -2.388   1.033  1.00  0.00     0.027 C 
ENDBRANCH   1  26
TORSDOF 7
