REMARK  7 active torsions:
REMARK  status: ('A' for Active; 'I' for Inactive)
REMARK    1  A    between atoms: N1_2  and  C2_5 
REMARK    2  A    between atoms: C2_5  and  C3_6 
REMARK    3  A    between atoms: C3_6  and  C4_7 
REMARK    4  A    between atoms: C4_7  and  C5_8 
REMARK    5  A    between atoms: C5_8  and  N2_9 
REMARK    6  A    between atoms: N2_9  and  C6_11 
REMARK    7  A    between atoms: C8_15  and  N4_16 
ROOT
HETATM    1  C6  UNL     1       0.268   0.846  -0.380  1.00  0.00     0.117 C 
HETATM    2  C7  UNL     1      -0.063   2.168  -0.218  1.00  0.00     0.138 C 
HETATM    3  N3  UNL     1      -1.170   2.713   0.369  1.00  0.00    -0.349 N 
ATOM      4  H3  UNL     1      -1.059   3.615   0.833  1.00  0.00     0.167 HD
HETATM    5  C8  UNL     1      -2.412   2.147   0.384  1.00  0.00     0.106 C 
HETATM    6  C9  UNL     1      -2.775   0.832   0.095  1.00  0.00     0.008 C 
HETATM    7  C10 UNL     1      -1.904  -0.219  -0.100  1.00  0.00     0.021 C 
HETATM    8  N5  UNL     1      -0.586  -0.193  -0.451  1.00  0.00    -0.344 N 
ATOM      9  H5  UNL     1      -0.201  -1.066  -0.811  1.00  0.00     0.167 HD
HETATM   10  C11 UNL     1      -1.987  -1.673  -0.027  1.00  0.00     0.057 C 
HETATM   11  C12 UNL     1      -3.345  -2.262  -0.194  1.00  0.00     0.006 C 
HETATM   12  C13 UNL     1      -4.188  -1.578  -1.229  1.00  0.00     0.000 C 
HETATM   13  C14 UNL     1      -5.424  -0.967  -0.608  1.00  0.00     0.000 C 
HETATM   14  C15 UNL     1      -5.077  -0.034   0.530  1.00  0.00     0.005 C 
HETATM   15  C16 UNL     1      -4.210   1.095   0.105  1.00  0.00     0.044 C 
ENDROOT
BRANCH   1  16
HETATM   16  N2  UNL     1       1.518   0.557  -0.474  1.00  0.00    -0.375 N 
ATOM     17  H2  UNL     1       1.822  -0.409  -0.595  1.00  0.00     0.161 HD
BRANCH  16  18
HETATM   18  C5  UNL     1       2.478   1.627  -0.404  1.00  0.00     0.121 C 
BRANCH  18  19
HETATM   19  C4  UNL     1       3.902   1.106  -0.325  1.00  0.00     0.021 C 
BRANCH  19  20
HETATM   20  C3  UNL     1       4.001   0.254   0.930  1.00  0.00     0.029 C 
BRANCH  20  21
HETATM   21  C2  UNL     1       5.414  -0.304   1.070  1.00  0.00     0.231 C 
BRANCH  21  22
HETATM   22  N1  UNL     1       5.644  -1.109  -0.135  1.00  0.00    -0.079 N 
HETATM   23  C1  UNL     1       6.971  -1.657  -0.043  1.00  0.00     0.266 C 
ATOM     24  H12 UNL     1       5.488  -0.587  -0.997  1.00  0.00     0.276 HD
ATOM     25  H11 UNL     1       4.929  -1.822  -0.279  1.00  0.00     0.276 HD
ENDBRANCH  21  22
ENDBRANCH  20  21
ENDBRANCH  19  20
ENDBRANCH  18  19
ENDBRANCH  16  18
ENDBRANCH   1  16
BRANCH   5  26
HETATM   26  N4  UNL     1      -3.408   2.905   0.705  1.00  0.00    -0.385 N 
ATOM     27  H42 UNL     1      -3.142   3.867   0.916  1.00  0.00     0.157 HD
ATOM     28  H41 UNL     1      -4.336   2.482   0.716  1.00  0.00     0.157 HD
ENDBRANCH   5  26
TORSDOF 7
