REMARK  6 active torsions:
REMARK  status: ('A' for Active; 'I' for Inactive)
REMARK    1  A    between atoms: O1_2  and  C2_3 
REMARK    2  A    between atoms: C2_3  and  C3_5 
REMARK    3  A    between atoms: C3_5  and  C4_6 
REMARK    4  A    between atoms: C4_6  and  C5_7 
REMARK    5  A    between atoms: C5_7  and  C6_8 
REMARK    6  A    between atoms: C6_8  and  C7_9 
ROOT
HETATM    1  C7  UNL     1      -0.339  -0.285  -0.119  1.00  0.00     0.123 C 
HETATM    2  C8  UNL     1      -0.924   1.040   0.157  1.00  0.00     0.058 C 
HETATM    3  C9  UNL     1      -0.978   1.207   1.685  1.00  0.00     0.170 C 
HETATM    4  O3  UNL     1      -2.194   1.739   2.102  1.00  0.00    -0.389 OA
HETATM    5  C10 UNL     1      -3.225   0.802   2.022  1.00  0.00     0.193 C 
HETATM    6  C11 UNL     1      -4.432   1.360   1.353  1.00  0.00     0.193 C 
HETATM    7  O4  UNL     1      -4.819   0.746   0.197  1.00  0.00    -0.387 OA
HETATM    8  C12 UNL     1      -4.936  -0.610   0.220  1.00  0.00     0.193 C 
HETATM    9  C13 UNL     1      -4.479  -1.185  -1.118  1.00  0.00     0.193 C 
HETATM   10  O5  UNL     1      -3.096  -1.278  -1.218  1.00  0.00    -0.387 OA
HETATM   11  C14 UNL     1      -2.683  -0.482  -2.262  1.00  0.00     0.193 C 
HETATM   12  C15 UNL     1      -1.225  -0.150  -2.284  1.00  0.00     0.194 C 
HETATM   13  O6  UNL     1      -0.440  -0.787  -1.379  1.00  0.00    -0.384 OA
ENDROOT
BRANCH   1  14
HETATM   14  C6  UNL     1       1.106  -0.302   0.303  1.00  0.00     0.032 C 
BRANCH  14  15
HETATM   15  C5  UNL     1       1.982   0.686  -0.384  1.00  0.00     0.003 C 
BRANCH  15  16
HETATM   16  C4  UNL     1       3.422   0.612   0.073  1.00  0.00     0.010 C 
BRANCH  16  17
HETATM   17  C3  UNL     1       4.052  -0.735  -0.179  1.00  0.00     0.111 C 
BRANCH  17  18
HETATM   18  C2  UNL     1       5.461  -0.651   0.317  1.00  0.00     0.258 C 
HETATM   19  O2  UNL     1       5.698  -0.794   1.560  1.00  0.00    -0.265 OA
BRANCH  18  20
HETATM   20  O1  UNL     1       6.540  -0.422  -0.511  1.00  0.00    -0.326 OA
HETATM   21  C1  UNL     1       7.843  -0.355   0.033  1.00  0.00     0.213 C 
ENDBRANCH  18  20
ENDBRANCH  17  18
ENDBRANCH  16  17
ENDBRANCH  15  16
ENDBRANCH  14  15
ENDBRANCH   1  14
TORSDOF 6
