REMARK  8 active torsions:
REMARK  status: ('A' for Active; 'I' for Inactive)
REMARK       I    between atoms: C2_5  and  N3_6 
REMARK       I    between atoms: C2_5  and  N5_11 
REMARK    1  A    between atoms: N3_6  and  N4_8 
REMARK    2  A    between atoms: N5_11  and  N6_13 
REMARK    3  A    between atoms: C3_15  and  C4_16 
REMARK    4  A    between atoms: C3_15  and  C11_30 
REMARK    5  A    between atoms: C4_16  and  S1_17 
REMARK    6  A    between atoms: S1_17  and  C5_18 
REMARK    7  A    between atoms: C8_21  and  S2_22 
REMARK    8  A    between atoms: S2_22  and  N7_23 
ROOT
HETATM    1  N1  UNL     1      -2.245   3.796   1.984  1.00  0.00    -0.171 NA
HETATM    2  C1  UNL     1      -3.028   3.389   1.235  1.00  0.00     0.196 C 
HETATM    3  N2  UNL     1      -3.988   2.911   0.346  1.00  0.00    -0.123 N 
ATOM      4  H2  UNL     1      -4.496   3.547  -0.268  1.00  0.00     0.197 HD
HETATM    5  C2  UNL     1      -4.217   1.640   0.320  1.00  0.00     0.720 C 
HETATM    6  N3  UNL     1      -5.191   1.173  -0.585  1.00  0.00    -0.137 N 
ATOM      7  H3  UNL     1      -4.959   1.058  -1.571  1.00  0.00     0.205 HD
HETATM    8  N5  UNL     1      -3.507   0.726   1.180  1.00  0.00    -0.130 N 
ATOM      9  H5  UNL     1      -3.973   0.244   1.949  1.00  0.00     0.205 HD
ENDROOT
BRANCH   6  10
HETATM   10  N4  UNL     1      -6.463   0.871  -0.133  1.00  0.00    -0.331 N 
ATOM     11  H42 UNL     1      -6.679   0.992   0.856  1.00  0.00     0.177 HD
ATOM     12  H41 UNL     1      -7.168   0.533  -0.788  1.00  0.00     0.177 HD
ENDBRANCH   6  10
BRANCH   8  13
HETATM   13  N6  UNL     1      -2.167   0.534   0.914  1.00  0.00    -0.288 N 
HETATM   14  C3  UNL     1      -1.597  -0.567   0.588  1.00  0.00     0.062 C 
ATOM     15  H6  UNL     1      -1.566   1.355   0.984  1.00  0.00     0.187 HD
BRANCH  14  16
HETATM   16  C4  UNL     1      -0.133  -0.549   0.345  1.00  0.00     0.140 C 
BRANCH  16  17
HETATM   17  S1  UNL     1       0.546   1.110   0.579  1.00  0.00    -0.124 SA
BRANCH  17  18
HETATM   18  C5  UNL     1       2.316   1.029   0.263  1.00  0.00     0.001 A 
HETATM   19  C6  UNL     1       2.933  -0.150  -0.089  1.00  0.00     0.020 A 
HETATM   20  C7  UNL     1       4.286  -0.178  -0.324  1.00  0.00     0.026 A 
HETATM   21  C8  UNL     1       5.054   0.958  -0.216  1.00  0.00     0.079 A 
HETATM   22  C9  UNL     1       4.446   2.127   0.133  1.00  0.00     0.026 A 
HETATM   23  C10 UNL     1       3.089   2.171   0.372  1.00  0.00     0.020 A 
BRANCH  21  24
HETATM   24  S2  UNL     1       6.764   0.816  -0.535  1.00  0.00     0.256 S 
HETATM   25  O1  UNL     1       7.468   1.846   0.318  1.00  0.00    -0.201 OA
HETATM   26  O2  UNL     1       7.203  -0.572  -0.157  1.00  0.00    -0.201 OA
BRANCH  24  27
HETATM   27  N7  UNL     1       7.152   1.081  -2.173  1.00  0.00    -0.324 N 
ATOM     28  H72 UNL     1       6.449   1.298  -2.879  1.00  0.00     0.169 HD
ATOM     29  H71 UNL     1       8.151   0.998  -2.359  1.00  0.00     0.169 HD
ENDBRANCH  24  27
ENDBRANCH  21  24
ENDBRANCH  17  18
ENDBRANCH  16  17
ENDBRANCH  14  16
BRANCH  14  30
HETATM   30  C11 UNL     1      -2.309  -1.845   0.441  1.00  0.00     0.059 A 
HETATM   31  C12 UNL     1      -1.642  -2.998   0.088  1.00  0.00     0.048 A 
HETATM   32  C13 UNL     1      -2.289  -4.206  -0.056  1.00  0.00     0.091 A 
HETATM   33  N8  UNL     1      -3.615  -4.252   0.158  1.00  0.00    -0.362 N 
HETATM   34  C14 UNL     1      -4.265  -3.125   0.503  1.00  0.00     0.180 A 
ATOM     35  H8  UNL     1      -4.123  -5.131   0.060  1.00  0.00     0.165 HD
HETATM   36  N9  UNL     1      -3.633  -1.947   0.642  1.00  0.00    -0.351 N 
ATOM     37  H9  UNL     1      -4.167  -1.118   0.904  1.00  0.00     0.166 HD
ENDBRANCH  14  30
ENDBRANCH   8  13
TORSDOF 8
