REMARK  11 active torsions:
REMARK  status: ('A' for Active; 'I' for Inactive)
REMARK    1  A    between atoms: N1_1  and  C1_5 
REMARK    2  A    between atoms: C1_5  and  C2_6 
REMARK    3  A    between atoms: C2_6  and  N2_7 
REMARK    4  A    between atoms: N2_7  and  C3_9 
REMARK    5  A    between atoms: C6_14  and  N4_15 
REMARK    6  A    between atoms: N4_15  and  C7_17 
REMARK    7  A    between atoms: C7_17  and  C8_18 
REMARK    8  A    between atoms: C8_18  and  C9_19 
REMARK    9  A    between atoms: C9_19  and  C10_20 
REMARK   10  A    between atoms: C10_20  and  C11_21 
REMARK   11  A    between atoms: C11_21  and  N5_22 
ROOT
HETATM    1  C3  UNL     1       4.551   0.566   0.144  1.00  0.00     0.118 A 
HETATM    2  C4  UNL     1       5.013   1.827   0.407  1.00  0.00     0.066 A 
HETATM    3  C5  UNL     1       4.113   2.864   0.464  1.00  0.00     0.110 A 
HETATM    4  N3  UNL     1       2.796   2.629   0.262  1.00  0.00    -0.202 N 
ATOM      5  H3  UNL     1       2.124   3.395   0.304  1.00  0.00     0.183 HD
HETATM    6  C6  UNL     1       2.381   1.377   0.006  1.00  0.00     0.679 A 
HETATM    7  N7  UNL     1       3.240   0.322  -0.059  1.00  0.00    -0.177 N 
ATOM      8  H7  UNL     1       2.903  -0.621  -0.255  1.00  0.00     0.185 HD
ENDROOT
BRANCH   6   9
HETATM    9  N4  UNL     1       1.145   1.134  -0.187  1.00  0.00    -0.226 N 
ATOM     10  H4  UNL     1       0.843   0.179  -0.380  1.00  0.00     0.177 HD
BRANCH   9  11
HETATM   11  C7  UNL     1       0.175   2.186  -0.136  1.00  0.00     0.138 C 
BRANCH  11  12
HETATM   12  C8  UNL     1      -1.234   1.684  -0.316  1.00  0.00     0.020 C 
BRANCH  12  13
HETATM   13  C9  UNL     1      -1.539   0.710   0.778  1.00  0.00     0.003 C 
BRANCH  13  14
HETATM   14  C10 UNL     1      -2.933   0.139   0.698  1.00  0.00     0.020 C 
BRANCH  14  15
HETATM   15  C11 UNL     1      -3.141  -0.595  -0.606  1.00  0.00     0.127 C 
BRANCH  15  16
HETATM   16  N5  UNL     1      -4.450  -1.158  -0.733  1.00  0.00    -0.334 N 
HETATM   17  C12 UNL     1      -5.582  -0.440  -1.325  1.00  0.00     0.129 C 
HETATM   18  C13 UNL     1      -6.777  -0.502  -0.436  1.00  0.00     0.040 C 
HETATM   19  C14 UNL     1      -7.020  -1.799   0.249  1.00  0.00     0.126 C 
HETATM   20  N6  UNL     1      -6.064  -2.837  -0.030  1.00  0.00    -0.343 N 
HETATM   21  C15 UNL     1      -4.720  -2.472  -0.282  1.00  0.00     0.318 C 
ATOM     22  H6  UNL     1      -6.349  -3.816  -0.046  1.00  0.00     0.164 HD
HETATM   23  O1  UNL     1      -3.752  -3.256  -0.125  1.00  0.00    -0.247 OA
ENDBRANCH  15  16
ENDBRANCH  14  15
ENDBRANCH  13  14
ENDBRANCH  12  13
ENDBRANCH  11  12
ENDBRANCH   9  11
ENDBRANCH   6   9
BRANCH   1  24
HETATM   24  N2  UNL     1       5.357  -0.415   0.085  1.00  0.00    -0.374 N 
ATOM     25  H2  UNL     1       4.974  -1.339  -0.113  1.00  0.00     0.161 HD
BRANCH  24  26
HETATM   26  C2  UNL     1       6.789  -0.299   0.282  1.00  0.00     0.148 C 
BRANCH  26  27
HETATM   27  C1  UNL     1       7.447  -1.644   0.076  1.00  0.00     0.249 C 
BRANCH  27  28
HETATM   28  N1  UNL     1       7.230  -2.167  -1.240  1.00  0.00    -0.078 N 
ATOM     29  H13 UNL     1       6.235  -2.209  -1.458  1.00  0.00     0.274 HD
ATOM     30  H12 UNL     1       7.527  -1.501  -1.953  1.00  0.00     0.274 HD
ATOM     31  H11 UNL     1       7.674  -3.075  -1.379  1.00  0.00     0.274 HD
ENDBRANCH  27  28
ENDBRANCH  26  27
ENDBRANCH  24  26
ENDBRANCH   1  24
TORSDOF 11
