REMARK  11 active torsions:
REMARK  status: ('A' for Active; 'I' for Inactive)
REMARK    1  A    between atoms: O1_2  and  C2_3 
REMARK    2  A    between atoms: C4_5  and  N1_6 
REMARK    3  A    between atoms: C7_11  and  N2_12 
REMARK    4  A    between atoms: N2_12  and  C8_14 
REMARK    5  A    between atoms: C9_17  and  N4_18 
REMARK    6  A    between atoms: C10_23  and  N6_24 
REMARK    7  A    between atoms: N7_27  and  N8_28 
REMARK    8  A    between atoms: C11_30  and  C12_31 
REMARK    9  A    between atoms: C12_31  and  C13_32 
REMARK   10  A    between atoms: C12_31  and  N12_42 
REMARK   11  A    between atoms: C14_38  and  N11_39 
ROOT
HETATM    1  C8  UNL     1      -0.744  -1.010  -0.175  1.00  0.00     0.733 A 
HETATM    2  N3  UNL     1      -1.599  -1.641  -0.996  1.00  0.00    -0.020 N 
ATOM      3  H3  UNL     1      -2.591  -1.407  -0.967  1.00  0.00     0.203 HD
HETATM    4  C9  UNL     1      -1.155  -2.593  -1.870  1.00  0.00     0.705 A 
HETATM    5  N5  UNL     1       0.154  -2.898  -1.906  1.00  0.00    -0.020 N 
ATOM      6  H5  UNL     1       0.499  -3.606  -2.554  1.00  0.00     0.203 HD
HETATM    7  C10 UNL     1       1.005  -2.262  -1.081  1.00  0.00     0.726 A 
HETATM    8  N7  UNL     1       0.563  -1.314  -0.210  1.00  0.00     0.090 N 
ENDROOT
BRANCH   8   9
HETATM    9  N8  UNL     1       1.522  -0.712   0.604  1.00  0.00    -0.277 N 
HETATM   10  C11 UNL     1       2.560  -0.107   0.192  1.00  0.00     0.120 C 
ATOM     11  H8  UNL     1       1.378  -0.762   1.613  1.00  0.00     0.187 HD
BRANCH  10  12
HETATM   12  C12 UNL     1       3.521   0.502   1.140  1.00  0.00     0.251 C 
BRANCH  12  13
HETATM   13  C13 UNL     1       4.832  -0.187   1.176  1.00  0.00     0.113 A 
HETATM   14  N9  UNL     1       5.557  -0.541   2.250  1.00  0.00    -0.239 N 
HETATM   15  O4  UNL     1       6.641  -1.122   1.881  1.00  0.00    -0.155 OA
ATOM     16  H9  UNL     1       5.286  -0.373   3.219  1.00  0.00     0.196 HD
HETATM   17  N10 UNL     1       6.690  -1.181   0.602  1.00  0.00    -0.224 N 
HETATM   18  C14 UNL     1       5.589  -0.614   0.094  1.00  0.00     0.148 A 
ATOM     19  H10 UNL     1       7.447  -1.594   0.058  1.00  0.00     0.198 HD
BRANCH  18  20
HETATM   20  N11 UNL     1       5.309  -0.498  -1.143  1.00  0.00    -0.382 N 
ATOM     21 2H11 UNL     1       4.470  -0.066  -1.530  1.00  0.00     0.157 HD
ATOM     22 1H11 UNL     1       5.865  -0.812  -1.938  1.00  0.00     0.157 HD
ENDBRANCH  18  20
ENDBRANCH  12  13
BRANCH  12  23
HETATM   23  N12 UNL     1       3.689   1.923   0.898  1.00  0.00    -0.139 N 
HETATM   24  O5  UNL     1       4.816   2.346   0.614  1.00  0.00    -0.536 OA
HETATM   25  O6  UNL     1       2.657   2.816   0.969  1.00  0.00    -0.536 OA
ENDBRANCH  12  23
ENDBRANCH  10  12
ENDBRANCH   8   9
BRANCH   1  26
HETATM   26  N2  UNL     1      -1.150  -0.130   0.635  1.00  0.00    -0.186 N 
ATOM     27  H2  UNL     1      -0.432   0.298   1.220  1.00  0.00     0.184 HD
BRANCH  26  28
HETATM   28  C7  UNL     1      -2.454   0.335   0.836  1.00  0.00     0.082 A 
HETATM   29  C2  UNL     1      -2.869   1.487   0.202  1.00  0.00     0.097 A 
HETATM   30  C3  UNL     1      -4.154   1.989   0.370  1.00  0.00     0.075 A 
HETATM   31  C4  UNL     1      -5.067   1.337   1.191  1.00  0.00     0.105 A 
HETATM   32  C5  UNL     1      -4.633   0.188   1.816  1.00  0.00     0.038 A 
HETATM   33  C6  UNL     1      -3.349  -0.323   1.654  1.00  0.00     0.035 A 
BRANCH  29  34
HETATM   34  O1  UNL     1      -1.952   2.131  -0.616  1.00  0.00    -0.354 OA
HETATM   35  C1  UNL     1      -2.374   3.312  -1.268  1.00  0.00     0.210 C 
ENDBRANCH  29  34
BRANCH  31  36
HETATM   36  N1  UNL     1      -6.386   1.827   1.383  1.00  0.00    -0.116 N 
HETATM   37  O2  UNL     1      -6.830   2.856   0.848  1.00  0.00    -0.532 OA
HETATM   38  O3  UNL     1      -7.220   1.121   2.208  1.00  0.00    -0.532 OA
ENDBRANCH  31  36
ENDBRANCH  26  28
ENDBRANCH   1  26
BRANCH   7  39
HETATM   39  N6  UNL     1       2.253  -2.578  -1.140  1.00  0.00    -0.232 N 
ATOM     40  H62 UNL     1       2.584  -3.288  -1.793  1.00  0.00     0.174 HD
ATOM     41  H61 UNL     1       2.898  -2.096  -0.514  1.00  0.00     0.174 HD
ENDBRANCH   7  39
BRANCH   4  42
HETATM   42  N4  UNL     1      -1.945  -3.218  -2.672  1.00  0.00    -0.234 N 
ATOM     43  H42 UNL     1      -2.938  -2.987  -2.645  1.00  0.00     0.174 HD
ATOM     44  H41 UNL     1      -1.614  -3.929  -3.324  1.00  0.00     0.174 HD
ENDBRANCH   4  42
TORSDOF 11
