REMARK  4 active torsions:
REMARK  status: ('A' for Active; 'I' for Inactive)
REMARK       I    between atoms: C1_2  and  N1_3 
REMARK    1  A    between atoms: C1_2  and  C8_11 
REMARK    2  A    between atoms: N1_3  and  C2_5 
REMARK    3  A    between atoms: C10_13  and  N2_14 
REMARK    4  A    between atoms: C18_23  and  N3_24 
ROOT
HETATM    1  C8  UNL     1       0.358  -0.245  -0.397  1.00  0.00     0.036 A 
HETATM    2  C9  UNL     1      -0.856  -0.018   0.216  1.00  0.00     0.049 A 
HETATM    3  C10 UNL     1      -2.000  -0.447  -0.420  1.00  0.00     0.072 A 
HETATM    4  C17 UNL     1      -1.973  -1.090  -1.639  1.00  0.00     0.175 A 
HETATM    5  F1  UNL     1      -3.109  -1.503  -2.246  1.00  0.00    -0.201 F 
HETATM    6  C18 UNL     1      -0.757  -1.314  -2.246  1.00  0.00     0.144 A 
HETATM    7  C19 UNL     1       0.419  -0.883  -1.609  1.00  0.00     0.056 A 
ENDROOT
BRANCH   1   8
HETATM    8  C1  UNL     1       1.558   0.207   0.287  1.00  0.00     0.252 C 
HETATM    9  O1  UNL     1       1.481   0.722   1.460  1.00  0.00    -0.268 OA
HETATM   10  N1  UNL     1       2.865   0.124  -0.257  1.00  0.00    -0.352 N 
ATOM     11  H1  UNL     1       2.996  -0.274  -1.187  1.00  0.00     0.163 HD
BRANCH  10  12
HETATM   12  C2  UNL     1       4.025   0.598   0.490  1.00  0.00     0.084 C 
HETATM   13  C3  UNL     1       4.706   1.760  -0.198  1.00  0.00     0.025 C 
HETATM   14  C4  UNL     1       5.728   1.175  -1.144  1.00  0.00     0.002 C 
HETATM   15  C5  UNL     1       6.915   0.681  -0.338  1.00  0.00     0.000 C 
HETATM   16  C6  UNL     1       6.406  -0.159   0.801  1.00  0.00     0.002 C 
HETATM   17  C7  UNL     1       4.964  -0.562   0.612  1.00  0.00     0.025 C 
ENDBRANCH  10  12
ENDBRANCH   1   8
BRANCH   3  18
HETATM   18  N2  UNL     1      -3.283  -0.240   0.167  1.00  0.00    -0.378 N 
HETATM   19  C11 UNL     1      -4.100  -1.396   0.483  1.00  0.00     0.123 C 
HETATM   20  C12 UNL     1      -5.480  -1.154  -0.047  1.00  0.00     0.020 C 
HETATM   21  C13 UNL     1      -6.279  -0.476   1.058  1.00  0.00     0.002 C 
HETATM   22  C14 UNL     1      -6.027   1.019   1.075  1.00  0.00     0.002 C 
HETATM   23  C15 UNL     1      -4.620   1.346   1.500  1.00  0.00     0.020 C 
HETATM   24  C16 UNL     1      -3.623   1.153   0.381  1.00  0.00     0.123 C 
ENDBRANCH   3  18
BRANCH   6  25
HETATM   25  N3  UNL     1      -0.709  -1.974  -3.498  1.00  0.00    -0.112 N 
HETATM   26  O2  UNL     1      -1.620  -1.856  -4.322  1.00  0.00    -0.532 OA
HETATM   27  O3  UNL     1       0.368  -2.758  -3.802  1.00  0.00    -0.532 OA
ENDBRANCH   6  25
TORSDOF 4
