REMARK  3 active torsions:
REMARK  status: ('A' for Active; 'I' for Inactive)
REMARK    1  A    between atoms: C2_2  and  N1_3 
REMARK    2  A    between atoms: N2_8  and  C6_9 
REMARK    3  A    between atoms: C9_14  and  N4_15 
ROOT
HETATM    1  C6  UNL     1       2.094   0.039   0.221  1.00  0.00     0.122 A 
HETATM    2  C7  UNL     1       2.842  -0.594   1.187  1.00  0.00     0.066 A 
HETATM    3  C8  UNL     1       4.174  -0.235   1.323  1.00  0.00     0.110 A 
HETATM    4  N3  UNL     1       4.705   0.710   0.524  1.00  0.00    -0.202 N 
ATOM      5  H3  UNL     1       5.687   0.960   0.641  1.00  0.00     0.183 HD
HETATM    6  C9  UNL     1       3.982   1.336  -0.424  1.00  0.00     0.677 A 
HETATM    7  N5  UNL     1       2.700   0.994  -0.558  1.00  0.00    -0.177 N 
ATOM      8  H5  UNL     1       2.144   1.464  -1.272  1.00  0.00     0.185 HD
ENDROOT
BRANCH   1   9
HETATM    9  N2  UNL     1       0.737  -0.284   0.022  1.00  0.00    -0.331 N 
HETATM   10  C5  UNL     1       0.232  -1.378   0.779  1.00  0.00     0.277 C 
HETATM   11  C4  UNL     1      -1.009  -1.996   0.177  1.00  0.00     0.104 C 
HETATM   12  F1  UNL     1      -0.004  -1.082   2.086  1.00  0.00    -0.226 F 
HETATM   13  C3  UNL     1      -2.231  -1.157   0.266  1.00  0.00     0.067 C 
HETATM   14  N1  UNL     1      -2.243   0.045  -0.447  1.00  0.00    -0.372 N 
HETATM   15  C11 UNL     1      -1.236   0.994  -0.238  1.00  0.00     0.083 C 
HETATM   16  C10 UNL     1       0.035   0.553  -0.935  1.00  0.00     0.172 C 
BRANCH  14  17
HETATM   17  C2  UNL     1      -3.374   0.384  -1.203  1.00  0.00     0.122 C 
HETATM   18  C1  UNL     1      -4.528   0.673  -0.235  1.00  0.00     0.027 C 
ENDBRANCH  14  17
ENDBRANCH   1   9
BRANCH   6  19
HETATM   19  N4  UNL     1       4.548   2.234  -1.160  1.00  0.00    -0.234 N 
ATOM     20  H42 UNL     1       5.529   2.496  -1.058  1.00  0.00     0.174 HD
ATOM     21  H41 UNL     1       4.000   2.708  -1.878  1.00  0.00     0.174 HD
ENDBRANCH   6  19
TORSDOF 3
