REMARK  6 active torsions:
REMARK  status: ('A' for Active; 'I' for Inactive)
REMARK    1  A    between atoms: C2_2  and  O1_3 
REMARK    2  A    between atoms: C2_2  and  C3_5 
REMARK    3  A    between atoms: C2_2  and  C10_17 
REMARK    4  A    between atoms: C3_5  and  N1_6 
REMARK    5  A    between atoms: C6_9  and  C7_10 
REMARK    6  A    between atoms: C7_10  and  N2_11 
ROOT
HETATM    1  N1  UNL     1       0.908   0.241  -0.418  1.00  0.00     0.091 N 
HETATM    2  C4  UNL     1       1.365  -0.034   0.877  1.00  0.00     0.273 C 
HETATM    3  C5  UNL     1       2.705  -0.654   1.034  1.00  0.00     0.036 C 
HETATM    4  C6  UNL     1       3.659  -0.543  -0.084  1.00  0.00     0.014 C 
HETATM    5  C8  UNL     1       3.151   0.396  -1.158  1.00  0.00     0.036 C 
HETATM    6  C9  UNL     1       1.767  -0.106  -1.504  1.00  0.00     0.273 C 
ENDROOT
BRANCH   1   7
HETATM    7  C3  UNL     1      -0.425  -0.129  -0.752  1.00  0.00     0.310 C 
BRANCH   7   8
HETATM    8  C2  UNL     1      -1.509   0.653  -0.062  1.00  0.00     0.084 C 
HETATM    9  C1  UNL     1      -1.412   2.128  -0.397  1.00  0.00     0.048 C 
BRANCH   8  10
HETATM   10  O1  UNL     1      -1.475   0.546   1.325  1.00  0.00    -0.388 OA
ATOM     11  H1  UNL     1      -1.536  -0.379   1.535  1.00  0.00     0.210 HD
ENDBRANCH   8  10
BRANCH   8  12
HETATM   12  C10 UNL     1      -2.827   0.174  -0.634  1.00  0.00     0.021 C 
HETATM   13  C11 UNL     1      -3.999   0.920  -0.038  1.00  0.00     0.007 C 
HETATM   14  C12 UNL     1      -5.118  -0.113  -0.239  1.00  0.00     0.000 C 
HETATM   15  C13 UNL     1      -4.417  -1.349   0.280  1.00  0.00     0.000 C 
HETATM   16  C14 UNL     1      -3.085  -1.278  -0.469  1.00  0.00     0.007 C 
ENDBRANCH   8  12
ENDBRANCH   7   8
ENDBRANCH   1   7
BRANCH   4  17
HETATM   17  C7  UNL     1       5.048  -0.087   0.270  1.00  0.00     0.234 C 
BRANCH  17  18
HETATM   18  N2  UNL     1       5.737  -0.922   1.187  1.00  0.00    -0.079 N 
ATOM     19  H23 UNL     1       5.182  -1.050   2.033  1.00  0.00     0.274 HD
ATOM     20  H22 UNL     1       5.758  -1.882   0.842  1.00  0.00     0.274 HD
ATOM     21  H21 UNL     1       6.679  -0.613   1.427  1.00  0.00     0.274 HD
ENDBRANCH  17  18
ENDBRANCH   4  17
TORSDOF 6
