REMARK  4 active torsions:
REMARK  status: ('A' for Active; 'I' for Inactive)
REMARK    1  A    between atoms: C2_2  and  C3_3 
REMARK    2  A    between atoms: C4_4  and  C5_5 
REMARK    3  A    between atoms: C9_9  and  C10_10 
REMARK    4  A    between atoms: C17_17  and  O1_18 
ROOT
HETATM    1  C10 UNL     1      -1.327  -0.307   0.287  1.00  0.00    -0.005 C 
HETATM    2  C11 UNL     1      -1.267  -1.809  -0.004  1.00  0.00     0.013 C 
HETATM    3  C12 UNL     1      -1.778  -1.981  -1.403  1.00  0.00     0.001 C 
HETATM    4  C13 UNL     1      -1.305  -0.698  -2.065  1.00  0.00     0.005 C 
HETATM    5  C14 UNL     1      -1.692   0.328  -0.989  1.00  0.00    -0.003 C 
HETATM    6  C15 UNL     1      -3.126   0.652  -1.194  1.00  0.00     0.008 C 
HETATM    7  C16 UNL     1      -3.866   1.065   0.028  1.00  0.00     0.032 C 
HETATM    8  C17 UNL     1      -3.715  -0.068   1.031  1.00  0.00     0.119 C 
HETATM    9  C18 UNL     1      -2.267  -0.109   1.420  1.00  0.00     0.044 C 
ENDROOT
BRANCH   1  10
HETATM   10  C9  UNL     1       0.044   0.097   0.791  1.00  0.00     0.155 C 
HETATM   11  C8  UNL     1       0.140   1.528   1.114  1.00  0.00     0.005 C 
HETATM   12  C7  UNL     1       1.404   1.892   0.920  1.00  0.00     0.013 C 
HETATM   13  C5  UNL     1       2.094   0.644   0.466  1.00  0.00     0.094 C 
HETATM   14  C6  UNL     1       2.635  -0.144   1.629  1.00  0.00     0.055 C 
HETATM   15  O2  UNL     1       1.041  -0.088  -0.133  1.00  0.00    -0.363 OA
BRANCH  13  16
HETATM   16  C4  UNL     1       3.171   0.943  -0.484  1.00  0.00     0.014 C 
HETATM   17  C3  UNL     1       4.189   0.096  -0.667  1.00  0.00    -0.002 C 
BRANCH  17  18
HETATM   18  C2  UNL     1       5.244   0.401  -1.605  1.00  0.00    -0.010 C 
HETATM   19  C1  UNL     1       6.241  -0.436  -1.777  1.00  0.00     0.011 C 
ENDBRANCH  17  18
ENDBRANCH  13  16
ENDBRANCH   1  10
BRANCH   8  20
HETATM   20  O1  UNL     1      -4.453   0.280   2.161  1.00  0.00    -0.396 OA
ATOM     21  H1  UNL     1      -4.359  -0.428   2.788  1.00  0.00     0.210 HD
ENDBRANCH   8  20
TORSDOF 4
