REMARK  20 active torsions:
REMARK  status: ('A' for Active; 'I' for Inactive)
REMARK    1  A    between atoms: C2_2  and  C3_3 
REMARK    2  A    between atoms: C5_5  and  C6_6 
REMARK    3  A    between atoms: C6_6  and  C7_7 
REMARK    4  A    between atoms: C8_8  and  C9_9 
REMARK    5  A    between atoms: C9_9  and  O1_10 
REMARK    6  A    between atoms: C9_9  and  N1_12 
REMARK    7  A    between atoms: N1_12  and  C10_14 
REMARK    8  A    between atoms: C10_14  and  C11_15 
REMARK    9  A    between atoms: C10_14  and  C15_23 
REMARK   10  A    between atoms: C11_15  and  C12_16 
REMARK       I    between atoms: C15_23  and  N4_25 
REMARK   11  A    between atoms: N4_25  and  C17_27 
REMARK   12  A    between atoms: C22_32  and  O3_33 
REMARK   13  A    between atoms: C23_35  and  O4_36 
REMARK   14  A    between atoms: C25_39  and  C27_41 
REMARK   15  A    between atoms: C27_41  and  C28_42 
REMARK   16  A    between atoms: C28_42  and  C29_43 
REMARK   17  A    between atoms: C29_43  and  C30_44 
REMARK   18  A    between atoms: C30_44  and  C31_45 
REMARK   19  A    between atoms: C31_45  and  C32_46 
REMARK   20  A    between atoms: C32_46  and  C33_47 
REMARK       I    between atoms: C33_47  and  N5_49 
ROOT
HETATM    1  C7  UNL     1      -0.481   2.493  -0.372  1.00  0.00     0.014 A 
HETATM    2  C8  UNL     1      -0.802   1.513  -1.475  1.00  0.00     0.075 A 
HETATM    3  C19 UNL     1       0.640   1.070  -1.594  1.00  0.00    -0.015 A 
HETATM    4  C20 UNL     1       1.153   1.364  -3.013  1.00  0.00     0.014 C 
HETATM    5  C21 UNL     1       0.551   0.382  -3.995  1.00  0.00     0.035 C 
HETATM    6  C22 UNL     1       1.281  -0.908  -3.885  1.00  0.00     0.147 C 
HETATM    7  C23 UNL     1       1.854  -0.994  -2.469  1.00  0.00     0.147 C 
HETATM    8  C24 UNL     1       0.871  -0.387  -1.462  1.00  0.00     0.045 C 
HETATM    9  C25 UNL     1       0.946   2.071  -0.558  1.00  0.00    -0.013 A 
HETATM   10  C26 UNL     1       1.598   3.282  -1.336  1.00  0.00     0.021 C 
ENDROOT
BRANCH   2  11
HETATM   11  C9  UNL     1      -1.881   0.591  -1.317  1.00  0.00     0.117 C 
BRANCH  11  12
HETATM   12  O1  UNL     1      -2.882   0.687  -2.146  1.00  0.00    -0.349 OA
ATOM     13  H1  UNL     1      -3.600   0.074  -2.041  1.00  0.00     0.219 HD
ENDBRANCH  11  12
BRANCH  11  14
HETATM   14  N1  UNL     1      -2.095  -0.456  -0.393  1.00  0.00    -0.360 N 
ATOM     15  H1  UNL     1      -1.377  -0.639   0.308  1.00  0.00     0.162 HD
BRANCH  14  16
HETATM   16  C10 UNL     1      -3.303  -1.294  -0.394  1.00  0.00     0.181 C 
BRANCH  16  17
HETATM   17  C11 UNL     1      -2.813  -2.720  -0.502  1.00  0.00     0.093 C 
BRANCH  17  18
HETATM   18  C12 UNL     1      -3.878  -3.725  -0.520  1.00  0.00     0.028 A 
HETATM   19  C13 UNL     1      -4.491  -4.165  -1.693  1.00  0.00     0.114 A 
HETATM   20  N2  UNL     1      -5.398  -5.076  -1.335  1.00  0.00    -0.360 N 
HETATM   21  C14 UNL     1      -5.359  -5.207   0.009  1.00  0.00     0.180 A 
ATOM     22  H2  UNL     1      -6.015  -5.586  -1.967  1.00  0.00     0.166 HD
HETATM   23  N3  UNL     1      -4.430  -4.384   0.529  1.00  0.00    -0.354 N 
ATOM     24  H3  UNL     1      -4.189  -4.277   1.514  1.00  0.00     0.166 HD
ENDBRANCH  17  18
ENDBRANCH  16  17
BRANCH  16  25
HETATM   25  C15 UNL     1      -3.975  -1.099   0.901  1.00  0.00     0.242 C 
HETATM   26  O2  UNL     1      -3.209  -0.969   1.915  1.00  0.00    -0.271 OA
HETATM   27  N4  UNL     1      -5.363  -1.045   1.090  1.00  0.00    -0.355 N 
HETATM   28  C16 UNL     1      -6.298  -1.155  -0.002  1.00  0.00     0.152 C 
BRANCH  27  29
HETATM   29  C17 UNL     1      -5.896  -0.868   2.460  1.00  0.00     0.120 C 
HETATM   30  C18 UNL     1      -6.018   0.605   2.696  1.00  0.00     0.026 C 
ENDBRANCH  27  29
ENDBRANCH  16  25
ENDBRANCH  14  16
ENDBRANCH  11  14
ENDBRANCH   2  11
BRANCH   1  31
HETATM   31  C6  UNL     1      -1.215   2.350   0.898  1.00  0.00     0.034 C 
BRANCH  31  32
HETATM   32  C5  UNL     1      -0.879   3.379   1.902  1.00  0.00    -0.020 C 
HETATM   33  C3  UNL     1      -1.831   4.182   2.386  1.00  0.00    -0.067 C 
HETATM   34  C4  UNL     1      -3.231   4.082   1.957  1.00  0.00     0.048 C 
BRANCH  33  35
HETATM   35  C2  UNL     1      -1.444   5.175   3.368  1.00  0.00    -0.004 C 
HETATM   36  C1  UNL     1      -2.298   6.006   3.902  1.00  0.00     0.012 C 
ENDBRANCH  33  35
ENDBRANCH  31  32
ENDBRANCH   1  31
BRANCH   9  37
HETATM   37  C27 UNL     1       1.860   1.881   0.551  1.00  0.00    -0.017 C 
BRANCH  37  38
HETATM   38  C28 UNL     1       1.771   0.963   1.638  1.00  0.00    -0.007 C 
BRANCH  38  39
HETATM   39  C29 UNL     1       2.656   0.041   2.001  1.00  0.00    -0.027 C 
BRANCH  39  40
HETATM   40  C30 UNL     1       3.959  -0.258   1.358  1.00  0.00     0.027 C 
BRANCH  40  41
HETATM   41  C31 UNL     1       4.044  -1.694   0.896  1.00  0.00     0.013 C 
BRANCH  41  42
HETATM   42  C32 UNL     1       5.319  -2.075   0.235  1.00  0.00     0.103 C 
BRANCH  42  43
HETATM   43  C33 UNL     1       6.540  -1.965   1.017  1.00  0.00     0.219 C 
HETATM   44  O5  UNL     1       6.498  -1.660   2.229  1.00  0.00    -0.273 OA
HETATM   45  N5  UNL     1       7.797  -2.201   0.425  1.00  0.00    -0.361 N 
HETATM   46  C34 UNL     1       8.997  -2.090   1.210  1.00  0.00     0.152 C 
HETATM   47  C35 UNL     1       7.888  -2.556  -0.963  1.00  0.00     0.152 C 
ENDBRANCH  42  43
ENDBRANCH  41  42
ENDBRANCH  40  41
ENDBRANCH  39  40
ENDBRANCH  38  39
ENDBRANCH  37  38
ENDBRANCH   9  37
BRANCH   7  48
HETATM   48  O4  UNL     1       3.137  -0.602  -2.386  1.00  0.00    -0.393 OA
ATOM     49  H4  UNL     1       3.493  -0.655  -1.507  1.00  0.00     0.210 HD
ENDBRANCH   7  48
BRANCH   6  50
HETATM   50  O3  UNL     1       2.356  -0.976  -4.792  1.00  0.00    -0.393 OA
ATOM     51  H3  UNL     1       2.823  -1.801  -4.722  1.00  0.00     0.210 HD
ENDBRANCH   6  50
TORSDOF 20
