REMARK  4 active torsions:
REMARK  status: ('A' for Active; 'I' for Inactive)
REMARK    1  A    between atoms: C5_7  and  C6_8 
REMARK    2  A    between atoms: C6_8  and  O2_10 
REMARK    3  A    between atoms: O2_10  and  N2_11 
REMARK    4  A    between atoms: C7_13  and  C8_14 
ROOT
HETATM    1  N2  UNL     1       0.631  -0.829   0.073  1.00  0.00    -0.272 N 
ATOM      2  H2  UNL     1       0.121  -0.466   0.878  1.00  0.00     0.193 HD
HETATM    3  C7  UNL     1       0.021  -1.174  -1.004  1.00  0.00     0.097 C 
ENDROOT
BRANCH   1   4
HETATM    4  O2  UNL     1       1.997  -0.968   0.098  1.00  0.00    -0.195 OA
BRANCH   4   5
HETATM    5  C6  UNL     1       2.849   0.121   0.195  1.00  0.00     0.317 C 
HETATM    6  O1  UNL     1       2.308   1.253   0.260  1.00  0.00    -0.257 OA
BRANCH   5   7
HETATM    7  C5  UNL     1       4.296  -0.005   0.223  1.00  0.00     0.064 A 
HETATM    8  C2  UNL     1       5.192   1.038   0.318  1.00  0.00    -0.029 A 
HETATM    9  C1  UNL     1       4.872   2.498   0.411  1.00  0.00     0.050 C 
HETATM   10  C3  UNL     1       6.470   0.477   0.311  1.00  0.00     0.095 A 
HETATM   11  N1  UNL     1       6.327  -0.857   0.215  1.00  0.00    -0.374 N 
HETATM   12  C4  UNL     1       5.032  -1.169   0.161  1.00  0.00     0.105 A 
ATOM     13  H1  UNL     1       7.094  -1.529   0.188  1.00  0.00     0.164 HD
ENDBRANCH   5   7
ENDBRANCH   4   5
ENDBRANCH   1   4
BRANCH   3  14
HETATM   14  C8  UNL     1      -1.456  -1.018  -1.016  1.00  0.00     0.059 C 
HETATM   15  C9  UNL     1      -1.716   0.427  -1.567  1.00  0.00     0.093 C 
HETATM   16  C10 UNL     1      -2.932   0.799  -0.971  1.00  0.00    -0.182 C 
HETATM   17  C11 UNL     1      -4.085   1.512  -0.605  1.00  0.00     0.083 C 
HETATM   18  C12 UNL     1      -4.735   0.627   0.513  1.00  0.00     0.038 C 
HETATM   19  C13 UNL     1      -4.537  -0.820   0.369  1.00  0.00    -0.026 C 
HETATM   20  C14 UNL     1      -3.345  -1.575   0.707  1.00  0.00    -0.007 C 
HETATM   21  C15 UNL     1      -1.973  -1.287   0.329  1.00  0.00    -0.016 C 
ENDBRANCH   3  14
TORSDOF 4
