REMARK  8 active torsions:
REMARK  status: ('A' for Active; 'I' for Inactive)
REMARK    1  A    between atoms: N1_1  and  C1_4 
REMARK    2  A    between atoms: C2_7  and  N3_8 
REMARK    3  A    between atoms: N6_16  and  C4_17 
REMARK    4  A    between atoms: C4_17  and  C5_18 
REMARK    5  A    between atoms: C5_18  and  O1_19 
REMARK    6  A    between atoms: O1_19  and  N7_20 
REMARK    7  A    between atoms: N7_20  and  C6_21 
REMARK    8  A    between atoms: C6_21  and  N8_22 
ROOT
HETATM    1  C1  UNL     1      -3.310   0.723   0.915  1.00  0.00     0.679 A 
HETATM    2  N2  UNL     1      -4.214   0.357  -0.006  1.00  0.00    -0.175 N 
ATOM      3  H2  UNL     1      -5.137   0.790   0.016  1.00  0.00     0.186 HD
HETATM    4  C2  UNL     1      -3.954  -0.558  -0.958  1.00  0.00     0.147 A 
HETATM    5  C3  UNL     1      -2.693  -1.110  -0.941  1.00  0.00     0.140 A 
HETATM    6  N4  UNL     1      -2.094  -2.043  -1.734  1.00  0.00    -0.279 N 
ATOM      7  H4  UNL     1      -2.507  -2.525  -2.532  1.00  0.00     0.189 HD
HETATM    8  N5  UNL     1      -0.871  -2.196  -1.259  1.00  0.00    -0.238 N 
ATOM      9  H5  UNL     1      -0.183  -2.837  -1.653  1.00  0.00     0.208 HD
HETATM   10  N6  UNL     1      -0.646  -1.430  -0.225  1.00  0.00    -0.258 N 
HETATM   11  C7  UNL     1      -1.765  -0.724   0.017  1.00  0.00     0.171 A 
HETATM   12  N9  UNL     1      -2.076   0.193   0.945  1.00  0.00    -0.173 N 
ATOM     13  H9  UNL     1      -1.397   0.479   1.651  1.00  0.00     0.186 HD
ENDROOT
BRANCH  10  14
HETATM   14  C4  UNL     1       0.560  -1.293   0.585  1.00  0.00     0.180 C 
BRANCH  14  15
HETATM   15  C5  UNL     1       1.383  -0.194  -0.069  1.00  0.00     0.217 C 
BRANCH  15  16
HETATM   16  O1  UNL     1       2.548  -0.034   0.679  1.00  0.00    -0.283 OA
BRANCH  16  17
HETATM   17  N7  UNL     1       3.346   0.922   0.176  1.00  0.00    -0.074 NA
BRANCH  17  18
HETATM   18  C6  UNL     1       4.735   0.491   0.167  1.00  0.00     0.371 C 
BRANCH  18  19
HETATM   19  N8  UNL     1       5.582   1.534  -0.379  1.00  0.00    -0.064 N 
ATOM     20  H83 UNL     1       5.270   1.832  -1.303  1.00  0.00     0.275 HD
ATOM     21  H82 UNL     1       5.461   2.419   0.114  1.00  0.00     0.275 HD
ATOM     22  H81 UNL     1       6.556   1.232  -0.385  1.00  0.00     0.275 HD
ENDBRANCH  18  19
ENDBRANCH  17  18
ENDBRANCH  16  17
ENDBRANCH  15  16
ENDBRANCH  14  15
ENDBRANCH  10  14
BRANCH   4  23
HETATM   23  N3  UNL     1      -4.829  -0.899  -1.835  1.00  0.00    -0.383 N 
ATOM     24  H32 UNL     1      -5.763  -0.490  -1.848  1.00  0.00     0.157 HD
ATOM     25  H31 UNL     1      -4.632  -1.593  -2.557  1.00  0.00     0.157 HD
ENDBRANCH   4  23
BRANCH   1  26
HETATM   26  N1  UNL     1      -3.595   1.600   1.809  1.00  0.00    -0.234 N 
ATOM     27  H12 UNL     1      -4.532   2.002   1.786  1.00  0.00     0.174 HD
ATOM     28  H11 UNL     1      -2.908   1.878   2.509  1.00  0.00     0.174 HD
ENDBRANCH   1  26
TORSDOF 8
