REMARK  7 active torsions:
REMARK  status: ('A' for Active; 'I' for Inactive)
REMARK    1  A    between atoms: N1_1  and  C1_4 
REMARK    2  A    between atoms: N5_15  and  C5_16 
REMARK    3  A    between atoms: C5_16  and  C6_17 
REMARK    4  A    between atoms: C6_17  and  N6_18 
REMARK    5  A    between atoms: N6_18  and  C7_20 
REMARK    6  A    between atoms: C7_20  and  O1_21 
REMARK    7  A    between atoms: O1_21  and  N7_22 
ROOT
HETATM    1  C1  UNL     1      -2.951   1.129  -0.640  1.00  0.00     0.679 A 
HETATM    2  N2  UNL     1      -4.021   0.410  -0.223  1.00  0.00    -0.175 N 
ATOM      3  H2  UNL     1      -4.965   0.780  -0.334  1.00  0.00     0.186 HD
HETATM    4  C2  UNL     1      -3.827  -0.797   0.339  1.00  0.00     0.145 A 
HETATM    5  N3  UNL     1      -4.783  -1.544   0.760  1.00  0.00    -0.383 N 
ATOM      6  H31 UNL     1      -4.636  -2.459   1.186  1.00  0.00     0.157 HD
ATOM      7  H32 UNL     1      -5.728  -1.176   0.652  1.00  0.00     0.157 HD
HETATM    8  C3  UNL     1      -2.549  -1.295   0.485  1.00  0.00     0.123 A 
HETATM    9  N4  UNL     1      -2.032  -2.430   0.989  1.00  0.00    -0.346 N 
ATOM     10  H4  UNL     1      -2.576  -3.193   1.391  1.00  0.00     0.167 HD
HETATM   11  C4  UNL     1      -0.689  -2.409   0.884  1.00  0.00     0.185 A 
HETATM   12  N5  UNL     1      -0.374  -1.231   0.301  1.00  0.00    -0.325 N 
HETATM   13  C8  UNL     1      -1.479  -0.514   0.038  1.00  0.00     0.155 A 
HETATM   14  N8  UNL     1      -1.689   0.691  -0.520  1.00  0.00    -0.174 N 
ATOM     15  H8  UNL     1      -0.907   1.259  -0.845  1.00  0.00     0.186 HD
ENDROOT
BRANCH  12  16
HETATM   16  C5  UNL     1       1.006  -0.810   0.006  1.00  0.00     0.150 C 
BRANCH  16  17
HETATM   17  C6  UNL     1       1.570  -0.045   1.179  1.00  0.00     0.136 C 
BRANCH  17  18
HETATM   18  N6  UNL     1       2.908   0.376   0.962  1.00  0.00    -0.398 N 
ATOM     19  H6  UNL     1       3.696  -0.009   1.483  1.00  0.00     0.155 HD
BRANCH  18  20
HETATM   20  C7  UNL     1       3.070   1.390  -0.051  1.00  0.00     0.318 C 
BRANCH  20  21
HETATM   21  O1  UNL     1       4.457   1.669  -0.110  1.00  0.00    -0.268 OA
BRANCH  21  22
HETATM   22  N7  UNL     1       5.114   0.537  -0.439  1.00  0.00    -0.309 N 
ATOM     23  H72 UNL     1       4.670  -0.364  -0.614  1.00  0.00     0.184 HD
ATOM     24  H71 UNL     1       6.113   0.738  -0.481  1.00  0.00     0.184 HD
ENDBRANCH  21  22
ENDBRANCH  20  21
ENDBRANCH  18  20
ENDBRANCH  17  18
ENDBRANCH  16  17
ENDBRANCH  12  16
BRANCH   1  25
HETATM   25  N1  UNL     1      -3.148   2.305  -1.185  1.00  0.00    -0.234 N 
ATOM     26  H12 UNL     1      -4.108   2.638  -1.276  1.00  0.00     0.174 HD
ATOM     27  H11 UNL     1      -2.342   2.846  -1.499  1.00  0.00     0.174 HD
ENDBRANCH   1  25
TORSDOF 7
