REMARK  0 active torsions:
REMARK  status: ('A' for Active; 'I' for Inactive)
ROOT
HETATM    1  C1  UNL     1      -0.411   2.294  -0.035  1.00  0.00     0.013 A 
HETATM    2  C2  UNL     1      -1.602   1.686   0.071  1.00  0.00     0.013 A 
HETATM    3  C3  UNL     1      -1.420   0.239   0.098  1.00  0.00    -0.021 A 
HETATM    4  C4  UNL     1      -2.219  -0.890   0.189  1.00  0.00     0.029 A 
HETATM    5  C5  UNL     1      -1.681  -2.156   0.185  1.00  0.00     0.089 A 
HETATM    6  N1  UNL     1      -0.325  -2.307   0.089  1.00  0.00    -0.365 N 
ATOM      7  H1  UNL     1       0.084  -3.242   0.085  1.00  0.00     0.165 HD
HETATM    8  C6  UNL     1       0.486  -1.207  -0.002  1.00  0.00     0.043 A 
HETATM    9  C7  UNL     1       1.859  -1.295  -0.101  1.00  0.00     0.030 A 
HETATM   10  C8  UNL     1       2.589  -0.099  -0.188  1.00  0.00     0.003 A 
HETATM   11  C9  UNL     1       1.973   1.142  -0.178  1.00  0.00     0.012 A 
HETATM   12  C10 UNL     1       0.604   1.225  -0.079  1.00  0.00    -0.023 A 
HETATM   13  C11 UNL     1      -0.082   0.042   0.005  1.00  0.00     0.011 A 
ENDROOT
TORSDOF 0
