REMARK  5 active torsions:
REMARK  status: ('A' for Active; 'I' for Inactive)
REMARK    1  A    between atoms: C2_2  and  N1_4 
REMARK    2  A    between atoms: N1_4  and  C5_6 
REMARK    3  A    between atoms: C5_6  and  C6_7 
REMARK       I    between atoms: C6_7  and  N2_9 
REMARK    4  A    between atoms: C9_12  and  N3_14 
REMARK       I    between atoms: N3_14  and  C11_16 
REMARK    5  A    between atoms: C11_16  and  C12_18 
ROOT
HETATM    1  C6  UNL     1       2.265   0.323  -0.761  1.00  0.00     0.248 C 
HETATM    2  O1  UNL     1       2.503   0.390  -1.992  1.00  0.00    -0.271 OA
HETATM    3  N2  UNL     1       0.987   0.605  -0.242  1.00  0.00    -0.348 N 
HETATM    4  C7  UNL     1      -0.080   0.981  -1.166  1.00  0.00     0.128 C 
HETATM    5  C8  UNL     1      -1.078  -0.157  -1.078  1.00  0.00     0.053 C 
HETATM    6  C9  UNL     1      -1.619  -0.292   0.294  1.00  0.00     0.063 C 
HETATM    7  C10 UNL     1      -1.728  -1.791   0.602  1.00  0.00     0.041 C 
HETATM    8  C16 UNL     1      -0.822   0.320   1.395  1.00  0.00     0.215 C 
HETATM    9  F1  UNL     1      -0.979  -0.446   2.548  1.00  0.00    -0.245 F 
HETATM   10  C17 UNL     1       0.617   0.556   1.145  1.00  0.00     0.165 C 
ENDROOT
BRANCH   6  11
HETATM   11  N3  UNL     1      -3.007   0.178   0.301  1.00  0.00    -0.349 N 
HETATM   12  C11 UNL     1      -4.005  -0.433  -0.504  1.00  0.00     0.226 C 
HETATM   13  O2  UNL     1      -3.761  -1.405  -1.262  1.00  0.00    -0.273 OA
ATOM     14  H3  UNL     1      -3.263   0.964   0.899  1.00  0.00     0.163 HD
BRANCH  12  15
HETATM   15  C12 UNL     1      -5.404   0.072  -0.474  1.00  0.00     0.030 C 
HETATM   16  C13 UNL     1      -6.298  -0.718  -1.401  1.00  0.00     0.024 C 
HETATM   17  C14 UNL     1      -5.376   1.531  -0.897  1.00  0.00     0.024 C 
HETATM   18  C15 UNL     1      -6.008   0.004   0.904  1.00  0.00     0.024 C 
ENDBRANCH  12  15
ENDBRANCH   6  11
BRANCH   1  19
HETATM   19  C5  UNL     1       3.357  -0.059   0.146  1.00  0.00     0.374 C 
BRANCH  19  20
HETATM   20  N1  UNL     1       4.595  -0.316  -0.518  1.00  0.00     0.096 N 
HETATM   21  C4  UNL     1       5.029   0.708  -1.413  1.00  0.00     0.310 C 
BRANCH  20  22
HETATM   22  C2  UNL     1       5.588  -0.681   0.454  1.00  0.00     0.215 C 
HETATM   23  C1  UNL     1       6.794  -1.246  -0.265  1.00  0.00     0.042 C 
HETATM   24  C3  UNL     1       6.037   0.464   1.306  1.00  0.00     0.042 C 
ENDBRANCH  20  22
ENDBRANCH  19  20
ENDBRANCH   1  19
TORSDOF 5
