REMARK  4 active torsions:
REMARK  status: ('A' for Active; 'I' for Inactive)
REMARK    1  A    between atoms: C2_2  and  C3_3 
REMARK    2  A    between atoms: C3_3  and  C4_4 
REMARK    3  A    between atoms: C5_5  and  C6_6 
REMARK    4  A    between atoms: C8_8  and  C9_9 
ROOT
HETATM    1  C6  UNL     1      -1.257   0.214  -0.504  1.00  0.00     0.078 A 
HETATM    2  C7  UNL     1      -1.634  -1.220  -0.493  1.00  0.00     0.033 A 
HETATM    3  C8  UNL     1      -1.825  -0.330   0.732  1.00  0.00     0.092 A 
ENDROOT
BRANCH   1   4
HETATM    4  C5  UNL     1       0.178   0.508  -0.528  1.00  0.00    -0.101 C 
HETATM    5  C4  UNL     1       1.361   0.741  -0.567  1.00  0.00    -0.102 C 
BRANCH   5   6
HETATM    6  C3  UNL     1       2.819   1.006  -0.625  1.00  0.00     0.120 C 
BRANCH   6   7
HETATM    7  C2  UNL     1       3.429   0.235   0.482  1.00  0.00    -0.025 C 
HETATM    8  C1  UNL     1       4.335  -0.689   0.212  1.00  0.00     0.008 C 
ENDBRANCH   6   7
ENDBRANCH   5   6
ENDBRANCH   1   4
BRANCH   3   9
HETATM    9  C9  UNL     1      -3.223   0.062   1.090  1.00  0.00     0.236 C 
HETATM   10  N1  UNL     1      -4.064   0.480   0.022  1.00  0.00    -0.062 NA
HETATM   11  O1  UNL     1      -3.661   0.035   2.261  1.00  0.00    -0.276 OA
ENDBRANCH   3   9
TORSDOF 4
