REMARK  12 active torsions:
REMARK  status: ('A' for Active; 'I' for Inactive)
REMARK    1  A    between atoms: C4_4  and  O1_5 
REMARK    2  A    between atoms: C4_4  and  C5_7 
REMARK    3  A    between atoms: C5_7  and  O2_8 
REMARK    4  A    between atoms: C6_10  and  O3_11 
REMARK    5  A    between atoms: C6_10  and  C7_13 
REMARK    6  A    between atoms: C8_16  and  C9_17 
REMARK    7  A    between atoms: C9_17  and  O6_18 
REMARK    8  A    between atoms: O6_18  and  C10_19 
REMARK    9  A    between atoms: C10_19  and  C11_21 
REMARK   10  A    between atoms: C19_29  and  O8_30 
REMARK   11  A    between atoms: C19_29  and  C20_32 
REMARK   12  A    between atoms: C20_32  and  O9_33 
ROOT
HETATM    1  C1  UNL     1      -1.571  -0.656   2.140  1.00  0.00     0.019 C 
HETATM    2  C2  UNL     1      -1.783   0.116   0.891  1.00  0.00     0.005 C 
HETATM    3  C3  UNL     1      -3.027  -0.365   0.227  1.00  0.00     0.057 C 
HETATM    4  C4  UNL     1      -2.654  -0.961  -1.060  1.00  0.00     0.122 C 
HETATM    5  C6  UNL     1      -1.152  -0.685  -1.263  1.00  0.00     0.189 C 
HETATM    6  C8  UNL     1      -0.623   0.021  -0.106  1.00  0.00     0.036 C 
HETATM    7  C17 UNL     1      -0.378   1.492  -0.388  1.00  0.00     0.019 C 
HETATM    8  C18 UNL     1      -1.683   2.203  -0.135  1.00  0.00     0.042 C 
HETATM    9  C19 UNL     1      -2.017   1.542   1.215  1.00  0.00     0.087 C 
ENDROOT
BRANCH   6  10
HETATM   10  C9  UNL     1       0.625  -0.432   0.597  1.00  0.00     0.193 C 
BRANCH  10  11
HETATM   11  O6  UNL     1       1.799  -0.532   0.034  1.00  0.00    -0.317 OA
BRANCH  11  12
HETATM   12  C10 UNL     1       2.869  -0.749  -0.624  1.00  0.00     0.293 C 
HETATM   13  O7  UNL     1       2.738  -1.608  -1.551  1.00  0.00    -0.259 OA
BRANCH  12  14
HETATM   14  C11 UNL     1       4.239  -0.188  -0.511  1.00  0.00     0.039 A 
HETATM   15  C12 UNL     1       4.493   0.747   0.456  1.00  0.00     0.017 A 
HETATM   16  C13 UNL     1       5.739   1.303   0.610  1.00  0.00     0.001 A 
HETATM   17  C14 UNL     1       6.768   0.910  -0.231  1.00  0.00     0.000 A 
HETATM   18  C15 UNL     1       6.499  -0.035  -1.205  1.00  0.00     0.001 A 
HETATM   19  C16 UNL     1       5.244  -0.582  -1.345  1.00  0.00     0.017 A 
ENDBRANCH  12  14
ENDBRANCH  11  12
ENDBRANCH  10  11
ENDBRANCH   6  10
BRANCH   5  20
HETATM   20  O3  UNL     1      -1.197   0.302  -2.318  1.00  0.00    -0.375 OA
ATOM     21  H3  UNL     1      -0.271   0.472  -2.443  1.00  0.00     0.211 HD
ENDBRANCH   5  20
BRANCH   5  22
HETATM   22  C7  UNL     1      -0.658  -1.852  -1.880  1.00  0.00     0.213 C 
HETATM   23  O4  UNL     1      -0.305  -2.986  -1.499  1.00  0.00    -0.646 OA
HETATM   24  O5  UNL     1      -0.487  -1.818  -3.293  1.00  0.00    -0.646 OA
ENDBRANCH   5  22
BRANCH   9  25
HETATM   25  O8  UNL     1      -3.398   1.744   1.436  1.00  0.00    -0.387 OA
ATOM     26  H8  UNL     1      -3.548   2.659   1.644  1.00  0.00     0.210 HD
ENDBRANCH   9  25
BRANCH   9  27
HETATM   27  C20 UNL     1      -1.305   2.180   2.331  1.00  0.00     0.202 C 
BRANCH  27  28
HETATM   28  O9  UNL     1      -1.669   1.667   3.574  1.00  0.00    -0.398 OA
ATOM     29  H9  UNL     1      -1.209   2.079   4.295  1.00  0.00     0.209 HD
ENDBRANCH  27  28
ENDBRANCH   9  27
BRANCH   4  30
HETATM   30  O1  UNL     1      -3.383  -0.371  -2.134  1.00  0.00    -0.384 OA
ATOM     31  H1  UNL     1      -3.141  -0.757  -2.968  1.00  0.00     0.210 HD
ENDBRANCH   4  30
BRANCH   4  32
HETATM   32  C5  UNL     1      -3.074  -2.380  -1.081  1.00  0.00     0.205 C 
BRANCH  32  33
HETATM   33  O2  UNL     1      -2.618  -3.218  -0.114  1.00  0.00    -0.398 OA
ATOM     34  H2  UNL     1      -2.888  -4.129  -0.127  1.00  0.00     0.209 HD
ENDBRANCH  32  33
ENDBRANCH   4  32
TORSDOF 12
