REMARK  10 active torsions:
REMARK  status: ('A' for Active; 'I' for Inactive)
REMARK    1  A    between atoms: C2_2  and  O1_3 
REMARK    2  A    between atoms: C3_5  and  C4_6 
REMARK    3  A    between atoms: C4_6  and  O2_7 
REMARK    4  A    between atoms: C4_6  and  C5_9 
REMARK    5  A    between atoms: C5_9  and  O3_10 
REMARK    6  A    between atoms: C5_9  and  C6_12 
REMARK    7  A    between atoms: C6_12  and  O4_13 
REMARK    8  A    between atoms: C6_12  and  C7_15 
REMARK    9  A    between atoms: C7_15  and  O5_16 
REMARK   10  A    between atoms: C10_20  and  O6_21 
ROOT
HETATM    1  C1  UNL     1       1.118  -0.899  -2.309  1.00  0.00     0.049 C 
HETATM    2  C2  UNL     1       0.661  -0.971  -0.830  1.00  0.00     0.089 C 
HETATM    3  C3  UNL     1       1.509   0.071  -0.123  1.00  0.00     0.054 C 
HETATM    4  C8  UNL     1       0.803   0.795   0.968  1.00  0.00     0.013 C 
HETATM    5  C9  UNL     1      -0.655   1.165   0.633  1.00  0.00     0.042 C 
HETATM    6  C10 UNL     1      -1.339  -0.101   0.446  1.00  0.00     0.100 C 
HETATM    7  C11 UNL     1      -0.777  -0.716  -0.850  1.00  0.00     0.192 C 
HETATM    8  O7  UNL     1      -1.607  -1.866  -0.861  1.00  0.00    -0.370 OA
HETATM    9  C12 UNL     1      -2.798  -1.205  -0.937  1.00  0.00     0.161 C 
HETATM   10  C13 UNL     1      -4.051  -1.898  -0.890  1.00  0.00     0.030 C 
HETATM   11  C14 UNL     1      -5.095  -1.161  -0.519  1.00  0.00     0.134 C 
HETATM   12  O8  UNL     1      -4.967   0.187  -0.201  1.00  0.00    -0.352 OA
HETATM   13  C15 UNL     1      -3.673   0.826  -0.069  1.00  0.00     0.072 C 
HETATM   14  C16 UNL     1      -3.866   1.856   1.050  1.00  0.00     0.047 C 
HETATM   15  C17 UNL     1      -3.480   1.547  -1.348  1.00  0.00     0.047 C 
HETATM   16  C18 UNL     1      -2.764  -0.263   0.288  1.00  0.00     0.050 C 
HETATM   17  C19 UNL     1      -3.320  -0.944   1.527  1.00  0.00     0.025 C 
ENDROOT
BRANCH   3  18
HETATM   18  C4  UNL     1       2.657  -0.682   0.494  1.00  0.00     0.156 C 
BRANCH  18  19
HETATM   19  O2  UNL     1       3.390  -1.351  -0.492  1.00  0.00    -0.392 OA
ATOM     20  H2  UNL     1       4.115  -1.826  -0.103  1.00  0.00     0.210 HD
ENDBRANCH  18  19
BRANCH  18  21
HETATM   21  C5  UNL     1       3.580   0.124   1.351  1.00  0.00     0.178 C 
BRANCH  21  22
HETATM   22  O3  UNL     1       4.480  -0.766   2.022  1.00  0.00    -0.390 OA
ATOM     23  H3  UNL     1       5.066  -0.254   2.566  1.00  0.00     0.210 HD
ENDBRANCH  21  22
BRANCH  21  24
HETATM   24  C6  UNL     1       4.435   1.129   0.674  1.00  0.00     0.172 C 
BRANCH  24  25
HETATM   25  O4  UNL     1       3.784   2.098  -0.048  1.00  0.00    -0.391 OA
ATOM     26  H4  UNL     1       4.332   2.742  -0.482  1.00  0.00     0.210 HD
ENDBRANCH  24  25
BRANCH  24  27
HETATM   27  C7  UNL     1       5.551   0.522  -0.156  1.00  0.00     0.198 C 
BRANCH  27  28
HETATM   28  O5  UNL     1       6.457   1.562  -0.469  1.00  0.00    -0.398 OA
ATOM     29  H5  UNL     1       7.156   1.182  -0.989  1.00  0.00     0.209 HD
ENDBRANCH  27  28
ENDBRANCH  24  27
ENDBRANCH  21  24
ENDBRANCH  18  21
ENDBRANCH   3  18
BRANCH   2  30
HETATM   30  O1  UNL     1       1.027  -2.280  -0.479  1.00  0.00    -0.387 OA
ATOM     31  H1  UNL     1       0.747  -2.324   0.428  1.00  0.00     0.210 HD
ENDBRANCH   2  30
BRANCH   6  32
HETATM   32  O6  UNL     1      -0.856  -0.999   1.436  1.00  0.00    -0.386 OA
ATOM     33  H6  UNL     1      -1.304  -1.828   1.314  1.00  0.00     0.210 HD
ENDBRANCH   6  32
TORSDOF 10
