REMARK  7 active torsions:
REMARK  status: ('A' for Active; 'I' for Inactive)
REMARK    1  A    between atoms: C1_2  and  C2_4 
REMARK    2  A    between atoms: C4_6  and  C5_7 
REMARK    3  A    between atoms: C8_15  and  C9_16 
REMARK    4  A    between atoms: C9_16  and  C10_17 
REMARK    5  A    between atoms: C10_17  and  O4_18 
REMARK    6  A    between atoms: N4_20  and  O5_22 
REMARK    7  A    between atoms: C13_26  and  C14_27 
ROOT
HETATM    1  C2  UNL     1      -3.432  -0.106   0.168  1.00  0.00     0.034 C 
HETATM    2  C3  UNL     1      -2.253   0.107   0.668  1.00  0.00     0.057 C 
HETATM    3  C4  UNL     1      -1.188  -0.541   1.460  1.00  0.00     0.237 C 
HETATM    4  N2  UNL     1      -0.074  -0.660   0.543  1.00  0.00    -0.361 N 
HETATM    5  C6  UNL     1       0.428  -1.945   0.242  1.00  0.00     0.143 C 
HETATM    6  C7  UNL     1       1.244  -1.965  -1.036  1.00  0.00     0.134 C 
HETATM    7  N3  UNL     1       2.535  -1.409  -0.917  1.00  0.00    -0.415 N 
ATOM      8  H3  UNL     1       3.325  -1.777  -1.447  1.00  0.00     0.153 HD
HETATM    9  C8  UNL     1       2.682  -0.319  -0.030  1.00  0.00     0.089 C 
HETATM   10  C11 UNL     1       1.814   0.886  -0.395  1.00  0.00     0.084 C 
HETATM   11  C12 UNL     1       0.399   0.615   0.019  1.00  0.00     0.044 C 
HETATM   12  C13 UNL     1      -0.440   1.630  -0.156  1.00  0.00     0.135 C 
HETATM   13  N5  UNL     1      -1.829   1.432   0.157  1.00  0.00    -0.340 N 
HETATM   14  C15 UNL     1      -3.013   2.222   0.024  1.00  0.00     0.134 C 
HETATM   15  C16 UNL     1      -3.963   1.148  -0.523  1.00  0.00     0.066 C 
ENDROOT
BRANCH   9  16
HETATM   16  C9  UNL     1       4.068   0.150   0.222  1.00  0.00     0.110 C 
BRANCH  16  17
HETATM   17  C10 UNL     1       4.792   0.607  -0.982  1.00  0.00     0.137 C 
HETATM   18  N4  UNL     1       5.863   0.043  -1.419  1.00  0.00    -0.251 N 
ATOM     19  H4  UNL     1       6.306   0.417  -2.259  1.00  0.00     0.196 HD
BRANCH  17  20
HETATM   20  O4  UNL     1       4.296   1.694  -1.676  1.00  0.00    -0.348 OA
ATOM     21  H4  UNL     1       4.762   1.988  -2.450  1.00  0.00     0.219 HD
ENDBRANCH  17  20
BRANCH  18  22
HETATM   22  O5  UNL     1       6.436  -1.046  -0.798  1.00  0.00    -0.288 OA
ATOM     23  H5  UNL     1       7.227  -1.462  -1.121  1.00  0.00     0.244 HD
ENDBRANCH  18  22
ENDBRANCH  16  17
ENDBRANCH   9  16
BRANCH  12  24
HETATM   24  C14 UNL     1      -0.018   2.911  -0.667  1.00  0.00     0.229 C 
HETATM   25  O6  UNL     1       1.164   3.149  -0.993  1.00  0.00    -0.643 OA
HETATM   26  O7  UNL     1      -0.943   3.967  -0.819  1.00  0.00    -0.643 OA
ENDBRANCH  12  24
BRANCH   3  27
HETATM   27  C5  UNL     1      -1.481  -1.641   2.322  1.00  0.00     0.203 C 
HETATM   28  O2  UNL     1      -1.073  -2.827   2.303  1.00  0.00    -0.646 OA
HETATM   29  O3  UNL     1      -2.374  -1.400   3.402  1.00  0.00    -0.646 OA
ENDBRANCH   3  27
BRANCH   1  30
HETATM   30  C1  UNL     1      -4.246  -1.290   0.228  1.00  0.00     0.263 C 
HETATM   31  N1  UNL     1      -5.549  -1.261  -0.397  1.00  0.00    -0.057 NA
HETATM   32  O1  UNL     1      -3.953  -2.356   0.765  1.00  0.00    -0.271 OA
ENDBRANCH   1  30
TORSDOF 7
