REMARK  9 active torsions:
REMARK  status: ('A' for Active; 'I' for Inactive)
REMARK    1  A    between atoms: C2_3  and  C3_4 
REMARK       I    between atoms: C3_4  and  N2_6 
REMARK       I    between atoms: N2_6  and  C4_8 
REMARK    2  A    between atoms: C5_17  and  N7_18 
REMARK    3  A    between atoms: C6_19  and  O2_20 
REMARK    4  A    between atoms: C9_24  and  C10_25 
REMARK    5  A    between atoms: C10_25  and  N8_26 
REMARK    6  A    between atoms: C10_25  and  C11_30 
REMARK    7  A    between atoms: C13_38  and  C14_39 
REMARK    8  A    between atoms: C14_39  and  N11_40 
REMARK    9  A    between atoms: C14_39  and  C15_44 
ROOT
HETATM    1  N7  UNL     1      -0.008  -0.157  -0.430  1.00  0.00    -0.123 N 
HETATM    2  C6  UNL     1      -0.922   0.757  -0.858  1.00  0.00     0.176 A 
HETATM    3  C7  UNL     1      -2.155   0.437  -0.379  1.00  0.00     0.048 A 
HETATM    4  C8  UNL     1      -3.414   0.999  -0.489  1.00  0.00     0.047 A 
HETATM    5  C9  UNL     1      -4.513   0.454   0.121  1.00  0.00     0.067 A 
HETATM    6  N9  UNL     1      -4.296  -0.683   0.848  1.00  0.00    -0.302 N 
ATOM      7  H9  UNL     1      -5.093  -1.115   1.315  1.00  0.00     0.186 HD
HETATM    8  N10 UNL     1      -3.121  -1.250   0.979  1.00  0.00    -0.298 N 
ATOM      9  H10 UNL     1      -3.025  -2.099   1.536  1.00  0.00     0.187 HD
HETATM   10  C12 UNL     1      -2.036  -0.711   0.376  1.00  0.00     0.089 A 
HETATM   11  C13 UNL     1      -0.683  -1.056   0.323  1.00  0.00     0.105 A 
ENDROOT
BRANCH   1  12
HETATM   12  C5  UNL     1       1.366  -0.071  -0.768  1.00  0.00     0.709 A 
HETATM   13  N1  UNL     1       2.345   0.455   0.003  1.00  0.00    -0.164 N 
HETATM   14  C1  UNL     1       2.154   1.020   1.330  1.00  0.00     0.177 C 
HETATM   15  C2  UNL     1       3.528   0.398  -0.616  1.00  0.00     0.206 A 
HETATM   16  N5  UNL     1       3.298  -0.176  -1.805  1.00  0.00    -0.266 N 
HETATM   17  N6  UNL     1       2.005  -0.463  -1.911  1.00  0.00    -0.129 N 
ATOM     18  H5  UNL     1       4.004  -0.363  -2.517  1.00  0.00     0.189 HD
ATOM     19  H6  UNL     1       1.561  -0.905  -2.716  1.00  0.00     0.205 HD
BRANCH  15  20
HETATM   20  C3  UNL     1       4.802   0.878  -0.070  1.00  0.00     0.294 C 
HETATM   21  O1  UNL     1       4.837   1.390   1.061  1.00  0.00    -0.264 OA
HETATM   22  N2  UNL     1       6.002   0.766  -0.820  1.00  0.00    -0.295 N 
HETATM   23  C4  UNL     1       7.207   1.230  -0.282  1.00  0.00     0.188 C 
ATOM     24  H2  UNL     1       5.986   0.348  -1.750  1.00  0.00     0.171 HD
HETATM   25  N3  UNL     1       8.295   1.133  -0.950  1.00  0.00    -0.373 N 
HETATM   26  N4  UNL     1       7.281   1.816   1.001  1.00  0.00    -0.064 NA
ATOM     27  H32 UNL     1       8.242   0.710  -1.877  1.00  0.00     0.158 HD
ATOM     28  H31 UNL     1       9.174   1.471  -0.558  1.00  0.00     0.158 HD
ENDBRANCH  15  20
ENDBRANCH   1  12
BRANCH   2  29
HETATM   29  O2  UNL     1      -0.638   1.848  -1.660  1.00  0.00    -0.345 OA
ATOM     30  H2  UNL     1      -1.276   2.486  -1.959  1.00  0.00     0.219 HD
ENDBRANCH   2  29
BRANCH  11  31
HETATM   31  C14 UNL     1      -0.053  -2.229   0.993  1.00  0.00     0.324 C 
BRANCH  31  32
HETATM   32  N11 UNL     1       1.216  -2.465   0.266  1.00  0.00    -0.061 N 
ATOM     33 3H11 UNL     1       1.097  -2.583  -0.740  1.00  0.00     0.275 HD
ATOM     34 2H11 UNL     1       1.821  -1.645   0.220  1.00  0.00     0.275 HD
ATOM     35 1H11 UNL     1       1.647  -3.268   0.724  1.00  0.00     0.275 HD
ENDBRANCH  31  32
BRANCH  31  36
HETATM   36  C15 UNL     1      -0.823  -3.456   0.821  1.00  0.00     0.267 C 
HETATM   37  N12 UNL     1      -1.894  -3.868   1.655  1.00  0.00    -0.060 NA
HETATM   38  O5  UNL     1      -0.547  -4.260  -0.141  1.00  0.00    -0.274 OA
ENDBRANCH  31  36
ENDBRANCH  11  31
BRANCH   5  39
HETATM   39  C10 UNL     1      -5.884   0.962   0.079  1.00  0.00     0.334 C 
BRANCH  39  40
HETATM   40  N8  UNL     1      -6.810  -0.127  -0.233  1.00  0.00    -0.060 N 
ATOM     41  H83 UNL     1      -6.555  -0.612  -1.093  1.00  0.00     0.275 HD
ATOM     42  H82 UNL     1      -6.712  -0.910   0.413  1.00  0.00     0.275 HD
ATOM     43  H81 UNL     1      -7.766   0.227  -0.262  1.00  0.00     0.275 HD
ENDBRANCH  39  40
BRANCH  39  44
HETATM   44  C11 UNL     1      -6.081   2.017  -0.922  1.00  0.00     0.210 C 
HETATM   45  O3  UNL     1      -5.539   3.138  -0.824  1.00  0.00    -0.646 OA
HETATM   46  O4  UNL     1      -6.898   1.814  -2.052  1.00  0.00    -0.646 OA
ENDBRANCH  39  44
ENDBRANCH   5  39
TORSDOF 9
