REMARK  13 active torsions:
REMARK  status: ('A' for Active; 'I' for Inactive)
REMARK    1  A    between atoms: N1_1  and  C1_5 
REMARK    2  A    between atoms: C3_7  and  N2_8 
REMARK    3  A    between atoms: C5_13  and  O1_14 
REMARK    4  A    between atoms: O1_14  and  C6_15 
REMARK    5  A    between atoms: C7_16  and  N3_17 
REMARK    6  A    between atoms: C8_21  and  N4_22 
REMARK    7  A    between atoms: C10_27  and  N5_28 
REMARK    8  A    between atoms: C11_32  and  O2_33 
REMARK    9  A    between atoms: O2_33  and  C12_34 
REMARK   10  A    between atoms: C13_36  and  C14_37 
REMARK   11  A    between atoms: C14_37  and  O4_38 
REMARK   12  A    between atoms: C15_40  and  N6_41 
REMARK   13  A    between atoms: C16_48  and  N10_49 
ROOT
HETATM    1  C6  UNL     1       0.598   0.636  -1.617  1.00  0.00     0.185 C 
HETATM    2  C7  UNL     1       1.148   1.226  -2.917  1.00  0.00     0.245 C 
HETATM    3  C8  UNL     1       1.451   2.678  -2.788  1.00  0.00     0.218 C 
HETATM    4  C9  UNL     1       0.720   3.356  -1.669  1.00  0.00     0.070 C 
HETATM    5  C10 UNL     1      -0.672   2.803  -1.499  1.00  0.00     0.217 C 
HETATM    6  C11 UNL     1      -0.703   1.316  -1.230  1.00  0.00     0.186 C 
ENDROOT
BRANCH   6   7
HETATM    7  O2  UNL     1      -0.992   1.007   0.081  1.00  0.00    -0.349 OA
BRANCH   7   8
HETATM    8  C12 UNL     1      -2.136   0.273   0.277  1.00  0.00     0.293 C 
HETATM    9  O3  UNL     1      -2.990   1.077   1.033  1.00  0.00    -0.349 OA
HETATM   10  C13 UNL     1      -3.912   0.266   1.642  1.00  0.00     0.177 C 
HETATM   11  C15 UNL     1      -3.438  -1.150   1.588  1.00  0.00     0.196 C 
HETATM   12  C16 UNL     1      -2.002  -0.969   1.083  1.00  0.00     0.267 C 
BRANCH  10  13
HETATM   13  C14 UNL     1      -5.283   0.459   1.059  1.00  0.00     0.198 C 
BRANCH  13  14
HETATM   14  O4  UNL     1      -6.203  -0.377   1.695  1.00  0.00    -0.398 OA
ATOM     15  H4  UNL     1      -7.070  -0.255   1.326  1.00  0.00     0.209 HD
ENDBRANCH  13  14
ENDBRANCH  10  13
BRANCH  11  16
HETATM   16  N6  UNL     1      -3.470  -1.827   2.863  1.00  0.00    -0.193 N 
HETATM   17  N7  UNL     1      -2.745  -1.931   3.954  1.00  0.00    -0.208 N 
HETATM   18  N8  UNL     1      -3.618  -2.745   4.462  1.00  0.00    -0.211 N 
ATOM     19  H7  UNL     1      -1.860  -1.535   4.271  1.00  0.00     0.211 HD
HETATM   20  N9  UNL     1      -4.351  -2.656   3.391  1.00  0.00    -0.208 N 
ATOM     21  H8  UNL     1      -3.698  -3.250   5.344  1.00  0.00     0.211 HD
ATOM     22  H9  UNL     1      -5.237  -3.059   3.086  1.00  0.00     0.211 HD
ENDBRANCH  11  16
BRANCH  12  23
HETATM   23  N10 UNL     1      -1.728  -2.149   0.288  1.00  0.00    -0.068 N 
ATOM     24 3H10 UNL     1      -2.433  -2.266  -0.439  1.00  0.00     0.275 HD
ATOM     25 2H10 UNL     1      -0.904  -2.007  -0.296  1.00  0.00     0.275 HD
ATOM     26 1H10 UNL     1      -1.636  -3.001   0.841  1.00  0.00     0.275 HD
ENDBRANCH  12  23
ENDBRANCH   7   8
ENDBRANCH   6   7
BRANCH   1  27
HETATM   27  O1  UNL     1       1.566   0.843  -0.674  1.00  0.00    -0.376 OA
BRANCH  27  28
HETATM   28  C5  UNL     1       2.191  -0.244  -0.160  1.00  0.00     0.126 C 
HETATM   29  C4  UNL     1       3.663  -0.334  -0.500  1.00  0.00     0.065 C 
HETATM   30  C3  UNL     1       4.069  -1.783  -0.313  1.00  0.00     0.188 C 
HETATM   31  C2  UNL     1       3.800  -2.243   1.092  1.00  0.00     0.065 C 
HETATM   32  C1  UNL     1       2.430  -1.911   1.592  1.00  0.00     0.188 C 
HETATM   33  C17 UNL     1       2.058  -0.455   1.315  1.00  0.00     0.065 C 
BRANCH  30  34
HETATM   34  N2  UNL     1       5.488  -1.939  -0.565  1.00  0.00    -0.075 N 
ATOM     35  H23 UNL     1       6.068  -1.462   0.126  1.00  0.00     0.274 HD
ATOM     36  H22 UNL     1       5.820  -2.887  -0.388  1.00  0.00     0.274 HD
ATOM     37  H21 UNL     1       5.671  -1.627  -1.519  1.00  0.00     0.274 HD
ENDBRANCH  30  34
BRANCH  32  38
HETATM   38  N1  UNL     1       2.436  -2.059   3.035  1.00  0.00    -0.075 N 
ATOM     39  H13 UNL     1       2.755  -2.980   3.337  1.00  0.00     0.274 HD
ATOM     40  H12 UNL     1       3.166  -1.508   3.486  1.00  0.00     0.274 HD
ATOM     41  H11 UNL     1       1.502  -1.833   3.376  1.00  0.00     0.274 HD
ENDBRANCH  32  38
ENDBRANCH  27  28
ENDBRANCH   1  27
BRANCH   5  42
HETATM   42  N5  UNL     1      -1.237   3.472  -0.340  1.00  0.00    -0.072 N 
ATOM     43  H53 UNL     1      -0.662   3.386   0.498  1.00  0.00     0.274 HD
ATOM     44  H52 UNL     1      -1.210   4.489  -0.407  1.00  0.00     0.274 HD
ATOM     45  H51 UNL     1      -2.179   3.098  -0.225  1.00  0.00     0.274 HD
ENDBRANCH   5  42
BRANCH   2  46
HETATM   46  N3  UNL     1       0.246   0.937  -4.027  1.00  0.00    -0.070 N 
ATOM     47  H33 UNL     1       0.057  -0.062  -4.113  1.00  0.00     0.274 HD
ATOM     48  H32 UNL     1      -0.704   1.255  -3.837  1.00  0.00     0.274 HD
ATOM     49  H31 UNL     1       0.613   1.330  -4.894  1.00  0.00     0.274 HD
ENDBRANCH   2  46
BRANCH   3  50
HETATM   50  N4  UNL     1       2.889   2.846  -2.645  1.00  0.00    -0.073 N 
ATOM     51  H43 UNL     1       3.270   2.298  -1.874  1.00  0.00     0.274 HD
ATOM     52  H42 UNL     1       3.410   2.405  -3.403  1.00  0.00     0.274 HD
ATOM     53  H41 UNL     1       3.097   3.841  -2.557  1.00  0.00     0.274 HD
ENDBRANCH   3  50
TORSDOF 13
