REMARK  13 active torsions:
REMARK  status: ('A' for Active; 'I' for Inactive)
REMARK    1  A    between atoms: C2_2  and  C3_3 
REMARK    2  A    between atoms: C3_3  and  C4_4 
REMARK    3  A    between atoms: C4_4  and  C5_5 
REMARK    4  A    between atoms: C5_5  and  C6_6 
REMARK    5  A    between atoms: C6_6  and  N1_7 
REMARK    6  A    between atoms: C6_6  and  N2_17 
REMARK       I    between atoms: N1_7  and  C7_9 
REMARK    7  A    between atoms: C7_9  and  C8_11 
REMARK    8  A    between atoms: C8_11  and  C9_13 
REMARK       I    between atoms: N2_17  and  C13_19 
REMARK    9  A    between atoms: C13_19  and  C14_21 
REMARK   10  A    between atoms: C16_23  and  O4_24 
REMARK   11  A    between atoms: O4_24  and  C17_25 
REMARK   12  A    between atoms: C17_25  and  C18_26 
REMARK       I    between atoms: C18_26  and  N3_28 
REMARK   13  A    between atoms: C23_33  and  N4_34 
ROOT
HETATM    1  C14 UNL     1       0.294  -0.475  -1.142  1.00  0.00     0.072 A 
HETATM    2  C15 UNL     1       1.513   0.145  -0.860  1.00  0.00     0.060 A 
HETATM    3  C16 UNL     1       2.608  -0.053  -1.665  1.00  0.00     0.114 A 
HETATM    4  C23 UNL     1       2.545  -0.861  -2.774  1.00  0.00     0.138 A 
HETATM    5  N5  UNL     1       1.351  -1.468  -3.048  1.00  0.00    -0.331 N 
ATOM      6  H5  UNL     1       1.274  -2.075  -3.864  1.00  0.00     0.168 HD
HETATM    7  C28 UNL     1       0.260  -1.276  -2.249  1.00  0.00     0.131 A 
HETATM    8  C29 UNL     1      -0.968  -1.942  -2.588  1.00  0.00     0.118 C 
HETATM    9  N6  UNL     1      -1.936  -2.484  -2.843  1.00  0.00    -0.190 NA
ENDROOT
BRANCH   1  10
HETATM   10  C13 UNL     1      -0.861  -0.292  -0.287  1.00  0.00     0.256 C 
HETATM   11  N2  UNL     1      -1.642  -1.270   0.324  1.00  0.00    -0.336 N 
ATOM     12  H2  UNL     1      -1.367  -2.237   0.150  1.00  0.00     0.164 HD
HETATM   13  O3  UNL     1      -1.153   0.934  -0.100  1.00  0.00    -0.267 OA
BRANCH  11  14
HETATM   14  C6  UNL     1      -2.797  -1.081   1.176  1.00  0.00     0.187 C 
BRANCH  14  15
HETATM   15  C5  UNL     1      -2.510  -1.463   2.621  1.00  0.00     0.047 C 
BRANCH  15  16
HETATM   16  C4  UNL     1      -1.511  -0.619   3.302  1.00  0.00     0.004 C 
BRANCH  16  17
HETATM   17  C3  UNL     1      -1.967   0.816   3.397  1.00  0.00    -0.000 C 
BRANCH  17  18
HETATM   18  C2  UNL     1      -0.929   1.687   4.063  1.00  0.00    -0.005 C 
HETATM   19  C1  UNL     1      -1.446   3.101   4.110  1.00  0.00     0.005 C 
ENDBRANCH  17  18
ENDBRANCH  16  17
ENDBRANCH  15  16
ENDBRANCH  14  15
BRANCH  14  20
HETATM   20  N1  UNL     1      -3.817  -1.966   0.644  1.00  0.00    -0.333 N 
HETATM   21  C7  UNL     1      -5.128  -1.591   0.287  1.00  0.00     0.289 C 
HETATM   22  O1  UNL     1      -5.545  -0.415   0.388  1.00  0.00    -0.264 OA
ATOM     23  H1  UNL     1      -3.563  -2.946   0.517  1.00  0.00     0.165 HD
BRANCH  21  24
HETATM   24  C8  UNL     1      -6.058  -2.584  -0.218  1.00  0.00     0.224 C 
HETATM   25  O2  UNL     1      -5.628  -3.781  -0.370  1.00  0.00    -0.286 OA
BRANCH  24  26
HETATM   26  C9  UNL     1      -7.452  -2.235  -0.546  1.00  0.00     0.019 C 
HETATM   27  C10 UNL     1      -7.575  -1.216  -1.655  1.00  0.00     0.023 C 
HETATM   28  C11 UNL     1      -8.202  -3.506  -0.864  1.00  0.00     0.023 C 
HETATM   29  C12 UNL     1      -8.118  -1.602   0.676  1.00  0.00     0.023 C 
ENDBRANCH  24  26
ENDBRANCH  21  24
ENDBRANCH  14  20
ENDBRANCH  11  14
ENDBRANCH   1  10
BRANCH   4  30
HETATM   30  N4  UNL     1       3.654  -1.070  -3.630  1.00  0.00    -0.365 N 
HETATM   31  C24 UNL     1       4.410  -0.029  -4.259  1.00  0.00     0.124 C 
HETATM   32  C25 UNL     1       4.703  -0.585  -5.632  1.00  0.00     0.021 C 
HETATM   33  C26 UNL     1       4.727  -2.076  -5.412  1.00  0.00     0.021 C 
HETATM   34  C27 UNL     1       4.199  -2.328  -4.014  1.00  0.00     0.124 C 
ENDBRANCH   4  30
BRANCH   3  35
HETATM   35  O4  UNL     1       3.814   0.588  -1.337  1.00  0.00    -0.338 OA
BRANCH  35  36
HETATM   36  C17 UNL     1       3.911   1.413  -0.190  1.00  0.00     0.278 C 
BRANCH  36  37
HETATM   37  C18 UNL     1       5.313   1.916  -0.113  1.00  0.00     0.244 C 
HETATM   38  O5  UNL     1       6.146   1.677  -1.022  1.00  0.00    -0.271 OA
HETATM   39  N3  UNL     1       5.762   2.692   0.999  1.00  0.00    -0.350 N 
HETATM   40  C19 UNL     1       7.053   3.297   1.198  1.00  0.00     0.126 C 
HETATM   41  C22 UNL     1       4.911   2.956   2.157  1.00  0.00     0.126 C 
HETATM   42  C20 UNL     1       6.807   4.416   2.153  1.00  0.00     0.021 C 
HETATM   43  C21 UNL     1       5.794   3.755   3.107  1.00  0.00     0.021 C 
ENDBRANCH  36  37
ENDBRANCH  35  36
ENDBRANCH   3  35
TORSDOF 13
