REMARK  1 active torsions:
REMARK  status: ('A' for Active; 'I' for Inactive)
REMARK    1  A    between atoms: N1_2  and  C2_5 
ROOT
HETATM    1  C2  UNL     1       1.003  -0.051  -0.405  1.00  0.00     0.212 C 
HETATM    2  C3  UNL     1       0.574  -1.336   0.206  1.00  0.00     0.108 C 
HETATM    3  S1  UNL     1      -0.514  -1.144   1.633  1.00  0.00    -0.167 SA
HETATM    4  C4  UNL     1      -2.235  -0.864   1.146  1.00  0.00     0.074 C 
HETATM    5  C5  UNL     1      -2.378   0.203   0.097  1.00  0.00     0.012 C 
HETATM    6  C6  UNL     1      -1.173   1.109   0.102  1.00  0.00     0.022 C 
HETATM    7  C7  UNL     1      -0.144   0.783  -0.929  1.00  0.00     0.124 C 
HETATM    8  C8  UNL     1      -0.712   0.179  -2.137  1.00  0.00     0.066 C 
HETATM    9  N2  UNL     1      -1.162  -0.295  -3.096  1.00  0.00    -0.197 NA
ENDROOT
BRANCH   1  10
HETATM   10  N1  UNL     1       1.790   0.783   0.464  1.00  0.00    -0.073 N 
HETATM   11  C1  UNL     1       3.018   0.093   0.782  1.00  0.00     0.267 C 
ATOM     12  H12 UNL     1       1.277   1.071   1.297  1.00  0.00     0.277 HD
ATOM     13  H11 UNL     1       1.954   1.710   0.072  1.00  0.00     0.277 HD
ENDBRANCH   1  10
TORSDOF 1
