REMARK  1 active torsions:
REMARK  status: ('A' for Active; 'I' for Inactive)
REMARK    1  A    between atoms: N1_2  and  C2_4 
ROOT
HETATM    1  C2  UNL     1       0.803  -0.124   0.495  1.00  0.00     0.110 C 
HETATM    2  C3  UNL     1      -0.106  -1.338   0.446  1.00  0.00     0.062 C 
HETATM    3  C4  UNL     1      -1.230  -1.201  -0.529  1.00  0.00     0.162 C 
HETATM    4  C5  UNL     1      -2.361  -0.468   0.140  1.00  0.00     0.035 C 
HETATM    5  C6  UNL     1      -1.798   0.800   0.715  1.00  0.00     0.005 C 
HETATM    6  C7  UNL     1      -0.891   1.541  -0.213  1.00  0.00     0.037 C 
HETATM    7  C8  UNL     1       0.364   0.810  -0.582  1.00  0.00     0.182 C 
HETATM    8  O1  UNL     1       0.182   0.078  -1.741  1.00  0.00    -0.233 OA
HETATM    9  O2  UNL     1      -0.875  -0.673  -1.749  1.00  0.00    -0.235 OA
ENDROOT
BRANCH   1  10
HETATM   10  N1  UNL     1       2.139  -0.597   0.414  1.00  0.00    -0.419 N 
HETATM   11  C1  UNL     1       3.018   0.073  -0.481  1.00  0.00     0.140 C 
ATOM     12  H1  UNL     1       2.456  -1.387   0.976  1.00  0.00     0.153 HD
ENDBRANCH   1  10
TORSDOF 1
