REMARK  5 active torsions:
REMARK  status: ('A' for Active; 'I' for Inactive)
REMARK    1  A    between atoms: O1_2  and  C2_3 
REMARK    2  A    between atoms: N1_5  and  C4_6 
REMARK    3  A    between atoms: C4_6  and  O2_7 
REMARK    4  A    between atoms: C11_16  and  C12_17 
REMARK    5  A    between atoms: C12_17  and  O4_18 
ROOT
HETATM    1  C2  UNL     1      -1.854  -1.128   0.454  1.00  0.00     0.169 C 
HETATM    2  C3  UNL     1      -2.223   0.292  -0.003  1.00  0.00     0.309 C 
HETATM    3  N1  UNL     1      -1.101   1.150   0.060  1.00  0.00     0.124 N 
HETATM    4  C5  UNL     1      -0.495   1.576  -1.138  1.00  0.00     0.278 C 
HETATM    5  C6  UNL     1      -1.136   1.034  -2.409  1.00  0.00     0.208 C 
HETATM    6  O3  UNL     1      -1.025  -0.313  -2.564  1.00  0.00    -0.382 OA
HETATM    7  C7  UNL     1       0.203  -0.834  -2.276  1.00  0.00     0.143 C 
HETATM    8  C8  UNL     1       1.311   0.194  -2.215  1.00  0.00     0.069 C 
HETATM    9  C9  UNL     1       0.980   1.342  -1.279  1.00  0.00    -0.046 C 
HETATM   10  C10 UNL     1       1.782   1.371  -0.053  1.00  0.00    -0.015 C 
HETATM   11  C11 UNL     1       1.766   0.315   0.947  1.00  0.00     0.036 C 
HETATM   12  C13 UNL     1       2.321  -1.011   0.604  1.00  0.00     0.045 C 
HETATM   13  C14 UNL     1       1.375  -1.717  -0.314  1.00  0.00    -0.065 A 
HETATM   14  C15 UNL     1       1.084  -2.810  -1.031  1.00  0.00    -0.004 A 
HETATM   15  C16 UNL     1       0.178  -1.603  -0.975  1.00  0.00     0.046 A 
HETATM   16  C17 UNL     1      -1.212  -1.944  -0.604  1.00  0.00     0.132 C 
HETATM   17 CL1  UNL     1      -1.391  -3.667  -0.116  1.00  0.00    -0.121 Cl
ENDROOT
BRANCH   3  18
HETATM   18  C4  UNL     1      -1.456   2.286   0.932  1.00  0.00     0.438 C 
BRANCH  18  19
HETATM   19  O2  UNL     1      -1.782   1.868   2.198  1.00  0.00    -0.373 OA
ATOM     20  H2  UNL     1      -2.011   2.599   2.759  1.00  0.00     0.211 HD
ENDBRANCH  18  19
ENDBRANCH   3  18
BRANCH   1  21
HETATM   21  O1  UNL     1      -3.002  -1.804   0.873  1.00  0.00    -0.387 OA
HETATM   22  C1  UNL     1      -3.002  -2.105   2.214  1.00  0.00     0.202 C 
ENDBRANCH   1  21
BRANCH  11  23
HETATM   23  C12 UNL     1       2.718   0.824   2.068  1.00  0.00     0.172 C 
BRANCH  23  24
HETATM   24  O4  UNL     1       3.950   0.984   1.434  1.00  0.00    -0.400 OA
ATOM     25  H4  UNL     1       4.531   1.295   2.118  1.00  0.00     0.209 HD
ENDBRANCH  23  24
ENDBRANCH  11  23
TORSDOF 5
