REMARK  5 active torsions:
REMARK  status: ('A' for Active; 'I' for Inactive)
REMARK    1  A    between atoms: O1_2  and  C2_3 
REMARK    2  A    between atoms: C2_3  and  C3_5 
REMARK    3  A    between atoms: C8_11  and  O3_12 
REMARK    4  A    between atoms: C9_14  and  N1_15 
REMARK    5  A    between atoms: N1_15  and  S1_17 
ROOT
HETATM    1  C3  UNL     1       0.491  -0.917   0.124  1.00  0.00     0.070 A 
HETATM    2  C4  UNL     1      -0.154  -2.138   0.141  1.00  0.00     0.028 A 
HETATM    3  C5  UNL     1      -1.345  -2.258  -0.529  1.00  0.00    -0.041 A 
HETATM    4  C6  UNL     1      -2.049  -3.566  -0.518  1.00  0.00     0.049 C 
HETATM    5  C7  UNL     1      -1.879  -1.187  -1.200  1.00  0.00     0.052 A 
HETATM    6 BR1  UNL     1      -3.541  -1.452  -2.106  1.00  0.00    -0.048 Br
HETATM    7  C8  UNL     1      -1.223   0.025  -1.206  1.00  0.00     0.112 A 
HETATM    8  C9  UNL     1      -0.021   0.197  -0.543  1.00  0.00     0.093 A 
ENDROOT
BRANCH   8   9
HETATM    9  N1  UNL     1       0.609   1.459  -0.562  1.00  0.00    -0.281 N 
ATOM     10  H1  UNL     1       1.301   1.621  -1.294  1.00  0.00     0.178 HD
BRANCH   9  11
HETATM   11  S1  UNL     1       0.317   2.747   0.535  1.00  0.00     0.227 S 
HETATM   12  C10 UNL     1      -1.416   3.212   0.336  1.00  0.00     0.186 C 
HETATM   13  O4  UNL     1       0.598   2.449   1.956  1.00  0.00    -0.206 OA
HETATM   14  O5  UNL     1       1.146   3.949   0.147  1.00  0.00    -0.206 OA
ENDBRANCH   9  11
ENDBRANCH   8   9
BRANCH   1  15
HETATM   15  C2  UNL     1       1.799  -0.851   0.756  1.00  0.00     0.295 C 
HETATM   16  O2  UNL     1       2.221  -1.865   1.368  1.00  0.00    -0.259 OA
BRANCH  15  17
HETATM   17  O1  UNL     1       2.625   0.257   0.728  1.00  0.00    -0.322 OA
HETATM   18  C1  UNL     1       3.895   0.225   1.373  1.00  0.00     0.213 C 
ENDBRANCH  15  17
ENDBRANCH   1  15
BRANCH   7  19
HETATM   19  O3  UNL     1      -1.823   1.084  -1.915  1.00  0.00    -0.357 OA
ATOM     20  H3  UNL     1      -1.371   1.919  -1.919  1.00  0.00     0.217 HD
ENDBRANCH   7  19
TORSDOF 5
