REMARK  8 active torsions:
REMARK  status: ('A' for Active; 'I' for Inactive)
REMARK    1  A    between atoms: C1_2  and  C2_4 
REMARK    2  A    between atoms: C2_4  and  C3_5 
REMARK    3  A    between atoms: C2_4  and  C4_7 
REMARK    4  A    between atoms: C4_7  and  O2_8 
REMARK    5  A    between atoms: C4_7  and  N2_10 
REMARK    6  A    between atoms: N2_10  and  C5_12 
REMARK    7  A    between atoms: C5_12  and  C6_13 
REMARK    8  A    between atoms: C5_12  and  C7_16 
ROOT
HETATM    1  N2  UNL     1      -0.011  -0.493   0.025  1.00  0.00    -0.379 N 
ATOM      2  H2  UNL     1       0.089  -0.418  -0.987  1.00  0.00     0.157 HD
ENDROOT
BRANCH   1   3
HETATM    3  C4  UNL     1      -1.279  -0.446   0.588  1.00  0.00     0.227 C 
BRANCH   3   4
HETATM    4  C2  UNL     1      -2.297   0.315  -0.248  1.00  0.00     0.133 C 
BRANCH   4   5
HETATM    5  C1  UNL     1      -1.943   1.736  -0.450  1.00  0.00     0.240 C 
HETATM    6  N1  UNL     1      -2.585   2.532  -1.445  1.00  0.00    -0.062 NA
HETATM    7  O1  UNL     1      -1.042   2.202   0.309  1.00  0.00    -0.276 OA
ENDBRANCH   4   5
BRANCH   4   8
HETATM    8  C3  UNL     1      -3.704   0.153   0.173  1.00  0.00     0.104 C 
HETATM    9  S1  UNL     1      -4.193  -1.568   0.447  1.00  0.00    -0.097 SA
ENDBRANCH   4   8
ENDBRANCH   3   4
BRANCH   3  10
HETATM   10  O2  UNL     1      -1.223   0.193   1.826  1.00  0.00    -0.376 OA
ATOM     11  H2  UNL     1      -0.587  -0.282   2.348  1.00  0.00     0.212 HD
ENDBRANCH   3  10
ENDBRANCH   1   3
BRANCH   1  12
HETATM   12  C5  UNL     1       1.150  -0.644   0.830  1.00  0.00     0.215 C 
BRANCH  12  13
HETATM   13  C6  UNL     1       1.244  -1.901   1.549  1.00  0.00     0.201 C 
HETATM   14  O3  UNL     1       0.110  -2.512   1.865  1.00  0.00    -0.646 OA
HETATM   15  O4  UNL     1       2.318  -2.624   1.990  1.00  0.00    -0.646 OA
ENDBRANCH  12  13
BRANCH  12  16
HETATM   16  C7  UNL     1       2.318  -0.276   0.007  1.00  0.00    -0.010 A 
HETATM   17  C8  UNL     1       2.133   0.695  -1.001  1.00  0.00     0.012 A 
HETATM   18  C9  UNL     1       3.160   1.138  -1.795  1.00  0.00     0.018 A 
HETATM   19  C10 UNL     1       4.432   0.641  -1.633  1.00  0.00     0.087 A 
HETATM   20  N3  UNL     1       4.607  -0.280  -0.676  1.00  0.00    -0.375 N 
HETATM   21  C11 UNL     1       3.597  -0.735   0.126  1.00  0.00     0.097 A 
ATOM     22  H3  UNL     1       5.543  -0.662  -0.538  1.00  0.00     0.164 HD
ENDBRANCH  12  16
ENDBRANCH   1  12
TORSDOF 8
