REMARK  8 active torsions:
REMARK  status: ('A' for Active; 'I' for Inactive)
REMARK    1  A    between atoms: N1_1  and  N2_4 
REMARK       I    between atoms: N2_4  and  C1_6 
REMARK    2  A    between atoms: C1_6  and  C2_8 
REMARK    3  A    between atoms: C2_8  and  C3_9 
REMARK    4  A    between atoms: C3_9  and  N3_10 
REMARK    5  A    between atoms: N3_10  and  C4_13 
REMARK    6  A    between atoms: C4_13  and  C5_14 
REMARK       I    between atoms: C5_14  and  N4_16 
REMARK    7  A    between atoms: N4_16  and  C6_18 
REMARK    8  A    between atoms: C10_22  and  N5_23 
ROOT
HETATM    1  C4  UNL     1       0.723   0.230   0.823  1.00  0.00     0.334 C 
ENDROOT
BRANCH   1   2
HETATM    2  N3  UNL     1       1.644   1.263   1.166  1.00  0.00    -0.066 N 
ATOM      3  H32 UNL     1       1.310   1.811   1.958  1.00  0.00     0.277 HD
ATOM      4  H31 UNL     1       1.659   1.998   0.459  1.00  0.00     0.277 HD
BRANCH   2   5
HETATM    5  C3  UNL     1       2.957   0.743   1.407  1.00  0.00     0.242 C 
BRANCH   5   6
HETATM    6  C2  UNL     1       3.576   0.249   0.146  1.00  0.00     0.132 C 
BRANCH   6   7
HETATM    7  C1  UNL     1       4.960  -0.293   0.389  1.00  0.00     0.237 C 
HETATM    8  N2  UNL     1       5.731  -0.780  -0.685  1.00  0.00    -0.277 N 
ATOM      9  H2  UNL     1       5.321  -0.752  -1.619  1.00  0.00     0.189 HD
HETATM   10  O1  UNL     1       5.455  -0.323   1.550  1.00  0.00    -0.272 OA
BRANCH   8  11
HETATM   11  N1  UNL     1       7.013  -1.296  -0.554  1.00  0.00    -0.343 N 
ATOM     12  H12 UNL     1       7.407  -1.317   0.387  1.00  0.00     0.176 HD
ATOM     13  H11 UNL     1       7.571  -1.649  -1.332  1.00  0.00     0.176 HD
ENDBRANCH   8  11
ENDBRANCH   6   7
ENDBRANCH   5   6
ENDBRANCH   2   5
ENDBRANCH   1   2
BRANCH   1  14
HETATM   14  C5  UNL     1      -0.663   0.766   0.559  1.00  0.00     0.247 C 
HETATM   15  O2  UNL     1      -0.787   1.998   0.678  1.00  0.00    -0.271 OA
HETATM   16  N4  UNL     1      -1.661  -0.135   0.215  1.00  0.00    -0.326 N 
ATOM     17  H4  UNL     1      -1.382  -1.115   0.167  1.00  0.00     0.169 HD
BRANCH  16  18
HETATM   18  C6  UNL     1      -3.024   0.139  -0.079  1.00  0.00     0.037 A 
HETATM   19  C7  UNL     1      -3.561   1.398  -0.173  1.00  0.00     0.029 A 
HETATM   20  C8  UNL     1      -4.919   1.606  -0.462  1.00  0.00     0.005 A 
HETATM   21  C9  UNL     1      -5.776   0.548  -0.665  1.00  0.00     0.036 A 
HETATM   22  C10 UNL     1      -5.243  -0.718  -0.571  1.00  0.00     0.105 A 
HETATM   23  C11 UNL     1      -3.913  -0.924  -0.288  1.00  0.00     0.065 A 
BRANCH  22  24
HETATM   24  N5  UNL     1      -6.111  -1.823  -0.778  1.00  0.00    -0.116 N 
HETATM   25  O3  UNL     1      -7.319  -1.674  -1.036  1.00  0.00    -0.532 OA
HETATM   26  O4  UNL     1      -5.610  -3.102  -0.691  1.00  0.00    -0.532 OA
ENDBRANCH  22  24
ENDBRANCH  16  18
ENDBRANCH   1  14
TORSDOF 8
