REMARK  8 active torsions:
REMARK  status: ('A' for Active; 'I' for Inactive)
REMARK    1  A    between atoms: C2_2  and  C3_3 
REMARK    2  A    between atoms: C3_3  and  C4_4 
REMARK    3  A    between atoms: C6_9  and  C7_10 
REMARK    4  A    between atoms: C7_10  and  O2_12 
REMARK    5  A    between atoms: C11_17  and  C12_18 
REMARK    6  A    between atoms: C15_26  and  C16_27 
REMARK    7  A    between atoms: C16_27  and  C18_29 
REMARK    8  A    between atoms: C22_35  and  C23_36 
ROOT
HETATM    1  C4  UNL     1       2.115  -1.307   0.954  1.00  0.00     0.179 C 
HETATM    2  C5  UNL     1       2.094  -0.054   1.754  1.00  0.00     0.245 C 
HETATM    3  O1  UNL     1       1.239  -0.087   2.725  1.00  0.00    -0.271 OA
HETATM    4  N1  UNL     1       2.830   1.110   1.622  1.00  0.00    -0.323 N 
ATOM      5  H1  UNL     1       3.403   1.310   2.442  1.00  0.00     0.169 HD
HETATM    6  C6  UNL     1       2.968   2.095   0.597  1.00  0.00     0.091 C 
HETATM    7  C9  UNL     1       2.334   3.396   0.992  1.00  0.00     0.197 C 
HETATM    8  O3  UNL     1       2.620   3.691   2.216  1.00  0.00    -0.286 OA
HETATM    9  C10 UNL     1       1.520   4.291   0.257  1.00  0.00     0.064 C 
HETATM   10  C11 UNL     1       0.261   4.276  -0.117  1.00  0.00    -0.024 C 
HETATM   11  C13 UNL     1      -0.745   3.232   0.189  1.00  0.00     0.291 C 
HETATM   12  F1  UNL     1      -0.430   2.525   1.316  1.00  0.00    -0.234 F 
HETATM   13  C14 UNL     1      -1.125   2.420  -0.982  1.00  0.00     0.256 C 
HETATM   14  O4  UNL     1      -0.460   2.570  -2.044  1.00  0.00    -0.270 OA
HETATM   15  N2  UNL     1      -2.173   1.477  -1.041  1.00  0.00    -0.345 N 
ATOM     16  H2  UNL     1      -2.678   1.404  -1.924  1.00  0.00     0.163 HD
HETATM   17  C15 UNL     1      -2.600   0.603   0.031  1.00  0.00     0.180 C 
HETATM   18  C20 UNL     1      -2.922  -0.775  -0.434  1.00  0.00     0.243 C 
HETATM   19  O5  UNL     1      -4.046  -0.954  -1.032  1.00  0.00    -0.271 OA
HETATM   20  N3  UNL     1      -2.113  -1.919  -0.285  1.00  0.00    -0.341 N 
HETATM   21  C21 UNL     1      -2.703  -3.168   0.208  1.00  0.00     0.153 C 
HETATM   22  C22 UNL     1      -0.680  -1.987  -0.603  1.00  0.00     0.182 C 
HETATM   23  C26 UNL     1       0.058  -2.733   0.456  1.00  0.00     0.243 C 
HETATM   24  O6  UNL     1      -0.209  -3.983   0.616  1.00  0.00    -0.271 OA
HETATM   25  N4  UNL     1       1.031  -2.220   1.318  1.00  0.00    -0.341 N 
HETATM   26  C27 UNL     1       0.968  -2.633   2.731  1.00  0.00     0.153 C 
ENDROOT
BRANCH   6  27
HETATM   27  C7  UNL     1       2.827   1.696  -0.815  1.00  0.00     0.168 C 
HETATM   28  C8  UNL     1       4.048   0.857  -1.244  1.00  0.00     0.046 C 
BRANCH  27  29
HETATM   29  O2  UNL     1       2.927   2.803  -1.662  1.00  0.00    -0.390 OA
ATOM     30  H2  UNL     1       2.836   2.546  -2.572  1.00  0.00     0.210 HD
ENDBRANCH  27  29
ENDBRANCH   6  27
BRANCH   1  31
HETATM   31  C3  UNL     1       3.395  -2.098   1.234  1.00  0.00     0.035 C 
BRANCH  31  32
HETATM   32  C2  UNL     1       3.481  -3.359   0.463  1.00  0.00    -0.002 C 
HETATM   33  C1  UNL     1       4.811  -4.030   0.844  1.00  0.00     0.005 C 
ENDBRANCH  31  32
ENDBRANCH   1  31
BRANCH  10  34
HETATM   34  C12 UNL     1      -0.288   5.435  -0.921  1.00  0.00     0.122 C 
HETATM   35 BR1  UNL     1       1.079   6.761  -1.236  1.00  0.00    -0.092 Br
ENDBRANCH  10  34
BRANCH  22  36
HETATM   36  C23 UNL     1      -0.545  -2.782  -1.913  1.00  0.00     0.009 C 
HETATM   37  C24 UNL     1      -1.306  -2.077  -3.025  1.00  0.00     0.012 C 
HETATM   38  C25 UNL     1       0.860  -2.930  -2.369  1.00  0.00     0.012 C 
ENDBRANCH  22  36
BRANCH  17  39
HETATM   39  C16 UNL     1      -3.777   1.289   0.695  1.00  0.00     0.013 C 
HETATM   40  C17 UNL     1      -4.359   0.505   1.832  1.00  0.00     0.012 C 
BRANCH  39  41
HETATM   41  C18 UNL     1      -4.770   1.870  -0.249  1.00  0.00     0.002 C 
HETATM   42  C19 UNL     1      -5.929   2.547   0.449  1.00  0.00     0.005 C 
ENDBRANCH  39  41
ENDBRANCH  17  39
TORSDOF 8
