REMARK  14 active torsions:
REMARK  status: ('A' for Active; 'I' for Inactive)
REMARK    1  A    between atoms: C2_2  and  O1_3 
REMARK    2  A    between atoms: C2_2  and  C3_5 
REMARK    3  A    between atoms: C4_7  and  C5_8 
REMARK    4  A    between atoms: N1_9  and  O3_11 
REMARK    5  A    between atoms: C7_14  and  O4_15 
REMARK    6  A    between atoms: O4_15  and  C8_16 
REMARK    7  A    between atoms: C9_18  and  O6_19 
REMARK    8  A    between atoms: O6_19  and  C10_20 
REMARK    9  A    between atoms: C11_21  and  N2_22 
REMARK   10  A    between atoms: C13_27  and  N3_28 
REMARK   11  A    between atoms: C14_32  and  O7_33 
REMARK   12  A    between atoms: C15_35  and  O8_36 
REMARK   13  A    between atoms: C16_38  and  N4_39 
REMARK   14  A    between atoms: C18_44  and  N5_45 
ROOT
HETATM    1  C8  UNL     1      -1.216   0.090   1.102  1.00  0.00     0.293 C 
HETATM    2  O5  UNL     1      -0.542   1.212   0.490  1.00  0.00    -0.327 OA
HETATM    3  C9  UNL     1       0.693   1.296   1.115  1.00  0.00     0.294 C 
HETATM    4  C16 UNL     1       0.456   2.034   2.421  1.00  0.00     0.240 C 
HETATM    5  C17 UNL     1      -1.034   1.916   2.774  1.00  0.00     0.075 C 
HETATM    6  C18 UNL     1      -1.581   0.561   2.448  1.00  0.00     0.240 C 
ENDROOT
BRANCH   3   7
HETATM    7  O6  UNL     1       1.732   1.733   0.351  1.00  0.00    -0.349 OA
BRANCH   7   8
HETATM    8  C10 UNL     1       2.774   0.880   0.169  1.00  0.00     0.186 C 
HETATM    9  C11 UNL     1       4.109   1.390   0.708  1.00  0.00     0.217 C 
HETATM   10  C12 UNL     1       5.169   0.351   0.414  1.00  0.00     0.071 C 
HETATM   11  C13 UNL     1       5.404   0.266  -1.076  1.00  0.00     0.216 C 
HETATM   12  C14 UNL     1       4.105  -0.169  -1.706  1.00  0.00     0.179 C 
HETATM   13  C15 UNL     1       2.962   0.707  -1.325  1.00  0.00     0.180 C 
BRANCH   9  14
HETATM   14  N2  UNL     1       4.478   2.650   0.126  1.00  0.00    -0.072 N 
ATOM     15  H23 UNL     1       4.485   2.599  -0.893  1.00  0.00     0.274 HD
ATOM     16  H22 UNL     1       3.740   3.344   0.247  1.00  0.00     0.274 HD
ATOM     17  H21 UNL     1       5.370   2.991   0.486  1.00  0.00     0.274 HD
ENDBRANCH   9  14
BRANCH  11  18
HETATM   18  N3  UNL     1       6.403  -0.732  -1.353  1.00  0.00    -0.072 N 
ATOM     19  H33 UNL     1       7.267  -0.565  -0.837  1.00  0.00     0.274 HD
ATOM     20  H32 UNL     1       6.164  -1.638  -0.950  1.00  0.00     0.274 HD
ATOM     21  H31 UNL     1       6.562  -0.789  -2.359  1.00  0.00     0.274 HD
ENDBRANCH  11  18
BRANCH  12  22
HETATM   22  O7  UNL     1       4.245  -0.066  -3.097  1.00  0.00    -0.391 OA
ATOM     23  H7  UNL     1       3.427  -0.340  -3.494  1.00  0.00     0.210 HD
ENDBRANCH  12  22
BRANCH  13  24
HETATM   24  O8  UNL     1       1.800   0.240  -1.936  1.00  0.00    -0.390 OA
ATOM     25  H8  UNL     1       1.918   0.132  -2.872  1.00  0.00     0.210 HD
ENDBRANCH  13  24
ENDBRANCH   7   8
ENDBRANCH   3   7
BRANCH   4  26
HETATM   26  N4  UNL     1       1.268   1.533   3.509  1.00  0.00    -0.070 N 
ATOM     27  H43 UNL     1       1.136   0.529   3.629  1.00  0.00     0.274 HD
ATOM     28  H42 UNL     1       2.257   1.543   3.260  1.00  0.00     0.274 HD
ATOM     29  H41 UNL     1       1.109   2.029   4.386  1.00  0.00     0.274 HD
ENDBRANCH   4  26
BRANCH   1  30
HETATM   30  O4  UNL     1      -1.979  -0.383   0.239  1.00  0.00    -0.351 OA
BRANCH  30  31
HETATM   31  C7  UNL     1      -2.726  -0.851  -0.608  1.00  0.00     0.159 C 
HETATM   32  C3  UNL     1      -4.153  -1.336  -0.338  1.00  0.00     0.179 C 
HETATM   33  O2  UNL     1      -4.474  -1.878  -1.610  1.00  0.00    -0.370 OA
HETATM   34  C4  UNL     1      -3.809  -1.190  -2.578  1.00  0.00     0.165 C 
HETATM   35  C6  UNL     1      -3.061  -0.068  -1.882  1.00  0.00     0.072 C 
BRANCH  32  36
HETATM   36  C2  UNL     1      -4.210  -2.444   0.689  1.00  0.00     0.145 C 
HETATM   37  C1  UNL     1      -5.606  -3.058   0.582  1.00  0.00     0.042 C 
BRANCH  36  38
HETATM   38  O1  UNL     1      -3.941  -2.050   1.978  1.00  0.00    -0.393 OA
ATOM     39  H1  UNL     1      -3.074  -1.668   2.044  1.00  0.00     0.210 HD
ENDBRANCH  36  38
ENDBRANCH  32  36
BRANCH  34  40
HETATM   40  C5  UNL     1      -4.709  -0.701  -3.643  1.00  0.00     0.118 C 
HETATM   41  N1  UNL     1      -4.228  -0.143  -4.701  1.00  0.00    -0.282 N 
ATOM     42  H1  UNL     1      -4.859   0.190  -5.430  1.00  0.00     0.193 HD
BRANCH  41  43
HETATM   43  O3  UNL     1      -2.875   0.005  -4.853  1.00  0.00    -0.290 OA
ATOM     44  H3  UNL     1      -2.521   0.416  -5.633  1.00  0.00     0.244 HD
ENDBRANCH  41  43
ENDBRANCH  34  40
ENDBRANCH  30  31
ENDBRANCH   1  30
BRANCH   6  45
HETATM   45  N5  UNL     1      -1.092  -0.324   3.522  1.00  0.00    -0.070 N 
ATOM     46  H53 UNL     1      -1.406  -1.283   3.375  1.00  0.00     0.274 HD
ATOM     47  H52 UNL     1      -0.085  -0.465   3.447  1.00  0.00     0.274 HD
ATOM     48  H51 UNL     1      -1.345   0.002   4.455  1.00  0.00     0.274 HD
ENDBRANCH   6  45
TORSDOF 14
