REMARK  3 active torsions:
REMARK  status: ('A' for Active; 'I' for Inactive)
REMARK    1  A    between atoms: C2_2  and  C3_3 
REMARK    2  A    between atoms: C3_3  and  C4_4 
REMARK    3  A    between atoms: C7_9  and  N2_10 
ROOT
HETATM    1  C4  UNL     1       4.142  -0.416  -0.281  1.00  0.00     0.104 A 
HETATM    2  N1  UNL     1       3.841   0.082   0.928  1.00  0.00    -0.352 N 
ATOM      3  H1  UNL     1       4.505   0.355   1.652  1.00  0.00     0.166 HD
HETATM    4  C5  UNL     1       2.520   0.153   1.006  1.00  0.00     0.125 A 
HETATM    5  C6  UNL     1       1.999  -0.310  -0.179  1.00  0.00     0.117 A 
HETATM    6  C7  UNL     1       0.669  -0.442  -0.605  1.00  0.00     0.135 A 
HETATM    7  N3  UNL     1       0.462  -0.929  -1.823  1.00  0.00    -0.336 N 
ATOM      8  H3  UNL     1      -0.492  -1.041  -2.167  1.00  0.00     0.168 HD
HETATM    9  C18 UNL     1       1.505  -1.278  -2.611  1.00  0.00     0.199 A 
HETATM   10  N4  UNL     1       2.780  -1.151  -2.201  1.00  0.00    -0.288 N 
ATOM     11  H4  UNL     1       3.551  -1.421  -2.812  1.00  0.00     0.188 HD
HETATM   12  N5  UNL     1       3.019  -0.662  -0.972  1.00  0.00    -0.238 N 
ENDROOT
BRANCH   6  13
HETATM   13  N2  UNL     1      -0.382  -0.055   0.275  1.00  0.00    -0.363 N 
HETATM   14  C8  UNL     1      -0.409   1.312   0.710  1.00  0.00     0.139 C 
HETATM   15  C9  UNL     1      -1.605   1.999   0.054  1.00  0.00     0.062 C 
HETATM   16  C10 UNL     1      -1.645   3.461   0.335  1.00  0.00     0.023 C 
HETATM   17  S1  UNL     1      -3.073   1.129   0.731  1.00  0.00    -0.151 SA
HETATM   18  C11 UNL     1      -2.780  -0.627   0.429  1.00  0.00     0.025 C 
HETATM   19  C12 UNL     1      -3.635  -1.501   1.321  1.00  0.00     0.022 C 
HETATM   20  C16 UNL     1      -3.207  -0.915  -1.000  1.00  0.00     0.022 C 
HETATM   21  C17 UNL     1      -1.340  -1.028   0.675  1.00  0.00     0.145 C 
HETATM   22  C13 UNL     1      -5.074  -1.504   0.961  1.00  0.00     0.002 C 
HETATM   23  C14 UNL     1      -5.489  -0.483  -0.037  1.00  0.00     0.000 C 
HETATM   24  C15 UNL     1      -4.583  -0.342  -1.207  1.00  0.00     0.002 C 
ENDBRANCH   6  13
BRANCH   1  25
HETATM   25  C3  UNL     1       5.522  -0.668  -0.802  1.00  0.00     0.078 C 
BRANCH  25  26
HETATM   26  C2  UNL     1       6.554  -0.278   0.240  1.00  0.00     0.003 C 
HETATM   27  C1  UNL     1       6.459   1.167   0.605  1.00  0.00     0.005 C 
ENDBRANCH  25  26
ENDBRANCH   1  25
TORSDOF 3
