REMARK  8 active torsions:
REMARK  status: ('A' for Active; 'I' for Inactive)
REMARK    1  A    between atoms: C3_3  and  C4_4 
REMARK    2  A    between atoms: C3_3  and  C28_32 
REMARK    3  A    between atoms: C15_15  and  O1_16 
REMARK    4  A    between atoms: C16_18  and  O2_19 
REMARK       I    between atoms: C28_32  and  N1_34 
REMARK    5  A    between atoms: N1_34  and  C29_36 
REMARK    6  A    between atoms: C29_36  and  C30_37 
REMARK    7  A    between atoms: C29_36  and  C33_42 
REMARK    8  A    between atoms: C30_37  and  O4_40 
ROOT
HETATM    1  C1  UNL     1       2.404   4.299   1.356  1.00  0.00     0.013 C 
HETATM    2  C2  UNL     1       2.782   3.199   1.047  1.00  0.00    -0.099 C 
HETATM    3  C3  UNL     1       3.242   1.825   0.687  1.00  0.00     0.179 C 
ENDROOT
BRANCH   3   4
HETATM    4  C4  UNL     1       2.161   1.189  -0.076  1.00  0.00     0.003 C 
HETATM    5  C5  UNL     1       1.501   0.088   0.162  1.00  0.00    -0.073 C 
HETATM    6  C6  UNL     1       0.403  -0.360  -0.811  1.00  0.00     0.040 C 
HETATM    7  C25 UNL     1       1.480  -0.963   1.171  1.00  0.00    -0.017 C 
HETATM    8  C7  UNL     1      -0.437  -1.320  -0.086  1.00  0.00     0.003 C 
HETATM    9  C8  UNL     1      -1.917  -1.208  -0.310  1.00  0.00    -0.005 C 
HETATM   10  C23 UNL     1      -0.038  -1.152   1.346  1.00  0.00    -0.029 C 
HETATM   11  C9  UNL     1      -2.209  -1.131  -1.789  1.00  0.00     0.006 C 
HETATM   12  C20 UNL     1      -2.604  -0.176   0.511  1.00  0.00    -0.001 C 
HETATM   13  C10 UNL     1      -3.669  -1.020  -2.080  1.00  0.00     0.007 C 
HETATM   14  C11 UNL     1      -4.418  -0.046  -1.238  1.00  0.00     0.004 C 
HETATM   15  C12 UNL     1      -5.698  -0.678  -0.753  1.00  0.00    -0.015 C 
HETATM   16  C18 UNL     1      -3.618   0.658  -0.203  1.00  0.00    -0.033 C 
HETATM   17  C13 UNL     1      -5.550  -1.852   0.139  1.00  0.00     0.018 C 
HETATM   18  C14 UNL     1      -6.419  -1.172  -2.019  1.00  0.00     0.018 C 
HETATM   19  C15 UNL     1      -6.638   0.316  -0.111  1.00  0.00     0.155 C 
HETATM   20  C16 UNL     1      -5.906   1.544   0.309  1.00  0.00     0.148 C 
HETATM   21  C17 UNL     1      -4.558   1.214   0.880  1.00  0.00     0.044 C 
HETATM   22  C19 UNL     1      -3.001   1.918  -0.814  1.00  0.00     0.016 C 
HETATM   23  C21 UNL     1      -1.646   0.777   1.205  1.00  0.00     0.006 C 
HETATM   24  C22 UNL     1      -0.587   0.072   1.990  1.00  0.00     0.011 C 
HETATM   25  C24 UNL     1      -0.376  -2.371   2.145  1.00  0.00     0.016 C 
HETATM   26  C26 UNL     1       2.166  -0.757   2.451  1.00  0.00     0.020 C 
HETATM   27  C27 UNL     1       2.091  -2.225   0.539  1.00  0.00     0.020 C 
BRANCH  19  28
HETATM   28  O1  UNL     1      -7.282  -0.266   1.002  1.00  0.00    -0.392 OA
ATOM     29  H1  UNL     1      -7.873   0.359   1.406  1.00  0.00     0.210 HD
ENDBRANCH  19  28
BRANCH  20  30
HETATM   30  O2  UNL     1      -6.637   2.190   1.296  1.00  0.00    -0.393 OA
ATOM     31  H2  UNL     1      -6.170   2.973   1.564  1.00  0.00     0.210 HD
ENDBRANCH  20  30
ENDBRANCH   3   4
BRANCH   3  32
HETATM   32  C28 UNL     1       4.489   1.966  -0.118  1.00  0.00     0.237 C 
HETATM   33  O3  UNL     1       4.940   3.102  -0.359  1.00  0.00    -0.272 OA
HETATM   34  N1  UNL     1       5.145   0.831  -0.596  1.00  0.00    -0.344 N 
ATOM     35  H1  UNL     1       4.738  -0.077  -0.371  1.00  0.00     0.163 HD
BRANCH  34  36
HETATM   36  C29 UNL     1       6.354   0.841  -1.383  1.00  0.00     0.225 C 
BRANCH  36  37
HETATM   37  C30 UNL     1       7.475   0.223  -0.590  1.00  0.00     0.079 C 
HETATM   38  C31 UNL     1       7.708   1.136   0.623  1.00  0.00     0.048 C 
HETATM   39  C32 UNL     1       7.167  -1.138  -0.064  1.00  0.00     0.048 C 
BRANCH  37  40
HETATM   40  O4  UNL     1       8.669   0.197  -1.280  1.00  0.00    -0.388 OA
ATOM     41  H4  UNL     1       9.376  -0.193  -0.780  1.00  0.00     0.210 HD
ENDBRANCH  37  40
ENDBRANCH  36  37
BRANCH  36  42
HETATM   42  C33 UNL     1       6.197   0.281  -2.756  1.00  0.00     0.410 C 
HETATM   43  F1  UNL     1       5.237   1.064  -3.411  1.00  0.00    -0.169 F 
HETATM   44  F2  UNL     1       7.370   0.467  -3.442  1.00  0.00    -0.169 F 
HETATM   45  F3  UNL     1       5.747  -1.002  -2.801  1.00  0.00    -0.169 F 
ENDBRANCH  36  42
ENDBRANCH  34  36
ENDBRANCH   3  32
TORSDOF 8
