REMARK  7 active torsions:
REMARK  status: ('A' for Active; 'I' for Inactive)
REMARK    1  A    between atoms: C2_2  and  C3_3 
REMARK    2  A    between atoms: C3_3  and  N1_4 
REMARK    3  A    between atoms: N1_4  and  C4_6 
REMARK    4  A    between atoms: N3_10  and  S1_12 
REMARK    5  A    between atoms: S1_12  and  C6_15 
REMARK    6  A    between atoms: C9_19  and  S2_20 
REMARK    7  A    between atoms: C11_25  and  C12_26 
ROOT
HETATM    1  S1  UNL     1      -0.757  -0.231   0.260  1.00  0.00     0.279 S 
HETATM    2  O1  UNL     1      -0.368   0.126   1.658  1.00  0.00    -0.200 OA
HETATM    3  O2  UNL     1      -0.028  -1.587   0.024  1.00  0.00    -0.200 OA
ENDROOT
BRANCH   1   4
HETATM    4  N3  UNL     1      -0.160   0.803  -0.927  1.00  0.00    -0.112 N 
HETATM    5  C5  UNL     1       1.105   1.087  -1.030  1.00  0.00     0.693 A 
HETATM    6  N2  UNL     1       2.035   0.602  -0.226  1.00  0.00    -0.175 N 
HETATM    7  N4  UNL     1       1.501   1.939  -2.028  1.00  0.00    -0.200 N 
HETATM    8  C4  UNL     1       3.387   0.886  -0.312  1.00  0.00     0.135 A 
ATOM      9  H2  UNL     1       1.733  -0.030   0.515  1.00  0.00     0.186 HD
HETATM   10  C15 UNL     1       3.776   1.742  -1.315  1.00  0.00     0.071 A 
HETATM   11  C14 UNL     1       2.789   2.245  -2.153  1.00  0.00     0.129 A 
HETATM   12 BR1  UNL     1       5.559   2.277  -1.631  1.00  0.00    -0.046 Br
ATOM     13  H4  UNL     1       0.814   2.335  -2.669  1.00  0.00     0.183 HD
ATOM     14  H3  UNL     1      -0.814   1.222  -1.589  1.00  0.00     0.197 HD
BRANCH   8  15
HETATM   15  N1  UNL     1       4.161   0.369   0.501  1.00  0.00    -0.375 N 
ATOM     16  H1  UNL     1       3.605  -0.214   1.127  1.00  0.00     0.161 HD
BRANCH  15  17
HETATM   17  C3  UNL     1       5.466   0.267   0.896  1.00  0.00     0.121 C 
BRANCH  17  18
HETATM   18  C2  UNL     1       6.114  -0.941   0.209  1.00  0.00     0.015 C 
HETATM   19  C1  UNL     1       5.351  -2.212   0.615  1.00  0.00     0.006 C 
ENDBRANCH  17  18
ENDBRANCH  15  17
ENDBRANCH   8  15
ENDBRANCH   1   4
BRANCH   1  20
HETATM   20  C6  UNL     1      -2.438  -0.560   0.154  1.00  0.00     0.115 A 
HETATM   21  C7  UNL     1      -2.842  -1.756  -0.433  1.00  0.00     0.059 A 
HETATM   22 CL1  UNL     1      -1.622  -2.854  -1.052  1.00  0.00    -0.083 Cl
HETATM   23  C8  UNL     1      -4.175  -2.119  -0.555  1.00  0.00     0.051 A 
HETATM   24  C9  UNL     1      -5.131  -1.276  -0.083  1.00  0.00     0.093 A 
HETATM   25  C10 UNL     1      -4.766  -0.100   0.493  1.00  0.00     0.042 A 
HETATM   26  C11 UNL     1      -3.399   0.267   0.613  1.00  0.00     0.036 A 
BRANCH  24  27
HETATM   27  S2  UNL     1      -6.853  -1.639  -0.183  1.00  0.00     0.333 S 
HETATM   28  O3  UNL     1      -7.069  -2.488  -1.402  1.00  0.00    -0.189 OA
HETATM   29  O4  UNL     1      -7.579  -0.332  -0.305  1.00  0.00    -0.189 OA
HETATM   30  F1  UNL     1      -7.346  -2.455   1.194  1.00  0.00    -0.100 F 
ENDBRANCH  24  27
BRANCH  26  31
HETATM   31  C12 UNL     1      -3.100   1.564   1.159  1.00  0.00     0.157 C 
HETATM   32  C13 UNL     1      -4.150   2.289   1.917  1.00  0.00     0.097 C 
HETATM   33  O5  UNL     1      -2.011   2.117   1.034  1.00  0.00    -0.293 OA
ENDBRANCH  26  31
ENDBRANCH   1  20
TORSDOF 7
