REMARK  10 active torsions:
REMARK  status: ('A' for Active; 'I' for Inactive)
REMARK    1  A    between atoms: C2_2  and  C3_3 
REMARK    2  A    between atoms: C3_3  and  C4_4 
REMARK    3  A    between atoms: C4_4  and  C5_5 
REMARK    4  A    between atoms: C5_5  and  C6_6 
REMARK    5  A    between atoms: C6_6  and  N1_7 
REMARK    6  A    between atoms: C7_8  and  O1_9 
REMARK    7  A    between atoms: C8_11  and  C9_12 
REMARK    8  A    between atoms: C9_12  and  O2_13 
REMARK    9  A    between atoms: C9_12  and  C10_15 
REMARK   10  A    between atoms: C21_29  and  O3_30 
ROOT
HETATM    1  N1  UNL     1       1.934   0.216  -0.636  1.00  0.00    -0.313 N 
HETATM    2  C7  UNL     1       0.913   0.995  -0.339  1.00  0.00     0.153 A 
HETATM    3  C8  UNL     1      -0.067   0.271   0.393  1.00  0.00     0.038 A 
HETATM    4  C18 UNL     1       0.432  -0.991   0.525  1.00  0.00     0.032 A 
HETATM    5  C19 UNL     1       0.229  -2.254   1.077  1.00  0.00     0.004 A 
HETATM    6  C20 UNL     1      -0.879  -2.740   1.933  1.00  0.00     0.054 C 
HETATM    7  C21 UNL     1       1.354  -2.993   0.737  1.00  0.00     0.148 A 
HETATM    8  N3  UNL     1       2.187  -2.225   0.029  1.00  0.00    -0.322 N 
ATOM      9  H3  UNL     1       3.087  -2.530  -0.342  1.00  0.00     0.169 HD
HETATM   10  C22 UNL     1       1.670  -0.994  -0.125  1.00  0.00     0.123 A 
ENDROOT
BRANCH   3  11
HETATM   11  C9  UNL     1      -1.249   0.923   0.935  1.00  0.00     0.187 C 
BRANCH  11  12
HETATM   12  O2  UNL     1      -0.950   1.345   2.286  1.00  0.00    -0.389 OA
ATOM     13  H2  UNL     1      -1.722   1.771   2.640  1.00  0.00     0.210 HD
ENDBRANCH  11  12
BRANCH  11  14
HETATM   14  C10 UNL     1      -2.559   0.207   0.962  1.00  0.00     0.220 C 
HETATM   15  C11 UNL     1      -3.659   1.138   1.483  1.00  0.00     0.042 C 
HETATM   16  C12 UNL     1      -4.428   1.548   0.301  1.00  0.00     0.018 C 
HETATM   17  C13 UNL     1      -5.901   1.300   0.557  1.00  0.00     0.011 C 
HETATM   18  C17 UNL     1      -4.004   0.656  -0.828  1.00  0.00     0.191 C 
HETATM   19  C14 UNL     1      -6.239   0.021  -0.170  1.00  0.00    -0.016 C 
HETATM   20  C15 UNL     1      -7.670   0.132  -0.622  1.00  0.00     0.010 C 
HETATM   21  C16 UNL     1      -5.254  -0.064  -1.301  1.00  0.00     0.037 C 
HETATM   22  N2  UNL     1      -2.959  -0.196  -0.374  1.00  0.00    -0.064 N 
ATOM     23  H22 UNL     1      -2.172  -0.222  -1.022  1.00  0.00     0.278 HD
ATOM     24  H21 UNL     1      -3.216  -1.182  -0.420  1.00  0.00     0.278 HD
ENDBRANCH  11  14
ENDBRANCH   3  11
BRANCH   2  25
HETATM   25  O1  UNL     1       0.798   2.338  -0.688  1.00  0.00    -0.345 OA
ATOM     26  H1  UNL     1       0.062   2.899  -0.474  1.00  0.00     0.219 HD
ENDBRANCH   2  25
BRANCH   1  27
HETATM   27  C6  UNL     1       3.132   0.597  -1.415  1.00  0.00     0.133 C 
BRANCH  27  28
HETATM   28  C5  UNL     1       4.142   1.196  -0.481  1.00  0.00     0.020 C 
BRANCH  28  29
HETATM   29  C4  UNL     1       5.400   1.628  -1.187  1.00  0.00     0.002 C 
BRANCH  29  30
HETATM   30  C3  UNL     1       6.186   0.540  -1.820  1.00  0.00    -0.000 C 
BRANCH  30  31
HETATM   31  C2  UNL     1       6.719  -0.469  -0.823  1.00  0.00    -0.005 C 
HETATM   32  C1  UNL     1       7.653   0.227   0.170  1.00  0.00     0.005 C 
ENDBRANCH  30  31
ENDBRANCH  29  30
ENDBRANCH  28  29
ENDBRANCH  27  28
ENDBRANCH   1  27
BRANCH   7  33
HETATM   33  O3  UNL     1       1.537  -4.329   1.103  1.00  0.00    -0.346 OA
ATOM     34  H3  UNL     1       2.307  -4.835   0.870  1.00  0.00     0.219 HD
ENDBRANCH   7  33
TORSDOF 10
