REMARK  8 active torsions:
REMARK  status: ('A' for Active; 'I' for Inactive)
REMARK    1  A    between atoms: C2_2  and  O1_4 
REMARK    2  A    between atoms: O1_4  and  C4_5 
REMARK       I    between atoms: C4_5  and  N1_7 
REMARK    3  A    between atoms: N3_15  and  C10_16 
REMARK    4  A    between atoms: C10_16  and  O3_17 
REMARK    5  A    between atoms: C10_16  and  N4_19 
REMARK    6  A    between atoms: N4_19  and  C12_21 
REMARK    7  A    between atoms: C12_21  and  C13_22 
REMARK    8  A    between atoms: C13_22  and  O4_23 
ROOT
HETATM    1  C4  UNL     1       3.109  -0.228  -0.253  1.00  0.00     0.363 C 
HETATM    2  O2  UNL     1       3.974  -0.451  -1.151  1.00  0.00    -0.238 OA
HETATM    3  N1  UNL     1       2.304  -1.297   0.292  1.00  0.00    -0.325 N 
HETATM    4  C5  UNL     1       2.502  -2.610  -0.197  1.00  0.00     0.147 C 
HETATM    5  C6  UNL     1       1.408  -3.586   0.100  1.00  0.00     0.133 C 
HETATM    6  N2  UNL     1       0.307  -3.583  -0.785  1.00  0.00    -0.420 N 
ATOM      7  H2  UNL     1       0.295  -4.205  -1.593  1.00  0.00     0.153 HD
HETATM    8  C7  UNL     1      -0.782  -2.706  -0.540  1.00  0.00     0.115 C 
HETATM    9  C8  UNL     1      -1.359  -2.712   0.829  1.00  0.00     0.039 C 
HETATM   10  C9  UNL     1      -1.490  -1.350   1.481  1.00  0.00     0.128 C 
HETATM   11  N3  UNL     1      -0.996  -0.261   0.716  1.00  0.00    -0.346 N 
HETATM   12  C14 UNL     1       0.440   0.087   0.740  1.00  0.00     0.146 C 
HETATM   13  C15 UNL     1       1.351  -0.904   1.312  1.00  0.00     0.148 C 
ENDROOT
BRANCH  11  14
HETATM   14  C10 UNL     1      -1.760   0.565  -0.093  1.00  0.00     0.216 C 
BRANCH  14  15
HETATM   15  O3  UNL     1      -1.086   1.508  -0.712  1.00  0.00    -0.333 OA
ATOM     16  H3  UNL     1      -1.610   2.074  -1.267  1.00  0.00     0.220 HD
ENDBRANCH  14  15
BRANCH  14  17
HETATM   17  N4  UNL     1      -3.128   0.568  -0.363  1.00  0.00    -0.350 N 
HETATM   18  C11 UNL     1      -4.140  -0.310   0.139  1.00  0.00     0.153 C 
BRANCH  17  19
HETATM   19  C12 UNL     1      -3.665   1.619  -1.292  1.00  0.00     0.151 C 
BRANCH  19  20
HETATM   20  C13 UNL     1      -4.069   2.825  -0.488  1.00  0.00     0.183 C 
BRANCH  20  21
HETATM   21  O4  UNL     1      -4.562   3.782  -1.372  1.00  0.00    -0.399 OA
ATOM     22  H4  UNL     1      -4.817   4.543  -0.864  1.00  0.00     0.209 HD
ENDBRANCH  20  21
ENDBRANCH  19  20
ENDBRANCH  17  19
ENDBRANCH  14  17
ENDBRANCH  11  14
BRANCH   1  23
HETATM   23  O1  UNL     1       2.986   1.087   0.166  1.00  0.00    -0.299 OA
BRANCH  23  24
HETATM   24  C2  UNL     1       3.750   2.150  -0.340  1.00  0.00     0.125 C 
HETATM   25  C1  UNL     1       4.551   2.743   0.792  1.00  0.00     0.040 C 
HETATM   26  C3  UNL     1       2.877   3.209  -0.982  1.00  0.00     0.040 C 
ENDBRANCH  23  24
ENDBRANCH   1  23
TORSDOF 8
