REMARK  6 active torsions:
REMARK  status: ('A' for Active; 'I' for Inactive)
REMARK    1  A    between atoms: C4_4  and  C5_5 
REMARK       I    between atoms: C5_5  and  N1_7 
REMARK    2  A    between atoms: C9_11  and  C10_12 
REMARK    3  A    between atoms: C9_11  and  C11_14 
REMARK    4  A    between atoms: C13_19  and  O3_20 
REMARK    5  A    between atoms: C15_22  and  O4_23 
REMARK    6  A    between atoms: C18_26  and  C19_27 
ROOT
HETATM    1  C1  UNL     1       6.194  -1.078   3.783  1.00  0.00     0.017 C 
HETATM    2  C2  UNL     1       5.068  -0.704   3.551  1.00  0.00    -0.089 C 
HETATM    3  C3  UNL     1       3.718  -0.247   3.244  1.00  0.00     0.069 C 
HETATM    4  C4  UNL     1       3.301   0.295   2.210  1.00  0.00     0.083 C 
ENDROOT
BRANCH   4   5
HETATM    5  C5  UNL     1       4.026   0.636   1.008  1.00  0.00     0.244 C 
HETATM    6  O1  UNL     1       5.246   0.440   0.820  1.00  0.00    -0.268 OA
HETATM    7  N1  UNL     1       3.291   1.250  -0.045  1.00  0.00    -0.334 N 
HETATM    8  C6  UNL     1       3.037   1.880  -1.291  1.00  0.00     0.112 A 
HETATM    9  C20 UNL     1       1.911   1.541  -0.472  1.00  0.00     0.126 A 
HETATM   10  C7  UNL     1       2.948   1.063  -2.532  1.00  0.00     0.029 C 
HETATM   11  C8  UNL     1       1.533   0.437  -2.533  1.00  0.00     0.021 C 
HETATM   12  C9  UNL     1       1.192   0.339  -1.079  1.00  0.00     0.042 C 
BRANCH  12  13
HETATM   13  C10 UNL     1       1.863  -0.929  -0.565  1.00  0.00     0.243 C 
HETATM   14  O2  UNL     1       2.857  -1.342  -1.098  1.00  0.00    -0.306 OA
ENDBRANCH  12  13
BRANCH  12  15
HETATM   15  C11 UNL     1      -0.208   0.268  -0.672  1.00  0.00     0.049 C 
HETATM   16  C12 UNL     1      -0.938  -0.967  -1.249  1.00  0.00     0.202 C 
HETATM   17  N2  UNL     1      -1.261  -1.871  -0.190  1.00  0.00    -0.041 N 
HETATM   18  C17 UNL     1      -2.182  -0.099  -1.510  1.00  0.00     0.065 C 
HETATM   19  C13 UNL     1      -2.380  -1.254   0.540  1.00  0.00     0.350 C 
ATOM     20  H22 UNL     1      -1.457  -2.820  -0.510  1.00  0.00     0.280 HD
ATOM     21  H21 UNL     1      -0.465  -2.103   0.404  1.00  0.00     0.280 HD
HETATM   22  C15 UNL     1      -3.176  -0.537  -0.533  1.00  0.00     0.184 C 
HETATM   23  C18 UNL     1      -1.291   1.077  -1.265  1.00  0.00     0.103 C 
BRANCH  19  24
HETATM   24  O3  UNL     1      -3.030  -2.250   1.201  1.00  0.00    -0.362 OA
HETATM   25  C14 UNL     1      -2.999  -2.109   2.590  1.00  0.00     0.204 C 
ENDBRANCH  19  24
BRANCH  22  26
HETATM   26  O4  UNL     1      -4.113   0.325  -0.067  1.00  0.00    -0.386 OA
HETATM   27  C16 UNL     1      -5.421  -0.118  -0.306  1.00  0.00     0.202 C 
ENDBRANCH  22  26
BRANCH  23  28
HETATM   28  C19 UNL     1      -1.827   2.116  -0.381  1.00  0.00     0.178 C 
HETATM   29  O5  UNL     1      -1.399   2.311   0.778  1.00  0.00    -0.648 OA
HETATM   30  O6  UNL     1      -2.870   2.965  -0.788  1.00  0.00    -0.648 OA
ENDBRANCH  23  28
ENDBRANCH  12  15
ENDBRANCH   4   5
TORSDOF 6
