REMARK  3 active torsions:
REMARK  status: ('A' for Active; 'I' for Inactive)
REMARK       I    between atoms: N2_11  and  C8_12 
REMARK       I    between atoms: C8_12  and  N3_14 
REMARK    1  A    between atoms: N3_14  and  C9_16 
REMARK    2  A    between atoms: C9_16  and  C10_17 
REMARK    3  A    between atoms: C10_17  and  N4_18 
ROOT
HETATM    1  O1  UNL     1      -7.456   0.691  -0.669  1.00  0.00    -0.274 OA
HETATM    2  C1  UNL     1      -6.402   0.203  -0.200  1.00  0.00     0.218 C 
HETATM    3  C2  UNL     1      -5.156   0.946  -0.298  1.00  0.00     0.112 C 
HETATM    4  C3  UNL     1      -3.900   0.189  -0.043  1.00  0.00    -0.028 C 
HETATM    5  C4  UNL     1      -4.005  -1.289  -0.045  1.00  0.00     0.029 C 
HETATM    6  C5  UNL     1      -5.274  -1.898   0.394  1.00  0.00     0.123 C 
HETATM    7  N1  UNL     1      -6.414  -1.042   0.413  1.00  0.00    -0.361 N 
ATOM      8  H1  UNL     1      -7.261  -1.353   0.890  1.00  0.00     0.162 HD
HETATM    9  C6  UNL     1      -3.352   0.671   1.287  1.00  0.00     0.030 C 
HETATM   10  C7  UNL     1      -2.217   1.662   1.120  1.00  0.00     0.128 C 
HETATM   11  N2  UNL     1      -1.148   0.929   0.468  1.00  0.00    -0.334 N 
HETATM   12  C8  UNL     1       0.185   0.925   0.895  1.00  0.00     0.318 C 
HETATM   13  O2  UNL     1       0.523   1.595   1.912  1.00  0.00    -0.247 OA
HETATM   14  N3  UNL     1       1.177   0.190   0.217  1.00  0.00    -0.341 N 
ATOM     15  H3  UNL     1       0.921  -0.354  -0.607  1.00  0.00     0.164 HD
HETATM   16  C15 UNL     1      -1.525   0.158  -0.701  1.00  0.00     0.128 C 
HETATM   17  C16 UNL     1      -2.903   0.636  -1.105  1.00  0.00     0.030 C 
ENDROOT
BRANCH  14  18
HETATM   18  C9  UNL     1       2.553   0.192   0.666  1.00  0.00     0.154 C 
BRANCH  18  19
HETATM   19  C10 UNL     1       3.384  -0.681  -0.250  1.00  0.00     0.292 C 
BRANCH  19  20
HETATM   20  N4  UNL     1       4.768  -0.719   0.146  1.00  0.00     0.094 N 
HETATM   21  C11 UNL     1       5.467  -1.573  -0.784  1.00  0.00     0.298 C 
HETATM   22  C12 UNL     1       6.543  -0.786  -1.488  1.00  0.00     0.198 C 
HETATM   23  O3  UNL     1       7.446  -0.337  -0.526  1.00  0.00    -0.388 OA
HETATM   24  C13 UNL     1       6.842   0.575   0.335  1.00  0.00     0.198 C 
HETATM   25  C14 UNL     1       5.353   0.607   0.210  1.00  0.00     0.298 C 
ENDBRANCH  19  20
ENDBRANCH  18  19
ENDBRANCH  14  18
TORSDOF 3
