REMARK  5 active torsions:
REMARK  status: ('A' for Active; 'I' for Inactive)
REMARK    1  A    between atoms: C2_2  and  C3_3 
REMARK    2  A    between atoms: C11_11  and  C13_13 
REMARK    3  A    between atoms: C13_13  and  C14_14 
REMARK    4  A    between atoms: C14_14  and  C15_15 
REMARK    5  A    between atoms: C15_15  and  N1_16 
ROOT
HETATM    1  C3  UNL     1      -2.247   0.454  -0.429  1.00  0.00    -0.019 C 
HETATM    2  C4  UNL     1      -2.691   1.550   0.460  1.00  0.00     0.018 C 
HETATM    3  C5  UNL     1      -3.791   1.229   1.406  1.00  0.00    -0.018 C 
HETATM    4  C6  UNL     1      -5.165   1.273   0.794  1.00  0.00     0.010 C 
HETATM    5  C7  UNL     1      -3.609  -0.153   2.033  1.00  0.00     0.005 C 
HETATM    6  C8  UNL     1      -3.733  -1.116   0.877  1.00  0.00     0.006 C 
HETATM    7  C9  UNL     1      -2.670  -0.909  -0.124  1.00  0.00    -0.001 C 
HETATM    8  C10 UNL     1      -1.436  -1.700   0.329  1.00  0.00     0.015 C 
HETATM    9  C11 UNL     1      -0.337  -1.052  -0.490  1.00  0.00    -0.043 C 
HETATM   10  C12 UNL     1      -0.404  -1.599  -1.890  1.00  0.00     0.015 C 
HETATM   11  C21 UNL     1      -0.711   0.399  -0.408  1.00  0.00     0.023 C 
ENDROOT
BRANCH   9  12
HETATM   12  C13 UNL     1       1.007  -1.311   0.163  1.00  0.00     0.011 C 
BRANCH  12  13
HETATM   13  C14 UNL     1       2.138  -0.703  -0.588  1.00  0.00     0.039 C 
BRANCH  13  14
HETATM   14  C15 UNL     1       3.496  -0.921  -0.013  1.00  0.00     0.123 C 
HETATM   15  C16 UNL     1       4.563  -0.272  -0.907  1.00  0.00     0.038 C 
HETATM   16  C17 UNL     1       5.194   0.906  -0.227  1.00  0.00     0.002 C 
HETATM   17  C18 UNL     1       4.137   1.847   0.289  1.00  0.00     0.000 C 
HETATM   18  C19 UNL     1       3.306   1.166   1.357  1.00  0.00     0.002 C 
HETATM   19  C20 UNL     1       3.550  -0.326   1.374  1.00  0.00     0.038 C 
BRANCH  14  20
HETATM   20  N1  UNL     1       3.857  -2.312   0.089  1.00  0.00    -0.070 N 
ATOM     21  H13 UNL     1       3.154  -2.831   0.615  1.00  0.00     0.275 HD
ATOM     22  H12 UNL     1       3.768  -2.776  -0.815  1.00  0.00     0.275 HD
ATOM     23  H11 UNL     1       4.786  -2.461   0.482  1.00  0.00     0.275 HD
ENDBRANCH  14  20
ENDBRANCH  13  14
ENDBRANCH  12  13
ENDBRANCH   9  12
BRANCH   1  24
HETATM   24  C2  UNL     1      -2.602   0.823  -1.832  1.00  0.00    -0.027 C 
HETATM   25  C1  UNL     1      -2.203   1.996  -2.284  1.00  0.00     0.008 C 
ENDBRANCH   1  24
TORSDOF 5
