REMARK  7 active torsions:
REMARK  status: ('A' for Active; 'I' for Inactive)
REMARK    1  A    between atoms: O1_2  and  C2_3 
REMARK    2  A    between atoms: C5_6  and  C6_7 
REMARK    3  A    between atoms: C6_7  and  C7_8 
REMARK    4  A    between atoms: C9_10  and  N1_11 
REMARK    5  A    between atoms: N1_11  and  C10_13 
REMARK    6  A    between atoms: C13_16  and  S1_17 
REMARK    7  A    between atoms: S1_17  and  N2_20 
ROOT
HETATM    1  C7  UNL     1       3.125  -1.413   0.788  1.00  0.00     0.018 A 
HETATM    2  C8  UNL     1       2.039  -0.674   1.169  1.00  0.00     0.057 A 
HETATM    3  C9  UNL     1       0.769  -0.995   0.650  1.00  0.00     0.066 A 
HETATM    4  C20 UNL     1       0.618  -2.033  -0.225  1.00  0.00     0.112 A 
HETATM    5  N5  UNL     1      -0.411  -2.574  -0.874  1.00  0.00    -0.342 N 
ATOM      6  H5  UNL     1      -1.381  -2.263  -0.818  1.00  0.00     0.167 HD
HETATM    7  C21 UNL     1       0.045  -3.603  -1.619  1.00  0.00     0.236 A 
HETATM    8  O4  UNL     1       1.345  -3.695  -1.431  1.00  0.00    -0.287 OA
HETATM    9  C22 UNL     1       1.743  -2.762  -0.591  1.00  0.00     0.178 A 
HETATM   10  N6  UNL     1       2.955  -2.433  -0.077  1.00  0.00    -0.338 N 
ATOM     11  H6  UNL     1       3.770  -2.979  -0.356  1.00  0.00     0.168 HD
ENDROOT
BRANCH   3  12
HETATM   12  N1  UNL     1      -0.201  -0.282   1.029  1.00  0.00    -0.354 N 
ATOM     13  H1  UNL     1      -0.019   0.480   1.682  1.00  0.00     0.166 HD
BRANCH  12  14
HETATM   14  C10 UNL     1      -1.521  -0.491   0.592  1.00  0.00     0.032 A 
HETATM   15  C11 UNL     1      -2.380  -1.329   1.310  1.00  0.00     0.031 A 
HETATM   16  C12 UNL     1      -3.675  -1.517   0.885  1.00  0.00     0.027 A 
HETATM   17  C13 UNL     1      -4.190  -0.915  -0.234  1.00  0.00     0.080 A 
HETATM   18  C18 UNL     1      -3.352  -0.091  -0.943  1.00  0.00     0.027 A 
HETATM   19  C19 UNL     1      -2.033   0.118  -0.533  1.00  0.00     0.031 A 
BRANCH  17  20
HETATM   20  S1  UNL     1      -5.823  -1.219  -0.757  1.00  0.00     0.276 S 
HETATM   21  O2  UNL     1      -6.046  -2.734  -0.516  1.00  0.00    -0.200 OA
HETATM   22  O3  UNL     1      -5.855  -1.115  -2.286  1.00  0.00    -0.200 OA
BRANCH  20  23
HETATM   23  N2  UNL     1      -7.021  -0.378  -0.025  1.00  0.00    -0.112 N 
HETATM   24  C14 UNL     1      -7.201   0.593   0.730  1.00  0.00     0.691 A 
HETATM   25  N3  UNL     1      -8.493   0.938   1.091  1.00  0.00    -0.201 N 
HETATM   26  N4  UNL     1      -6.257   1.379   1.258  1.00  0.00    -0.201 N 
HETATM   27  C15 UNL     1      -8.783   1.956   1.888  1.00  0.00     0.107 A 
ATOM     28  H3  UNL     1      -9.263   0.378   0.724  1.00  0.00     0.183 HD
HETATM   29  C16 UNL     1      -7.797   2.754   2.421  1.00  0.00     0.035 A 
HETATM   30  C17 UNL     1      -6.506   2.435   2.080  1.00  0.00     0.107 A 
ATOM     31  H4  UNL     1      -5.284   1.173   1.029  1.00  0.00     0.183 HD
ATOM     32  H2  UNL     1      -7.922  -0.788  -0.271  1.00  0.00     0.197 HD
ENDBRANCH  20  23
ENDBRANCH  17  20
ENDBRANCH  12  14
ENDBRANCH   3  12
BRANCH   1  33
HETATM   33  C6  UNL     1       4.503  -1.128   1.326  1.00  0.00     0.095 C 
BRANCH  33  34
HETATM   34  C5  UNL     1       5.135  -0.069   0.499  1.00  0.00    -0.051 A 
HETATM   35  C4  UNL     1       5.865  -0.390  -0.620  1.00  0.00     0.010 A 
HETATM   36  C3  UNL     1       6.460   0.607  -1.379  1.00  0.00     0.039 A 
HETATM   37  C2  UNL     1       6.353   1.940  -1.057  1.00  0.00     0.085 A 
HETATM   38  C24 UNL     1       5.623   2.260   0.064  1.00  0.00     0.044 A 
HETATM   39  C23 UNL     1       5.031   1.271   0.819  1.00  0.00     0.029 A 
HETATM   40 BR1  UNL     1       5.425   4.106   0.584  1.00  0.00    -0.048 Br
BRANCH  37  41
HETATM   41  O1  UNL     1       6.941   2.951  -1.802  1.00  0.00    -0.355 OA
HETATM   42  C1  UNL     1       7.705   2.762  -2.955  1.00  0.00     0.210 C 
ENDBRANCH  37  41
ENDBRANCH  33  34
ENDBRANCH   1  33
TORSDOF 7
