REMARK  7 active torsions:
REMARK  status: ('A' for Active; 'I' for Inactive)
REMARK       I    between atoms: C2_2  and  N1_4 
REMARK    1  A    between atoms: N1_4  and  C3_6 
REMARK    2  A    between atoms: C3_6  and  C4_7 
REMARK    3  A    between atoms: C3_6  and  C22_34 
REMARK       I    between atoms: C4_7  and  N2_9 
REMARK    4  A    between atoms: C8_13  and  C10_15 
REMARK       I    between atoms: C10_15  and  N3_17 
REMARK    5  A    between atoms: N3_17  and  C11_19 
REMARK    6  A    between atoms: C11_19  and  C13_21 
REMARK       I    between atoms: C13_21  and  N4_23 
REMARK    7  A    between atoms: N4_23  and  C14_25 
ROOT
HETATM    1  C4  UNL     1      -3.336  -1.156   0.666  1.00  0.00     0.244 C 
HETATM    2  O2  UNL     1      -2.821  -2.052  -0.101  1.00  0.00    -0.271 OA
HETATM    3  N2  UNL     1      -2.601  -0.657   1.770  1.00  0.00    -0.332 N 
HETATM    4  C5  UNL     1      -2.983   0.307   2.765  1.00  0.00     0.127 C 
HETATM    5  C6  UNL     1      -2.549  -0.367   4.056  1.00  0.00     0.023 C 
HETATM    6  C7  UNL     1      -1.320  -1.129   3.622  1.00  0.00     0.042 C 
HETATM    7  C8  UNL     1      -1.258  -1.044   2.120  1.00  0.00     0.112 C 
HETATM    8  C9  UNL     1      -0.855  -2.381   1.548  1.00  0.00     0.049 C 
ENDROOT
BRANCH   7   9
HETATM    9  C10 UNL     1      -0.241  -0.069   1.646  1.00  0.00     0.246 C 
HETATM   10  O3  UNL     1      -0.629   0.909   0.986  1.00  0.00    -0.271 OA
HETATM   11  N3  UNL     1       1.114  -0.268   1.946  1.00  0.00    -0.346 N 
ATOM     12  H3  UNL     1       1.380  -1.088   2.492  1.00  0.00     0.163 HD
BRANCH  11  13
HETATM   13  C11 UNL     1       2.151   0.645   1.511  1.00  0.00     0.172 C 
HETATM   14  C12 UNL     1       2.670   1.360   2.763  1.00  0.00     0.042 C 
BRANCH  13  15
HETATM   15  C13 UNL     1       3.211  -0.130   0.858  1.00  0.00     0.240 C 
HETATM   16  O4  UNL     1       3.094  -1.367   0.778  1.00  0.00    -0.271 OA
HETATM   17  N4  UNL     1       4.358   0.489   0.319  1.00  0.00    -0.354 N 
ATOM     18  H4  UNL     1       4.443   1.503   0.388  1.00  0.00     0.162 HD
BRANCH  17  19
HETATM   19  C14 UNL     1       5.433  -0.261  -0.336  1.00  0.00     0.093 C 
HETATM   20  C15 UNL     1       6.719  -0.178   0.459  1.00  0.00     0.026 C 
HETATM   21  C16 UNL     1       7.393   1.132   0.177  1.00  0.00     0.004 C 
HETATM   22  C17 UNL     1       7.898   1.065  -1.244  1.00  0.00     0.021 C 
HETATM   23  C18 UNL     1       7.025   0.343  -2.192  1.00  0.00     0.092 C 
HETATM   24 CL1  UNL     1       7.745  -1.216  -2.728  1.00  0.00    -0.124 Cl
HETATM   25  C19 UNL     1       5.609   0.128  -1.760  1.00  0.00    -0.010 C 
HETATM   26  C20 UNL     1       5.066  -0.992  -2.666  1.00  0.00     0.018 C 
HETATM   27  C21 UNL     1       4.802   1.357  -2.170  1.00  0.00     0.018 C 
ENDBRANCH  17  19
ENDBRANCH  13  15
ENDBRANCH  11  13
ENDBRANCH   7   9
BRANCH   1  28
HETATM   28  C3  UNL     1      -4.702  -0.749   0.275  1.00  0.00     0.180 C 
BRANCH  28  29
HETATM   29  N1  UNL     1      -5.340  -1.837  -0.510  1.00  0.00    -0.348 N 
HETATM   30  C2  UNL     1      -6.653  -2.290  -0.203  1.00  0.00     0.214 C 
HETATM   31  C1  UNL     1      -7.225  -3.379  -1.029  1.00  0.00     0.117 C 
HETATM   32  O1  UNL     1      -7.271  -1.760   0.743  1.00  0.00    -0.274 OA
ATOM     33  H1  UNL     1      -4.829  -2.266  -1.281  1.00  0.00     0.163 HD
ENDBRANCH  28  29
BRANCH  28  34
HETATM   34  C22 UNL     1      -4.737   0.438  -0.670  1.00  0.00     0.018 C 
HETATM   35  C23 UNL     1      -4.007   0.249  -1.951  1.00  0.00     0.007 C 
HETATM   36  C24 UNL     1      -4.520   1.291  -2.933  1.00  0.00     0.000 C 
HETATM   37  C25 UNL     1      -5.362   2.350  -2.298  1.00  0.00     0.000 C 
HETATM   38  C26 UNL     1      -4.715   2.849  -1.037  1.00  0.00     0.000 C 
HETATM   39  C27 UNL     1      -4.336   1.741  -0.076  1.00  0.00     0.007 C 
ENDBRANCH  28  34
ENDBRANCH   1  28
TORSDOF 7
