REMARK  10 active torsions:
REMARK  status: ('A' for Active; 'I' for Inactive)
REMARK    1  A    between atoms: C4_4  and  S1_5 
REMARK    2  A    between atoms: S1_5  and  N1_8 
REMARK    3  A    between atoms: N1_8  and  C6_10 
REMARK    4  A    between atoms: C6_10  and  N2_11 
REMARK    5  A    between atoms: C11_16  and  C12_17 
REMARK    6  A    between atoms: C15_22  and  N4_23 
REMARK    7  A    between atoms: N4_23  and  C16_25 
REMARK    8  A    between atoms: C16_25  and  C17_26 
REMARK    9  A    between atoms: C17_26  and  N5_27 
REMARK   10  A    between atoms: N5_27  and  C18_29 
ROOT
HETATM    1  C12 UNL     1      -0.356  -1.389  -0.554  1.00  0.00     0.117 A 
HETATM    2  N3  UNL     1      -0.247  -2.755  -0.392  1.00  0.00    -0.351 N 
ATOM      3  H3  UNL     1      -1.010  -3.235   0.085  1.00  0.00     0.166 HD
HETATM    4  C13 UNL     1       0.772  -3.489  -0.809  1.00  0.00     0.093 A 
HETATM    5  C14 UNL     1       1.830  -2.863  -1.464  1.00  0.00     0.065 A 
HETATM    6  C15 UNL     1       1.756  -1.507  -1.644  1.00  0.00     0.103 A 
HETATM    7  N7  UNL     1       0.661  -0.819  -1.181  1.00  0.00    -0.328 N 
ATOM      8  H7  UNL     1       0.630   0.190  -1.329  1.00  0.00     0.169 HD
ENDROOT
BRANCH   6   9
HETATM    9  N4  UNL     1       2.706  -0.880  -2.243  1.00  0.00    -0.375 N 
ATOM     10  H4  UNL     1       2.613   0.129  -2.357  1.00  0.00     0.161 HD
BRANCH   9  11
HETATM   11  C16 UNL     1       3.881  -1.503  -2.758  1.00  0.00     0.141 C 
BRANCH  11  12
HETATM   12  C17 UNL     1       4.959  -1.747  -1.723  1.00  0.00     0.139 C 
BRANCH  12  13
HETATM   13  N5  UNL     1       5.382  -0.493  -1.132  1.00  0.00    -0.388 N 
ATOM     14  H5  UNL     1       4.783   0.327  -1.226  1.00  0.00     0.159 HD
BRANCH  13  15
HETATM   15  C18 UNL     1       6.497  -0.387  -0.490  1.00  0.00     0.042 A 
HETATM   16  C19 UNL     1       7.369  -1.440  -0.314  1.00  0.00     0.047 A 
HETATM   17  C20 UNL     1       8.552  -1.246   0.389  1.00  0.00     0.090 A 
HETATM   18  N6  UNL     1       8.900  -0.063   0.918  1.00  0.00    -0.365 N 
HETATM   19  C21 UNL     1       8.059   0.973   0.754  1.00  0.00     0.046 A 
ATOM     20  H6  UNL     1       9.776   0.047   1.429  1.00  0.00     0.165 HD
HETATM   21  C22 UNL     1       8.403   2.193   1.291  1.00  0.00     0.054 A 
HETATM   22  C26 UNL     1       6.854   0.829   0.053  1.00  0.00     0.017 A 
HETATM   23  C23 UNL     1       7.541   3.254   1.123  1.00  0.00     0.036 A 
HETATM   24 CL1  UNL     1       7.974   4.806   1.803  1.00  0.00    -0.084 Cl
HETATM   25  C24 UNL     1       6.349   3.115   0.430  1.00  0.00     0.025 A 
HETATM   26  C25 UNL     1       6.004   1.894  -0.108  1.00  0.00     0.018 A 
ENDBRANCH  13  15
ENDBRANCH  12  13
ENDBRANCH  11  12
ENDBRANCH   9  11
ENDBRANCH   6   9
BRANCH   1  27
HETATM   27  C11 UNL     1      -1.519  -0.736   0.033  1.00  0.00     0.014 A 
HETATM   28  C2  UNL     1      -1.660   0.574   0.354  1.00  0.00    -0.047 A 
HETATM   29  C1  UNL     1      -0.543   1.515   0.291  1.00  0.00     0.049 C 
HETATM   30  C3  UNL     1      -2.875   1.089   0.835  1.00  0.00     0.032 A 
HETATM   31  C4  UNL     1      -3.971   0.295   1.004  1.00  0.00     0.075 A 
HETATM   32  C9  UNL     1      -3.826  -1.034   0.680  1.00  0.00     0.026 A 
HETATM   33  C10 UNL     1      -2.662  -1.547   0.214  1.00  0.00     0.017 A 
BRANCH  31  34
HETATM   34  S1  UNL     1      -5.503   0.896   1.600  1.00  0.00     0.248 S 
HETATM   35  O1  UNL     1      -5.177   2.097   2.491  1.00  0.00    -0.205 OA
HETATM   36  O2  UNL     1      -6.152  -0.093   2.512  1.00  0.00    -0.205 OA
BRANCH  34  37
HETATM   37  N1  UNL     1      -6.528   1.432   0.352  1.00  0.00    -0.172 NA
HETATM   38  C5  UNL     1      -5.862   2.539  -0.327  1.00  0.00     0.136 C 
BRANCH  37  39
HETATM   39  C6  UNL     1      -6.880   0.453  -0.626  1.00  0.00     0.163 C 
BRANCH  39  40
HETATM   40  N2  UNL     1      -8.080  -0.250  -0.459  1.00  0.00    -0.389 N 
HETATM   41  C7  UNL     1      -9.293   0.477  -0.363  1.00  0.00     0.149 C 
HETATM   42  C8  UNL     1      -8.060  -1.417   0.334  1.00  0.00     0.149 C 
ENDBRANCH  39  40
ENDBRANCH  37  39
ENDBRANCH  34  37
ENDBRANCH  31  34
ENDBRANCH   1  27
TORSDOF 10
