REMARK  7 active torsions:
REMARK  status: ('A' for Active; 'I' for Inactive)
REMARK    1  A    between atoms: C3_5  and  N2_6 
REMARK    2  A    between atoms: N2_6  and  C4_8 
REMARK    3  A    between atoms: C4_8  and  C5_9 
REMARK    4  A    between atoms: C8_14  and  N4_15 
REMARK    5  A    between atoms: N4_15  and  C9_17 
REMARK    6  A    between atoms: C13_21  and  C14_22 
REMARK    7  A    between atoms: C14_22  and  O1_24 
ROOT
HETATM    1  C1  UNL     1       1.355  -3.017  -3.064  1.00  0.00     0.090 C 
HETATM    2  C2  UNL     1       1.436  -2.225  -1.783  1.00  0.00     0.109 A 
HETATM    3  N1  UNL     1       2.606  -2.026  -1.166  1.00  0.00    -0.180 N 
ATOM      4  H1  UNL     1       3.464  -2.413  -1.559  1.00  0.00     0.185 HD
HETATM    5  C3  UNL     1       2.647  -1.302  -0.006  1.00  0.00     0.694 A 
HETATM    6  N3  UNL     1       1.492  -0.836   0.441  1.00  0.00    -0.022 N 
ATOM      7  H3  UNL     1       1.499  -0.294   1.305  1.00  0.00     0.203 HD
HETATM    8  C8  UNL     1       0.272  -1.036  -0.189  1.00  0.00     0.696 A 
HETATM    9  N5  UNL     1       0.264  -1.749  -1.326  1.00  0.00    -0.180 N 
ATOM     10  H5  UNL     1      -0.606  -1.925  -1.829  1.00  0.00     0.185 HD
ENDROOT
BRANCH   8  11
HETATM   11  N4  UNL     1      -0.753  -0.557   0.340  1.00  0.00    -0.199 N 
ATOM     12  H4  UNL     1      -0.453  -0.082   1.191  1.00  0.00     0.180 HD
BRANCH  11  13
HETATM   13  C9  UNL     1      -2.095  -0.405   0.256  1.00  0.00     0.238 C 
HETATM   14  C10 UNL     1      -2.862  -1.691  -0.011  1.00  0.00     0.054 C 
HETATM   15  C11 UNL     1      -4.341  -1.359   0.307  1.00  0.00     0.007 C 
HETATM   16  C12 UNL     1      -4.742  -0.132  -0.503  1.00  0.00     0.035 C 
HETATM   17  C13 UNL     1      -3.770   0.963  -0.239  1.00  0.00     0.152 C 
HETATM   18  O2  UNL     1      -2.494   0.557  -0.688  1.00  0.00    -0.358 OA
BRANCH  17  19
HETATM   19  C14 UNL     1      -4.165   2.272  -0.845  1.00  0.00     0.143 C 
HETATM   20  C15 UNL     1      -3.115   3.327  -0.682  1.00  0.00     0.042 C 
BRANCH  19  21
HETATM   21  O1  UNL     1      -5.416   2.701  -0.422  1.00  0.00    -0.393 OA
ATOM     22  H1  UNL     1      -5.667   3.532  -0.807  1.00  0.00     0.210 HD
ENDBRANCH  19  21
ENDBRANCH  17  19
ENDBRANCH  11  13
ENDBRANCH   8  11
BRANCH   5  23
HETATM   23  N2  UNL     1       3.759  -1.122   0.602  1.00  0.00    -0.225 N 
ATOM     24  H2  UNL     1       4.570  -1.553   0.159  1.00  0.00     0.177 HD
BRANCH  23  25
HETATM   25  C4  UNL     1       4.030  -0.416   1.795  1.00  0.00     0.142 C 
BRANCH  25  26
HETATM   26  C5  UNL     1       5.216   0.502   1.523  1.00  0.00    -0.004 C 
HETATM   27  C6  UNL     1       5.601   1.312   2.711  1.00  0.00     0.011 C 
HETATM   28  C7  UNL     1       4.873   1.368   0.321  1.00  0.00     0.011 C 
ENDBRANCH  25  26
ENDBRANCH  23  25
ENDBRANCH   5  23
TORSDOF 7
