REMARK  6 active torsions:
REMARK  status: ('A' for Active; 'I' for Inactive)
REMARK       I    between atoms: N2_5  and  C4_6 
REMARK    1  A    between atoms: C4_6  and  C5_8 
REMARK    2  A    between atoms: C5_8  and  C6_9 
REMARK    3  A    between atoms: C6_9  and  C7_10 
REMARK    4  A    between atoms: C7_10  and  C8_11 
REMARK    5  A    between atoms: C8_11  and  O2_12 
REMARK    6  A    between atoms: N3_14  and  O3_16 
ROOT
HETATM    1  N1  UNL     1       2.118  -2.415  -1.936  1.00  0.00    -0.197 NA
HETATM    2  C1  UNL     1       2.173  -1.802  -0.940  1.00  0.00     0.066 C 
HETATM    3  C2  UNL     1       2.257  -1.055   0.315  1.00  0.00     0.119 C 
HETATM    4  C3  UNL     1       0.946  -1.260   1.047  1.00  0.00     0.145 C 
HETATM    5  N2  UNL     1      -0.162  -0.599   0.395  1.00  0.00    -0.351 N 
HETATM    6  C4  UNL     1      -1.405  -1.272   0.273  1.00  0.00     0.219 C 
HETATM    7  O1  UNL     1      -1.533  -2.435   0.732  1.00  0.00    -0.273 OA
HETATM    8  C9  UNL     1       0.041   0.734  -0.111  1.00  0.00     0.126 C 
HETATM    9  C10 UNL     1       1.337   0.862  -0.863  1.00  0.00     0.031 C 
HETATM   10  C11 UNL     1       2.519   0.404   0.007  1.00  0.00    -0.018 C 
HETATM   11  C12 UNL     1       3.731   0.464  -0.892  1.00  0.00     0.030 C 
HETATM   12  C13 UNL     1       4.939   0.171  -0.054  1.00  0.00     0.114 C 
HETATM   13  N4  UNL     1       5.083   1.227   0.892  1.00  0.00    -0.421 N 
ATOM     14  H4  UNL     1       5.915   1.816   0.922  1.00  0.00     0.153 HD
HETATM   15  C14 UNL     1       4.004   1.409   1.785  1.00  0.00     0.114 C 
HETATM   16  C15 UNL     1       2.635   1.242   1.224  1.00  0.00     0.030 C 
ENDROOT
BRANCH   6  17
HETATM   17  C5  UNL     1      -2.586  -0.653  -0.386  1.00  0.00     0.103 C 
BRANCH  17  18
HETATM   18  C6  UNL     1      -3.734  -1.592  -0.361  1.00  0.00     0.017 C 
BRANCH  18  19
HETATM   19  C7  UNL     1      -4.996  -1.125  -0.989  1.00  0.00     0.086 C 
BRANCH  19  20
HETATM   20  C8  UNL     1      -5.608   0.076  -0.435  1.00  0.00     0.135 C 
HETATM   21  N3  UNL     1      -6.771   0.017   0.087  1.00  0.00    -0.251 N 
ATOM     22  H3  UNL     1      -7.277  -0.868   0.119  1.00  0.00     0.196 HD
BRANCH  20  23
HETATM   23  O2  UNL     1      -4.949   1.284  -0.464  1.00  0.00    -0.348 OA
ATOM     24  H2  UNL     1      -5.348   2.067  -0.103  1.00  0.00     0.219 HD
ENDBRANCH  20  23
BRANCH  21  25
HETATM   25  O3  UNL     1      -7.333   1.153   0.603  1.00  0.00    -0.288 OA
ATOM     26  H3  UNL     1      -8.199   1.109   0.992  1.00  0.00     0.244 HD
ENDBRANCH  21  25
ENDBRANCH  19  20
ENDBRANCH  18  19
ENDBRANCH  17  18
ENDBRANCH   6  17
TORSDOF 6
