REMARK  9 active torsions:
REMARK  status: ('A' for Active; 'I' for Inactive)
REMARK    1  A    between atoms: C2_2  and  S1_4 
REMARK    2  A    between atoms: S1_4  and  C4_5 
REMARK    3  A    between atoms: C4_5  and  C5_6 
REMARK    4  A    between atoms: C5_6  and  C6_8 
REMARK    5  A    between atoms: C6_8  and  N1_9 
REMARK    6  A    between atoms: N1_9  and  C7_11 
REMARK    7  A    between atoms: C15_19  and  C16_20 
REMARK    8  A    between atoms: C15_19  and  C17_22 
REMARK    9  A    between atoms: C17_22  and  O3_23 
ROOT
HETATM    1  C7  UNL     1      -0.860   0.103   0.306  1.00  0.00     0.081 C 
HETATM    2  C8  UNL     1      -0.181   1.271   0.899  1.00  0.00     0.025 C 
HETATM    3  C9  UNL     1      -1.090   2.056   1.852  1.00  0.00     0.002 C 
HETATM    4  C10 UNL     1      -2.246   2.612   1.106  1.00  0.00     0.001 C 
HETATM    5  C11 UNL     1      -3.344   1.557   1.151  1.00  0.00     0.011 C 
HETATM    6  C12 UNL     1      -3.284   0.745  -0.095  1.00  0.00    -0.021 A 
HETATM    7  C13 UNL     1      -1.950   0.514  -0.687  1.00  0.00     0.035 C 
HETATM    8  C14 UNL     1      -4.457   0.866  -1.004  1.00  0.00     0.030 A 
HETATM    9  C15 UNL     1      -4.244  -0.414  -0.320  1.00  0.00     0.043 A 
ENDROOT
BRANCH   1  10
HETATM   10  N1  UNL     1      -0.013  -0.768  -0.410  1.00  0.00    -0.391 N 
ATOM     11  H1  UNL     1      -0.207  -0.905  -1.402  1.00  0.00     0.159 HD
BRANCH  10  12
HETATM   12  C6  UNL     1       1.056  -1.448   0.130  1.00  0.00     0.134 C 
BRANCH  12  13
HETATM   13  C5  UNL     1       2.322  -0.726   0.359  1.00  0.00     0.173 C 
HETATM   14  O1  UNL     1       2.605   0.355  -0.111  1.00  0.00    -0.291 OA
BRANCH  13  15
HETATM   15  C4  UNL     1       3.370  -1.361   1.249  1.00  0.00     0.158 C 
BRANCH  15  16
HETATM   16  S1  UNL     1       4.805  -0.289   1.350  1.00  0.00    -0.157 SA
BRANCH  16  17
HETATM   17  C2  UNL     1       5.625  -0.206  -0.267  1.00  0.00     0.039 C 
HETATM   18  C1  UNL     1       6.805   0.730  -0.223  1.00  0.00     0.021 C 
HETATM   19  C3  UNL     1       6.194  -1.595  -0.554  1.00  0.00     0.021 C 
ENDBRANCH  16  17
ENDBRANCH  15  16
ENDBRANCH  13  15
ENDBRANCH  12  13
ENDBRANCH  10  12
ENDBRANCH   1  10
BRANCH   9  20
HETATM   20  C16 UNL     1      -5.089  -0.754   0.835  1.00  0.00     0.243 C 
HETATM   21  O2  UNL     1      -5.476   0.108   1.578  1.00  0.00    -0.306 OA
ENDBRANCH   9  20
BRANCH   9  22
HETATM   22  C17 UNL     1      -3.816  -1.563  -1.214  1.00  0.00     0.181 C 
BRANCH  22  23
HETATM   23  O3  UNL     1      -4.888  -2.475  -1.228  1.00  0.00    -0.400 OA
ATOM     24  H3  UNL     1      -4.620  -3.194  -1.788  1.00  0.00     0.209 HD
ENDBRANCH  22  23
ENDBRANCH   9  22
TORSDOF 9
