REMARK  5 active torsions:
REMARK  status: ('A' for Active; 'I' for Inactive)
REMARK    1  A    between atoms: C2_2  and  C3_3 
REMARK    2  A    between atoms: C10_10  and  C11_11 
REMARK    3  A    between atoms: C10_10  and  C12_14 
REMARK    4  A    between atoms: C11_11  and  O1_12 
REMARK    5  A    between atoms: C16_18  and  C17_19 
ROOT
HETATM    1  C3  UNL     1       1.762  -0.138   0.115  1.00  0.00    -0.002 C 
HETATM    2  C4  UNL     1       2.686  -0.580  -0.948  1.00  0.00     0.024 C 
HETATM    3  C5  UNL     1       1.529  -1.324   1.054  1.00  0.00     0.018 C 
HETATM    4  C6  UNL     1       0.357  -2.119   0.775  1.00  0.00     0.011 C 
HETATM    5  C7  UNL     1      -0.654  -1.590  -0.161  1.00  0.00    -0.033 C 
HETATM    6  C8  UNL     1      -1.893  -2.339   0.276  1.00  0.00     0.016 C 
HETATM    7  C9  UNL     1      -0.463  -2.241  -1.526  1.00  0.00     0.016 C 
HETATM    8  C10 UNL     1      -0.818  -0.076  -0.218  1.00  0.00     0.019 C 
HETATM    9  C16 UNL     1       0.508   0.607  -0.255  1.00  0.00    -0.051 C 
ENDROOT
BRANCH   8  10
HETATM   10  C11 UNL     1      -1.637   0.219  -1.460  1.00  0.00     0.179 C 
BRANCH  10  11
HETATM   11  O1  UNL     1      -1.173  -0.114  -2.674  1.00  0.00    -0.400 OA
ATOM     12  H1  UNL     1      -1.686   0.071  -3.452  1.00  0.00     0.209 HD
ENDBRANCH  10  11
ENDBRANCH   8  10
BRANCH   8  13
HETATM   13  C12 UNL     1      -1.715   0.481   0.863  1.00  0.00    -0.037 C 
HETATM   14  C13 UNL     1      -1.269   0.238   2.284  1.00  0.00     0.015 C 
HETATM   15  C14 UNL     1      -3.161   0.150   0.890  1.00  0.00     0.015 C 
HETATM   16  C15 UNL     1      -1.765   2.021   0.805  1.00  0.00     0.015 C 
ENDBRANCH   8  13
BRANCH   9  17
HETATM   17  C17 UNL     1       0.833   1.764  -1.067  1.00  0.00    -0.067 C 
HETATM   18  C18 UNL     1       0.185   2.541  -1.907  1.00  0.00     0.018 C 
HETATM   19  C19 UNL     1       2.238   2.404  -1.015  1.00  0.00     0.047 C 
ENDBRANCH   9  17
BRANCH   1  20
HETATM   20  C2  UNL     1       2.665   0.680   1.016  1.00  0.00    -0.023 C 
HETATM   21  C1  UNL     1       3.913   0.390   1.287  1.00  0.00     0.008 C 
ENDBRANCH   1  20
TORSDOF 5
