REMARK  9 active torsions:
REMARK  status: ('A' for Active; 'I' for Inactive)
REMARK    1  A    between atoms: N1_1  and  C1_4 
REMARK    2  A    between atoms: N4_12  and  C4_14 
REMARK    3  A    between atoms: C4_14  and  C5_15 
REMARK    4  A    between atoms: C5_15  and  O2_16 
REMARK    5  A    between atoms: O2_16  and  C6_17 
REMARK    6  A    between atoms: C6_17  and  C7_19 
REMARK    7  A    between atoms: C9_21  and  C10_22 
REMARK    8  A    between atoms: C10_22  and  N5_23 
REMARK    9  A    between atoms: C10_22  and  O4_27 
ROOT
HETATM    1  C5  UNL     1       0.724  -1.271   1.902  1.00  0.00     0.199 C 
ENDROOT
BRANCH   1   2
HETATM    2  C4  UNL     1       1.719  -2.048   1.075  1.00  0.00     0.165 C 
BRANCH   2   3
HETATM    3  N4  UNL     1       2.239  -1.335  -0.037  1.00  0.00    -0.223 N 
HETATM    4  C3  UNL     1       3.213  -0.500   0.101  1.00  0.00     0.696 A 
HETATM    5  N3  UNL     1       3.822  -0.221   1.265  1.00  0.00    -0.140 N 
HETATM    6  N8  UNL     1       3.674   0.160  -1.004  1.00  0.00    -0.022 N 
HETATM    7  C2  UNL     1       4.835   0.661   1.351  1.00  0.00     0.352 A 
ATOM      8  H3  UNL     1       3.506  -0.693   2.112  1.00  0.00     0.189 HD
HETATM    9  N2  UNL     1       5.267   1.295   0.244  1.00  0.00    -0.141 N 
HETATM   10  O1  UNL     1       5.405   0.919   2.455  1.00  0.00    -0.246 OA
HETATM   11  C1  UNL     1       4.680   1.041  -0.944  1.00  0.00     0.694 A 
ATOM     12  H2  UNL     1       6.035   1.964   0.303  1.00  0.00     0.189 HD
ATOM     13  H8  UNL     1       3.236  -0.026  -1.906  1.00  0.00     0.203 HD
ATOM     14  H4  UNL     1       1.835  -1.485  -0.962  1.00  0.00     0.177 HD
BRANCH  11  15
HETATM   15  N1  UNL     1       5.133   1.674  -1.969  1.00  0.00    -0.234 N 
ATOM     16  H12 UNL     1       5.900   2.345  -1.923  1.00  0.00     0.174 HD
ATOM     17  H11 UNL     1       4.689   1.482  -2.867  1.00  0.00     0.174 HD
ENDBRANCH  11  15
ENDBRANCH   2   3
ENDBRANCH   1   2
BRANCH   1  18
HETATM   18  O2  UNL     1      -0.413  -0.852   1.203  1.00  0.00    -0.315 OA
BRANCH  18  19
HETATM   19  C6  UNL     1      -1.344  -1.634   0.582  1.00  0.00     0.311 C 
HETATM   20  O3  UNL     1      -1.199  -2.881   0.623  1.00  0.00    -0.258 OA
BRANCH  19  21
HETATM   21  C7  UNL     1      -2.506  -1.079  -0.129  1.00  0.00     0.125 A 
HETATM   22  C8  UNL     1      -2.804   0.258  -0.263  1.00  0.00     0.068 A 
HETATM   23  C9  UNL     1      -3.975   0.331  -1.000  1.00  0.00     0.083 A 
HETATM   24  N6  UNL     1      -4.325  -0.939  -1.273  1.00  0.00    -0.300 N 
HETATM   25  N7  UNL     1      -3.458  -1.783  -0.759  1.00  0.00    -0.295 N 
ATOM     26  H6  UNL     1      -5.151  -1.210  -1.806  1.00  0.00     0.186 HD
ATOM     27  H7  UNL     1      -3.502  -2.800  -0.828  1.00  0.00     0.187 HD
BRANCH  23  28
HETATM   28  C10 UNL     1      -4.658   1.590  -1.380  1.00  0.00     0.368 C 
BRANCH  28  29
HETATM   29  N5  UNL     1      -4.718   2.486  -0.240  1.00  0.00    -0.047 N 
ATOM     30  H53 UNL     1      -5.153   2.045   0.570  1.00  0.00     0.277 HD
ATOM     31  H52 UNL     1      -3.796   2.657   0.160  1.00  0.00     0.277 HD
ATOM     32  H51 UNL     1      -5.188   3.353  -0.502  1.00  0.00     0.277 HD
ENDBRANCH  28  29
BRANCH  28  33
HETATM   33  O4  UNL     1      -5.947   1.350  -1.831  1.00  0.00    -0.365 OA
ATOM     34  H4  UNL     1      -6.385   2.157  -2.075  1.00  0.00     0.212 HD
ENDBRANCH  28  33
ENDBRANCH  23  28
ENDBRANCH  19  21
ENDBRANCH  18  19
ENDBRANCH   1  18
TORSDOF 9
