REMARK  8 active torsions:
REMARK  status: ('A' for Active; 'I' for Inactive)
REMARK    1  A    between atoms: N1_1  and  C1_4 
REMARK    2  A    between atoms: N3_9  and  C3_10 
REMARK    3  A    between atoms: C4_13  and  C5_14 
REMARK    4  A    between atoms: N11_30  and  C12_31 
REMARK    5  A    between atoms: C12_31  and  O3_32 
REMARK    6  A    between atoms: O3_32  and  C13_33 
REMARK    7  A    between atoms: C13_33  and  C14_34 
REMARK    8  A    between atoms: C14_34  and  O4_35 
ROOT
HETATM    1  C3  UNL     1       0.892   0.325   0.847  1.00  0.00     0.705 A 
HETATM    2  N4  UNL     1      -0.405   0.283   0.680  1.00  0.00    -0.183 N 
ATOM      3  H4  UNL     1      -1.060   0.765   1.295  1.00  0.00     0.184 HD
HETATM    4  C4  UNL     1      -0.792  -0.443  -0.362  1.00  0.00     0.137 A 
HETATM    5  C11 UNL     1       0.424  -0.902  -0.897  1.00  0.00     0.167 A 
HETATM    6  N10 UNL     1       0.598  -1.731  -2.034  1.00  0.00    -0.079 NA
HETATM    7  N11 UNL     1       1.432  -0.411  -0.129  1.00  0.00    -0.145 N 
ENDROOT
BRANCH   4   8
HETATM    8  C5  UNL     1      -2.058  -0.804  -0.971  1.00  0.00     0.161 A 
HETATM    9  N5  UNL     1      -2.147  -1.602  -2.087  1.00  0.00    -0.281 N 
HETATM   10  N6  UNL     1      -3.359  -1.801  -2.466  1.00  0.00    -0.283 N 
ATOM     11  H5  UNL     1      -1.336  -1.995  -2.564  1.00  0.00     0.188 HD
HETATM   12  C6  UNL     1      -4.140  -1.127  -1.595  1.00  0.00     0.133 A 
ATOM     13  H6  UNL     1      -3.668  -2.356  -3.264  1.00  0.00     0.188 HD
HETATM   14  C7  UNL     1      -5.493  -0.968  -1.489  1.00  0.00     0.107 A 
HETATM   15  N9  UNL     1      -3.334  -0.519  -0.683  1.00  0.00    -0.265 N 
HETATM   16  C8  UNL     1      -6.092  -0.219  -0.500  1.00  0.00     0.203 A 
HETATM   17  O2  UNL     1      -7.348  -0.106  -0.448  1.00  0.00    -0.286 OA
HETATM   18  C9  UNL     1      -5.271   0.387   0.412  1.00  0.00     0.138 A 
HETATM   19  N7  UNL     1      -5.813   1.164   1.446  1.00  0.00    -0.095 NA
HETATM   20  C10 UNL     1      -3.884   0.211   0.285  1.00  0.00     0.154 A 
HETATM   21  N8  UNL     1      -3.129   0.876   1.274  1.00  0.00    -0.080 NA
ENDBRANCH   4   8
BRANCH   1  22
HETATM   22  N3  UNL     1       1.598   1.023   1.878  1.00  0.00    -0.059 N 
HETATM   23  C2  UNL     1       1.609   2.335   2.125  1.00  0.00     0.353 A 
HETATM   24  N2  UNL     1       2.330   2.781   3.130  1.00  0.00    -0.286 N 
HETATM   25  O1  UNL     1       0.921   3.151   1.387  1.00  0.00    -0.245 OA
HETATM   26  C1  UNL     1       3.012   1.887   3.847  1.00  0.00     0.163 A 
ATOM     27  H2  UNL     1       2.366   3.776   3.353  1.00  0.00     0.172 HD
HETATM   28  S1  UNL     1       2.619   0.421   3.082  1.00  0.00     0.051 SA
BRANCH  26  29
HETATM   29  N1  UNL     1       3.786   2.110   4.881  1.00  0.00    -0.378 N 
ATOM     30  H12 UNL     1       4.022   2.990   5.340  1.00  0.00     0.158 HD
ATOM     31  H11 UNL     1       4.308   1.426   5.429  1.00  0.00     0.158 HD
ENDBRANCH  26  29
ENDBRANCH   1  22
BRANCH   7  32
HETATM   32  C12 UNL     1       2.840  -0.679  -0.392  1.00  0.00     0.318 C 
BRANCH  32  33
HETATM   33  O3  UNL     1       3.389   0.251  -1.238  1.00  0.00    -0.369 OA
BRANCH  33  34
HETATM   34  C13 UNL     1       4.704   0.103  -1.464  1.00  0.00     0.196 C 
BRANCH  34  35
HETATM   35  C14 UNL     1       5.224  -1.142  -2.080  1.00  0.00     0.190 C 
BRANCH  35  36
HETATM   36  O4  UNL     1       5.001  -2.314  -1.386  1.00  0.00    -0.399 OA
ATOM     37  H4  UNL     1       5.334  -3.111  -1.781  1.00  0.00     0.209 HD
ENDBRANCH  35  36
ENDBRANCH  34  35
ENDBRANCH  33  34
ENDBRANCH  32  33
ENDBRANCH   7  32
TORSDOF 8
