REMARK  6 active torsions:
REMARK  status: ('A' for Active; 'I' for Inactive)
REMARK    1  A    between atoms: N3_10  and  C6_11 
REMARK    2  A    between atoms: C6_11  and  C7_12 
REMARK    3  A    between atoms: C6_11  and  C8_15 
REMARK       I    between atoms: C8_15  and  N4_17 
REMARK    4  A    between atoms: N4_17  and  C9_19 
REMARK    5  A    between atoms: C9_19  and  C11_22 
REMARK    6  A    between atoms: C11_22  and  C12_23 
ROOT
HETATM    1  C9  UNL     1      -1.167   0.073   0.519  1.00  0.00     0.192 C 
HETATM    2  C10 UNL     1      -1.309   0.553   1.915  1.00  0.00     0.084 C 
HETATM    3  N5  UNL     1      -1.391   0.928   3.024  1.00  0.00    -0.195 NA
ENDROOT
BRANCH   1   4
HETATM    4  N4  UNL     1       0.059  -0.751   0.548  1.00  0.00    -0.342 N 
HETATM    5  C8  UNL     1       1.172  -0.382  -0.245  1.00  0.00     0.254 C 
HETATM    6  O3  UNL     1       1.093   0.643  -0.960  1.00  0.00    -0.271 OA
ATOM      7  H4  UNL     1       0.103  -1.582   1.137  1.00  0.00     0.163 HD
BRANCH   5   8
HETATM    8  C6  UNL     1       2.434  -1.184  -0.249  1.00  0.00     0.301 C 
BRANCH   8   9
HETATM    9  N3  UNL     1       3.412  -0.584  -1.157  1.00  0.00    -0.256 N 
HETATM   10  N2  UNL     1       3.419  -0.714  -2.456  1.00  0.00    -0.239 N 
HETATM   11  N1  UNL     1       4.431  -0.046  -2.942  1.00  0.00    -0.288 N 
ATOM     12  H2  UNL     1       2.744  -1.250  -3.002  1.00  0.00     0.208 HD
HETATM   13  C5  UNL     1       5.111   0.539  -1.947  1.00  0.00     0.051 A 
ATOM     14  H1  UNL     1       4.668   0.020  -3.932  1.00  0.00     0.188 HD
HETATM   15  C4  UNL     1       6.338   1.412  -1.912  1.00  0.00     0.061 C 
HETATM   16  C20 UNL     1       4.447   0.187  -0.797  1.00  0.00     0.056 A 
HETATM   17  C3  UNL     1       7.079   1.012  -0.651  1.00  0.00     0.010 C 
HETATM   18  C2  UNL     1       6.263   1.218   0.581  1.00  0.00    -0.012 C 
HETATM   19  C1  UNL     1       7.029   0.555   1.734  1.00  0.00     0.010 C 
HETATM   20  C21 UNL     1       4.894   0.646   0.560  1.00  0.00     0.065 C 
ENDBRANCH   8   9
BRANCH   8  21
HETATM   21  C7  UNL     1       2.150  -2.573  -0.611  1.00  0.00     0.208 C 
HETATM   22  O1  UNL     1       2.383  -3.490   0.220  1.00  0.00    -0.646 OA
HETATM   23  O2  UNL     1       1.626  -2.957  -1.843  1.00  0.00    -0.646 OA
ENDBRANCH   8  21
ENDBRANCH   5   8
ENDBRANCH   1   4
BRANCH   1  24
HETATM   24  C11 UNL     1      -2.329  -0.750   0.077  1.00  0.00     0.044 C 
BRANCH  24  25
HETATM   25  C12 UNL     1      -3.641  -0.070  -0.035  1.00  0.00    -0.011 C 
HETATM   26  C13 UNL     1      -4.207   0.542   1.189  1.00  0.00     0.010 C 
HETATM   27  C14 UNL     1      -5.699   0.556   0.924  1.00  0.00    -0.010 C 
HETATM   28  C15 UNL     1      -6.096   1.487  -0.176  1.00  0.00     0.005 C 
HETATM   29  C18 UNL     1      -5.939  -0.797   0.326  1.00  0.00    -0.010 C 
HETATM   30  C16 UNL     1      -7.429   0.874  -0.621  1.00  0.00     0.001 C 
HETATM   31  C17 UNL     1      -7.126  -0.602  -0.581  1.00  0.00     0.005 C 
HETATM   32  C19 UNL     1      -4.691  -1.127  -0.422  1.00  0.00     0.010 C 
ENDBRANCH  24  25
ENDBRANCH   1  24
TORSDOF 6
