REMARK  8 active torsions:
REMARK  status: ('A' for Active; 'I' for Inactive)
REMARK    1  A    between atoms: C2_2  and  C3_3 
REMARK    2  A    between atoms: C3_3  and  C4_4 
REMARK    3  A    between atoms: C4_4  and  O1_5 
REMARK    4  A    between atoms: O1_5  and  C5_6 
REMARK    5  A    between atoms: C11_13  and  C12_14 
REMARK    6  A    between atoms: C12_14  and  O3_15 
REMARK    7  A    between atoms: C15_19  and  O5_21 
REMARK    8  A    between atoms: C22_28  and  O6_29 
ROOT
HETATM    1  C5  UNL     1       3.135   0.643   0.437  1.00  0.00     0.128 C 
HETATM    2  C6  UNL     1       3.364   2.069   0.854  1.00  0.00     0.059 C 
HETATM    3  C7  UNL     1       2.308   2.989   0.394  1.00  0.00    -0.018 C 
HETATM    4  C8  UNL     1       1.055   2.600   0.488  1.00  0.00    -0.038 C 
HETATM    5  C9  UNL     1      -0.396   2.772   0.327  1.00  0.00     0.098 A 
HETATM    6  C10 UNL     1      -1.221   1.828  -0.447  1.00  0.00     0.185 A 
HETATM    7  O2  UNL     1      -0.904   1.389  -1.706  1.00  0.00    -0.343 OA
HETATM    8  C11 UNL     1      -2.000   0.535  -2.015  1.00  0.00     0.181 C 
HETATM    9  C14 UNL     1      -3.102   1.102  -1.313  1.00  0.00     0.190 C 
HETATM   10  O4  UNL     1      -2.533   2.139  -0.531  1.00  0.00    -0.342 OA
HETATM   11  C15 UNL     1      -4.018   0.379  -0.431  1.00  0.00     0.086 C 
HETATM   12  C16 UNL     1      -5.103   1.407  -0.029  1.00  0.00     0.049 C 
HETATM   13  C17 UNL     1      -3.479  -0.133   0.867  1.00  0.00     0.018 C 
HETATM   14  C18 UNL     1      -4.664  -0.877   1.517  1.00  0.00     0.013 C 
HETATM   15  C19 UNL     1      -2.978   0.911   1.803  1.00  0.00     0.008 C 
HETATM   16  C20 UNL     1      -1.519   1.038   1.930  1.00  0.00     0.020 C 
HETATM   17  C21 UNL     1      -0.663   1.293   0.765  1.00  0.00     0.065 A 
HETATM   18  C22 UNL     1       0.790   1.267   1.058  1.00  0.00     0.098 C 
HETATM   19  C23 UNL     1       1.668   0.278   0.361  1.00  0.00     0.076 C 
ENDROOT
BRANCH   1  20
HETATM   20  O1  UNL     1       3.758  -0.264   1.253  1.00  0.00    -0.385 OA
BRANCH  20  21
HETATM   21  C4  UNL     1       4.686  -1.074   0.680  1.00  0.00     0.168 C 
BRANCH  21  22
HETATM   22  C3  UNL     1       4.171  -1.956  -0.432  1.00  0.00     0.026 C 
BRANCH  22  23
HETATM   23  C2  UNL     1       5.363  -2.770  -0.925  1.00  0.00    -0.002 C 
HETATM   24  C1  UNL     1       6.462  -1.886  -1.440  1.00  0.00     0.005 C 
ENDBRANCH  22  23
ENDBRANCH  21  22
ENDBRANCH  20  21
ENDBRANCH   1  20
BRANCH  18  25
HETATM   25  O6  UNL     1       1.120   1.278   2.433  1.00  0.00    -0.384 OA
ATOM     26  H6  UNL     1       0.949   0.419   2.800  1.00  0.00     0.211 HD
ENDBRANCH  18  25
BRANCH   8  27
HETATM   27  C12 UNL     1      -1.510  -0.841  -1.818  1.00  0.00     0.201 C 
BRANCH  27  28
HETATM   28  O3  UNL     1      -2.388  -1.866  -2.060  1.00  0.00    -0.393 OA
HETATM   29  C13 UNL     1      -1.748  -3.071  -1.821  1.00  0.00     0.201 C 
ENDBRANCH  27  28
ENDBRANCH   8  27
BRANCH  11  30
HETATM   30  O5  UNL     1      -4.767  -0.632  -1.033  1.00  0.00    -0.387 OA
ATOM     31  H5  UNL     1      -5.362  -1.102  -0.460  1.00  0.00     0.210 HD
ENDBRANCH  11  30
TORSDOF 8
