REMARK  6 active torsions:
REMARK  status: ('A' for Active; 'I' for Inactive)
REMARK    1  A    between atoms: N3_7  and  C3_8 
REMARK    2  A    between atoms: C13_18  and  C14_19 
REMARK    3  A    between atoms: C14_19  and  N4_20 
REMARK    4  A    between atoms: N4_20  and  C15_23 
REMARK    5  A    between atoms: C15_23  and  O1_24 
REMARK    6  A    between atoms: C15_23  and  C16_26 
ROOT
HETATM    1  C1  UNL     1       1.474   3.358  -1.647  1.00  0.00     0.072 C 
HETATM    2  C2  UNL     1       0.265   2.919  -0.880  1.00  0.00     0.049 A 
HETATM    3  N1  UNL     1      -0.770   3.651  -0.494  1.00  0.00    -0.289 N 
ATOM      4  H1  UNL     1      -0.873   4.658  -0.620  1.00  0.00     0.188 HD
HETATM    5  N2  UNL     1      -1.622   2.868   0.067  1.00  0.00    -0.239 N 
ATOM      6  H2  UNL     1      -2.511   3.178   0.460  1.00  0.00     0.208 HD
HETATM    7  N3  UNL     1      -1.197   1.585   0.072  1.00  0.00    -0.269 N 
HETATM    8  C13 UNL     1      -0.010   1.540  -0.490  1.00  0.00     0.080 A 
ENDROOT
BRANCH   8   9
HETATM    9  C14 UNL     1       1.025   0.626  -0.841  1.00  0.00     0.296 C 
BRANCH   9  10
HETATM   10  N4  UNL     1       1.923   0.148   0.289  1.00  0.00    -0.043 N 
ATOM     11  H42 UNL     1       1.931   0.754   1.110  1.00  0.00     0.280 HD
ATOM     12  H41 UNL     1       1.587  -0.683   0.776  1.00  0.00     0.280 HD
BRANCH  10  13
HETATM   13  C15 UNL     1       3.204  -0.010  -0.352  1.00  0.00     0.326 C 
BRANCH  13  14
HETATM   14  O1  UNL     1       3.815   1.277   0.211  1.00  0.00    -0.369 OA
ATOM     15  H1  UNL     1       4.659   1.173  -0.212  1.00  0.00     0.212 HD
ENDBRANCH  13  14
BRANCH  13  16
HETATM   16  C16 UNL     1       4.271  -0.931  -0.033  1.00  0.00     0.000 C 
HETATM   17  C17 UNL     1       4.939  -0.758   1.298  1.00  0.00     0.019 C 
HETATM   18  C18 UNL     1       3.780  -2.395  -0.077  1.00  0.00     0.019 C 
HETATM   19  C19 UNL     1       5.313  -0.824  -1.139  1.00  0.00     0.019 C 
ENDBRANCH  13  16
ENDBRANCH  10  13
ENDBRANCH   9  10
ENDBRANCH   8   9
BRANCH   7  20
HETATM   20  C3  UNL     1      -2.084   0.469   0.341  1.00  0.00     0.056 C 
HETATM   21  C4  UNL     1      -1.889  -0.570   1.281  1.00  0.00     0.038 C 
HETATM   22  C5  UNL     1      -3.060  -1.554   1.268  1.00  0.00    -0.011 C 
HETATM   23  C6  UNL     1      -4.349  -0.925   1.679  1.00  0.00     0.009 C 
HETATM   24  C10 UNL     1      -3.198  -2.139  -0.095  1.00  0.00     0.009 C 
HETATM   25  C7  UNL     1      -4.551   0.283   0.738  1.00  0.00    -0.011 C 
HETATM   26  C8  UNL     1      -4.838  -0.289  -0.628  1.00  0.00     0.009 C 
HETATM   27  C12 UNL     1      -3.379   1.179   0.807  1.00  0.00     0.038 C 
HETATM   28  C9  UNL     1      -3.559  -1.010  -1.033  1.00  0.00    -0.011 C 
HETATM   29  C11 UNL     1      -2.490   0.006  -1.083  1.00  0.00     0.038 C 
ENDBRANCH   7  20
TORSDOF 6
