REMARK  9 active torsions:
REMARK  status: ('A' for Active; 'I' for Inactive)
REMARK    1  A    between atoms: O1_2  and  C2_3 
REMARK    2  A    between atoms: C4_5  and  S1_6 
REMARK    3  A    between atoms: S1_6  and  N1_9 
REMARK    4  A    between atoms: N1_9  and  C5_11 
REMARK    5  A    between atoms: C9_15  and  N2_16 
REMARK       I    between atoms: N2_16  and  C10_18 
REMARK    6  A    between atoms: C10_18  and  O5_20 
REMARK    7  A    between atoms: O5_20  and  C11_21 
REMARK    8  A    between atoms: C20_30  and  O6_31 
REMARK    9  A    between atoms: C22_33  and  O7_34 
ROOT
HETATM    1  C5  UNL     1       0.126  -2.130  -1.062  1.00  0.00     0.045 A 
HETATM    2  C6  UNL     1      -0.081  -3.179  -0.200  1.00  0.00     0.038 A 
HETATM    3  C7  UNL     1       0.673  -3.251   0.963  1.00  0.00    -0.047 A 
HETATM    4  C8  UNL     1       1.615  -2.287   1.253  1.00  0.00    -0.025 A 
HETATM    5  C9  UNL     1       1.839  -1.214   0.389  1.00  0.00     0.045 A 
HETATM    6  C15 UNL     1       1.088  -1.154  -0.756  1.00  0.00     0.060 A 
HETATM    7  C16 UNL     1       2.277  -2.594   2.544  1.00  0.00     0.042 C 
HETATM    8  C17 UNL     1       1.821  -3.964   2.919  1.00  0.00     0.009 C 
HETATM    9  C18 UNL     1       0.631  -4.282   2.042  1.00  0.00     0.039 C 
ENDROOT
BRANCH   1  10
HETATM   10  N1  UNL     1      -0.634  -2.039  -2.256  1.00  0.00    -0.281 N 
ATOM     11  H1  UNL     1      -0.146  -1.816  -3.123  1.00  0.00     0.179 HD
BRANCH  10  12
HETATM   12  S1  UNL     1      -2.326  -2.284  -2.319  1.00  0.00     0.263 S 
HETATM   13  O2  UNL     1      -2.801  -2.063  -3.733  1.00  0.00    -0.200 OA
HETATM   14  O3  UNL     1      -2.745  -3.659  -1.939  1.00  0.00    -0.200 OA
BRANCH  12  15
HETATM   15  C4  UNL     1      -3.102  -1.061  -1.302  1.00  0.00     0.085 A 
HETATM   16  C3  UNL     1      -3.492   0.160  -1.806  1.00  0.00     0.065 A 
HETATM   17  C2  UNL     1      -4.101   1.127  -1.019  1.00  0.00     0.105 A 
HETATM   18  C22 UNL     1      -4.330   0.872   0.318  1.00  0.00     0.135 A 
HETATM   19  C20 UNL     1      -3.942  -0.363   0.852  1.00  0.00     0.105 A 
HETATM   20  C19 UNL     1      -3.337  -1.304   0.035  1.00  0.00     0.065 A 
BRANCH  17  21
HETATM   21  O1  UNL     1      -4.497   2.360  -1.520  1.00  0.00    -0.353 OA
HETATM   22  C1  UNL     1      -4.258   2.613  -2.890  1.00  0.00     0.210 C 
ENDBRANCH  17  21
BRANCH  18  23
HETATM   23  O7  UNL     1      -4.931   1.823   1.099  1.00  0.00    -0.351 OA
HETATM   24  C23 UNL     1      -4.284   2.825   1.825  1.00  0.00     0.210 C 
ENDBRANCH  18  23
BRANCH  19  25
HETATM   25  O6  UNL     1      -4.185  -0.593   2.200  1.00  0.00    -0.353 OA
HETATM   26  C21 UNL     1      -3.788  -1.845   2.730  1.00  0.00     0.210 C 
ENDBRANCH  19  25
ENDBRANCH  12  15
ENDBRANCH  10  12
ENDBRANCH   1  10
BRANCH   5  27
HETATM   27  N2  UNL     1       2.797  -0.253   0.707  1.00  0.00    -0.302 N 
HETATM   28  C10 UNL     1       3.163   0.883  -0.022  1.00  0.00     0.365 C 
HETATM   29  O4  UNL     1       2.702   1.260  -1.106  1.00  0.00    -0.238 OA
ATOM     30  H2  UNL     1       3.296  -0.397   1.585  1.00  0.00     0.171 HD
BRANCH  28  31
HETATM   31  O5  UNL     1       4.169   1.750   0.467  1.00  0.00    -0.294 OA
BRANCH  31  32
HETATM   32  C11 UNL     1       4.594   2.892  -0.185  1.00  0.00     0.061 C 
HETATM   33  C12 UNL     1       3.534   3.928  -0.425  1.00  0.00     0.046 C 
HETATM   34  C13 UNL     1       5.644   3.552   0.720  1.00  0.00     0.046 C 
HETATM   35  C14 UNL     1       5.208   2.514  -1.513  1.00  0.00     0.046 C 
ENDBRANCH  31  32
ENDBRANCH  28  31
ENDBRANCH   5  27
TORSDOF 9
