REMARK  1 active torsions:
REMARK  status: ('A' for Active; 'I' for Inactive)
REMARK    1  A    between atoms: C2_2  and  C3_3 
ROOT
HETATM    1  C3  UNL     1       0.338   0.470  -0.347  1.00  0.00     0.028 C 
HETATM    2  C4  UNL     1      -0.390   1.380   0.611  1.00  0.00     0.066 C 
HETATM    3  C5  UNL     1      -1.399   2.260  -0.042  1.00  0.00     0.023 C 
HETATM    4  S1  UNL     1      -1.171   0.135   1.711  1.00  0.00    -0.076 SA
HETATM    5  N1  UNL     1      -0.573  -1.324   0.862  1.00  0.00    -0.234 NA
HETATM    6  C6  UNL     1      -1.719  -2.105   0.391  1.00  0.00     0.179 C 
HETATM    7  S2  UNL     1      -2.250  -0.602  -0.508  1.00  0.00    -0.132 SA
HETATM    8  C7  UNL     1      -0.474  -0.787  -0.482  1.00  0.00     0.138 C 
ENDROOT
BRANCH   1   9
HETATM    9  C2  UNL     1       1.658   0.104   0.306  1.00  0.00     0.004 C 
HETATM   10  C1  UNL     1       2.449  -0.825  -0.625  1.00  0.00     0.005 C 
ENDBRANCH   1   9
TORSDOF 1
