REMARK  1 active torsions:
REMARK  status: ('A' for Active; 'I' for Inactive)
REMARK    1  A    between atoms: C2_2  and  C3_3 
ROOT
HETATM    1  C3  UNL     1      -1.649   0.489  -0.909  1.00  0.00     0.161 C 
HETATM    2  C4  UNL     1      -2.298   1.734  -0.525  1.00  0.00     0.062 C 
HETATM    3  N1  UNL     1      -2.806   2.749  -0.220  1.00  0.00    -0.197 NA
ENDROOT
BRANCH   1   4
HETATM    4  C2  UNL     1      -0.809   0.013   0.280  1.00  0.00     0.070 C 
HETATM    5  C1  UNL     1      -1.763  -0.199   1.466  1.00  0.00     0.047 C 
HETATM    6  C5  UNL     1      -0.262  -1.328  -0.077  1.00  0.00     0.040 C 
HETATM    7  C6  UNL     1       0.885  -1.236  -1.046  1.00  0.00     0.021 C 
HETATM    8  C7  UNL     1       1.569   0.080  -1.061  1.00  0.00     0.077 C 
HETATM    9  S1  UNL     1       3.307  -0.082  -0.495  1.00  0.00    -0.159 SA
HETATM   10  C9  UNL     1       1.318   0.951   0.115  1.00  0.00     0.145 C 
HETATM   11  C8  UNL     1       2.412   0.361   1.018  1.00  0.00     0.107 C 
HETATM   12  O1  UNL     1       0.090   0.948   0.647  1.00  0.00    -0.372 OA
ENDBRANCH   1   4
TORSDOF 1
