REMARK  2 active torsions:
REMARK  status: ('A' for Active; 'I' for Inactive)
REMARK    1  A    between atoms: N2_7  and  N3_8 
REMARK    2  A    between atoms: N3_8  and  C3_10 
ROOT
HETATM    1  N3  UNL     1       0.197  -1.000  -0.591  1.00  0.00    -0.117 N 
ATOM      2  H3  UNL     1       0.289  -1.809  -1.205  1.00  0.00     0.206 HD
ENDROOT
BRANCH   1   3
HETATM    3  N2  UNL     1      -1.091  -0.570  -0.218  1.00  0.00    -0.149 N 
HETATM    4  C2  UNL     1      -1.978  -1.315   0.583  1.00  0.00     0.352 A 
HETATM    5  N1  UNL     1      -3.169  -0.582   0.753  1.00  0.00    -0.269 N 
HETATM    6  O2  UNL     1      -1.807  -2.455   1.101  1.00  0.00    -0.244 OA
HETATM    7  C1  UNL     1      -3.058   0.654   0.054  1.00  0.00     0.319 A 
ATOM      8  H1  UNL     1      -3.980  -0.887   1.290  1.00  0.00     0.174 HD
HETATM    9  O1  UNL     1      -3.920   1.584  -0.033  1.00  0.00    -0.262 OA
HETATM   10  C5  UNL     1      -1.737   0.645  -0.555  1.00  0.00     0.339 A 
HETATM   11  O4  UNL     1      -1.234   1.553  -1.263  1.00  0.00    -0.260 OA
ENDBRANCH   1   3
BRANCH   1  12
HETATM   12  C3  UNL     1       1.251  -0.410  -0.186  1.00  0.00     0.716 A 
HETATM   13  N4  UNL     1       2.521  -0.732  -0.476  1.00  0.00    -0.127 N 
HETATM   14  N5  UNL     1       3.354   0.101   0.121  1.00  0.00    -0.237 N 
ATOM     15  H4  UNL     1       2.803  -1.510  -1.073  1.00  0.00     0.206 HD
HETATM   16  C4  UNL     1       2.622   0.988   0.816  1.00  0.00     0.353 A 
ATOM     17  H5  UNL     1       4.372   0.076   0.065  1.00  0.00     0.192 HD
HETATM   18  O3  UNL     1       2.990   1.947   1.526  1.00  0.00    -0.245 OA
HETATM   19  N6  UNL     1       1.315   0.663   0.620  1.00  0.00    -0.137 N 
ATOM     20  H6  UNL     1       0.515   1.154   1.020  1.00  0.00     0.189 HD
ENDBRANCH   1  12
TORSDOF 2
