REMARK  8 active torsions:
REMARK  status: ('A' for Active; 'I' for Inactive)
REMARK    1  A    between atoms: C2_2  and  C3_3 
REMARK    2  A    between atoms: C3_3  and  S1_4 
REMARK    3  A    between atoms: S1_4  and  N1_7 
REMARK    4  A    between atoms: N1_7  and  C4_9 
REMARK    5  A    between atoms: C7_16  and  C8_17 
REMARK    6  A    between atoms: C8_17  and  N3_18 
REMARK       I    between atoms: N3_18  and  C9_19 
REMARK    7  A    between atoms: C9_19  and  O5_21 
REMARK    8  A    between atoms: O5_21  and  C10_22 
ROOT
HETATM    1  C4  UNL     1       4.889   1.536  -0.891  1.00  0.00     0.161 A 
HETATM    2  N2  UNL     1       4.433   2.381   0.053  1.00  0.00    -0.337 N 
ATOM      3  H2  UNL     1       5.078   2.992   0.554  1.00  0.00     0.168 HD
HETATM    4  C5  UNL     1       3.160   2.408   0.318  1.00  0.00     0.052 A 
HETATM    5  C6  UNL     1       2.335   1.574  -0.377  1.00  0.00     0.136 A 
HETATM    6  S2  UNL     1       3.426   0.769  -1.407  1.00  0.00    -0.027 SA
HETATM    7  O3  UNL     1       0.921   1.514  -0.166  1.00  0.00    -0.330 OA
HETATM    8  C7  UNL     1       0.466   1.993   1.082  1.00  0.00     0.182 C 
HETATM    9  C18 UNL     1       1.052   3.419   1.158  1.00  0.00     0.045 C 
HETATM   10  C19 UNL     1       2.514   3.316   1.350  1.00  0.00     0.063 C 
ENDROOT
BRANCH   8  11
HETATM   11  C8  UNL     1      -0.995   2.099   1.285  1.00  0.00     0.194 C 
BRANCH  11  12
HETATM   12  N3  UNL     1      -1.790   1.059   1.249  1.00  0.00    -0.360 NA
HETATM   13  C9  UNL     1      -2.606  -0.091   1.264  1.00  0.00     0.444 C 
HETATM   14  O4  UNL     1      -2.436  -1.110   2.030  1.00  0.00    -0.221 OA
BRANCH  13  15
HETATM   15  O5  UNL     1      -3.704  -0.281   0.464  1.00  0.00    -0.254 OA
BRANCH  15  16
HETATM   16  C10 UNL     1      -4.558  -1.414   0.471  1.00  0.00     0.059 C 
HETATM   17  C11 UNL     1      -4.588  -2.214  -0.768  1.00  0.00     0.065 C 
HETATM   18  C12 UNL     1      -5.292  -3.540  -0.560  1.00  0.00     0.006 C 
HETATM   19  C13 UNL     1      -6.778  -3.449  -0.523  1.00  0.00     0.001 C 
HETATM   20  C14 UNL     1      -7.239  -2.425  -1.512  1.00  0.00     0.004 C 
HETATM   21  C15 UNL     1      -7.349  -1.046  -0.982  1.00  0.00     0.027 C 
HETATM   22  C16 UNL     1      -7.086  -0.817   0.453  1.00  0.00    -0.024 C 
HETATM   23  C17 UNL     1      -5.863  -1.110   1.133  1.00  0.00     0.029 C 
ENDBRANCH  15  16
ENDBRANCH  13  15
ENDBRANCH  11  12
ENDBRANCH   8  11
BRANCH   1  24
HETATM   24  N1  UNL     1       6.080   1.364  -1.189  1.00  0.00    -0.264 N 
ATOM     25  H1  UNL     1       6.641   1.970  -0.590  1.00  0.00     0.180 HD
BRANCH  24  26
HETATM   26  S1  UNL     1       7.097   0.549  -2.162  1.00  0.00     0.232 S 
HETATM   27  O1  UNL     1       7.956   1.503  -2.984  1.00  0.00    -0.206 OA
HETATM   28  O2  UNL     1       6.459  -0.409  -3.143  1.00  0.00    -0.206 OA
BRANCH  26  29
HETATM   29  C3  UNL     1       8.285  -0.459  -1.246  1.00  0.00     0.163 C 
BRANCH  29  30
HETATM   30  C2  UNL     1       9.112   0.440  -0.355  1.00  0.00     0.012 C 
HETATM   31  C1  UNL     1      10.094  -0.295   0.503  1.00  0.00     0.006 C 
ENDBRANCH  29  30
ENDBRANCH  26  29
ENDBRANCH  24  26
ENDBRANCH   1  24
TORSDOF 8
