REMARK  6 active torsions:
REMARK  status: ('A' for Active; 'I' for Inactive)
REMARK    1  A    between atoms: N2_7  and  C5_9 
REMARK    2  A    between atoms: C17_23  and  N4_24 
REMARK    3  A    between atoms: C18_26  and  C19_27 
REMARK    4  A    between atoms: C19_27  and  C20_28 
REMARK    5  A    between atoms: C20_28  and  O1_29 
REMARK    6  A    between atoms: O1_29  and  C21_30 
ROOT
HETATM    1  C1  UNL     1      -4.617  -2.704   1.747  1.00  0.00     0.038 C 
HETATM    2  C2  UNL     1      -3.164  -2.586   1.677  1.00  0.00    -0.001 C 
HETATM    3  C3  UNL     1      -2.539  -1.621   0.975  1.00  0.00     0.037 A 
HETATM    4  N1  UNL     1      -3.365  -0.705   0.292  1.00  0.00    -0.337 N 
ATOM      5  H1  UNL     1      -4.372  -0.844   0.380  1.00  0.00     0.168 HD
HETATM    6  C4  UNL     1      -2.943   0.387  -0.502  1.00  0.00     0.146 A 
HETATM    7  N2  UNL     1      -3.706   1.189  -1.106  1.00  0.00    -0.366 N 
ATOM      8  H2  UNL     1      -3.189   1.903  -1.619  1.00  0.00     0.162 HD
HETATM    9  S1  UNL     1      -1.152   0.625  -0.645  1.00  0.00    -0.051 SA
HETATM   10  C11 UNL     1      -0.386  -0.665   0.308  1.00  0.00     0.044 A 
HETATM   11  C12 UNL     1      -1.072  -1.560   0.952  1.00  0.00    -0.011 A 
HETATM   12  C13 UNL     1      -0.376  -2.596   1.740  1.00  0.00     0.062 A 
HETATM   13  C14 UNL     1       1.084  -2.616   1.664  1.00  0.00     0.139 A 
HETATM   14  N3  UNL     1       1.755  -1.577   0.958  1.00  0.00    -0.298 N 
HETATM   15  C15 UNL     1       1.089  -0.643   0.291  1.00  0.00     0.060 A 
HETATM   16  C16 UNL     1       1.783   0.324  -0.383  1.00  0.00     0.080 A 
HETATM   17  C17 UNL     1       3.192   0.391  -0.410  1.00  0.00     0.110 A 
HETATM   18  N5  UNL     1       3.797  -0.579   0.283  1.00  0.00    -0.294 N 
ATOM     19  H5  UNL     1       4.817  -0.592   0.307  1.00  0.00     0.172 HD
HETATM   20  C23 UNL     1       3.133  -1.536   0.949  1.00  0.00     0.328 A 
HETATM   21  O2  UNL     1       3.727  -2.455   1.607  1.00  0.00    -0.246 OA
ENDROOT
BRANCH   7  22
HETATM   22  C5  UNL     1      -5.095   1.337  -1.243  1.00  0.00     0.083 C 
HETATM   23  C6  UNL     1      -5.821   0.184  -1.902  1.00  0.00     0.025 C 
HETATM   24  C7  UNL     1      -7.155   0.692  -2.466  1.00  0.00     0.002 C 
HETATM   25  C8  UNL     1      -7.788   1.531  -1.382  1.00  0.00     0.000 C 
HETATM   26  C9  UNL     1      -7.216   1.163  -0.030  1.00  0.00     0.002 C 
HETATM   27  C10 UNL     1      -5.783   1.657   0.049  1.00  0.00     0.025 C 
ENDBRANCH   7  22
BRANCH  17  28
HETATM   28  N4  UNL     1       3.794   1.273  -1.026  1.00  0.00    -0.356 N 
HETATM   29  C18 UNL     1       4.984   1.810  -1.389  1.00  0.00     0.064 C 
ATOM     30  H4  UNL     1       3.077   1.860  -1.452  1.00  0.00     0.166 HD
BRANCH  29  31
HETATM   31  C19 UNL     1       6.276   1.153  -0.892  1.00  0.00     0.071 C 
BRANCH  31  32
HETATM   32  C20 UNL     1       7.435   1.944  -1.435  1.00  0.00     0.172 C 
BRANCH  32  33
HETATM   33  O1  UNL     1       8.662   1.521  -1.157  1.00  0.00    -0.391 OA
BRANCH  33  34
HETATM   34  C21 UNL     1       9.196   1.388   0.060  1.00  0.00     0.163 C 
HETATM   35  C22 UNL     1       8.614   0.386   1.009  1.00  0.00     0.033 C 
ENDBRANCH  33  34
ENDBRANCH  32  33
ENDBRANCH  31  32
ENDBRANCH  29  31
ENDBRANCH  17  28
TORSDOF 6
