REMARK  7 active torsions:
REMARK  status: ('A' for Active; 'I' for Inactive)
REMARK    1  A    between atoms: C6_8  and  C7_9 
REMARK    2  A    between atoms: C7_9  and  C8_10 
REMARK    3  A    between atoms: C7_9  and  C10_14 
REMARK    4  A    between atoms: C9_11  and  O3_12 
REMARK    5  A    between atoms: C10_14  and  C11_15 
REMARK    6  A    between atoms: C18_23  and  O5_24 
REMARK    7  A    between atoms: C18_23  and  C19_26 
ROOT
HETATM    1  C7  UNL     1       0.215   1.296  -0.340  1.00  0.00    -0.035 C 
ENDROOT
BRANCH   1   2
HETATM    2  C6  UNL     1       1.414   0.471  -0.385  1.00  0.00    -0.067 C 
HETATM    3  C5  UNL     1       2.189  -0.048   0.730  1.00  0.00     0.068 C 
HETATM    4  C4  UNL     1       3.638   0.126   0.744  1.00  0.00     0.145 C 
HETATM    5  O2  UNL     1       4.285  -0.196   1.959  1.00  0.00    -0.311 OA
HETATM    6  C26 UNL     1       4.469  -0.683  -0.218  1.00  0.00     0.057 C 
HETATM    7  C3  UNL     1       5.654  -0.052   1.644  1.00  0.00     0.289 C 
HETATM    8  C2  UNL     1       5.783  -0.129   0.161  1.00  0.00     0.015 C 
HETATM    9  O1  UNL     1       6.571   0.111   2.493  1.00  0.00    -0.260 OA
HETATM   10  C1  UNL     1       6.862   0.249  -0.435  1.00  0.00     0.025 C 
HETATM   11  C24 UNL     1       4.023  -0.521  -1.611  1.00  0.00    -0.007 C 
HETATM   12  C23 UNL     1       2.697  -1.238  -1.745  1.00  0.00     0.009 C 
HETATM   13  C25 UNL     1       4.938  -1.084  -2.656  1.00  0.00     0.011 C 
HETATM   14  C22 UNL     1       1.502  -0.355  -1.685  1.00  0.00     0.035 C 
ENDBRANCH   1   2
BRANCH   1  15
HETATM   15  C8  UNL     1       0.253   2.690   0.223  1.00  0.00     0.035 C 
HETATM   16  C9  UNL     1       0.598   3.166   1.506  1.00  0.00     0.132 C 
BRANCH  16  17
HETATM   17  O3  UNL     1       1.913   2.977   1.897  1.00  0.00    -0.373 OA
ATOM     18  H3  UNL     1       2.145   3.297   2.761  1.00  0.00     0.216 HD
ENDBRANCH  16  17
ENDBRANCH   1  15
BRANCH   1  19
HETATM   19  C10 UNL     1      -1.161   0.733  -0.244  1.00  0.00     0.005 C 
BRANCH  19  20
HETATM   20  C11 UNL     1      -1.857  -0.048   0.717  1.00  0.00     0.067 C 
HETATM   21  C12 UNL     1      -1.936   0.478   2.133  1.00  0.00     0.031 C 
HETATM   22  C13 UNL     1      -1.592  -1.486   0.796  1.00  0.00     0.142 C 
HETATM   23  O4  UNL     1      -0.619  -2.082   0.410  1.00  0.00    -0.297 OA
HETATM   24  C14 UNL     1      -2.602  -2.447   1.421  1.00  0.00     0.084 C 
HETATM   25  C15 UNL     1      -3.691  -2.596   0.391  1.00  0.00    -0.009 C 
HETATM   26  C16 UNL     1      -3.335  -3.752  -0.552  1.00  0.00     0.010 C 
HETATM   27  C17 UNL     1      -3.671  -1.349  -0.470  1.00  0.00     0.044 C 
HETATM   28  C18 UNL     1      -3.397  -0.109   0.348  1.00  0.00     0.079 C 
BRANCH  28  29
HETATM   29  O5  UNL     1      -4.129  -0.251   1.526  1.00  0.00    -0.388 OA
ATOM     30  H5  UNL     1      -5.052  -0.288   1.305  1.00  0.00     0.210 HD
ENDBRANCH  28  29
BRANCH  28  31
HETATM   31  C19 UNL     1      -3.972   1.051  -0.332  1.00  0.00     0.013 C 
HETATM   32  C20 UNL     1      -5.454   0.654  -0.593  1.00  0.00     0.012 C 
HETATM   33  C21 UNL     1      -4.174   2.289   0.566  1.00  0.00     0.012 C 
ENDBRANCH  28  31
ENDBRANCH  19  20
ENDBRANCH   1  19
TORSDOF 7
