REMARK  8 active torsions:
REMARK  status: ('A' for Active; 'I' for Inactive)
REMARK    1  A    between atoms: C14_14  and  O1_15 
REMARK    2  A    between atoms: C15_17  and  O2_19 
REMARK    3  A    between atoms: O2_19  and  C17_20 
REMARK    4  A    between atoms: C17_20  and  N1_21 
REMARK    5  A    between atoms: N1_21  and  C19_23 
REMARK    6  A    between atoms: C19_23  and  C20_24 
REMARK    7  A    between atoms: C21_26  and  O4_27 
REMARK    8  A    between atoms: C22_29  and  O5_30 
ROOT
HETATM    1  C1  UNL     1      -3.531   1.482  -2.034  1.00  0.00     0.044 C 
HETATM    2  C2  UNL     1      -3.858   1.001  -0.635  1.00  0.00    -0.075 C 
HETATM    3  C3  UNL     1      -4.167  -0.444  -0.551  1.00  0.00    -0.023 C 
HETATM    4  C4  UNL     1      -3.139  -1.463  -0.449  1.00  0.00     0.034 C 
HETATM    5  C5  UNL     1      -1.699  -0.984  -0.206  1.00  0.00     0.012 C 
HETATM    6  C6  UNL     1      -1.532  -0.144   0.986  1.00  0.00    -0.015 C 
HETATM    7  C7  UNL     1      -0.419  -0.219   1.915  1.00  0.00     0.020 C 
HETATM    8  C8  UNL     1      -2.760  -0.184   1.919  1.00  0.00     0.015 C 
HETATM    9  C9  UNL     1      -3.510   1.071   1.732  1.00  0.00     0.019 C 
HETATM   10  C10 UNL     1      -3.017   1.597   0.436  1.00  0.00     0.003 C 
HETATM   11  C11 UNL     1      -3.203   3.089   0.416  1.00  0.00     0.025 C 
HETATM   12  C12 UNL     1      -1.582   1.265   0.428  1.00  0.00    -0.056 C 
HETATM   13  C13 UNL     1      -0.524   1.931   0.030  1.00  0.00     0.040 C 
HETATM   14  C14 UNL     1       0.886   1.642  -0.030  1.00  0.00     0.080 C 
HETATM   15  C15 UNL     1       1.701   0.752  -0.843  1.00  0.00     0.135 C 
HETATM   16  C16 UNL     1       2.448   1.545  -1.963  1.00  0.00     0.056 C 
HETATM   17  C21 UNL     1       0.952  -0.336  -1.638  1.00  0.00     0.188 C 
HETATM   18  C22 UNL     1       0.650  -1.580  -0.958  1.00  0.00     0.158 C 
HETATM   19  C23 UNL     1      -0.671  -2.033  -0.509  1.00  0.00    -0.014 C 
HETATM   20  C24 UNL     1      -0.413  -2.927   0.723  1.00  0.00     0.018 C 
HETATM   21  C25 UNL     1      -1.251  -3.039  -1.492  1.00  0.00     0.018 C 
ENDROOT
BRANCH  15  22
HETATM   22  O2  UNL     1       2.785   0.172  -0.217  1.00  0.00    -0.342 OA
BRANCH  22  23
HETATM   23  C17 UNL     1       3.808   0.845   0.260  1.00  0.00     0.441 C 
BRANCH  23  24
HETATM   24  N1  UNL     1       4.808  -0.109   0.830  1.00  0.00     0.113 N 
HETATM   25  C18 UNL     1       4.256  -0.884   1.890  1.00  0.00     0.313 C 
BRANCH  24  26
HETATM   26  C19 UNL     1       5.990   0.639   1.212  1.00  0.00     0.343 C 
BRANCH  26  27
HETATM   27  C20 UNL     1       7.036  -0.222   1.781  1.00  0.00     0.261 C 
HETATM   28  O3  UNL     1       6.848  -1.422   1.887  1.00  0.00    -0.305 OA
ENDBRANCH  26  27
ENDBRANCH  24  26
ENDBRANCH  23  24
ENDBRANCH  22  23
ENDBRANCH  15  22
BRANCH  14  29
HETATM   29  O1  UNL     1       1.585   2.328   0.827  1.00  0.00    -0.362 OA
ATOM     30  H1  UNL     1       2.515   2.137   0.787  1.00  0.00     0.217 HD
ENDBRANCH  14  29
BRANCH  17  31
HETATM   31  O4  UNL     1       0.139   0.148  -2.620  1.00  0.00    -0.390 OA
ATOM     32  H4  UNL     1      -0.323  -0.522  -3.110  1.00  0.00     0.210 HD
ENDBRANCH  17  31
BRANCH  18  33
HETATM   33  O5  UNL     1       1.102  -2.682  -1.761  1.00  0.00    -0.392 OA
ATOM     34  H5  UNL     1       0.904  -3.497  -1.315  1.00  0.00     0.210 HD
ENDBRANCH  18  33
TORSDOF 8
