REMARK  12 active torsions:
REMARK  status: ('A' for Active; 'I' for Inactive)
REMARK    1  A    between atoms: C2_2  and  C4_4 
REMARK    2  A    between atoms: C5_9  and  S1_10 
REMARK    3  A    between atoms: S1_10  and  C6_11 
REMARK    4  A    between atoms: C8_14  and  C9_15 
REMARK    5  A    between atoms: C9_15  and  N3_16 
REMARK    6  A    between atoms: N3_16  and  C10_18 
REMARK    7  A    between atoms: C10_18  and  N4_20 
REMARK    8  A    between atoms: N4_20  and  N5_22 
REMARK    9  A    between atoms: C11_24  and  C12_25 
REMARK   10  A    between atoms: C12_25  and  C13_26 
REMARK   11  A    between atoms: C13_26  and  O2_27 
REMARK   12  A    between atoms: C13_26  and  C14_29 
ROOT
HETATM    1  N3  UNL     1      -2.891   0.100  -1.909  1.00  0.00    -0.363 N 
ATOM      2  H3  UNL     1      -3.180   0.210  -0.937  1.00  0.00     0.162 HD
ENDROOT
BRANCH   1   3
HETATM    3  C9  UNL     1      -1.540  -0.360  -2.210  1.00  0.00     0.155 C 
BRANCH   3   4
HETATM    4  C8  UNL     1      -0.800  -0.589  -0.908  1.00  0.00     0.155 C 
HETATM    5  C6  UNL     1       0.707  -0.677  -1.059  1.00  0.00     0.109 C 
HETATM    6  C7  UNL     1       0.631   0.746  -0.567  1.00  0.00     0.186 C 
HETATM    7  O1  UNL     1      -0.693   0.556  -0.121  1.00  0.00    -0.382 OA
BRANCH   5   8
HETATM    8  S1  UNL     1       1.370  -1.866   0.120  1.00  0.00    -0.094 SA
BRANCH   8   9
HETATM    9  C5  UNL     1       3.086  -1.576   0.488  1.00  0.00     0.128 A 
HETATM   10  N2  UNL     1       3.521  -0.790   1.461  1.00  0.00    -0.287 N 
HETATM   11  N1  UNL     1       4.764  -0.647   1.646  1.00  0.00    -0.296 N 
ATOM     12  H2  UNL     1       2.855  -0.301   2.060  1.00  0.00     0.188 HD
HETATM   13  C4  UNL     1       5.633  -1.281   0.869  1.00  0.00     0.072 A 
ATOM     14  H1  UNL     1       5.100  -0.042   2.395  1.00  0.00     0.187 HD
HETATM   15  S3  UNL     1       4.553  -2.123  -0.179  1.00  0.00    -0.049 SA
BRANCH  13  16
HETATM   16  C2  UNL     1       7.130  -1.264   0.899  1.00  0.00     0.036 C 
HETATM   17  C1  UNL     1       7.592  -1.831   2.199  1.00  0.00     0.016 C 
HETATM   18  C3  UNL     1       7.651   0.107   0.616  1.00  0.00     0.016 C 
ENDBRANCH  13  16
ENDBRANCH   8   9
ENDBRANCH   5   8
ENDBRANCH   3   4
ENDBRANCH   1   3
BRANCH   1  19
HETATM   19  C10 UNL     1      -3.808   0.397  -2.949  1.00  0.00     0.186 C 
HETATM   20  S2  UNL     1      -3.377   0.232  -4.513  1.00  0.00    -0.040 SA
BRANCH  19  21
HETATM   21  N4  UNL     1      -5.113   0.840  -2.643  1.00  0.00    -0.277 N 
ATOM     22  H4  UNL     1      -5.777   1.054  -3.387  1.00  0.00     0.189 HD
BRANCH  21  23
HETATM   23  N5  UNL     1      -5.477   0.979  -1.306  1.00  0.00    -0.310 N 
HETATM   24  C11 UNL     1      -5.396   2.081  -0.662  1.00  0.00     0.110 C 
ATOM     25  H5  UNL     1      -5.827   0.157  -0.814  1.00  0.00     0.186 HD
BRANCH  24  26
HETATM   26  C12 UNL     1      -5.807   2.097   0.733  1.00  0.00     0.060 C 
BRANCH  26  27
HETATM   27  C13 UNL     1      -6.258   1.027   1.358  1.00  0.00     0.151 C 
BRANCH  27  28
HETATM   28  O2  UNL     1      -6.356  -0.163   0.698  1.00  0.00    -0.357 OA
ATOM     29  H2  UNL     1      -6.681  -0.934   1.148  1.00  0.00     0.217 HD
ENDBRANCH  27  28
BRANCH  27  30
HETATM   30  C14 UNL     1      -6.661   1.124   2.791  1.00  0.00     0.438 C 
HETATM   31  F1  UNL     1      -7.971   0.795   2.964  1.00  0.00    -0.164 F 
HETATM   32  F2  UNL     1      -6.386   2.380   3.268  1.00  0.00    -0.164 F 
HETATM   33  F3  UNL     1      -5.887   0.205   3.491  1.00  0.00    -0.164 F 
ENDBRANCH  27  30
ENDBRANCH  26  27
ENDBRANCH  24  26
ENDBRANCH  21  23
ENDBRANCH  19  21
ENDBRANCH   1  19
TORSDOF 12
