REMARK  0 active torsions:
REMARK  status: ('A' for Active; 'I' for Inactive)
ROOT
HETATM    1  N1  UNL     1      -3.771   1.803   1.837  1.00  0.00    -0.195 NA
HETATM    2  C1  UNL     1      -3.125   1.365   0.972  1.00  0.00     0.091 C 
HETATM    3  C2  UNL     1      -2.291   0.818  -0.111  1.00  0.00     0.228 C 
HETATM    4  C3  UNL     1      -2.596  -0.643  -0.213  1.00  0.00     0.049 C 
HETATM    5  C4  UNL     1      -1.464  -1.470   0.392  1.00  0.00     0.039 C 
HETATM    6  C5  UNL     1      -0.215  -1.126  -0.360  1.00  0.00     0.215 C 
HETATM    7  N2  UNL     1       0.988  -1.284   0.412  1.00  0.00    -0.062 N 
ATOM      8  H21 UNL     1       1.219  -2.244   0.670  1.00  0.00     0.278 HD
ATOM      9  H22 UNL     1       0.939  -0.942   1.372  1.00  0.00     0.278 HD
HETATM   10  C6  UNL     1       1.970  -0.609  -0.448  1.00  0.00     0.218 C 
HETATM   11  C7  UNL     1       3.175  -0.177   0.310  1.00  0.00     0.201 C 
HETATM   12  O1  UNL     1       2.960   1.057   0.852  1.00  0.00    -0.389 OA
HETATM   13  C8  UNL     1       1.724   1.519   0.483  1.00  0.00     0.177 C 
HETATM   14  C9  UNL     1       1.274   0.729  -0.723  1.00  0.00     0.073 C 
HETATM   15  C10 UNL     1      -0.161   0.360  -0.707  1.00  0.00     0.162 C 
HETATM   16  O2  UNL     1      -0.937   1.067   0.172  1.00  0.00    -0.364 OA
ENDROOT
TORSDOF 0
