REMARK  8 active torsions:
REMARK  status: ('A' for Active; 'I' for Inactive)
REMARK    1  A    between atoms: C2_2  and  N1_5 
REMARK    2  A    between atoms: N1_5  and  C5_8 
REMARK    3  A    between atoms: C5_8  and  C6_9 
REMARK    4  A    between atoms: C6_9  and  C7_11 
REMARK    5  A    between atoms: C7_11  and  N2_12 
REMARK    6  A    between atoms: N2_12  and  N3_13 
REMARK    7  A    between atoms: N3_13  and  C8_15 
REMARK    8  A    between atoms: C10_22  and  N7_23 
ROOT
HETATM    1  N3  UNL     1       2.621  -1.793  -0.402  1.00  0.00    -0.135 N 
ATOM      2  H3  UNL     1       2.632  -2.433  -1.196  1.00  0.00     0.201 HD
ENDROOT
BRANCH   1   3
HETATM    3  N2  UNL     1       1.557  -1.869   0.523  1.00  0.00    -0.119 NA
BRANCH   3   4
HETATM    4  C7  UNL     1       0.413  -1.330  -0.156  1.00  0.00     0.215 C 
BRANCH   4   5
HETATM    5  C6  UNL     1      -0.813  -1.228   0.715  1.00  0.00     0.168 C 
HETATM    6  O1  UNL     1      -0.862  -1.573   1.871  1.00  0.00    -0.295 OA
BRANCH   5   7
HETATM    7  C5  UNL     1      -2.005  -0.628   0.008  1.00  0.00     0.312 C 
BRANCH   7   8
HETATM    8  N1  UNL     1      -3.010  -0.183   0.925  1.00  0.00    -0.061 N 
ATOM      9  H12 UNL     1      -2.640   0.424   1.656  1.00  0.00     0.278 HD
ATOM     10  H11 UNL     1      -3.353  -0.929   1.531  1.00  0.00     0.278 HD
BRANCH   8  11
HETATM   11  C2  UNL     1      -4.067   0.447   0.147  1.00  0.00     0.115 C 
HETATM   12  C1  UNL     1      -4.792  -0.504  -0.745  1.00  0.00     0.045 C 
HETATM   13  C3  UNL     1      -5.004   1.127   1.109  1.00  0.00     0.045 C 
HETATM   14  C4  UNL     1      -3.491   1.554  -0.731  1.00  0.00     0.045 C 
ENDBRANCH   8  11
ENDBRANCH   7   8
ENDBRANCH   5   7
ENDBRANCH   4   5
ENDBRANCH   3   4
ENDBRANCH   1   3
BRANCH   1  15
HETATM   15  C8  UNL     1       3.669  -0.859  -0.261  1.00  0.00     0.710 A 
HETATM   16  N4  UNL     1       4.880  -1.142   0.280  1.00  0.00    -0.161 N 
HETATM   17  C9  UNL     1       5.839  -0.235   0.411  1.00  0.00     0.221 A 
ATOM     18  H4  UNL     1       5.061  -2.093   0.600  1.00  0.00     0.187 HD
HETATM   19  N5  UNL     1       7.130  -0.467   0.959  1.00  0.00    -0.062 NA
HETATM   20  N6  UNL     1       5.593   1.023  -0.015  1.00  0.00    -0.163 N 
HETATM   21  C10 UNL     1       4.439   1.376  -0.552  1.00  0.00     0.692 A 
ATOM     22  H6  UNL     1       6.325   1.726   0.082  1.00  0.00     0.187 HD
HETATM   23  N8  UNL     1       3.486   0.408  -0.666  1.00  0.00    -0.021 N 
ATOM     24  H8  UNL     1       2.588   0.659  -1.080  1.00  0.00     0.203 HD
BRANCH  21  25
HETATM   25  N7  UNL     1       4.180   2.590  -0.967  1.00  0.00    -0.234 N 
ATOM     26  H72 UNL     1       4.893   3.314  -0.882  1.00  0.00     0.174 HD
ATOM     27  H71 UNL     1       3.289   2.863  -1.382  1.00  0.00     0.174 HD
ENDBRANCH  21  25
ENDBRANCH   1  15
TORSDOF 8
