REMARK  2 active torsions:
REMARK  status: ('A' for Active; 'I' for Inactive)
REMARK    1  A    between atoms: C2_2  and  N1_5 
REMARK       I    between atoms: C5_7  and  N3_9 
REMARK    2  A    between atoms: N3_9  and  C6_11 
ROOT
HETATM    1  N1  UNL     1       2.753  -0.712   0.414  1.00  0.00    -0.357 N 
ATOM      2  H1  UNL     1       2.827  -1.729   0.377  1.00  0.00     0.163 HD
HETATM    3  C5  UNL     1       1.573  -0.239   0.509  1.00  0.00     0.185 C 
HETATM    4  N2  UNL     1       1.411   1.171   0.563  1.00  0.00    -0.064 NA
HETATM    5  N3  UNL     1       0.473  -1.133   0.556  1.00  0.00    -0.360 N 
ATOM      6  H3  UNL     1       0.622  -2.099   0.846  1.00  0.00     0.162 HD
ENDROOT
BRANCH   5   7
HETATM    7  C6  UNL     1      -0.881  -0.684   0.191  1.00  0.00     0.084 C 
HETATM    8  C7  UNL     1      -1.823  -1.824   0.332  1.00  0.00     0.025 C 
HETATM    9  C8  UNL     1      -2.904  -1.641   1.336  1.00  0.00     0.002 C 
HETATM   10  C9  UNL     1      -3.615  -0.329   1.265  1.00  0.00     0.000 C 
HETATM   11  C10 UNL     1      -4.338  -0.126  -0.048  1.00  0.00     0.000 C 
HETATM   12  C11 UNL     1      -3.876   1.189  -0.648  1.00  0.00     0.000 C 
HETATM   13  C12 UNL     1      -2.982   0.859  -1.837  1.00  0.00     0.000 C 
HETATM   14  C13 UNL     1      -1.546   1.072  -1.460  1.00  0.00     0.002 C 
HETATM   15  C14 UNL     1      -0.806  -0.234  -1.258  1.00  0.00     0.025 C 
ENDBRANCH   5   7
BRANCH   1  16
HETATM   16  C2  UNL     1       3.979   0.008   0.353  1.00  0.00     0.021 C 
HETATM   17  C1  UNL     1       3.970   1.224  -0.510  1.00  0.00     0.037 C 
HETATM   18  C3  UNL     1       5.147  -0.884  -0.068  1.00  0.00     0.037 C 
HETATM   19  C4  UNL     1       4.320   0.465   1.778  1.00  0.00     0.037 C 
ENDBRANCH   1  16
TORSDOF 2
