REMARK  1 active torsions:
REMARK  status: ('A' for Active; 'I' for Inactive)
REMARK    1  A    between atoms: C2_3  and  C3_4 
ROOT
HETATM    1  C3  UNL     1      -0.106   0.064  -0.490  1.00  0.00     0.080 C 
HETATM    2  C4  UNL     1       0.429  -1.365  -0.384  1.00  0.00     0.092 C 
HETATM    3  S1  UNL     1       2.242  -1.206  -0.489  1.00  0.00    -0.167 SA
HETATM    4  C5  UNL     1       2.913  -0.205   0.826  1.00  0.00     0.084 C 
HETATM    5  C6  UNL     1       2.153   1.032   1.136  1.00  0.00     0.084 C 
HETATM    6  S2  UNL     1       0.382   0.897   1.023  1.00  0.00    -0.159 SA
ENDROOT
BRANCH   1   7
HETATM    7  C2  UNL     1      -1.576   0.037  -0.674  1.00  0.00     0.003 C 
HETATM    8  C1  UNL     1      -2.438   0.324   0.263  1.00  0.00     0.097 C 
HETATM    9  N1  UNL     1      -3.827   0.272  -0.003  1.00  0.00    -0.115 NA
ENDBRANCH   1   7
TORSDOF 1
