REMARK  8 active torsions:
REMARK  status: ('A' for Active; 'I' for Inactive)
REMARK    1  A    between atoms: C2_2  and  C3_3 
REMARK    2  A    between atoms: C4_4  and  C5_5 
REMARK    3  A    between atoms: C5_5  and  C6_6 
REMARK    4  A    between atoms: C6_6  and  O1_9 
REMARK    5  A    between atoms: C9_11  and  C10_12 
REMARK    6  A    between atoms: C13_15  and  O2_16 
REMARK    7  A    between atoms: C21_28  and  N2_29 
REMARK       I    between atoms: N2_29  and  C22_31 
REMARK       I    between atoms: C22_31  and  N3_33 
REMARK    8  A    between atoms: N3_33  and  C23_35 
ROOT
HETATM    1  C10 UNL     1       0.613  -1.385  -0.908  1.00  0.00     0.032 C 
HETATM    2  C11 UNL     1       0.521  -2.697  -1.668  1.00  0.00     0.013 C 
HETATM    3  C12 UNL     1      -0.378  -3.575  -0.823  1.00  0.00     0.039 C 
HETATM    4  C13 UNL     1      -1.806  -3.546  -1.282  1.00  0.00     0.064 C 
HETATM    5  C14 UNL     1      -2.791  -3.539  -0.149  1.00  0.00     0.041 C 
HETATM    6  C15 UNL     1      -3.957  -2.754  -0.672  1.00  0.00     0.035 C 
HETATM    7  C16 UNL     1      -3.686  -2.481  -2.133  1.00  0.00     0.047 C 
HETATM    8  C17 UNL     1      -4.397  -3.401  -3.084  1.00  0.00     0.134 C 
HETATM    9  C18 UNL     1      -5.395  -2.292  -3.129  1.00  0.00     0.220 C 
HETATM   10  O3  UNL     1      -6.621  -2.236  -3.405  1.00  0.00    -0.274 OA
HETATM   11  N1  UNL     1      -4.352  -1.377  -2.731  1.00  0.00    -0.351 N 
ATOM     12  H1  UNL     1      -4.172  -0.378  -2.834  1.00  0.00     0.163 HD
HETATM   13  C19 UNL     1      -2.153  -2.485  -2.253  1.00  0.00     0.050 C 
HETATM   14  C20 UNL     1      -1.585  -1.152  -2.092  1.00  0.00     0.036 C 
HETATM   15  C21 UNL     1      -0.806  -0.849  -0.862  1.00  0.00     0.094 C 
ENDROOT
BRANCH   1  16
HETATM   16  C9  UNL     1       1.564  -0.452  -1.483  1.00  0.00    -0.013 C 
HETATM   17  C2  UNL     1       2.620   0.025  -0.842  1.00  0.00    -0.066 C 
HETATM   18  C1  UNL     1       3.551   0.990  -1.521  1.00  0.00     0.048 C 
BRANCH  17  19
HETATM   19  C3  UNL     1       2.953  -0.336   0.525  1.00  0.00     0.002 C 
HETATM   20  C4  UNL     1       4.035   0.196   1.083  1.00  0.00    -0.023 C 
BRANCH  20  21
HETATM   21  C5  UNL     1       4.473  -0.095   2.463  1.00  0.00     0.064 C 
BRANCH  21  22
HETATM   22  C6  UNL     1       4.498   1.196   3.262  1.00  0.00     0.054 C 
HETATM   23  C7  UNL     1       5.449   2.165   2.631  1.00  0.00     0.045 C 
HETATM   24  C8  UNL     1       3.082   1.713   3.342  1.00  0.00     0.045 C 
BRANCH  22  25
HETATM   25  O1  UNL     1       4.901   0.890   4.578  1.00  0.00    -0.390 OA
ATOM     26  H1  UNL     1       4.917   1.698   5.078  1.00  0.00     0.210 HD
ENDBRANCH  22  25
ENDBRANCH  21  22
ENDBRANCH  20  21
ENDBRANCH  17  19
ENDBRANCH   1  16
BRANCH  15  27
HETATM   27  N2  UNL     1      -0.641   0.616  -0.836  1.00  0.00    -0.338 N 
HETATM   28  C22 UNL     1      -1.112   1.415   0.229  1.00  0.00     0.317 C 
HETATM   29  O4  UNL     1      -1.695   0.863   1.201  1.00  0.00    -0.247 OA
HETATM   30  N3  UNL     1      -0.929   2.812   0.200  1.00  0.00    -0.335 N 
ATOM     31  H3  UNL     1      -0.455   3.227  -0.602  1.00  0.00     0.165 HD
ATOM     32  H2  UNL     1      -0.168   1.070  -1.618  1.00  0.00     0.164 HD
BRANCH  30  33
HETATM   33  C23 UNL     1      -1.388   3.685   1.265  1.00  0.00     0.023 C 
HETATM   34  C24 UNL     1      -2.870   3.615   1.474  1.00  0.00     0.037 C 
HETATM   35  C25 UNL     1      -0.618   3.348   2.545  1.00  0.00     0.037 C 
HETATM   36  C26 UNL     1      -1.011   5.104   0.914  1.00  0.00     0.037 C 
ENDBRANCH  30  33
ENDBRANCH  15  27
BRANCH   4  37
HETATM   37  O2  UNL     1      -2.010  -4.787  -1.942  1.00  0.00    -0.389 OA
ATOM     38  H2  UNL     1      -2.914  -4.769  -2.233  1.00  0.00     0.210 HD
ENDBRANCH   4  37
TORSDOF 8
