REMARK  9 active torsions:
REMARK  status: ('A' for Active; 'I' for Inactive)
REMARK    1  A    between atoms: N1_1  and  C1_5 
REMARK    2  A    between atoms: C1_5  and  C2_6 
REMARK    3  A    between atoms: C1_5  and  C7_15 
REMARK    4  A    between atoms: C2_6  and  C3_7 
REMARK    5  A    between atoms: C5_11  and  O1_12 
REMARK       I    between atoms: C7_15  and  N3_17 
REMARK    6  A    between atoms: C8_19  and  N4_20 
REMARK    7  A    between atoms: C8_19  and  C19_32 
REMARK    8  A    between atoms: N4_20  and  C9_22 
REMARK       I    between atoms: C19_32  and  N5_34 
REMARK    9  A    between atoms: N5_34  and  C20_36 
ROOT
HETATM    1  C7  UNL     1       2.060  -1.902  -0.720  1.00  0.00     0.254 C 
HETATM    2  O2  UNL     1       2.135  -2.684   0.274  1.00  0.00    -0.271 OA
HETATM    3  N3  UNL     1       1.565  -0.593  -0.652  1.00  0.00    -0.307 N 
ATOM      4  H3  UNL     1       2.264   0.146  -0.573  1.00  0.00     0.170 HD
HETATM    5  C8  UNL     1       0.352  -0.212  -0.677  1.00  0.00     0.173 C 
ENDROOT
BRANCH   5   6
HETATM    6  N4  UNL     1       0.057   1.165  -0.596  1.00  0.00    -0.362 N 
ATOM      7  H4  UNL     1      -0.377   1.608  -1.406  1.00  0.00     0.162 HD
BRANCH   6   8
HETATM    8  C9  UNL     1       0.329   1.985   0.554  1.00  0.00     0.033 C 
HETATM    9  C10 UNL     1      -0.138   3.390   0.240  1.00  0.00     0.035 C 
HETATM   10  C11 UNL     1       0.169   4.348   1.371  1.00  0.00    -0.012 C 
HETATM   11  C12 UNL     1       1.667   4.330   1.568  1.00  0.00     0.009 C 
HETATM   12  C16 UNL     1      -0.577   3.888   2.583  1.00  0.00     0.009 C 
HETATM   13  C13 UNL     1       2.082   2.964   2.008  1.00  0.00    -0.012 C 
HETATM   14  C14 UNL     1       1.325   2.520   3.236  1.00  0.00     0.009 C 
HETATM   15  C18 UNL     1       1.801   1.953   0.921  1.00  0.00     0.035 C 
HETATM   16  C15 UNL     1      -0.154   2.479   2.900  1.00  0.00    -0.012 C 
HETATM   17  C17 UNL     1      -0.433   1.524   1.785  1.00  0.00     0.035 C 
ENDBRANCH   6   8
ENDBRANCH   5   6
BRANCH   5  18
HETATM   18  C19 UNL     1      -0.721  -1.169  -0.785  1.00  0.00     0.285 C 
HETATM   19  O3  UNL     1      -0.493  -2.411  -0.858  1.00  0.00    -0.264 OA
HETATM   20  N5  UNL     1      -2.066  -0.711  -0.812  1.00  0.00    -0.350 N 
ATOM     21  H5  UNL     1      -2.229   0.294  -0.753  1.00  0.00     0.163 HD
BRANCH  20  22
HETATM   22  C20 UNL     1      -3.215  -1.575  -0.917  1.00  0.00     0.084 C 
HETATM   23  C21 UNL     1      -4.042  -1.398   0.329  1.00  0.00     0.025 C 
HETATM   24  C22 UNL     1      -5.255  -2.301   0.213  1.00  0.00     0.002 C 
HETATM   25  C23 UNL     1      -6.433  -1.388  -0.116  1.00  0.00     0.000 C 
HETATM   26  C24 UNL     1      -6.420  -1.071  -1.584  1.00  0.00     0.000 C 
HETATM   27  C25 UNL     1      -5.142  -0.386  -2.013  1.00  0.00     0.002 C 
HETATM   28  C26 UNL     1      -4.003  -1.334  -2.176  1.00  0.00     0.025 C 
ENDBRANCH  20  22
ENDBRANCH   5  18
BRANCH   1  29
HETATM   29  C1  UNL     1       2.536  -2.436  -2.027  1.00  0.00     0.279 C 
BRANCH  29  30
HETATM   30  N1  UNL     1       3.007  -3.791  -1.927  1.00  0.00    -0.066 N 
ATOM     31  H13 UNL     1       3.422  -4.136  -2.793  1.00  0.00     0.275 HD
ATOM     32  H12 UNL     1       3.835  -3.885  -1.339  1.00  0.00     0.275 HD
ATOM     33  H11 UNL     1       2.222  -4.357  -1.606  1.00  0.00     0.275 HD
ENDBRANCH  29  30
BRANCH  29  34
HETATM   34  C2  UNL     1       3.714  -1.587  -2.509  1.00  0.00     0.082 C 
BRANCH  34  35
HETATM   35  C3  UNL     1       4.839  -1.664  -1.554  1.00  0.00    -0.036 A 
HETATM   36  C4  UNL     1       5.110  -0.868  -0.461  1.00  0.00     0.097 A 
HETATM   37  N2  UNL     1       6.235  -1.262   0.159  1.00  0.00    -0.347 N 
HETATM   38  C5  UNL     1       6.701  -2.315  -0.527  1.00  0.00     0.140 A 
ATOM     39  H2  UNL     1       6.653  -0.842   0.989  1.00  0.00     0.167 HD
HETATM   40  C6  UNL     1       5.871  -2.599  -1.593  1.00  0.00     0.064 A 
BRANCH  38  41
HETATM   41  O1  UNL     1       7.867  -3.031  -0.211  1.00  0.00    -0.346 OA
ATOM     42  H1  UNL     1       8.197  -3.777  -0.697  1.00  0.00     0.219 HD
ENDBRANCH  38  41
ENDBRANCH  34  35
ENDBRANCH  29  34
ENDBRANCH   1  29
TORSDOF 9
