REMARK  6 active torsions:
REMARK  status: ('A' for Active; 'I' for Inactive)
REMARK    1  A    between atoms: C5_6  and  C6_7 
REMARK    2  A    between atoms: C8_9  and  C9_10 
REMARK    3  A    between atoms: C13_14  and  C14_15 
REMARK    4  A    between atoms: C14_15  and  O1_16 
REMARK    5  A    between atoms: C18_25  and  C19_26 
REMARK    6  A    between atoms: N4_30  and  N5_32 
ROOT
HETATM    1  C1  UNL     1       4.075   2.051   0.928  1.00  0.00     0.049 C 
HETATM    2  C2  UNL     1       2.840   1.306   0.669  1.00  0.00    -0.045 A 
HETATM    3  C3  UNL     1       1.609   1.881   0.993  1.00  0.00     0.051 A 
HETATM    4  C4  UNL     1       0.419   1.208   0.763  1.00  0.00     0.129 A 
HETATM    5  F1  UNL     1      -0.748   1.839   1.137  1.00  0.00    -0.205 F 
HETATM    6  C5  UNL     1       0.449  -0.040   0.209  1.00  0.00     0.030 A 
HETATM    7  C17 UNL     1       1.707  -0.591  -0.106  1.00  0.00     0.032 A 
HETATM    8  C18 UNL     1       2.891   0.047   0.109  1.00  0.00     0.015 A 
ENDROOT
BRANCH   6   9
HETATM    9  C6  UNL     1      -0.729  -0.839  -0.052  1.00  0.00     0.048 A 
HETATM   10  C7  UNL     1      -2.019  -0.385  -0.054  1.00  0.00     0.060 A 
HETATM   11  C8  UNL     1      -3.097  -1.211  -0.345  1.00  0.00     0.045 A 
HETATM   12  N1  UNL     1      -2.852  -2.522  -0.639  1.00  0.00    -0.352 N 
HETATM   13  C16 UNL     1      -1.587  -2.970  -0.638  1.00  0.00     0.181 A 
ATOM     14  H1  UNL     1      -3.622  -3.154  -0.857  1.00  0.00     0.166 HD
HETATM   15  N2  UNL     1      -0.568  -2.150  -0.353  1.00  0.00    -0.352 N 
ATOM     16  H2  UNL     1       0.378  -2.532  -0.363  1.00  0.00     0.166 HD
BRANCH  11  17
HETATM   17  C9  UNL     1      -4.466  -0.723  -0.345  1.00  0.00    -0.009 A 
HETATM   18  C10 UNL     1      -5.503  -1.616  -0.651  1.00  0.00     0.014 A 
HETATM   19  C11 UNL     1      -6.827  -1.249  -0.676  1.00  0.00     0.002 A 
HETATM   20  C12 UNL     1      -7.191   0.038  -0.396  1.00  0.00     0.009 A 
HETATM   21  C13 UNL     1      -6.206   0.946  -0.091  1.00  0.00    -0.034 A 
HETATM   22  C15 UNL     1      -4.858   0.557  -0.069  1.00  0.00     0.023 A 
BRANCH  21  23
HETATM   23  C14 UNL     1      -6.539   2.356   0.221  1.00  0.00     0.202 C 
BRANCH  23  24
HETATM   24  O1  UNL     1      -7.902   2.537   0.147  1.00  0.00    -0.396 OA
ATOM     25  H1  UNL     1      -8.115   3.441   0.347  1.00  0.00     0.209 HD
ENDBRANCH  23  24
ENDBRANCH  21  23
ENDBRANCH  11  17
ENDBRANCH   6   9
BRANCH   8  26
HETATM   26  C19 UNL     1       4.147  -0.576  -0.241  1.00  0.00     0.118 A 
HETATM   27  N3  UNL     1       5.342  -0.002  -0.064  1.00  0.00    -0.325 N 
HETATM   28  C20 UNL     1       6.526  -0.506  -0.359  1.00  0.00     0.146 A 
ATOM     29  H3  UNL     1       5.338   0.932   0.346  1.00  0.00     0.169 HD
HETATM   30  N4  UNL     1       7.646   0.074  -0.175  1.00  0.00    -0.291 N 
HETATM   31  C21 UNL     1       6.561  -1.775  -0.918  1.00  0.00     0.117 A 
ATOM     32  H4  UNL     1       8.497  -0.419  -0.444  1.00  0.00     0.188 HD
HETATM   33 CL1  UNL     1       8.097  -2.508  -1.335  1.00  0.00    -0.077 Cl
HETATM   34  C22 UNL     1       5.365  -2.413  -1.122  1.00  0.00     0.130 A 
HETATM   35 CL2  UNL     1       5.366  -4.021  -1.827  1.00  0.00    -0.062 Cl
HETATM   36  N6  UNL     1       4.204  -1.808  -0.785  1.00  0.00    -0.331 N 
ATOM     37  H6  UNL     1       3.330  -2.307  -0.950  1.00  0.00     0.168 HD
BRANCH  30  38
HETATM   38  N5  UNL     1       7.765   1.351   0.377  1.00  0.00    -0.344 N 
ATOM     39  H52 UNL     1       6.904   1.829   0.641  1.00  0.00     0.176 HD
ATOM     40  H51 UNL     1       8.661   1.815   0.524  1.00  0.00     0.176 HD
ENDBRANCH  30  38
ENDBRANCH   8  26
TORSDOF 6
