REMARK  1 active torsions:
REMARK  status: ('A' for Active; 'I' for Inactive)
REMARK    1  A    between atoms: N2_19  and  C16_21 
ROOT
HETATM    1  O1  UNL     1       0.136  -2.432   0.289  1.00  0.00    -0.286 OA
HETATM    2  C1  UNL     1      -0.738  -1.539   0.190  1.00  0.00     0.197 A 
HETATM    3  C2  UNL     1      -2.177  -1.873   0.259  1.00  0.00     0.028 A 
HETATM    4  C3  UNL     1      -2.842  -3.078   0.425  1.00  0.00     0.016 A 
HETATM    5  C4  UNL     1      -4.213  -3.031   0.444  1.00  0.00     0.001 A 
HETATM    6  C5  UNL     1      -4.891  -1.827   0.303  1.00  0.00     0.001 A 
HETATM    7  C6  UNL     1      -4.207  -0.646   0.139  1.00  0.00     0.014 A 
HETATM    8  C7  UNL     1      -2.830  -0.672   0.118  1.00  0.00     0.006 A 
HETATM    9  C8  UNL     1      -1.838   0.415  -0.039  1.00  0.00     0.060 A 
HETATM   10  N1  UNL     1      -1.996   1.740  -0.206  1.00  0.00    -0.354 N 
ATOM     11  H1  UNL     1      -2.942   2.120  -0.238  1.00  0.00     0.166 HD
HETATM   12  C9  UNL     1      -0.958   2.583  -0.332  1.00  0.00     0.045 A 
HETATM   13  C10 UNL     1      -1.179   3.960  -0.504  1.00  0.00     0.030 A 
HETATM   14  C11 UNL     1      -0.120   4.824  -0.634  1.00  0.00     0.002 A 
HETATM   15  C12 UNL     1       1.153   4.317  -0.592  1.00  0.00     0.001 A 
HETATM   16  C13 UNL     1       1.380   2.968  -0.424  1.00  0.00     0.016 A 
HETATM   17  C14 UNL     1       0.304   2.086  -0.292  1.00  0.00     0.018 A 
HETATM   18  C15 UNL     1       0.578   0.698  -0.119  1.00  0.00     0.061 A 
HETATM   19  N2  UNL     1       1.721   0.326  -0.093  1.00  0.00    -0.355 N 
ATOM     20  H2  UNL     1       2.257   1.185  -0.213  1.00  0.00     0.166 HD
HETATM   21  C22 UNL     1      -0.563  -0.104   0.004  1.00  0.00     0.070 A 
ENDROOT
BRANCH  19  22
HETATM   22  C16 UNL     1       2.655  -0.615   0.010  1.00  0.00     0.032 A 
HETATM   23  C17 UNL     1       3.180  -1.306  -1.109  1.00  0.00     0.029 A 
HETATM   24  C18 UNL     1       4.157  -2.235  -0.914  1.00  0.00     0.002 A 
HETATM   25  C19 UNL     1       4.662  -2.533   0.336  1.00  0.00     0.000 A 
HETATM   26  C20 UNL     1       4.155  -1.862   1.438  1.00  0.00     0.002 A 
HETATM   27  C21 UNL     1       3.178  -0.926   1.288  1.00  0.00     0.029 A 
ENDBRANCH  19  22
TORSDOF 1
