REMARK  11 active torsions:
REMARK  status: ('A' for Active; 'I' for Inactive)
REMARK    1  A    between atoms: N1_1  and  N2_4 
REMARK       I    between atoms: N2_4  and  C1_6 
REMARK    2  A    between atoms: C1_6  and  C2_8 
REMARK    3  A    between atoms: C2_8  and  N3_9 
REMARK       I    between atoms: N3_9  and  C3_11 
REMARK    4  A    between atoms: C3_11  and  C4_13 
REMARK    5  A    between atoms: C4_13  and  O3_14 
REMARK    6  A    between atoms: C4_13  and  N4_16 
REMARK    7  A    between atoms: N4_16  and  C5_18 
REMARK    8  A    between atoms: C13_28  and  O5_29 
REMARK    9  A    between atoms: C15_34  and  O8_35 
REMARK   10  A    between atoms: C16_38  and  C17_39 
REMARK   11  A    between atoms: C17_39  and  O10_40 
ROOT
HETATM    1  C5  UNL     1      -0.480   0.032  -0.193  1.00  0.00     0.071 A 
HETATM    2  C6  UNL     1      -0.982  -1.236   0.135  1.00  0.00     0.085 A 
HETATM    3  N5  UNL     1      -0.016  -2.270   0.254  1.00  0.00    -0.099 NA
HETATM    4  C7  UNL     1      -2.321  -1.467   0.329  1.00  0.00     0.034 A 
HETATM    5  C8  UNL     1      -3.208  -0.422   0.199  1.00  0.00     0.100 A 
HETATM    6  C9  UNL     1      -2.756   0.850  -0.126  1.00  0.00     0.066 A 
HETATM    7  C10 UNL     1      -1.391   1.053  -0.317  1.00  0.00     0.060 A 
HETATM    8  C11 UNL     1      -1.245   2.475  -0.660  1.00  0.00     0.201 A 
HETATM    9  O4  UNL     1      -0.169   3.045  -0.908  1.00  0.00    -0.286 OA
HETATM   10  C12 UNL     1      -2.547   3.132  -0.670  1.00  0.00     0.087 A 
HETATM   11  C13 UNL     1      -2.741   4.400  -0.940  1.00  0.00     0.150 C 
HETATM   12  C14 UNL     1      -3.497   2.087  -0.329  1.00  0.00     0.202 A 
HETATM   13  O6  UNL     1      -4.735   2.257  -0.235  1.00  0.00    -0.286 OA
HETATM   14  O7  UNL     1      -4.555  -0.669   0.398  1.00  0.00    -0.295 OA
HETATM   15  C15 UNL     1      -4.957  -1.940   0.861  1.00  0.00     0.417 C 
HETATM   16  O9  UNL     1      -3.963  -2.672   1.461  1.00  0.00    -0.326 OA
HETATM   17  C16 UNL     1      -2.832  -2.807   0.674  1.00  0.00     0.188 C 
ENDROOT
BRANCH   1  18
HETATM   18  N4  UNL     1       0.883   0.234  -0.397  1.00  0.00    -0.354 N 
ATOM     19  H4  UNL     1       1.198   0.281  -1.366  1.00  0.00     0.162 HD
BRANCH  18  20
HETATM   20  C4  UNL     1       1.898   0.384   0.623  1.00  0.00     0.312 C 
BRANCH  20  21
HETATM   21  C3  UNL     1       3.231   0.648   0.067  1.00  0.00     0.266 C 
HETATM   22  N3  UNL     1       3.988   1.754   0.484  1.00  0.00    -0.349 N 
ATOM     23  H3  UNL     1       3.591   2.384   1.181  1.00  0.00     0.163 HD
HETATM   24  O2  UNL     1       3.697  -0.131  -0.794  1.00  0.00    -0.269 OA
BRANCH  22  25
HETATM   25  C2  UNL     1       5.302   2.036  -0.032  1.00  0.00     0.227 C 
BRANCH  25  26
HETATM   26  C1  UNL     1       6.326   1.021   0.288  1.00  0.00     0.253 C 
HETATM   27  N2  UNL     1       6.125  -0.100   1.081  1.00  0.00    -0.275 N 
ATOM     28  H2  UNL     1       5.212  -0.273   1.501  1.00  0.00     0.189 HD
HETATM   29  O1  UNL     1       7.489   1.197  -0.204  1.00  0.00    -0.270 OA
BRANCH  27  30
HETATM   30  N1  UNL     1       7.188  -1.000   1.304  1.00  0.00    -0.343 N 
ATOM     31  H12 UNL     1       8.095  -0.813   0.877  1.00  0.00     0.176 HD
ATOM     32  H11 UNL     1       7.040  -1.824   1.887  1.00  0.00     0.176 HD
ENDBRANCH  27  30
ENDBRANCH  25  26
ENDBRANCH  22  25
ENDBRANCH  20  21
BRANCH  20  33
HETATM   33  O3  UNL     1       1.546   1.406   1.475  1.00  0.00    -0.368 OA
ATOM     34  H3  UNL     1       0.684   1.235   1.835  1.00  0.00     0.212 HD
ENDBRANCH  20  33
ENDBRANCH  18  20
ENDBRANCH   1  18
BRANCH  17  35
HETATM   35  C17 UNL     1      -3.164  -3.646  -0.535  1.00  0.00     0.201 C 
BRANCH  35  36
HETATM   36  O10 UNL     1      -2.047  -3.809  -1.358  1.00  0.00    -0.398 OA
ATOM     37  H10 UNL     1      -2.256  -4.337  -2.119  1.00  0.00     0.209 HD
ENDBRANCH  35  36
ENDBRANCH  17  35
BRANCH  11  38
HETATM   38  O5  UNL     1      -4.018   4.929  -0.924  1.00  0.00    -0.372 OA
ATOM     39  H5  UNL     1      -4.159   5.848  -1.120  1.00  0.00     0.216 HD
ENDBRANCH  11  38
BRANCH  15  40
HETATM   40  O8  UNL     1      -5.954  -1.726   1.825  1.00  0.00    -0.349 OA
ATOM     41  H8  UNL     1      -6.225  -2.582   2.137  1.00  0.00     0.215 HD
ENDBRANCH  15  40
TORSDOF 11
