REMARK  6 active torsions:
REMARK  status: ('A' for Active; 'I' for Inactive)
REMARK    1  A    between atoms: N1_2  and  C3_4 
REMARK    2  A    between atoms: C5_7  and  C6_8 
REMARK    3  A    between atoms: C6_8  and  O2_9 
REMARK    4  A    between atoms: C8_12  and  O3_13 
REMARK    5  A    between atoms: C9_15  and  O4_16 
REMARK    6  A    between atoms: C10_18  and  O5_19 
ROOT
HETATM    1  C3  UNL     1       0.836   0.335  -0.108  1.00  0.00     0.262 C 
HETATM    2  C4  UNL     1       0.592  -0.126   1.290  1.00  0.00     0.187 C 
HETATM    3  O1  UNL     1      -0.381   0.789   1.726  1.00  0.00    -0.373 OA
HETATM    4  C5  UNL     1      -1.137   1.173   0.662  1.00  0.00     0.154 C 
HETATM    5  C7  UNL     1      -0.587   0.471  -0.587  1.00  0.00     0.084 C 
HETATM    6  C8  UNL     1      -1.293  -0.865  -0.652  1.00  0.00     0.158 C 
HETATM    7  C9  UNL     1      -1.379  -1.483   0.714  1.00  0.00     0.178 C 
HETATM    8  C10 UNL     1      -0.036  -1.484   1.383  1.00  0.00     0.180 C 
ENDROOT
BRANCH   1   9
HETATM    9  N1  UNL     1       1.656  -0.499  -0.906  1.00  0.00     0.087 N 
HETATM   10  C1  UNL     1       1.732   0.125  -2.240  1.00  0.00     0.310 C 
HETATM   11  C2  UNL     1       3.027  -0.387  -0.380  1.00  0.00     0.310 C 
ENDBRANCH   1   9
BRANCH   8  12
HETATM   12  O5  UNL     1       0.759  -2.514   0.943  1.00  0.00    -0.390 OA
ATOM     13  H5  UNL     1       0.361  -3.375   1.002  1.00  0.00     0.210 HD
ENDBRANCH   8  12
BRANCH   4  14
HETATM   14  C6  UNL     1      -0.977   2.663   0.445  1.00  0.00     0.196 C 
BRANCH  14  15
HETATM   15  O2  UNL     1      -1.391   3.354   1.577  1.00  0.00    -0.398 OA
ATOM     16  H2  UNL     1      -1.291   4.289   1.441  1.00  0.00     0.209 HD
ENDBRANCH  14  15
ENDBRANCH   4  14
BRANCH   6  17
HETATM   17  O3  UNL     1      -2.618  -0.594  -1.054  1.00  0.00    -0.392 OA
ATOM     18  H3  UNL     1      -3.061  -1.433  -1.095  1.00  0.00     0.210 HD
ENDBRANCH   6  17
BRANCH   7  19
HETATM   19  O4  UNL     1      -1.822  -2.814   0.613  1.00  0.00    -0.390 OA
ATOM     20  H4  UNL     1      -1.876  -3.205   1.477  1.00  0.00     0.210 HD
ENDBRANCH   7  19
TORSDOF 6
