REMARK  2 active torsions:
REMARK  status: ('A' for Active; 'I' for Inactive)
REMARK    1  A    between atoms: C11_11  and  C12_12 
REMARK       I    between atoms: C12_12  and  N1_14 
REMARK    2  A    between atoms: N1_14  and  N2_16 
REMARK       I    between atoms: N2_16  and  C13_18 
ROOT
HETATM    1  C1  UNL     1       0.552   2.510  -2.484  1.00  0.00     0.012 C 
HETATM    2  C2  UNL     1       0.120   1.640  -1.767  1.00  0.00    -0.111 C 
HETATM    3  C3  UNL     1      -0.377   0.575  -0.922  1.00  0.00     0.081 C 
HETATM    4  C4  UNL     1      -1.875   0.481  -1.014  1.00  0.00     0.002 C 
HETATM    5  C5  UNL     1      -2.304  -0.964  -1.163  1.00  0.00     0.006 C 
HETATM    6  C6  UNL     1      -3.288  -1.413  -0.120  1.00  0.00     0.001 C 
HETATM    7  C7  UNL     1      -2.837  -1.151   1.288  1.00  0.00     0.005 C 
HETATM    8  C8  UNL     1      -2.156   0.200   1.397  1.00  0.00    -0.013 C 
HETATM    9  C9  UNL     1      -2.517   1.083   0.226  1.00  0.00     0.010 C 
HETATM   10  C10 UNL     1      -0.673  -0.040   1.485  1.00  0.00     0.020 C 
HETATM   11  C11 UNL     1       0.094   0.787   0.485  1.00  0.00     0.096 C 
ENDROOT
BRANCH  11  12
HETATM   12  C12 UNL     1       1.529   0.549   0.694  1.00  0.00     0.241 C 
HETATM   13  O1  UNL     1       2.139   1.436   1.413  1.00  0.00    -0.271 OA
HETATM   14  N1  UNL     1       2.279  -0.532   0.193  1.00  0.00    -0.266 N 
ATOM     15  H1  UNL     1       1.830  -1.246  -0.381  1.00  0.00     0.190 HD
BRANCH  14  16
HETATM   16  N2  UNL     1       3.633  -0.619   0.485  1.00  0.00    -0.251 N 
HETATM   17  C13 UNL     1       4.676  -0.343  -0.429  1.00  0.00     0.347 C 
HETATM   18  N3  UNL     1       6.038  -0.446  -0.082  1.00  0.00    -0.038 NA
HETATM   19  O2  UNL     1       4.388   0.014  -1.617  1.00  0.00    -0.249 OA
ATOM     20  H2  UNL     1       3.895  -0.903   1.429  1.00  0.00     0.191 HD
ENDBRANCH  14  16
ENDBRANCH  11  12
TORSDOF 2
