REMARK  15 active torsions:
REMARK  status: ('A' for Active; 'I' for Inactive)
REMARK    1  A    between atoms: N1_1  and  C1_5 
REMARK    2  A    between atoms: C1_5  and  O1_6 
REMARK    3  A    between atoms: C1_5  and  N2_8 
REMARK    4  A    between atoms: N2_8  and  C2_10 
REMARK    5  A    between atoms: C4_12  and  C5_13 
REMARK    6  A    between atoms: C5_13  and  O2_14 
REMARK    7  A    between atoms: C5_13  and  O3_16 
REMARK    8  A    between atoms: N3_18  and  N4_19 
REMARK    9  A    between atoms: C6_20  and  O4_21 
REMARK   10  A    between atoms: C9_25  and  O5_26 
REMARK   11  A    between atoms: C12_34  and  O8_35 
REMARK   12  A    between atoms: C12_34  and  C13_37 
REMARK   13  A    between atoms: C13_37  and  O9_38 
REMARK   14  A    between atoms: C13_37  and  C14_40 
REMARK   15  A    between atoms: C14_40  and  O10_41 
ROOT
HETATM    1  N4  UNL     1       0.069   0.454   0.760  1.00  0.00    -0.188 N 
HETATM    2  C6  UNL     1      -0.912   0.479  -0.189  1.00  0.00     0.178 A 
HETATM    3  C7  UNL     1      -2.243   0.378   0.149  1.00  0.00     0.071 A 
HETATM    4  C8  UNL     1      -2.536   0.251   1.488  1.00  0.00     0.088 A 
HETATM    5  C9  UNL     1      -1.539   0.225   2.453  1.00  0.00     0.164 A 
HETATM    6  C10 UNL     1      -0.226   0.330   2.063  1.00  0.00     0.304 A 
HETATM    7  O6  UNL     1       0.714   0.312   2.895  1.00  0.00    -0.263 OA
HETATM    8  N5  UNL     1      -3.953   0.160   1.638  1.00  0.00    -0.321 N 
ATOM      9  H5  UNL     1      -4.459   0.059   2.518  1.00  0.00     0.169 HD
HETATM   10  C11 UNL     1      -4.530   0.235   0.346  1.00  0.00     0.264 A 
HETATM   11  O7  UNL     1      -5.754   0.187   0.099  1.00  0.00    -0.269 OA
HETATM   12  C12 UNL     1      -3.454   0.379  -0.658  1.00  0.00     0.200 A 
ENDROOT
BRANCH   1  13
HETATM   13  N3  UNL     1       1.398   0.563   0.326  1.00  0.00    -0.253 N 
HETATM   14  C4  UNL     1       2.043   1.726   0.171  1.00  0.00     0.090 A 
HETATM   15  C3  UNL     1       3.327   1.513  -0.265  1.00  0.00     0.063 A 
HETATM   16  C2  UNL     1       3.490   0.156  -0.387  1.00  0.00     0.051 A 
HETATM   17  C15 UNL     1       2.271  -0.400  -0.011  1.00  0.00     0.146 A 
BRANCH  14  18
HETATM   18  C5  UNL     1       1.466   3.065   0.428  1.00  0.00     0.307 C 
BRANCH  18  19
HETATM   19  O2  UNL     1       2.361   3.882   1.153  1.00  0.00    -0.366 OA
ATOM     20  H2  UNL     1       1.991   4.741   1.318  1.00  0.00     0.213 HD
ENDBRANCH  18  19
BRANCH  18  21
HETATM   21  O3  UNL     1       1.204   3.694  -0.787  1.00  0.00    -0.366 OA
ATOM     22  H3  UNL     1       0.834   4.553  -0.622  1.00  0.00     0.213 HD
ENDBRANCH  18  21
ENDBRANCH  14  18
BRANCH  16  23
HETATM   23  N2  UNL     1       4.660  -0.572  -0.811  1.00  0.00    -0.341 N 
ATOM     24  H2  UNL     1       5.511  -0.071  -1.068  1.00  0.00     0.164 HD
BRANCH  23  25
HETATM   25  C1  UNL     1       4.621  -2.015  -0.870  1.00  0.00     0.424 C 
BRANCH  25  26
HETATM   26  N1  UNL     1       5.897  -2.534  -1.318  1.00  0.00    -0.035 N 
ATOM     27  H13 UNL     1       5.864  -3.540  -1.485  1.00  0.00     0.279 HD
ATOM     28  H12 UNL     1       6.121  -2.234  -2.267  1.00  0.00     0.279 HD
ATOM     29  H11 UNL     1       6.628  -2.280  -0.654  1.00  0.00     0.279 HD
ENDBRANCH  25  26
BRANCH  25  30
HETATM   30  O1  UNL     1       3.619  -2.363  -1.780  1.00  0.00    -0.355 OA
ATOM     31  H1  UNL     1       2.782  -2.023  -1.486  1.00  0.00     0.213 HD
ENDBRANCH  25  30
ENDBRANCH  23  25
ENDBRANCH  16  23
ENDBRANCH   1  13
BRANCH   2  32
HETATM   32  O4  UNL     1      -0.571   0.608  -1.515  1.00  0.00    -0.344 OA
ATOM     33  H4  UNL     1      -1.254   0.625  -2.175  1.00  0.00     0.219 HD
ENDBRANCH   2  32
BRANCH   5  34
HETATM   34  O5  UNL     1      -1.893   0.093   3.810  1.00  0.00    -0.354 OA
ATOM     35  H5  UNL     1      -1.211   0.075   4.471  1.00  0.00     0.218 HD
ENDBRANCH   5  34
BRANCH  12  36
HETATM   36  O8  UNL     1      -3.678   1.599  -1.310  1.00  0.00    -0.373 OA
ATOM     37  H8  UNL     1      -4.469   1.600  -1.837  1.00  0.00     0.211 HD
ENDBRANCH  12  36
BRANCH  12  38
HETATM   38  C13 UNL     1      -3.532  -0.741  -1.662  1.00  0.00     0.190 C 
BRANCH  38  39
HETATM   39  O9  UNL     1      -4.807  -0.715  -2.227  1.00  0.00    -0.390 OA
ATOM     40  H9  UNL     1      -4.856  -1.421  -2.860  1.00  0.00     0.210 HD
ENDBRANCH  38  39
BRANCH  38  41
HETATM   41  C14 UNL     1      -3.331  -2.097  -1.009  1.00  0.00     0.199 C 
BRANCH  41  42
HETATM   42  O10 UNL     1      -4.266  -2.345  -0.012  1.00  0.00    -0.398 OA
ATOM     43  H10 UNL     1      -4.140  -3.193   0.397  1.00  0.00     0.209 HD
ENDBRANCH  41  42
ENDBRANCH  38  41
ENDBRANCH  12  38
TORSDOF 15
