REMARK  4 active torsions:
REMARK  status: ('A' for Active; 'I' for Inactive)
REMARK    1  A    between atoms: N1_2  and  C2_4 
REMARK    2  A    between atoms: C4_7  and  N2_8 
REMARK    3  A    between atoms: C7_17  and  N5_18 
REMARK    4  A    between atoms: N9_29  and  C10_30 
ROOT
HETATM    1  C2  UNL     1      -1.702   0.729   0.588  1.00  0.00     0.132 A 
HETATM    2  C3  UNL     1      -3.033   0.396   0.296  1.00  0.00     0.097 A 
HETATM    3  S1  UNL     1      -4.568   1.002   0.758  1.00  0.00    -0.047 SA
HETATM    4  C4  UNL     1      -5.538  -0.074  -0.128  1.00  0.00     0.144 A 
HETATM    5  N3  UNL     1      -4.662  -0.852  -0.740  1.00  0.00    -0.322 N 
ATOM      6  H3  UNL     1      -4.971  -1.606  -1.353  1.00  0.00     0.169 HD
HETATM    7  C5  UNL     1      -3.383  -0.629  -0.538  1.00  0.00     0.130 A 
HETATM    8  N4  UNL     1      -2.332  -1.330  -1.085  1.00  0.00    -0.324 N 
ATOM      9  H4  UNL     1      -2.521  -2.109  -1.716  1.00  0.00     0.169 HD
HETATM   10  C6  UNL     1      -1.066  -1.003  -0.799  1.00  0.00     0.161 A 
HETATM   11  C7  UNL     1      -0.032  -1.752  -1.385  1.00  0.00     0.146 A 
HETATM   12  N6  UNL     1       1.244  -1.462  -1.129  1.00  0.00    -0.322 N 
ATOM     13  H6  UNL     1       1.989  -2.010  -1.559  1.00  0.00     0.169 HD
HETATM   14  C8  UNL     1       1.547  -0.448  -0.305  1.00  0.00     0.172 A 
HETATM   15  C9  UNL     1       0.562   0.311   0.291  1.00  0.00     0.177 A 
HETATM   16  N7  UNL     1       1.123   1.256   1.063  1.00  0.00    -0.267 N 
ATOM     17  H7  UNL     1       0.641   1.960   1.622  1.00  0.00     0.190 HD
HETATM   18  N8  UNL     1       2.416   1.087   0.949  1.00  0.00    -0.237 N 
ATOM     19  H8  UNL     1       3.112   1.661   1.424  1.00  0.00     0.208 HD
HETATM   20  N9  UNL     1       2.712   0.071   0.134  1.00  0.00    -0.255 N 
HETATM   21  N10 UNL     1      -0.692  -0.003   0.015  1.00  0.00    -0.260 N 
ENDROOT
BRANCH   1  22
HETATM   22  N1  UNL     1      -1.441   1.689   1.368  1.00  0.00    -0.379 N 
HETATM   23  C1  UNL     1      -2.384   2.525   2.026  1.00  0.00     0.147 C 
ATOM     24  H1  UNL     1      -0.455   1.883   1.543  1.00  0.00     0.160 HD
ENDBRANCH   1  22
BRANCH   4  25
HETATM   25  N2  UNL     1      -6.846  -0.172  -0.229  1.00  0.00    -0.380 N 
ATOM     26  H22 UNL     1      -7.522   0.428   0.243  1.00  0.00     0.158 HD
ATOM     27  H21 UNL     1      -7.429  -0.818  -0.761  1.00  0.00     0.158 HD
ENDBRANCH   4  25
BRANCH  11  28
HETATM   28  N5  UNL     1      -0.335  -2.726  -2.176  1.00  0.00    -0.382 N 
ATOM     29  H52 UNL     1      -1.311  -2.948  -2.372  1.00  0.00     0.157 HD
ATOM     30  H51 UNL     1       0.416  -3.270  -2.601  1.00  0.00     0.157 HD
ENDBRANCH  11  28
BRANCH  20  31
HETATM   31  C10 UNL     1       4.024  -0.382  -0.208  1.00  0.00     0.103 C 
HETATM   32  C11 UNL     1       5.036   0.613   0.317  1.00  0.00     0.034 C 
HETATM   33  C12 UNL     1       4.245  -0.486  -1.702  1.00  0.00     0.034 C 
ENDBRANCH  20  31
TORSDOF 4
