REMARK  12 active torsions:
REMARK  status: ('A' for Active; 'I' for Inactive)
REMARK    1  A    between atoms: N1_1  and  C1_4 
REMARK    2  A    between atoms: N4_9  and  C2_10 
REMARK    3  A    between atoms: C2_10  and  C3_11 
REMARK    4  A    between atoms: C3_11  and  O1_12 
REMARK    5  A    between atoms: O1_12  and  C4_13 
REMARK    6  A    between atoms: N5_15  and  C6_16 
REMARK    7  A    between atoms: C6_16  and  C7_17 
REMARK    8  A    between atoms: C7_17  and  C8_18 
REMARK    9  A    between atoms: C8_18  and  C9_19 
REMARK   10  A    between atoms: C13_23  and  O2_24 
REMARK   11  A    between atoms: C15_31  and  N8_32 
REMARK   12  A    between atoms: C16_35  and  N9_36 
ROOT
HETATM    1  C2  UNL     1       4.233  -2.100  -0.014  1.00  0.00     0.179 C 
ENDROOT
BRANCH   1   2
HETATM    2  N4  UNL     1       4.541  -0.724  -0.304  1.00  0.00    -0.257 N 
HETATM    3  N3  UNL     1       3.691  -0.131  -1.142  1.00  0.00    -0.225 N 
HETATM    4  N2  UNL     1       3.390   1.169  -1.290  1.00  0.00    -0.118 N 
ATOM      5  H3  UNL     1       3.192  -0.763  -1.768  1.00  0.00     0.209 HD
HETATM    6  C1  UNL     1       4.283   2.184  -1.303  1.00  0.00     0.693 C 
ATOM      7  H2  UNL     1       2.405   1.411  -1.402  1.00  0.00     0.207 HD
HETATM    8  N10 UNL     1       5.464   2.186  -0.663  1.00  0.00    -0.172 N 
HETATM    9  C16 UNL     1       6.060   1.183  -0.006  1.00  0.00     0.160 C 
ATOM     10  H10 UNL     1       5.975   3.069  -0.680  1.00  0.00     0.186 HD
HETATM   11  C15 UNL     1       5.610  -0.130   0.251  1.00  0.00     0.162 C 
BRANCH   6  12
HETATM   12  N1  UNL     1       3.988   3.252  -1.987  1.00  0.00    -0.233 N 
ATOM     13  H12 UNL     1       3.091   3.250  -2.473  1.00  0.00     0.174 HD
ATOM     14  H11 UNL     1       4.662   4.018  -1.997  1.00  0.00     0.174 HD
ENDBRANCH   6  12
BRANCH   9  15
HETATM   15  N9  UNL     1       7.236   1.404   0.489  1.00  0.00    -0.382 N 
ATOM     16  H92 UNL     1       7.690   0.640   0.989  1.00  0.00     0.157 HD
ATOM     17  H91 UNL     1       7.561   2.353   0.303  1.00  0.00     0.157 HD
ENDBRANCH   9  15
BRANCH  11  18
HETATM   18  N8  UNL     1       6.282  -0.801   1.074  1.00  0.00    -0.381 N 
ATOM     19  H82 UNL     1       5.957  -1.750   1.260  1.00  0.00     0.157 HD
ATOM     20  H81 UNL     1       7.094  -0.350   1.496  1.00  0.00     0.157 HD
ENDBRANCH  11  18
ENDBRANCH   1   2
BRANCH   1  21
HETATM   21  C3  UNL     1       3.301  -2.287   1.173  1.00  0.00     0.199 C 
BRANCH  21  22
HETATM   22  O1  UNL     1       2.115  -1.772   1.106  1.00  0.00    -0.332 OA
BRANCH  22  23
HETATM   23  C4  UNL     1       0.942  -1.262   1.040  1.00  0.00     0.175 A 
HETATM   24  C5  UNL     1      -0.316  -1.883   1.115  1.00  0.00     0.169 A 
HETATM   25  N5  UNL     1      -1.266  -0.962   0.997  1.00  0.00    -0.281 N 
HETATM   26  N6  UNL     1      -0.687   0.201   0.853  1.00  0.00    -0.239 N 
HETATM   27  N7  UNL     1       0.615   0.063   0.873  1.00  0.00    -0.264 N 
ATOM     28  H6  UNL     1      -1.178   1.088   0.741  1.00  0.00     0.208 HD
ATOM     29  H7  UNL     1       1.287   0.825   0.779  1.00  0.00     0.190 HD
BRANCH  25  30
HETATM   30  C6  UNL     1      -2.742  -1.240   1.030  1.00  0.00     0.177 C 
BRANCH  30  31
HETATM   31  C7  UNL     1      -3.202  -1.502  -0.317  1.00  0.00    -0.004 C 
BRANCH  31  32
HETATM   32  C8  UNL     1      -4.126  -0.960  -1.008  1.00  0.00     0.009 C 
BRANCH  32  33
HETATM   33  C9  UNL     1      -5.044   0.098  -0.677  1.00  0.00    -0.034 A 
HETATM   34  C10 UNL     1      -5.673   0.794  -1.738  1.00  0.00     0.011 A 
HETATM   35  C11 UNL     1      -6.613   1.757  -1.596  1.00  0.00     0.004 A 
HETATM   36  C12 UNL     1      -6.995   2.094  -0.315  1.00  0.00     0.036 A 
HETATM   37  C13 UNL     1      -6.426   1.458   0.762  1.00  0.00     0.066 A 
HETATM   38  C14 UNL     1      -5.463   0.471   0.569  1.00  0.00     0.047 A 
BRANCH  37  39
HETATM   39  O2  UNL     1      -6.827   1.816   2.041  1.00  0.00    -0.361 OA
ATOM     40  H2  UNL     1      -6.434   1.376   2.786  1.00  0.00     0.217 HD
ENDBRANCH  37  39
ENDBRANCH  32  33
ENDBRANCH  31  32
ENDBRANCH  30  31
ENDBRANCH  25  30
ENDBRANCH  22  23
ENDBRANCH  21  22
ENDBRANCH   1  21
TORSDOF 12
