REMARK  6 active torsions:
REMARK  status: ('A' for Active; 'I' for Inactive)
REMARK    1  A    between atoms: C2_3  and  N2_4 
REMARK    2  A    between atoms: C2_3  and  C9_19 
REMARK    3  A    between atoms: N2_4  and  N3_6 
REMARK    4  A    between atoms: C3_7  and  C4_8 
REMARK    5  A    between atoms: C11_22  and  C12_23 
REMARK    6  A    between atoms: C12_23  and  C13_24 
ROOT
HETATM    1  N1  UNL     1      -1.330  -3.316  -1.949  1.00  0.00    -0.195 NA
HETATM    2  C1  UNL     1      -1.547  -2.807  -0.923  1.00  0.00     0.092 C 
HETATM    3  C2  UNL     1      -1.794  -2.150   0.361  1.00  0.00     0.256 C 
ENDROOT
BRANCH   3   4
HETATM    4  N2  UNL     1      -2.870  -1.227   0.183  1.00  0.00    -0.301 N 
ATOM      5  H2  UNL     1      -2.615  -0.239   0.174  1.00  0.00     0.183 HD
BRANCH   4   6
HETATM    6  N3  UNL     1      -4.216  -1.509   0.021  1.00  0.00    -0.212 N 
HETATM    7  C3  UNL     1      -5.191  -0.632  -0.231  1.00  0.00     0.161 A 
HETATM    8  N4  UNL     1      -6.375  -1.299  -0.283  1.00  0.00    -0.281 N 
HETATM    9  N5  UNL     1      -6.183  -2.559  -0.074  1.00  0.00    -0.273 N 
ATOM     10  H4  UNL     1      -7.282  -0.867  -0.461  1.00  0.00     0.188 HD
HETATM   11  C8  UNL     1      -4.847  -2.705   0.117  1.00  0.00     0.213 A 
ATOM     12  H5  UNL     1      -6.890  -3.294  -0.056  1.00  0.00     0.189 HD
HETATM   13  S2  UNL     1      -4.197  -4.135   0.432  1.00  0.00    -0.037 SA
BRANCH   7  14
HETATM   14  C4  UNL     1      -5.138   0.811  -0.438  1.00  0.00     0.052 A 
HETATM   15  C5  UNL     1      -6.190   1.660  -0.686  1.00  0.00     0.023 A 
HETATM   16  C6  UNL     1      -5.919   2.956  -0.852  1.00  0.00     0.009 A 
HETATM   17  C7  UNL     1      -4.615   3.356  -0.766  1.00  0.00     0.050 A 
HETATM   18  S1  UNL     1      -3.815   1.887  -0.453  1.00  0.00    -0.098 SA
ENDBRANCH   7  14
ENDBRANCH   4   6
ENDBRANCH   3   4
BRANCH   3  19
HETATM   19  C9  UNL     1      -0.529  -1.401   0.764  1.00  0.00     0.054 A 
HETATM   20  C10 UNL     1      -0.569  -0.412   1.726  1.00  0.00     0.079 A 
HETATM   21  S3  UNL     1       1.059   0.076   1.784  1.00  0.00    -0.087 SA
HETATM   22  C11 UNL     1       1.700  -0.977   0.607  1.00  0.00     0.051 A 
HETATM   23  N6  UNL     1       0.625  -1.654   0.228  1.00  0.00    -0.354 N 
ATOM     24  H6  UNL     1       0.706  -2.376  -0.488  1.00  0.00     0.166 HD
BRANCH  22  25
HETATM   25  C12 UNL     1       3.094  -1.163   0.071  1.00  0.00     0.069 C 
BRANCH  25  26
HETATM   26  C13 UNL     1       4.019  -0.120   0.662  1.00  0.00    -0.009 C 
HETATM   27  C14 UNL     1       5.399  -0.368   0.149  1.00  0.00     0.005 C 
HETATM   28  C15 UNL     1       5.942   0.632  -0.815  1.00  0.00     0.000 C 
HETATM   29  C16 UNL     1       5.788   1.997  -0.119  1.00  0.00     0.000 C 
HETATM   30  C17 UNL     1       4.321   2.285  -0.151  1.00  0.00     0.000 C 
HETATM   31  C18 UNL     1       3.493   1.260   0.528  1.00  0.00     0.005 C 
ENDBRANCH  25  26
ENDBRANCH  22  25
ENDBRANCH   3  19
TORSDOF 6
