REMARK  9 active torsions:
REMARK  status: ('A' for Active; 'I' for Inactive)
REMARK       I    between atoms: N1_2  and  C3_4 
REMARK    1  A    between atoms: C3_4  and  C4_6 
REMARK    2  A    between atoms: C4_6  and  N2_7 
REMARK    3  A    between atoms: C5_10  and  C6_11 
REMARK    4  A    between atoms: C7_14  and  C8_15 
REMARK    5  A    between atoms: N7_19  and  C9_20 
REMARK    6  A    between atoms: C10_26  and  N10_27 
REMARK    7  A    between atoms: C11_32  and  O3_33 
REMARK    8  A    between atoms: C12_35  and  O4_36 
REMARK    9  A    between atoms: C13_38  and  O5_39 
ROOT
HETATM    1  C6  UNL     1      -0.160  -1.237  -0.071  1.00  0.00     0.116 A 
HETATM    2  N4  UNL     1      -1.299  -0.479  -0.016  1.00  0.00    -0.345 N 
ATOM      3  H4  UNL     1      -1.217   0.529  -0.148  1.00  0.00     0.166 HD
HETATM    4  C7  UNL     1      -2.514  -0.996   0.202  1.00  0.00     0.116 A 
HETATM    5  C11 UNL     1      -2.683  -2.369   0.390  1.00  0.00     0.132 A 
HETATM    6  C12 UNL     1      -1.542  -3.136   0.336  1.00  0.00     0.137 A 
HETATM    7  C13 UNL     1      -0.275  -2.578   0.106  1.00  0.00     0.132 A 
ENDROOT
BRANCH   4   8
HETATM    8  C8  UNL     1      -3.694  -0.140   0.247  1.00  0.00     0.164 A 
HETATM    9  N5  UNL     1      -3.681   1.184   0.081  1.00  0.00    -0.265 N 
HETATM   10  N6  UNL     1      -4.922   1.656   0.183  1.00  0.00     0.004 NA
ATOM     11  H5  UNL     1      -2.849   1.747  -0.097  1.00  0.00     0.186 HD
HETATM   12  N7  UNL     1      -5.704   0.613   0.413  1.00  0.00    -0.156 N 
HETATM   13  N11 UNL     1      -4.977  -0.492   0.456  1.00  0.00    -0.261 N 
ATOM     14  H11 UNL     1      -5.325  -1.437   0.618  1.00  0.00     0.190 HD
BRANCH  12  15
HETATM   15  C9  UNL     1      -7.124   0.690   0.587  1.00  0.00     0.210 A 
HETATM   16  N8  UNL     1      -8.037  -0.291   0.473  1.00  0.00    -0.219 N 
HETATM   17  O2  UNL     1      -9.242   0.187   0.712  1.00  0.00    -0.153 OA
ATOM     18  H8  UNL     1      -7.828  -1.261   0.237  1.00  0.00     0.198 HD
HETATM   19  N9  UNL     1      -9.132   1.451   0.976  1.00  0.00    -0.222 N 
HETATM   20  C10 UNL     1      -7.847   1.816   0.914  1.00  0.00     0.170 A 
ATOM     21  H9  UNL     1      -9.909   2.074   1.198  1.00  0.00     0.198 HD
BRANCH  20  22
HETATM   22  N10 UNL     1      -7.355   2.972   1.113  1.00  0.00    -0.381 N 
ATOM     23 2H10 UNL     1      -6.375   3.250   1.066  1.00  0.00     0.157 HD
ATOM     24 1H10 UNL     1      -7.890   3.806   1.355  1.00  0.00     0.157 HD
ENDBRANCH  20  22
ENDBRANCH  12  15
ENDBRANCH   4   8
BRANCH   5  25
HETATM   25  O3  UNL     1      -3.935  -2.909   0.616  1.00  0.00    -0.356 OA
ATOM     26  H3  UNL     1      -4.050  -3.843   0.744  1.00  0.00     0.218 HD
ENDBRANCH   5  25
BRANCH   1  27
HETATM   27  C5  UNL     1       1.127  -0.577  -0.316  1.00  0.00     0.164 C 
HETATM   28  N3  UNL     1       2.292  -0.811   0.155  1.00  0.00    -0.267 N 
HETATM   29  N2  UNL     1       3.264   0.075  -0.353  1.00  0.00    -0.207 N 
ATOM     30  H3  UNL     1       2.495  -1.555   0.823  1.00  0.00     0.190 HD
HETATM   31  N13 UNL     1       2.628   0.814  -1.338  1.00  0.00    -0.002 NA
HETATM   32  N12 UNL     1       1.281   0.550  -1.215  1.00  0.00    -0.265 N 
ATOM     33  H12 UNL     1       0.526   1.058  -1.675  1.00  0.00     0.186 HD
BRANCH  29  34
HETATM   34  C4  UNL     1       4.638   0.166   0.084  1.00  0.00     0.270 C 
BRANCH  34  35
HETATM   35  C3  UNL     1       5.370   1.201  -0.659  1.00  0.00     0.240 C 
HETATM   36  N1  UNL     1       6.741   1.422  -0.356  1.00  0.00    -0.359 N 
HETATM   37  C1  UNL     1       7.465   2.451  -1.098  1.00  0.00     0.152 C 
HETATM   38  C2  UNL     1       7.384   0.634   0.669  1.00  0.00     0.152 C 
HETATM   39  O1  UNL     1       4.796   1.872  -1.540  1.00  0.00    -0.271 OA
ENDBRANCH  34  35
ENDBRANCH  29  34
ENDBRANCH   1  27
BRANCH   6  40
HETATM   40  O4  UNL     1      -1.620  -4.502   0.512  1.00  0.00    -0.356 OA
ATOM     41  H4  UNL     1      -0.832  -5.032   0.475  1.00  0.00     0.218 HD
ENDBRANCH   6  40
BRANCH   7  42
HETATM   42  O5  UNL     1       0.803  -3.416   0.067  1.00  0.00    -0.356 OA
ATOM     43  H5  UNL     1       0.723  -4.354   0.191  1.00  0.00     0.218 HD
ENDBRANCH   7  42
TORSDOF 9
