REMARK  4 active torsions:
REMARK  status: ('A' for Active; 'I' for Inactive)
REMARK    1  A    between atoms: C2_2  and  C3_3 
REMARK    2  A    between atoms: C3_3  and  C4_4 
REMARK    3  A    between atoms: C15_17  and  C17_19 
REMARK    4  A    between atoms: C17_19  and  O3_20 
ROOT
HETATM    1  C3  UNL     1      -0.905   1.585   0.208  1.00  0.00    -0.014 C 
HETATM    2  C6  UNL     1      -2.130   1.021  -0.396  1.00  0.00     0.055 C 
HETATM    3  C7  UNL     1      -1.998  -0.282  -1.151  1.00  0.00     0.097 C 
HETATM    4  C8  UNL     1      -2.758  -0.035  -2.486  1.00  0.00     0.050 C 
HETATM    5  O1  UNL     1      -0.719  -0.539  -1.591  1.00  0.00    -0.229 OA
HETATM    6  O2  UNL     1       0.026  -1.281  -0.884  1.00  0.00    -0.228 OA
HETATM    7  C9  UNL     1       0.517  -0.574   0.244  1.00  0.00     0.109 C 
HETATM    8  C10 UNL     1       0.063  -1.222   1.502  1.00  0.00     0.024 C 
HETATM    9  C11 UNL     1       0.998  -2.352   1.974  1.00  0.00     0.008 C 
HETATM   10  C12 UNL     1       1.548  -3.145   0.844  1.00  0.00     0.001 C 
HETATM   11  C13 UNL     1       2.173  -2.287  -0.243  1.00  0.00     0.009 C 
HETATM   12  C14 UNL     1       2.031  -0.867   0.194  1.00  0.00     0.034 C 
HETATM   13  C15 UNL     1       2.856   0.089  -0.569  1.00  0.00    -0.016 C 
HETATM   14  C16 UNL     1       2.806  -0.102  -2.067  1.00  0.00     0.018 C 
HETATM   15  C18 UNL     1       2.691   1.516  -0.156  1.00  0.00     0.012 C 
HETATM   16  C19 UNL     1       1.460   1.628   0.719  1.00  0.00     0.010 C 
HETATM   17  C20 UNL     1       0.347   0.843   0.015  1.00  0.00     0.036 C 
HETATM   18  C21 UNL     1      -1.317  -1.749   1.561  1.00  0.00     0.008 C 
HETATM   19  C22 UNL     1      -1.952  -2.343   0.383  1.00  0.00     0.008 C 
HETATM   20  C23 UNL     1      -2.691  -1.437  -0.547  1.00  0.00     0.019 C 
HETATM   21  C24 UNL     1      -4.012  -0.970   0.052  1.00  0.00     0.013 C 
ENDROOT
BRANCH   1  22
HETATM   22  C2  UNL     1      -0.655   2.932  -0.463  1.00  0.00    -0.027 C 
HETATM   23  C1  UNL     1      -0.494   3.030  -1.761  1.00  0.00     0.008 C 
ENDBRANCH   1  22
BRANCH   1  24
HETATM   24  C4  UNL     1      -1.159   2.043   1.658  1.00  0.00     0.009 C 
HETATM   25  C5  UNL     1      -2.368   2.996   1.664  1.00  0.00     0.006 C 
ENDBRANCH   1  24
BRANCH  13  26
HETATM   26  C17 UNL     1       4.316  -0.231  -0.175  1.00  0.00     0.173 C 
BRANCH  26  27
HETATM   27  O3  UNL     1       5.147   0.671  -0.880  1.00  0.00    -0.400 OA
ATOM     28  H3  UNL     1       6.044   0.474  -0.638  1.00  0.00     0.209 HD
ENDBRANCH  26  27
ENDBRANCH  13  26
TORSDOF 4
