REMARK  7 active torsions:
REMARK  status: ('A' for Active; 'I' for Inactive)
REMARK    1  A    between atoms: C1_2  and  C2_4 
REMARK    2  A    between atoms: N1_8  and  C6_9 
REMARK    3  A    between atoms: C6_9  and  O3_10 
REMARK    4  A    between atoms: C6_9  and  N2_12 
REMARK    5  A    between atoms: N3_15  and  C9_16 
REMARK    6  A    between atoms: C9_16  and  N4_18 
REMARK    7  A    between atoms: N4_18  and  C10_20 
ROOT
HETATM    1  N2  UNL     1      -1.620  -0.652  -0.589  1.00  0.00    -0.344 N 
HETATM    2  C7  UNL     1      -1.045   0.554  -0.115  1.00  0.00     0.146 C 
HETATM    3  C8  UNL     1       0.442   0.603  -0.387  1.00  0.00     0.145 C 
HETATM    4  N3  UNL     1       1.158  -0.614  -0.174  1.00  0.00    -0.355 N 
HETATM    5  C15 UNL     1       0.374  -1.846  -0.083  1.00  0.00     0.145 C 
HETATM    6  C16 UNL     1      -0.726  -1.696  -1.129  1.00  0.00     0.146 C 
ENDROOT
BRANCH   1   7
HETATM    7  C6  UNL     1      -2.998  -0.926  -0.559  1.00  0.00     0.218 C 
BRANCH   7   8
HETATM    8  N1  UNL     1      -4.017  -0.121  -0.052  1.00  0.00    -0.333 N 
HETATM    9  C2  UNL     1      -5.448  -0.545  -0.112  1.00  0.00     0.188 C 
HETATM   10  C3  UNL     1      -6.148   0.722  -0.451  1.00  0.00     0.038 C 
HETATM   11  C4  UNL     1      -5.123   1.846  -0.327  1.00  0.00     0.022 C 
HETATM   12  C5  UNL     1      -4.094   1.142   0.600  1.00  0.00     0.127 C 
BRANCH   9  13
HETATM   13  C1  UNL     1      -5.789  -1.144   1.183  1.00  0.00     0.197 C 
HETATM   14  O1  UNL     1      -4.917  -1.303   2.074  1.00  0.00    -0.646 OA
HETATM   15  O2  UNL     1      -7.108  -1.540   1.419  1.00  0.00    -0.646 OA
ENDBRANCH   9  13
ENDBRANCH   7   8
BRANCH   7  16
HETATM   16  O3  UNL     1      -3.368  -2.074  -1.068  1.00  0.00    -0.332 OA
ATOM     17  H3  UNL     1      -2.674  -2.623  -1.413  1.00  0.00     0.220 HD
ENDBRANCH   7  16
ENDBRANCH   1   7
BRANCH   4  18
HETATM   18  C9  UNL     1       2.565  -0.618  -0.081  1.00  0.00     0.170 C 
HETATM   19  S1  UNL     1       3.293  -2.048   0.179  1.00  0.00    -0.041 SA
BRANCH  18  20
HETATM   20  N4  UNL     1       3.317   0.550  -0.202  1.00  0.00    -0.362 N 
ATOM     21  H4  UNL     1       2.774   1.398  -0.365  1.00  0.00     0.162 HD
BRANCH  20  22
HETATM   22  C10 UNL     1       4.720   0.741  -0.134  1.00  0.00     0.083 C 
HETATM   23  C11 UNL     1       5.387   0.300   1.150  1.00  0.00     0.025 C 
HETATM   24  C12 UNL     1       6.824   0.747   0.813  1.00  0.00     0.002 C 
HETATM   25  C13 UNL     1       6.968   0.431  -0.677  1.00  0.00     0.002 C 
HETATM   26  C14 UNL     1       5.559   0.036  -1.153  1.00  0.00     0.025 C 
ENDBRANCH  20  22
ENDBRANCH  18  20
ENDBRANCH   4  18
TORSDOF 7
