REMARK  5 active torsions:
REMARK  status: ('A' for Active; 'I' for Inactive)
REMARK       I    between atoms: C1_2  and  N1_3 
REMARK       I    between atoms: C1_2  and  N2_11 
REMARK    1  A    between atoms: N1_3  and  C2_5 
REMARK    2  A    between atoms: N3_18  and  C14_19 
REMARK    3  A    between atoms: C14_19  and  N4_21 
REMARK    4  A    between atoms: N4_21  and  C15_23 
REMARK    5  A    between atoms: C19_27  and  N5_28 
ROOT
HETATM    1  O1  UNL     1      -3.117  -1.281   2.179  1.00  0.00    -0.247 OA
HETATM    2  C1  UNL     1      -2.892  -0.814   1.027  1.00  0.00     0.318 C 
HETATM    3  N1  UNL     1      -3.993  -0.376   0.256  1.00  0.00    -0.338 N 
ATOM      4  H1  UNL     1      -3.829   0.004  -0.676  1.00  0.00     0.164 HD
HETATM    5  N2  UNL     1      -1.560  -0.744   0.547  1.00  0.00    -0.334 N 
HETATM    6  C8  UNL     1      -0.488  -1.206   1.392  1.00  0.00     0.128 C 
HETATM    7  C9  UNL     1       0.775  -0.384   1.229  1.00  0.00     0.033 C 
HETATM    8  C10 UNL     1       1.071  -0.021  -0.182  1.00  0.00     0.001 C 
HETATM    9  C11 UNL     1       0.097  -0.643  -1.150  1.00  0.00     0.033 C 
HETATM   10  C12 UNL     1      -1.302  -0.211  -0.780  1.00  0.00     0.128 C 
HETATM   11  C13 UNL     1       1.117   1.489  -0.316  1.00  0.00     0.137 C 
HETATM   12  N3  UNL     1       2.433   1.793   0.297  1.00  0.00    -0.355 N 
HETATM   13  C18 UNL     1       3.229   0.590   0.320  1.00  0.00     0.151 C 
HETATM   14  C19 UNL     1       2.490  -0.317  -0.627  1.00  0.00     0.111 C 
ENDROOT
BRANCH  14  15
HETATM   15  N5  UNL     1       2.875  -1.616  -0.783  1.00  0.00    -0.386 N 
HETATM   16  C20 UNL     1       2.941  -2.584   0.195  1.00  0.00     0.058 C 
HETATM   17  C21 UNL     1       3.713  -3.736  -0.414  1.00  0.00     0.046 C 
HETATM   18  C22 UNL     1       4.395  -3.120  -1.630  1.00  0.00     0.025 C 
HETATM   19  C23 UNL     1       3.366  -2.074  -2.035  1.00  0.00     0.123 C 
ENDBRANCH  14  15
BRANCH  12  20
HETATM   20  C14 UNL     1       2.724   3.103   0.740  1.00  0.00     0.170 C 
HETATM   21  S1  UNL     1       1.567   4.301   0.562  1.00  0.00    -0.041 SA
BRANCH  20  22
HETATM   22  N4  UNL     1       3.913   3.508   1.326  1.00  0.00    -0.362 N 
ATOM     23  H4  UNL     1       3.973   4.492   1.589  1.00  0.00     0.162 HD
BRANCH  22  24
HETATM   24  C15 UNL     1       5.079   2.701   1.609  1.00  0.00     0.084 A 
HETATM   25  C16 UNL     1       6.284   3.365   2.197  1.00  0.00     0.027 A 
HETATM   26  C17 UNL     1       6.282   2.988   0.747  1.00  0.00     0.027 A 
ENDBRANCH  22  24
ENDBRANCH  20  22
ENDBRANCH  12  20
BRANCH   3  27
HETATM   27  C2  UNL     1      -5.329  -0.454   0.753  1.00  0.00     0.086 C 
HETATM   28  C3  UNL     1      -6.150  -1.311  -0.172  1.00  0.00     0.025 C 
HETATM   29  C4  UNL     1      -6.578  -0.563  -1.417  1.00  0.00     0.002 C 
HETATM   30  C5  UNL     1      -7.270   0.729  -1.137  1.00  0.00     0.000 C 
HETATM   31  C6  UNL     1      -7.326   0.902   0.384  1.00  0.00     0.002 C 
HETATM   32  C7  UNL     1      -5.886   0.950   0.864  1.00  0.00     0.025 C 
ENDBRANCH   3  27
TORSDOF 5
