REMARK  3 active torsions:
REMARK  status: ('A' for Active; 'I' for Inactive)
REMARK    1  A    between atoms: N1_5  and  C5_6 
REMARK       I    between atoms: N2_9  and  C8_10 
REMARK    2  A    between atoms: C8_10  and  C9_12 
REMARK       I    between atoms: N3_15  and  C12_16 
REMARK       I    between atoms: C12_16  and  N4_18 
REMARK    3  A    between atoms: N4_18  and  C13_20 
ROOT
HETATM    1  C9  UNL     1      -0.389   0.541  -0.846  1.00  0.00     0.081 C 
HETATM    2  C10 UNL     1       0.603  -0.008   0.150  1.00  0.00     0.034 C 
HETATM    3  C11 UNL     1       1.952   0.697  -0.052  1.00  0.00     0.128 C 
HETATM    4  N3  UNL     1       2.519   0.160  -1.273  1.00  0.00    -0.334 N 
HETATM    5  C12 UNL     1       3.878  -0.062  -1.518  1.00  0.00     0.318 C 
HETATM    6  O2  UNL     1       4.227  -0.543  -2.633  1.00  0.00    -0.247 OA
HETATM    7  N4  UNL     1       4.854   0.243  -0.543  1.00  0.00    -0.338 N 
ATOM      8  H4  UNL     1       4.579   0.633   0.359  1.00  0.00     0.164 HD
HETATM    9  C20 UNL     1       1.516  -0.157  -2.312  1.00  0.00     0.128 C 
HETATM   10  C21 UNL     1       0.394   0.860  -2.100  1.00  0.00     0.034 C 
ENDROOT
BRANCH   1  11
HETATM   11  C8  UNL     1      -1.493  -0.417  -1.117  1.00  0.00     0.224 C 
HETATM   12  N2  UNL     1      -2.408  -0.847  -0.139  1.00  0.00    -0.352 N 
HETATM   13  C7  UNL     1      -3.439  -1.795  -0.505  1.00  0.00     0.127 C 
HETATM   14  C22 UNL     1      -2.409  -0.402   1.241  1.00  0.00     0.127 C 
HETATM   15  C6  UNL     1      -4.756  -1.011  -0.514  1.00  0.00     0.045 C 
HETATM   16  C5  UNL     1      -4.697   0.041   0.591  1.00  0.00     0.086 C 
HETATM   17  C23 UNL     1      -3.875  -0.475   1.703  1.00  0.00     0.045 C 
HETATM   18  O1  UNL     1      -1.590  -0.852  -2.297  1.00  0.00    -0.273 OA
BRANCH  16  19
HETATM   19  N1  UNL     1      -5.998   0.474   0.883  1.00  0.00    -0.388 N 
HETATM   20  C4  UNL     1      -6.709   1.117  -0.162  1.00  0.00     0.123 C 
HETATM   21  C3  UNL     1      -8.108   1.240   0.406  1.00  0.00     0.029 C 
HETATM   22  C2  UNL     1      -8.256  -0.066   1.151  1.00  0.00     0.021 C 
HETATM   23  C1  UNL     1      -8.783  -1.161   0.232  1.00  0.00     0.015 C 
HETATM   24  C24 UNL     1      -6.847  -0.361   1.622  1.00  0.00     0.063 C 
ENDBRANCH  16  19
ENDBRANCH   1  11
BRANCH   7  25
HETATM   25  C13 UNL     1       6.259  -0.006  -0.841  1.00  0.00     0.093 C 
HETATM   26  C14 UNL     1       6.975   1.323  -0.756  1.00  0.00     0.058 C 
HETATM   27  C15 UNL     1       7.716   1.390   0.545  1.00  0.00     0.188 C 
HETATM   28  C16 UNL     1       8.875   0.414   0.537  1.00  0.00     0.033 C 
HETATM   29  N5  UNL     1       6.792   0.985   1.593  1.00  0.00    -0.070 N 
HETATM   30  C17 UNL     1       8.390  -0.917   0.007  1.00  0.00     0.010 C 
HETATM   31  C18 UNL     1       6.878  -0.942   0.171  1.00  0.00     0.034 C 
HETATM   32  C19 UNL     1       6.570  -0.443   1.566  1.00  0.00     0.239 C 
ATOM     33  H52 UNL     1       7.104   1.300   2.512  1.00  0.00     0.277 HD
ATOM     34  H51 UNL     1       5.915   1.503   1.541  1.00  0.00     0.277 HD
ENDBRANCH   7  25
TORSDOF 3
