REMARK  3 active torsions:
REMARK  status: ('A' for Active; 'I' for Inactive)
REMARK       I    between atoms: C3_3  and  N1_5 
REMARK    1  A    between atoms: N1_5  and  C4_7 
REMARK    2  A    between atoms: C6_9  and  N2_10 
REMARK       I    between atoms: N2_10  and  C7_12 
REMARK       I    between atoms: C7_12  and  N3_14 
REMARK    3  A    between atoms: C10_17  and  N4_20 
ROOT
HETATM    1  C1  UNL     1      -5.845   5.409   0.120  1.00  0.00     0.022 C 
HETATM    2  C2  UNL     1      -5.948   4.213   0.058  1.00  0.00    -0.017 C 
HETATM    3  C3  UNL     1      -6.060   2.745  -0.040  1.00  0.00     0.296 C 
HETATM    4  O1  UNL     1      -7.195   2.320  -0.332  1.00  0.00    -0.258 OA
HETATM    5  N1  UNL     1      -4.979   1.911   0.178  1.00  0.00    -0.340 N 
ATOM      6  H1  UNL     1      -4.126   2.425   0.398  1.00  0.00     0.164 HD
ENDROOT
BRANCH   5   7
HETATM    7  C4  UNL     1      -4.780   0.499   0.167  1.00  0.00     0.043 C 
HETATM    8  C5  UNL     1      -3.321   0.225   0.365  1.00  0.00     0.057 C 
HETATM    9  C6  UNL     1      -2.620  -0.758  -0.460  1.00  0.00     0.088 C 
HETATM   10  C20 UNL     1      -2.852  -2.210  -0.028  1.00  0.00     0.030 C 
HETATM   11  C21 UNL     1      -4.363  -2.283   0.180  1.00  0.00    -0.012 C 
HETATM   12  C22 UNL     1      -4.704  -1.627   1.462  1.00  0.00     0.012 C 
HETATM   13  C26 UNL     1      -4.938  -1.671  -1.069  1.00  0.00     0.012 C 
HETATM   14  C23 UNL     1      -5.475  -0.308   1.282  1.00  0.00     0.015 C 
HETATM   15  C24 UNL     1      -6.562  -0.664   0.328  1.00  0.00     0.014 C 
HETATM   16  C25 UNL     1      -5.560  -0.318  -0.752  1.00  0.00     0.015 C 
BRANCH   9  17
HETATM   17  N2  UNL     1      -1.185  -0.572  -0.159  1.00  0.00    -0.338 N 
HETATM   18  C7  UNL     1      -0.213  -0.279  -1.122  1.00  0.00     0.318 C 
HETATM   19  O2  UNL     1      -0.540  -0.161  -2.321  1.00  0.00    -0.247 OA
HETATM   20  N3  UNL     1       1.134  -0.117  -0.746  1.00  0.00    -0.334 N 
HETATM   21  C8  UNL     1       1.553  -0.245   0.641  1.00  0.00     0.131 C 
HETATM   22  C19 UNL     1       2.122   0.179  -1.749  1.00  0.00     0.131 C 
HETATM   23  C9  UNL     1       2.946   0.335   0.754  1.00  0.00     0.074 C 
HETATM   24  C10 UNL     1       3.897  -0.490  -0.091  1.00  0.00     0.213 C 
HETATM   25  C11 UNL     1       3.914  -1.829   0.496  1.00  0.00    -0.146 C 
HETATM   26  C18 UNL     1       3.420  -0.579  -1.500  1.00  0.00     0.074 C 
HETATM   27  C12 UNL     1       3.907  -2.952   0.985  1.00  0.00     0.099 C 
ATOM     28  H2  UNL     1      -0.884  -0.663   0.811  1.00  0.00     0.164 HD
BRANCH  24  29
HETATM   29  N4  UNL     1       5.230   0.049   0.026  1.00  0.00     0.109 N 
HETATM   30  C13 UNL     1       5.682  -0.041   1.385  1.00  0.00     0.274 C 
HETATM   31  C14 UNL     1       7.213   0.015   1.360  1.00  0.00     0.030 C 
HETATM   32  C15 UNL     1       7.692   0.585   0.066  1.00  0.00     0.003 C 
HETATM   33  C16 UNL     1       6.849   1.731  -0.438  1.00  0.00     0.030 C 
HETATM   34  C17 UNL     1       5.368   1.403  -0.413  1.00  0.00     0.274 C 
ENDBRANCH  24  29
ENDBRANCH   9  17
ENDBRANCH   5   7
TORSDOF 3
