REMARK  8 active torsions:
REMARK  status: ('A' for Active; 'I' for Inactive)
REMARK    1  A    between atoms: S1_2  and  C2_3 
REMARK    2  A    between atoms: C2_3  and  N1_4 
REMARK    3  A    between atoms: C2_3  and  O6_21 
REMARK       I    between atoms: N1_4  and  C3_6 
REMARK    4  A    between atoms: C3_6  and  O2_8 
REMARK    5  A    between atoms: O2_8  and  C4_9 
REMARK    6  A    between atoms: C7_14  and  O5_15 
REMARK    7  A    between atoms: C7_14  and  C8_17 
REMARK    8  A    between atoms: O6_21  and  C12_22 
ROOT
HETATM    1  O2  UNL     1       0.856  -0.789   1.277  1.00  0.00    -0.268 OA
ENDROOT
BRANCH   1   2
HETATM    2  C3  UNL     1      -0.335  -0.361   0.739  1.00  0.00     0.369 C 
HETATM    3  N1  UNL     1      -1.511  -1.160   0.683  1.00  0.00    -0.277 N 
ATOM      4  H1  UNL     1      -1.471  -2.106   1.063  1.00  0.00     0.173 HD
HETATM    5  O1  UNL     1      -0.398   0.801   0.265  1.00  0.00    -0.238 OA
BRANCH   3   6
HETATM    6  C2  UNL     1      -2.726  -0.714   0.131  1.00  0.00     0.186 C 
BRANCH   6   7
HETATM    7  S1  UNL     1      -3.374  -1.499  -1.116  1.00  0.00    -0.091 SA
HETATM    8  C1  UNL     1      -2.529  -2.962  -1.805  1.00  0.00     0.099 C 
ENDBRANCH   6   7
BRANCH   6   9
HETATM    9  O6  UNL     1      -3.346   0.383   0.659  1.00  0.00    -0.320 OA
BRANCH   9  10
HETATM   10  C12 UNL     1      -4.415   1.108   0.144  1.00  0.00     0.059 C 
HETATM   11  C13 UNL     1      -4.696   2.232   1.143  1.00  0.00     0.045 C 
HETATM   12  C14 UNL     1      -5.690   0.316   0.009  1.00  0.00     0.045 C 
HETATM   13  C15 UNL     1      -4.090   1.730  -1.206  1.00  0.00     0.045 C 
ENDBRANCH   9  10
ENDBRANCH   6   9
ENDBRANCH   3   6
ENDBRANCH   1   2
BRANCH   1  14
HETATM   14  C4  UNL     1       2.024   0.012   1.329  1.00  0.00     0.316 C 
HETATM   15  O3  UNL     1       2.367   0.142   2.707  1.00  0.00    -0.286 OA
HETATM   16  C5  UNL     1       3.202  -0.914   3.023  1.00  0.00     0.264 C 
HETATM   17  O4  UNL     1       3.250  -1.606   4.092  1.00  0.00    -0.265 OA
HETATM   18  C6  UNL     1       4.081  -1.114   1.842  1.00  0.00     0.154 C 
HETATM   19  C7  UNL     1       3.210  -0.638   0.699  1.00  0.00     0.123 C 
BRANCH  19  20
HETATM   20  O5  UNL     1       2.888  -1.736  -0.085  1.00  0.00    -0.384 OA
ATOM     21  H5  UNL     1       3.643  -2.150  -0.486  1.00  0.00     0.210 HD
ENDBRANCH  19  20
BRANCH  19  22
HETATM   22  C8  UNL     1       3.983   0.335  -0.181  1.00  0.00    -0.015 C 
HETATM   23  C9  UNL     1       5.179  -0.334  -0.810  1.00  0.00     0.018 C 
HETATM   24  C10 UNL     1       4.438   1.558   0.549  1.00  0.00     0.018 C 
HETATM   25  C11 UNL     1       3.082   0.792  -1.322  1.00  0.00     0.018 C 
ENDBRANCH  19  22
ENDBRANCH   1  14
TORSDOF 8
