REMARK  7 active torsions:
REMARK  status: ('A' for Active; 'I' for Inactive)
REMARK    1  A    between atoms: C3_3  and  O2_5 
REMARK    2  A    between atoms: O2_5  and  C4_6 
REMARK    3  A    between atoms: C4_6  and  C5_7 
REMARK    4  A    between atoms: C6_9  and  O4_10 
REMARK    5  A    between atoms: C13_19  and  N1_20 
REMARK       I    between atoms: N1_20  and  C14_22 
REMARK    6  A    between atoms: C14_22  and  O8_24 
REMARK    7  A    between atoms: O8_24  and  C15_25 
ROOT
HETATM    1  C1  UNL     1      -2.952   5.594   2.076  1.00  0.00     0.023 C 
HETATM    2  C2  UNL     1      -2.380   4.552   1.869  1.00  0.00    -0.009 C 
HETATM    3  C3  UNL     1      -1.713   3.290   1.608  1.00  0.00     0.338 C 
HETATM    4  O1  UNL     1      -2.018   2.318   2.333  1.00  0.00    -0.249 OA
ENDROOT
BRANCH   3   5
HETATM    5  O2  UNL     1      -0.790   3.111   0.635  1.00  0.00    -0.308 OA
BRANCH   5   6
HETATM    6  C4  UNL     1      -0.075   1.998   0.252  1.00  0.00     0.214 C 
BRANCH   6   7
HETATM    7  C5  UNL     1      -0.809   0.823  -0.272  1.00  0.00     0.181 C 
HETATM    8  O3  UNL     1      -1.711   0.210   0.539  1.00  0.00    -0.351 OA
HETATM    9  C6  UNL     1      -2.786  -0.377  -0.102  1.00  0.00     0.266 C 
HETATM   10  C8  UNL     1      -2.850  -1.878   0.155  1.00  0.00     0.066 C 
HETATM   11  C9  UNL     1      -4.293  -2.333   0.087  1.00  0.00     0.017 C 
HETATM   12  C10 UNL     1      -2.062  -2.678  -0.826  1.00  0.00     0.136 C 
HETATM   13  C11 UNL     1      -2.889  -3.724  -1.542  1.00  0.00     0.040 C 
HETATM   14  O5  UNL     1      -1.379  -1.920  -1.788  1.00  0.00    -0.314 OA
HETATM   15  C12 UNL     1      -0.328  -1.030  -1.732  1.00  0.00     0.284 C 
HETATM   16  O6  UNL     1       0.286  -0.833  -2.806  1.00  0.00    -0.263 OA
HETATM   17  C13 UNL     1       0.249  -0.228  -0.630  1.00  0.00     0.217 C 
BRANCH   9  18
HETATM   18  O4  UNL     1      -3.979   0.144   0.451  1.00  0.00    -0.366 OA
HETATM   19  C7  UNL     1      -4.732   0.793  -0.522  1.00  0.00     0.204 C 
ENDBRANCH   9  18
BRANCH  17  20
HETATM   20  N1  UNL     1       1.499   0.354  -0.991  1.00  0.00    -0.320 N 
HETATM   21  C14 UNL     1       2.662   0.051  -0.252  1.00  0.00     0.362 C 
HETATM   22  O7  UNL     1       2.607  -0.734   0.730  1.00  0.00    -0.238 OA
ATOM     23  H1  UNL     1       1.553   0.991  -1.786  1.00  0.00     0.165 HD
BRANCH  21  24
HETATM   24  O8  UNL     1       3.913   0.576  -0.539  1.00  0.00    -0.294 OA
BRANCH  24  25
HETATM   25  C15 UNL     1       5.067   0.263   0.210  1.00  0.00     0.061 C 
HETATM   26  C16 UNL     1       4.944   0.649   1.658  1.00  0.00     0.046 C 
HETATM   27  C17 UNL     1       5.449  -1.185   0.137  1.00  0.00     0.046 C 
HETATM   28  C18 UNL     1       6.216   1.067  -0.378  1.00  0.00     0.046 C 
ENDBRANCH  24  25
ENDBRANCH  21  24
ENDBRANCH  17  20
ENDBRANCH   6   7
ENDBRANCH   5   6
ENDBRANCH   3   5
TORSDOF 7
