REMARK  3 active torsions:
REMARK  status: ('A' for Active; 'I' for Inactive)
REMARK    1  A    between atoms: C4_4  and  S1_5 
REMARK    2  A    between atoms: S1_5  and  N1_8 
REMARK    3  A    between atoms: N3_19  and  C11_20 
ROOT
HETATM    1  C1  UNL     1       2.368   1.481  -1.689  1.00  0.00     0.070 C 
HETATM    2  C2  UNL     1       1.808   0.529  -0.665  1.00  0.00     0.034 A 
HETATM    3  C3  UNL     1       0.486   0.302  -0.354  1.00  0.00     0.071 A 
HETATM    4  C4  UNL     1       0.477  -0.652   0.642  1.00  0.00     0.166 A 
HETATM    5  N2  UNL     1       1.763  -0.961   0.890  1.00  0.00    -0.281 N 
ATOM      6  H2  UNL     1       2.072  -1.643   1.582  1.00  0.00     0.188 HD
HETATM    7  N3  UNL     1       2.571  -0.260   0.114  1.00  0.00    -0.257 N 
ENDROOT
BRANCH   4   8
HETATM    8  S1  UNL     1      -0.894  -1.341   1.443  1.00  0.00     0.284 S 
HETATM    9  O1  UNL     1      -0.889  -2.821   1.221  1.00  0.00    -0.198 OA
HETATM   10  O2  UNL     1      -0.724  -1.113   2.938  1.00  0.00    -0.198 OA
BRANCH   8  11
HETATM   11  N1  UNL     1      -2.393  -0.681   0.913  1.00  0.00    -0.235 N 
HETATM   12  C5  UNL     1      -3.323  -1.562   0.242  1.00  0.00     0.176 C 
HETATM   13  C6  UNL     1      -4.633  -0.949  -0.098  1.00  0.00     0.137 C 
HETATM   14  C7  UNL     1      -4.749  -0.732  -1.594  1.00  0.00     0.041 C 
HETATM   15  O3  UNL     1      -5.028   0.125   0.640  1.00  0.00    -0.370 OA
HETATM   16  C8  UNL     1      -4.111   1.121   0.838  1.00  0.00     0.211 C 
HETATM   17  C9  UNL     1      -4.133   2.188  -0.249  1.00  0.00     0.050 C 
HETATM   18  C10 UNL     1      -2.754   0.662   1.104  1.00  0.00     0.262 C 
HETATM   19  O4  UNL     1      -1.900   1.483   1.511  1.00  0.00    -0.269 OA
ENDBRANCH   8  11
ENDBRANCH   4   8
BRANCH   7  20
HETATM   20  C11 UNL     1       3.990  -0.289   0.078  1.00  0.00     0.100 A 
HETATM   21  C12 UNL     1       4.685  -1.269  -0.592  1.00  0.00     0.066 A 
HETATM   22 CL1  UNL     1       3.786  -2.520  -1.423  1.00  0.00    -0.082 Cl
HETATM   23  C13 UNL     1       6.064  -1.298  -0.632  1.00  0.00     0.050 A 
HETATM   24  C14 UNL     1       6.790  -0.334   0.006  1.00  0.00     0.037 A 
HETATM   25 CL2  UNL     1       8.541  -0.426  -0.079  1.00  0.00    -0.084 Cl
HETATM   26  C15 UNL     1       6.135   0.676   0.697  1.00  0.00     0.050 A 
HETATM   27  C16 UNL     1       4.752   0.683   0.722  1.00  0.00     0.066 A 
HETATM   28 CL3  UNL     1       3.896   1.941   1.580  1.00  0.00    -0.082 Cl
ENDBRANCH   7  20
TORSDOF 3
