REMARK  4 active torsions:
REMARK  status: ('A' for Active; 'I' for Inactive)
REMARK    1  A    between atoms: N2_6  and  C5_7 
REMARK    2  A    between atoms: C10_12  and  C11_13 
REMARK    3  A    between atoms: N4_22  and  C18_23 
REMARK    4  A    between atoms: C18_23  and  C19_24 
ROOT
HETATM    1  C5  UNL     1      -3.675   0.423  -0.818  1.00  0.00     0.077 A 
HETATM    2  C6  UNL     1      -3.098   0.082  -2.004  1.00  0.00     0.034 A 
HETATM    3  C7  UNL     1      -1.789  -0.352  -1.988  1.00  0.00     0.016 A 
HETATM    4  C8  UNL     1      -1.055  -0.447  -0.809  1.00  0.00    -0.008 A 
HETATM    5  C9  UNL     1       0.246  -0.875  -0.792  1.00  0.00     0.029 A 
HETATM    6  C10 UNL     1       0.946  -0.951   0.429  1.00  0.00     0.019 A 
HETATM    7  C25 UNL     1       0.295  -0.597   1.567  1.00  0.00     0.051 A 
HETATM    8  C26 UNL     1       0.642  -0.615   2.904  1.00  0.00     0.032 A 
HETATM    9  C27 UNL     1      -0.404  -0.207   3.679  1.00  0.00     0.020 A 
HETATM   10  C28 UNL     1      -1.423   0.069   2.816  1.00  0.00     0.097 A 
HETATM   11  N5  UNL     1      -0.990  -0.170   1.572  1.00  0.00    -0.321 N 
HETATM   12  C29 UNL     1      -1.639  -0.104   0.369  1.00  0.00     0.051 A 
HETATM   13  C30 UNL     1      -2.943   0.327   0.354  1.00  0.00     0.064 A 
ENDROOT
BRANCH   6  14
HETATM   14  C11 UNL     1       2.275  -1.520   0.345  1.00  0.00     0.048 A 
HETATM   15  C12 UNL     1       2.518  -2.680  -0.456  1.00  0.00     0.044 A 
HETATM   16  C13 UNL     1       3.846  -2.928  -0.436  1.00  0.00    -0.004 A 
HETATM   17  C14 UNL     1       4.601  -3.927  -1.021  1.00  0.00     0.030 A 
HETATM   18  C17 UNL     1       4.461  -1.988   0.332  1.00  0.00     0.061 A 
HETATM   19  C15 UNL     1       5.954  -3.984  -0.837  1.00  0.00     0.088 A 
HETATM   20  N3  UNL     1       6.554  -3.067  -0.083  1.00  0.00    -0.373 N 
HETATM   21  C16 UNL     1       5.820  -2.087   0.491  1.00  0.00     0.118 A 
ATOM     22  H3  UNL     1       7.563  -3.103   0.062  1.00  0.00     0.164 HD
HETATM   23  N4  UNL     1       3.470  -1.146   0.786  1.00  0.00    -0.340 N 
BRANCH  23  24
HETATM   24  C18 UNL     1       3.860   0.015   1.550  1.00  0.00     0.168 C 
BRANCH  24  25
HETATM   25  C19 UNL     1       4.137   1.215   0.668  1.00  0.00    -0.040 A 
HETATM   26  C20 UNL     1       5.391   1.504   0.218  1.00  0.00     0.009 A 
HETATM   27  C21 UNL     1       5.576   2.622  -0.588  1.00  0.00     0.001 A 
HETATM   28  C22 UNL     1       4.519   3.425  -0.926  1.00  0.00     0.000 A 
HETATM   29  C23 UNL     1       3.240   3.167  -0.491  1.00  0.00     0.001 A 
HETATM   30  C24 UNL     1       3.070   2.052   0.310  1.00  0.00     0.009 A 
ENDBRANCH  24  25
ENDBRANCH  23  24
ENDBRANCH   6  14
BRANCH   1  31
HETATM   31  N2  UNL     1      -5.028   0.888  -0.698  1.00  0.00    -0.195 N 
HETATM   32  N1  UNL     1      -6.085   0.114  -0.533  1.00  0.00    -0.284 N 
HETATM   33  C3  UNL     1      -7.211   0.865  -0.456  1.00  0.00     0.137 A 
HETATM   34  C4  UNL     1      -6.029  -1.340  -0.449  1.00  0.00     0.179 C 
HETATM   35  C2  UNL     1      -6.798   2.185  -0.583  1.00  0.00     0.041 A 
HETATM   36  C1  UNL     1      -7.719   3.351  -0.554  1.00  0.00     0.071 C 
HETATM   37  N6  UNL     1      -5.473   2.128  -0.726  1.00  0.00    -0.282 N 
ATOM     38  H6  UNL     1      -4.876   2.946  -0.843  1.00  0.00     0.189 HD
ENDBRANCH   1  31
TORSDOF 4
