REMARK  15 active torsions:
REMARK  status: ('A' for Active; 'I' for Inactive)
REMARK    1  A    between atoms: C4_4  and  C5_5 
REMARK    2  A    between atoms: C7_7  and  N1_8 
REMARK    3  A    between atoms: N1_8  and  C8_10 
REMARK    4  A    between atoms: C8_10  and  C9_11 
REMARK    5  A    between atoms: C9_11  and  C10_12 
REMARK    6  A    between atoms: C10_12  and  C11_13 
REMARK    7  A    between atoms: C13_17  and  N3_18 
REMARK    8  A    between atoms: N3_18  and  C14_20 
REMARK    9  A    between atoms: C14_20  and  C15_21 
REMARK   10  A    between atoms: C15_21  and  N4_22 
REMARK   11  A    between atoms: N4_22  and  C16_24 
REMARK   12  A    between atoms: C20_31  and  C21_32 
REMARK       I    between atoms: C21_32  and  N6_34 
REMARK   13  A    between atoms: N6_34  and  C22_36 
REMARK   14  A    between atoms: C22_36  and  C23_37 
REMARK   15  A    between atoms: C23_37  and  O2_38 
ROOT
HETATM    1  C5  UNL     1      -2.636  -2.185   0.654  1.00  0.00     0.063 A 
HETATM    2  C6  UNL     1      -2.949  -0.863   0.463  1.00  0.00     0.079 A 
HETATM    3  C7  UNL     1      -1.959   0.121   0.390  1.00  0.00     0.119 A 
HETATM    4  N2  UNL     1      -0.693  -0.294   0.516  1.00  0.00    -0.177 N 
ATOM      5  H2  UNL     1       0.057   0.396   0.469  1.00  0.00     0.185 HD
HETATM    6  C13 UNL     1      -0.375  -1.572   0.700  1.00  0.00     0.680 A 
HETATM    7  N7  UNL     1      -1.347  -2.507   0.768  1.00  0.00    -0.191 N 
ATOM      8  H7  UNL     1      -1.089  -3.484   0.910  1.00  0.00     0.184 HD
ENDROOT
BRANCH   6   9
HETATM    9  N3  UNL     1       0.832  -1.949   0.808  1.00  0.00    -0.224 N 
ATOM     10  H3  UNL     1       0.967  -2.951   0.946  1.00  0.00     0.177 HD
BRANCH   9  11
HETATM   11  C14 UNL     1       2.024  -1.172   0.764  1.00  0.00     0.157 C 
BRANCH  11  12
HETATM   12  C15 UNL     1       2.481  -0.911  -0.650  1.00  0.00     0.141 C 
BRANCH  12  13
HETATM   13  N4  UNL     1       3.700  -0.149  -0.690  1.00  0.00    -0.374 N 
ATOM     14  H4  UNL     1       3.643   0.869  -0.669  1.00  0.00     0.161 HD
BRANCH  13  15
HETATM   15  C16 UNL     1       4.871  -0.707  -0.752  1.00  0.00     0.117 A 
HETATM   16  N5  UNL     1       5.062  -2.036  -0.783  1.00  0.00    -0.350 N 
HETATM   17  C17 UNL     1       6.319  -2.544  -0.866  1.00  0.00     0.108 A 
ATOM     18  H5  UNL     1       4.261  -2.666  -0.744  1.00  0.00     0.166 HD
HETATM   19  C18 UNL     1       7.409  -1.713  -0.918  1.00  0.00     0.027 A 
HETATM   20 BR1  UNL     1       9.157  -2.441  -1.034  1.00  0.00    -0.050 Br
HETATM   21  C19 UNL     1       7.212  -0.355  -0.885  1.00  0.00     0.041 A 
HETATM   22  C20 UNL     1       5.952   0.185  -0.802  1.00  0.00     0.077 A 
BRANCH  22  23
HETATM   23  C21 UNL     1       5.744   1.648  -0.748  1.00  0.00     0.255 C 
HETATM   24  O1  UNL     1       4.980   2.179  -1.589  1.00  0.00    -0.268 OA
HETATM   25  N6  UNL     1       6.427   2.367   0.256  1.00  0.00    -0.355 N 
ATOM     26  H6  UNL     1       7.036   1.873   0.908  1.00  0.00     0.162 HD
BRANCH  25  27
HETATM   27  C22 UNL     1       6.270   3.794   0.365  1.00  0.00     0.148 C 
BRANCH  27  28
HETATM   28  C23 UNL     1       7.123   4.311   1.518  1.00  0.00     0.183 C 
BRANCH  28  29
HETATM   29  O2  UNL     1       8.455   3.979   1.227  1.00  0.00    -0.399 OA
ATOM     30  H2  UNL     1       8.987   4.301   1.945  1.00  0.00     0.209 HD
ENDBRANCH  28  29
ENDBRANCH  27  28
ENDBRANCH  25  27
ENDBRANCH  22  23
ENDBRANCH  13  15
ENDBRANCH  12  13
ENDBRANCH  11  12
ENDBRANCH   9  11
ENDBRANCH   6   9
BRANCH   3  31
HETATM   31  N1  UNL     1      -2.302   1.319   0.202  1.00  0.00    -0.376 N 
ATOM     32  H1  UNL     1      -1.583   2.041   0.150  1.00  0.00     0.161 HD
BRANCH  31  33
HETATM   33  C8  UNL     1      -3.692   1.693   0.059  1.00  0.00     0.121 C 
BRANCH  33  34
HETATM   34  C9  UNL     1      -3.745   3.199  -0.153  1.00  0.00     0.020 C 
BRANCH  34  35
HETATM   35  C10 UNL     1      -2.960   3.532  -1.411  1.00  0.00     0.001 C 
BRANCH  35  36
HETATM   36  C11 UNL     1      -3.034   5.051  -1.594  1.00  0.00    -0.004 C 
HETATM   37  C12 UNL     1      -4.464   5.520  -1.745  1.00  0.00     0.005 C 
ENDBRANCH  35  36
ENDBRANCH  34  35
ENDBRANCH  33  34
ENDBRANCH  31  33
ENDBRANCH   3  31
BRANCH   1  38
HETATM   38  C4  UNL     1      -3.716  -3.190   0.734  1.00  0.00    -0.005 A 
HETATM   39  C3  UNL     1      -3.426  -4.483   0.923  1.00  0.00     0.042 A 
HETATM   40  C2  UNL     1      -4.516  -5.472   1.001  1.00  0.00     0.023 A 
HETATM   41  C1  UNL     1      -4.215  -6.745   1.189  1.00  0.00     0.043 C 
HETATM   42  N8  UNL     1      -5.846  -4.997   0.871  1.00  0.00    -0.361 N 
HETATM   43  C25 UNL     1      -6.135  -3.634   0.673  1.00  0.00     0.006 A 
ATOM     44  H8  UNL     1      -6.616  -5.663   0.923  1.00  0.00     0.166 HD
HETATM   45  C24 UNL     1      -5.103  -2.773   0.608  1.00  0.00     0.038 A 
HETATM   46  C26 UNL     1      -7.542  -3.167   0.539  1.00  0.00     0.068 C 
ENDBRANCH   1  38
TORSDOF 15
