REMARK  14 active torsions:
REMARK  status: ('A' for Active; 'I' for Inactive)
REMARK    1  A    between atoms: C3_5  and  C4_6 
REMARK    2  A    between atoms: C11_14  and  N2_15 
REMARK    3  A    between atoms: N2_15  and  C12_17 
REMARK    4  A    between atoms: C12_17  and  C13_18 
REMARK    5  A    between atoms: N3_19  and  C14_21 
REMARK    6  A    between atoms: C15_24  and  N5_25 
REMARK    7  A    between atoms: N5_25  and  C16_26 
REMARK    8  A    between atoms: C16_26  and  C17_27 
REMARK    9  A    between atoms: C17_27  and  C18_28 
REMARK   10  A    between atoms: C18_28  and  N6_29 
REMARK   11  A    between atoms: C22_36  and  C23_37 
REMARK   12  A    between atoms: C23_37  and  C24_38 
REMARK   13  A    between atoms: C24_38  and  N7_39 
REMARK   14  A    between atoms: C28_48  and  C29_49 
ROOT
HETATM    1  C14 UNL     1       1.298  -0.457  -0.946  1.00  0.00     0.684 A 
HETATM    2  N4  UNL     1       1.765  -1.688  -0.875  1.00  0.00    -0.163 N 
ATOM      3  H4  UNL     1       1.141  -2.485  -1.003  1.00  0.00     0.187 HD
HETATM    4  C15 UNL     1       3.103  -1.885  -0.626  1.00  0.00     0.204 A 
HETATM    5  C19 UNL     1       3.937  -0.801  -0.450  1.00  0.00     0.050 A 
HETATM    6  C20 UNL     1       5.290  -0.992  -0.155  1.00  0.00     0.019 A 
HETATM    7  C21 UNL     1       6.080   0.115   0.060  1.00  0.00     0.008 A 
HETATM    8  C22 UNL     1       5.545   1.382  -0.023  1.00  0.00    -0.054 A 
HETATM    9  C26 UNL     1       4.186   1.611  -0.329  1.00  0.00     0.038 A 
HETATM   10  C27 UNL     1       3.440   0.454  -0.521  1.00  0.00     0.064 A 
HETATM   11  N10 UNL     1       2.114   0.642  -0.771  1.00  0.00    -0.191 N 
ATOM     12  H10 UNL     1       1.729   1.585  -0.828  1.00  0.00     0.184 HD
ENDROOT
BRANCH   1  13
HETATM   13  N3  UNL     1       0.120  -0.264  -1.302  1.00  0.00    -0.204 N 
HETATM   14  C13 UNL     1      -1.069  -0.711  -1.713  1.00  0.00     0.098 C 
ATOM     15  H3  UNL     1       0.006   0.749  -1.256  1.00  0.00     0.183 HD
BRANCH  14  16
HETATM   16  C12 UNL     1      -2.167  -1.360  -0.947  1.00  0.00     0.165 C 
BRANCH  16  17
HETATM   17  N2  UNL     1      -2.726  -0.494   0.025  1.00  0.00    -0.384 N 
ATOM     18  H2  UNL     1      -2.080  -0.105   0.712  1.00  0.00     0.160 HD
BRANCH  17  19
HETATM   19  C11 UNL     1      -3.989  -0.135   0.140  1.00  0.00     0.043 A 
HETATM   20  C10 UNL     1      -4.924  -0.600  -0.734  1.00  0.00     0.060 A 
HETATM   21  C3  UNL     1      -6.257  -0.151  -0.595  1.00  0.00     0.044 A 
HETATM   22  N1  UNL     1      -6.468   0.711   0.395  1.00  0.00    -0.358 N 
HETATM   23  C2  UNL     1      -5.562   1.187   1.263  1.00  0.00     0.018 A 
ATOM     24  H1  UNL     1      -7.424   1.048   0.507  1.00  0.00     0.166 HD
HETATM   25  C1  UNL     1      -5.935   2.241   2.210  1.00  0.00     0.069 C 
HETATM   26  C28 UNL     1      -4.226   0.774   1.181  1.00  0.00     0.014 A 
BRANCH  21  27
HETATM   27  C4  UNL     1      -7.337  -0.545  -1.499  1.00  0.00    -0.009 A 
HETATM   28  C5  UNL     1      -7.419  -1.776  -2.075  1.00  0.00     0.017 A 
HETATM   29  C6  UNL     1      -8.457  -2.083  -2.978  1.00  0.00     0.043 A 
HETATM   30  C7  UNL     1      -9.403  -1.156  -3.305  1.00  0.00     0.116 A 
HETATM   31  F1  UNL     1     -10.403  -1.433  -4.155  1.00  0.00    -0.206 F 
HETATM   32  C8  UNL     1      -9.309   0.138  -2.701  1.00  0.00     0.043 A 
HETATM   33  C9  UNL     1      -8.294   0.404  -1.826  1.00  0.00     0.017 A 
ENDBRANCH  21  27
BRANCH  26  34
HETATM   34  C29 UNL     1      -3.278   1.104   2.237  1.00  0.00    -0.073 C 
HETATM   35  C30 UNL     1      -1.873   1.420   1.922  1.00  0.00     0.044 C 
HETATM   36  C31 UNL     1      -3.775   1.275   3.631  1.00  0.00     0.044 C 
ENDBRANCH  26  34
ENDBRANCH  17  19
ENDBRANCH  16  17
ENDBRANCH  14  16
ENDBRANCH   1  13
BRANCH   4  37
HETATM   37  N5  UNL     1       3.560  -3.005  -0.521  1.00  0.00    -0.403 NA
BRANCH  37  38
HETATM   38  C16 UNL     1       4.141  -4.185  -0.391  1.00  0.00     0.159 C 
BRANCH  38  39
HETATM   39  C17 UNL     1       3.168  -5.380  -0.255  1.00  0.00     0.087 C 
BRANCH  39  40
HETATM   40  C18 UNL     1       2.409  -5.382   1.039  1.00  0.00     0.235 C 
BRANCH  40  41
HETATM   41  N6  UNL     1       3.342  -5.476   2.157  1.00  0.00    -0.079 N 
ATOM     42  H63 UNL     1       3.961  -6.282   2.074  1.00  0.00     0.274 HD
ATOM     43  H62 UNL     1       4.051  -4.743   2.129  1.00  0.00     0.274 HD
ATOM     44  H61 UNL     1       2.826  -5.477   3.037  1.00  0.00     0.274 HD
ENDBRANCH  40  41
ENDBRANCH  39  40
ENDBRANCH  38  39
ENDBRANCH  37  38
ENDBRANCH   4  37
BRANCH   8  45
HETATM   45  C23 UNL     1       6.362   2.508   0.400  1.00  0.00     0.058 C 
BRANCH  45  46
HETATM   46  C24 UNL     1       7.488   2.929  -0.472  1.00  0.00     0.126 C 
BRANCH  46  47
HETATM   47  N7  UNL     1       8.195   4.063   0.124  1.00  0.00    -0.367 N 
HETATM   48  C25 UNL     1       7.884   5.251  -0.123  1.00  0.00     0.196 C 
HETATM   49  N8  UNL     1       6.831   5.581  -1.001  1.00  0.00    -0.067 NA
HETATM   50  N9  UNL     1       8.540   6.377   0.499  1.00  0.00    -0.067 NA
ATOM     51  H7  UNL     1       8.968   3.880   0.763  1.00  0.00     0.161 HD
ENDBRANCH  46  47
ENDBRANCH  45  46
ENDBRANCH   8  45
TORSDOF 14
