REMARK  3 active torsions:
REMARK  status: ('A' for Active; 'I' for Inactive)
REMARK    1  A    between atoms: N1_1  and  C1_4 
REMARK    2  A    between atoms: N4_16  and  C6_17 
REMARK    3  A    between atoms: C6_17  and  N5_18 
ROOT
HETATM    1  C1  UNL     1      -2.200  -1.034  -0.019  1.00  0.00     0.680 A 
HETATM    2  N2  UNL     1      -2.868   0.118   0.164  1.00  0.00    -0.155 N 
ATOM      3  H2  UNL     1      -3.882   0.115   0.275  1.00  0.00     0.187 HD
HETATM    4  C2  UNL     1      -2.182   1.274   0.199  1.00  0.00     0.279 A 
HETATM    5  O1  UNL     1      -2.741   2.384   0.366  1.00  0.00    -0.266 OA
HETATM    6  C3  UNL     1      -0.812   1.214   0.043  1.00  0.00     0.145 A 
HETATM    7  C4  UNL     1      -0.055   2.384   0.078  1.00  0.00     0.269 A 
HETATM    8  O2  UNL     1      -0.652   3.459   0.247  1.00  0.00    -0.267 OA
HETATM    9  N3  UNL     1       1.273   2.308  -0.069  1.00  0.00    -0.274 N 
ATOM     10  H3  UNL     1       1.819   3.169  -0.042  1.00  0.00     0.173 HD
HETATM   11  C5  UNL     1       1.915   1.142  -0.251  1.00  0.00     0.332 A 
HETATM   12  O3  UNL     1       3.167   1.058  -0.391  1.00  0.00    -0.246 OA
HETATM   13  N4  UNL     1       1.227  -0.029  -0.294  1.00  0.00    -0.259 N 
HETATM   14  C7  UNL     1      -0.110   0.021  -0.148  1.00  0.00     0.150 A 
HETATM   15  N6  UNL     1      -0.859  -1.098  -0.172  1.00  0.00    -0.175 N 
ATOM     16  H6  UNL     1      -0.409  -2.003  -0.307  1.00  0.00     0.186 HD
ENDROOT
BRANCH  13  17
HETATM   17  C6  UNL     1       1.916  -1.281  -0.488  1.00  0.00     0.365 C 
BRANCH  17  18
HETATM   18  N5  UNL     1       2.246  -1.858   0.803  1.00  0.00    -0.063 N 
ATOM     19  H53 UNL     1       2.776  -1.213   1.389  1.00  0.00     0.276 HD
ATOM     20  H52 UNL     1       1.426  -1.958   1.401  1.00  0.00     0.276 HD
ATOM     21  H51 UNL     1       2.733  -2.743   0.666  1.00  0.00     0.276 HD
ENDBRANCH  17  18
ENDBRANCH  13  17
BRANCH   1  22
HETATM   22  N1  UNL     1      -2.836  -2.173  -0.058  1.00  0.00    -0.234 N 
ATOM     23  H12 UNL     1      -3.848  -2.125   0.057  1.00  0.00     0.174 HD
ATOM     24  H11 UNL     1      -2.329  -3.047  -0.197  1.00  0.00     0.174 HD
ENDBRANCH   1  22
TORSDOF 3
