REMARK  16 active torsions:
REMARK  status: ('A' for Active; 'I' for Inactive)
REMARK    1  A    between atoms: C2_2  and  C3_3 
REMARK    2  A    between atoms: C3_3  and  C4_4 
REMARK    3  A    between atoms: C4_4  and  C5_5 
REMARK    4  A    between atoms: C5_5  and  C6_6 
REMARK    5  A    between atoms: C6_6  and  C7_7 
REMARK    6  A    between atoms: C8_9  and  O2_10 
REMARK    7  A    between atoms: O2_10  and  C9_11 
REMARK    8  A    between atoms: C9_11  and  C10_12 
REMARK    9  A    between atoms: C10_12  and  C11_13 
REMARK   10  A    between atoms: C11_13  and  O3_14 
REMARK   11  A    between atoms: O3_14  and  C12_15 
REMARK   12  A    between atoms: C17_21  and  O5_22 
REMARK   13  A    between atoms: C18_24  and  O6_25 
REMARK   14  A    between atoms: C19_27  and  O7_28 
REMARK   15  A    between atoms: C22_32  and  O8_33 
REMARK   16  A    between atoms: C23_35  and  O9_36 
ROOT
HETATM    1  C10 UNL     1      -1.561  -0.777   0.264  1.00  0.00     0.007 C 
HETATM    2  C14 UNL     1      -2.567  -1.959   0.136  1.00  0.00     0.014 C 
HETATM    3  C15 UNL     1      -3.725  -1.349  -0.595  1.00  0.00     0.009 C 
HETATM    4  C16 UNL     1      -3.587   0.133  -0.533  1.00  0.00     0.022 C 
HETATM    5  C17 UNL     1      -4.893   0.780  -0.118  1.00  0.00     0.153 C 
HETATM    6  C18 UNL     1      -4.564   1.928   0.806  1.00  0.00     0.175 C 
HETATM    7  C19 UNL     1      -4.156   1.323   2.127  1.00  0.00     0.149 C 
HETATM    8  C20 UNL     1      -3.184   0.175   1.855  1.00  0.00     0.040 C 
HETATM    9  C21 UNL     1      -2.490   0.336   0.517  1.00  0.00     0.007 C 
ENDROOT
BRANCH   1  10
HETATM   10  C9  UNL     1      -0.553  -1.114   1.317  1.00  0.00     0.183 C 
BRANCH  10  11
HETATM   11  O2  UNL     1       0.456  -0.284   1.422  1.00  0.00    -0.358 OA
BRANCH  11  12
HETATM   12  C8  UNL     1       0.560   0.968   1.748  1.00  0.00     0.291 C 
HETATM   13  O1  UNL     1       1.152   1.842   0.861  1.00  0.00    -0.351 OA
HETATM   14  C7  UNL     1       2.499   1.668   1.023  1.00  0.00     0.156 C 
HETATM   15  C23 UNL     1       2.751   1.196   2.439  1.00  0.00     0.180 C 
HETATM   16  C22 UNL     1       1.358   1.247   3.034  1.00  0.00     0.204 C 
BRANCH  14  17
HETATM   17  C6  UNL     1       3.153   0.721   0.045  1.00  0.00     0.035 C 
BRANCH  17  18
HETATM   18  C5  UNL     1       2.979   1.208  -1.355  1.00  0.00     0.003 C 
BRANCH  18  19
HETATM   19  C4  UNL     1       3.642   0.265  -2.342  1.00  0.00     0.004 C 
BRANCH  19  20
HETATM   20  C3  UNL     1       5.132   0.134  -2.109  1.00  0.00     0.026 C 
BRANCH  20  21
HETATM   21  C2  UNL     1       5.711  -0.809  -3.102  1.00  0.00    -0.037 C 
HETATM   22  C1  UNL     1       6.324  -1.899  -2.672  1.00  0.00     0.007 C 
ENDBRANCH  20  21
ENDBRANCH  19  20
ENDBRANCH  18  19
ENDBRANCH  17  18
ENDBRANCH  14  17
BRANCH  15  23
HETATM   23  O9  UNL     1       3.272  -0.095   2.425  1.00  0.00    -0.390 OA
ATOM     24  H9  UNL     1       3.430  -0.391   3.314  1.00  0.00     0.210 HD
ENDBRANCH  15  23
BRANCH  16  25
HETATM   25  O8  UNL     1       1.126   2.516   3.501  1.00  0.00    -0.388 OA
ATOM     26  H8  UNL     1       1.619   2.688   4.295  1.00  0.00     0.210 HD
ENDBRANCH  16  25
ENDBRANCH  11  12
ENDBRANCH  10  11
ENDBRANCH   1  10
BRANCH   1  27
HETATM   27  C11 UNL     1      -0.872  -0.714  -1.091  1.00  0.00     0.191 C 
BRANCH  27  28
HETATM   28  O3  UNL     1      -0.283  -1.970  -1.391  1.00  0.00    -0.321 OA
BRANCH  28  29
HETATM   29  C12 UNL     1       0.392  -2.151  -2.586  1.00  0.00     0.254 C 
HETATM   30  C13 UNL     1       1.041  -3.420  -2.998  1.00  0.00     0.126 C 
HETATM   31  O4  UNL     1       0.466  -1.166  -3.396  1.00  0.00    -0.266 OA
ENDBRANCH  28  29
ENDBRANCH  27  28
ENDBRANCH   1  27
BRANCH   5  32
HETATM   32  O5  UNL     1      -5.726  -0.084   0.583  1.00  0.00    -0.393 OA
ATOM     33  H5  UNL     1      -6.545   0.322   0.843  1.00  0.00     0.210 HD
ENDBRANCH   5  32
BRANCH   7  34
HETATM   34  O7  UNL     1      -3.647   2.241   3.021  1.00  0.00    -0.393 OA
ATOM     35  H7  UNL     1      -3.390   1.860   3.853  1.00  0.00     0.210 HD
ENDBRANCH   7  34
BRANCH   6  36
HETATM   36  O6  UNL     1      -5.742   2.664   1.036  1.00  0.00    -0.390 OA
ATOM     37  H6  UNL     1      -5.535   3.386   1.617  1.00  0.00     0.210 HD
ENDBRANCH   6  36
TORSDOF 16
