REMARK  10 active torsions:
REMARK  status: ('A' for Active; 'I' for Inactive)
REMARK    1  A    between atoms: C2_2  and  C3_3 
REMARK    2  A    between atoms: C3_3  and  C4_4 
REMARK    3  A    between atoms: C4_4  and  N1_5 
REMARK    4  A    between atoms: C6_7  and  O1_8 
REMARK    5  A    between atoms: C6_7  and  C7_10 
REMARK    6  A    between atoms: N2_13  and  N3_14 
REMARK       I    between atoms: N3_14  and  C10_16 
REMARK    7  A    between atoms: C10_16  and  C11_18 
REMARK    8  A    between atoms: C16_26  and  C17_27 
REMARK    9  A    between atoms: C17_27  and  C18_28 
REMARK   10  A    between atoms: C19_29  and  C20_30 
ROOT
HETATM    1  C7  UNL     1      -0.625   0.109  -0.199  1.00  0.00     0.030 C 
HETATM    2  C8  UNL     1      -1.137   1.058   0.521  1.00  0.00     0.045 C 
HETATM    3  C9  UNL     1      -2.377   1.097   1.350  1.00  0.00     0.071 C 
HETATM    4  N2  UNL     1      -0.437   2.318   0.301  1.00  0.00    -0.225 N 
HETATM    5  C15 UNL     1       0.577   2.063  -0.655  1.00  0.00     0.252 C 
HETATM    6  O3  UNL     1       1.133   2.972  -1.354  1.00  0.00    -0.270 OA
HETATM    7  C16 UNL     1       0.773   0.624  -0.610  1.00  0.00     0.122 C 
ENDROOT
BRANCH   4   8
HETATM    8  N3  UNL     1      -0.704   3.548   0.909  1.00  0.00    -0.255 N 
HETATM    9  C10 UNL     1      -1.143   4.650   0.153  1.00  0.00     0.287 C 
HETATM   10  O2  UNL     1      -1.302   4.540  -1.089  1.00  0.00    -0.264 OA
ATOM     11  H3  UNL     1      -0.579   3.648   1.916  1.00  0.00     0.191 HD
BRANCH   9  12
HETATM   12  C11 UNL     1      -1.425   5.939   0.771  1.00  0.00     0.102 A 
HETATM   13  C12 UNL     1      -1.858   7.093   0.158  1.00  0.00     0.036 A 
HETATM   14  C13 UNL     1      -1.997   8.070   1.117  1.00  0.00     0.019 A 
HETATM   15  C14 UNL     1      -1.646   7.508   2.326  1.00  0.00     0.088 A 
HETATM   16  N4  UNL     1      -1.309   6.236   2.092  1.00  0.00    -0.361 N 
ATOM     17  H4  UNL     1      -1.006   5.577   2.809  1.00  0.00     0.165 HD
ENDBRANCH   9  12
ENDBRANCH   4   8
BRANCH   1  18
HETATM   18  C6  UNL     1      -1.028  -1.231  -0.502  1.00  0.00     0.146 C 
HETATM   19  N1  UNL     1      -2.012  -2.135  -0.243  1.00  0.00    -0.366 N 
HETATM   20  C5  UNL     1      -3.198  -1.988   0.532  1.00  0.00     0.151 C 
BRANCH  19  21
HETATM   21  C4  UNL     1      -1.913  -3.515  -0.851  1.00  0.00     0.124 C 
BRANCH  21  22
HETATM   22  C3  UNL     1      -2.584  -3.564  -2.171  1.00  0.00     0.019 C 
BRANCH  22  23
HETATM   23  C2  UNL     1      -2.482  -4.933  -2.762  1.00  0.00    -0.003 C 
HETATM   24  C1  UNL     1      -3.124  -5.995  -1.896  1.00  0.00     0.005 C 
ENDBRANCH  22  23
ENDBRANCH  21  22
ENDBRANCH  19  21
BRANCH  18  25
HETATM   25  O1  UNL     1      -0.084  -1.760  -1.342  1.00  0.00    -0.346 OA
ATOM     26  H1  UNL     1       0.603  -1.129  -1.523  1.00  0.00     0.219 HD
ENDBRANCH  18  25
ENDBRANCH   1  18
BRANCH   7  27
HETATM   27  C17 UNL     1       1.784   0.345   0.485  1.00  0.00     0.046 C 
BRANCH  27  28
HETATM   28  C18 UNL     1       1.961  -1.054   0.845  1.00  0.00    -0.029 C 
HETATM   29  C19 UNL     1       3.023  -1.815   0.798  1.00  0.00    -0.022 C 
BRANCH  29  30
HETATM   30  C20 UNL     1       4.341  -1.351   0.335  1.00  0.00    -0.034 C 
HETATM   31  C21 UNL     1       4.265  -0.961  -1.119  1.00  0.00     0.018 C 
HETATM   32  C22 UNL     1       5.371  -2.486   0.423  1.00  0.00     0.018 C 
HETATM   33  C23 UNL     1       4.881  -0.208   1.149  1.00  0.00     0.018 C 
ENDBRANCH  29  30
ENDBRANCH  27  28
ENDBRANCH   7  27
TORSDOF 10
