REMARK  10 active torsions:
REMARK  status: ('A' for Active; 'I' for Inactive)
REMARK    1  A    between atoms: C2_2  and  N1_3 
REMARK    2  A    between atoms: N1_3  and  C3_6 
REMARK    3  A    between atoms: C3_6  and  C4_7 
REMARK    4  A    between atoms: C3_6  and  C6_11 
REMARK    5  A    between atoms: C4_7  and  O2_9 
REMARK    6  A    between atoms: C6_11  and  O3_12 
REMARK    7  A    between atoms: C7_14  and  C8_15 
REMARK    8  A    between atoms: C8_15  and  C9_16 
REMARK    9  A    between atoms: C9_16  and  S1_17 
REMARK   10  A    between atoms: C20_28  and  O4_29 
ROOT
HETATM    1  C6  UNL     1      -0.479  -0.240   0.103  1.00  0.00     0.150 C 
HETATM    2  C7  UNL     1       0.048   1.091  -0.202  1.00  0.00    -0.034 C 
HETATM    3  C11 UNL     1       0.887   1.752   0.859  1.00  0.00    -0.060 C 
HETATM    4  C12 UNL     1       0.343   1.910   2.223  1.00  0.00     0.048 C 
HETATM    5  C13 UNL     1       2.101   2.247   0.657  1.00  0.00    -0.019 C 
HETATM    6  C14 UNL     1       2.900   2.285  -0.562  1.00  0.00     0.032 C 
HETATM    7  C15 UNL     1       4.205   1.530  -0.425  1.00  0.00     0.037 C 
HETATM    8  C16 UNL     1       4.181   0.461   0.588  1.00  0.00    -0.087 C 
HETATM    9  C17 UNL     1       4.457   0.866   2.019  1.00  0.00     0.043 C 
HETATM   10  C18 UNL     1       3.943  -0.822   0.329  1.00  0.00    -0.019 C 
HETATM   11  C19 UNL     1       3.665  -1.417  -0.973  1.00  0.00     0.095 C 
HETATM   12  C20 UNL     1       2.262  -1.977  -1.140  1.00  0.00     0.166 C 
HETATM   13  C21 UNL     1       1.867  -2.953  -0.093  1.00  0.00     0.072 C 
HETATM   14  C22 UNL     1       0.399  -2.624   0.096  1.00  0.00     0.047 C 
HETATM   15  C23 UNL     1       0.109  -1.379  -0.726  1.00  0.00     0.098 C 
HETATM   16  C24 UNL     1      -0.637  -1.746  -1.961  1.00  0.00     0.050 C 
HETATM   17  O5  UNL     1       1.379  -0.964  -1.118  1.00  0.00    -0.341 OA
ENDROOT
BRANCH   1  18
HETATM   18  C3  UNL     1      -1.880  -0.406   0.516  1.00  0.00     0.326 C 
BRANCH  18  19
HETATM   19  N1  UNL     1      -2.927  -0.164  -0.447  1.00  0.00    -0.059 N 
ATOM     20  H12 UNL     1      -2.998  -0.908  -1.141  1.00  0.00     0.278 HD
ATOM     21  H11 UNL     1      -2.703   0.601  -1.083  1.00  0.00     0.278 HD
BRANCH  19  22
HETATM   22  C2  UNL     1      -4.201   0.057   0.282  1.00  0.00     0.229 C 
HETATM   23  C1  UNL     1      -5.307   0.317  -0.708  1.00  0.00     0.034 C 
ENDBRANCH  19  22
ENDBRANCH  18  19
BRANCH  18  24
HETATM   24  C4  UNL     1      -2.270  -1.661   1.173  1.00  0.00     0.293 C 
HETATM   25  O1  UNL     1      -2.797  -2.583   0.450  1.00  0.00    -0.263 OA
BRANCH  24  26
HETATM   26  O2  UNL     1      -2.157  -2.013   2.501  1.00  0.00    -0.325 OA
HETATM   27  C5  UNL     1      -2.580  -3.265   3.012  1.00  0.00     0.213 C 
ENDBRANCH  24  26
ENDBRANCH  18  24
ENDBRANCH   1  18
BRANCH   1  28
HETATM   28  O3  UNL     1       0.244  -0.561   1.334  1.00  0.00    -0.379 OA
ATOM     29  H3  UNL     1       1.149  -0.454   1.067  1.00  0.00     0.211 HD
ENDBRANCH   1  28
BRANCH   2  30
HETATM   30  C8  UNL     1      -0.629   2.170  -0.919  1.00  0.00     0.048 C 
BRANCH  30  31
HETATM   31  C9  UNL     1      -1.010   2.006  -2.351  1.00  0.00     0.078 C 
BRANCH  31  32
HETATM   32  S1  UNL     1      -1.836   3.546  -2.975  1.00  0.00    -0.173 SA
HETATM   33  C10 UNL     1      -3.406   3.681  -2.088  1.00  0.00     0.089 C 
ENDBRANCH  31  32
ENDBRANCH  30  31
ENDBRANCH   2  30
BRANCH  12  34
HETATM   34  O4  UNL     1       2.332  -2.693  -2.343  1.00  0.00    -0.365 OA
ATOM     35  H4  UNL     1       1.455  -3.043  -2.447  1.00  0.00     0.213 HD
ENDBRANCH  12  34
TORSDOF 10
