REMARK  20 active torsions:
REMARK  status: ('A' for Active; 'I' for Inactive)
REMARK    1  A    between atoms: C2_2  and  C3_3 
REMARK    2  A    between atoms: C3_3  and  C4_4 
REMARK    3  A    between atoms: C4_4  and  C5_5 
REMARK    4  A    between atoms: C6_6  and  C7_7 
REMARK    5  A    between atoms: C7_7  and  C8_8 
REMARK    6  A    between atoms: C9_9  and  C10_10 
REMARK    7  A    between atoms: C10_10  and  C11_11 
REMARK    8  A    between atoms: C12_12  and  C13_13 
REMARK    9  A    between atoms: C13_13  and  C14_14 
REMARK   10  A    between atoms: C15_15  and  C16_16 
REMARK   11  A    between atoms: C16_16  and  C17_17 
REMARK   12  A    between atoms: C18_18  and  C19_19 
REMARK   13  A    between atoms: C19_19  and  C20_20 
REMARK   14  A    between atoms: C21_21  and  C22_22 
REMARK   15  A    between atoms: C22_22  and  C23_23 
REMARK   16  A    between atoms: C24_24  and  C25_25 
REMARK   17  A    between atoms: C25_25  and  C26_26 
REMARK   18  A    between atoms: C27_27  and  C28_28 
REMARK   19  A    between atoms: C28_28  and  C29_29 
REMARK   20  A    between atoms: C30_30  and  C31_31 
ROOT
HETATM    1  C31 UNL     1      11.849  -3.195   1.157  1.00  0.00     0.150 C 
HETATM    2  C32 UNL     1      12.088  -2.133   2.136  1.00  0.00     0.062 C 
HETATM    3  N1  UNL     1      12.269  -1.294   2.927  1.00  0.00    -0.197 NA
ENDROOT
BRANCH   1   4
HETATM    4  C30 UNL     1      10.523  -3.061   0.500  1.00  0.00    -0.017 C 
HETATM    5  C29 UNL     1      10.436  -2.909  -0.808  1.00  0.00    -0.026 C 
BRANCH   5   6
HETATM    6  C28 UNL     1       9.088  -2.773  -1.480  1.00  0.00     0.053 C 
BRANCH   6   7
HETATM    7  C27 UNL     1       8.992  -1.494  -2.184  1.00  0.00    -0.027 C 
HETATM    8  C26 UNL     1       8.125  -0.562  -1.954  1.00  0.00    -0.027 C 
BRANCH   8   9
HETATM    9  C25 UNL     1       7.054  -0.633  -0.907  1.00  0.00     0.053 C 
BRANCH   9  10
HETATM   10  C24 UNL     1       7.212   0.472   0.057  1.00  0.00    -0.027 C 
HETATM   11  C23 UNL     1       6.381   1.416   0.340  1.00  0.00    -0.027 C 
BRANCH  11  12
HETATM   12  C22 UNL     1       5.035   1.553  -0.304  1.00  0.00     0.053 C 
BRANCH  12  13
HETATM   13  C21 UNL     1       5.031   2.870  -0.961  1.00  0.00    -0.027 C 
HETATM   14  C20 UNL     1       4.298   3.909  -0.794  1.00  0.00    -0.027 C 
BRANCH  14  15
HETATM   15  C19 UNL     1       3.189   4.273   0.069  1.00  0.00     0.053 C 
BRANCH  15  16
HETATM   16  C18 UNL     1       2.740   3.287   1.031  1.00  0.00    -0.027 C 
HETATM   17  C17 UNL     1       1.578   2.734   1.120  1.00  0.00    -0.027 C 
BRANCH  17  18
HETATM   18  C16 UNL     1       0.437   2.999   0.237  1.00  0.00     0.053 C 
BRANCH  18  19
HETATM   19  C15 UNL     1      -0.702   3.518   1.034  1.00  0.00    -0.027 C 
HETATM   20  C14 UNL     1      -1.861   2.936   1.114  1.00  0.00    -0.027 C 
BRANCH  20  21
HETATM   21  C13 UNL     1      -2.214   1.672   0.422  1.00  0.00     0.053 C 
BRANCH  21  22
HETATM   22  C12 UNL     1      -2.564   0.703   1.485  1.00  0.00    -0.027 C 
HETATM   23  C11 UNL     1      -3.678   0.113   1.620  1.00  0.00    -0.027 C 
BRANCH  23  24
HETATM   24  C10 UNL     1      -4.866   0.255   0.761  1.00  0.00     0.053 C 
BRANCH  24  25
HETATM   25  C9  UNL     1      -5.961   0.761   1.628  1.00  0.00    -0.027 C 
HETATM   26  C8  UNL     1      -7.069   0.150   1.830  1.00  0.00    -0.027 C 
BRANCH  26  27
HETATM   27  C7  UNL     1      -7.480  -1.135   1.266  1.00  0.00     0.053 C 
BRANCH  27  28
HETATM   28  C6  UNL     1      -8.731  -0.917   0.467  1.00  0.00    -0.027 C 
HETATM   29  C5  UNL     1      -8.812  -1.179  -0.819  1.00  0.00    -0.030 C 
BRANCH  29  30
HETATM   30  C4  UNL     1     -10.072  -0.946  -1.563  1.00  0.00     0.027 C 
BRANCH  30  31
HETATM   31  C3  UNL     1     -10.609  -2.218  -2.183  1.00  0.00     0.003 C 
BRANCH  31  32
HETATM   32  C2  UNL     1     -10.900  -3.267  -1.129  1.00  0.00    -0.004 C 
HETATM   33  C1  UNL     1     -11.912  -2.806  -0.133  1.00  0.00     0.005 C 
ENDBRANCH  31  32
ENDBRANCH  30  31
ENDBRANCH  29  30
ENDBRANCH  27  28
ENDBRANCH  26  27
ENDBRANCH  24  25
ENDBRANCH  23  24
ENDBRANCH  21  22
ENDBRANCH  20  21
ENDBRANCH  18  19
ENDBRANCH  17  18
ENDBRANCH  15  16
ENDBRANCH  14  15
ENDBRANCH  12  13
ENDBRANCH  11  12
ENDBRANCH   9  10
ENDBRANCH   8   9
ENDBRANCH   6   7
ENDBRANCH   5   6
ENDBRANCH   1   4
TORSDOF 20
