REMARK  6 active torsions:
REMARK  status: ('A' for Active; 'I' for Inactive)
REMARK       I    between atoms: C1_4  and  N3_6 
REMARK    1  A    between atoms: N3_6  and  C2_8 
REMARK    2  A    between atoms: C5_11  and  C6_12 
REMARK    3  A    between atoms: C6_12  and  N4_13 
REMARK    4  A    between atoms: C9_16  and  N5_17 
REMARK       I    between atoms: N5_17  and  C10_19 
REMARK    5  A    between atoms: C10_19  and  C11_21 
REMARK    6  A    between atoms: C23_33  and  O2_34 
ROOT
HETATM    1  N4  UNL     1       2.049  -0.450   1.211  1.00  0.00    -0.389 N 
HETATM    2  C7  UNL     1       1.886   0.926   0.980  1.00  0.00     0.060 C 
HETATM    3  C8  UNL     1       0.468   1.391   0.812  1.00  0.00     0.069 C 
HETATM    4  C9  UNL     1      -0.476   0.863   1.857  1.00  0.00     0.090 C 
HETATM    5  C21 UNL     1       0.113  -0.203   2.713  1.00  0.00     0.045 C 
HETATM    6  C22 UNL     1       1.070  -1.111   1.996  1.00  0.00     0.124 C 
ENDROOT
BRANCH   1   7
HETATM    7  C6  UNL     1       2.472  -1.229   0.087  1.00  0.00     0.163 C 
BRANCH   7   8
HETATM    8  C5  UNL     1       3.843  -0.946  -0.363  1.00  0.00    -0.007 A 
HETATM    9  C4  UNL     1       4.706  -0.075   0.250  1.00  0.00     0.014 A 
HETATM   10  C3  UNL     1       5.992   0.149  -0.183  1.00  0.00     0.030 A 
HETATM   11  C2  UNL     1       6.490  -0.510  -1.284  1.00  0.00     0.037 A 
HETATM   12  C24 UNL     1       5.649  -1.402  -1.934  1.00  0.00     0.066 A 
HETATM   13  C23 UNL     1       4.372  -1.607  -1.481  1.00  0.00     0.075 A 
BRANCH  11  14
HETATM   14  N3  UNL     1       7.813  -0.302  -1.754  1.00  0.00    -0.331 N 
HETATM   15  C1  UNL     1       8.671   0.595  -1.076  1.00  0.00     0.186 C 
HETATM   16  N1  UNL     1       9.247   0.191   0.005  1.00  0.00    -0.373 N 
HETATM   17  N2  UNL     1       8.891   1.907  -1.576  1.00  0.00    -0.064 NA
ATOM     18  H12 UNL     1       9.866   0.838   0.494  1.00  0.00     0.158 HD
ATOM     19  H11 UNL     1       9.089  -0.751   0.364  1.00  0.00     0.158 HD
ATOM     20  H3  UNL     1       8.145  -0.799  -2.580  1.00  0.00     0.168 HD
ENDBRANCH  11  14
BRANCH  13  21
HETATM   21  O2  UNL     1       3.512  -2.505  -2.129  1.00  0.00    -0.360 OA
ATOM     22  H2  UNL     1       3.870  -2.953  -2.886  1.00  0.00     0.217 HD
ENDBRANCH  13  21
ENDBRANCH   7   8
ENDBRANCH   1   7
BRANCH   4  23
HETATM   23  N5  UNL     1      -1.669   0.434   1.150  1.00  0.00    -0.355 N 
HETATM   24  C10 UNL     1      -2.927   1.083   1.243  1.00  0.00     0.226 C 
HETATM   25  O1  UNL     1      -3.123   2.097   1.950  1.00  0.00    -0.273 OA
ATOM     26  H5  UNL     1      -1.598  -0.386   0.548  1.00  0.00     0.162 HD
BRANCH  24  27
HETATM   27  C11 UNL     1      -4.073   0.546   0.472  1.00  0.00     0.042 C 
HETATM   28  C12 UNL     1      -5.246   1.484   0.627  1.00  0.00     0.024 C 
HETATM   29  C13 UNL     1      -6.408   1.049  -0.208  1.00  0.00    -0.013 C 
HETATM   30  C14 UNL     1      -6.893  -0.288   0.347  1.00  0.00     0.009 C 
HETATM   31  C18 UNL     1      -5.990   0.842  -1.647  1.00  0.00     0.009 C 
HETATM   32  C15 UNL     1      -5.744  -1.258   0.341  1.00  0.00    -0.013 C 
HETATM   33  C16 UNL     1      -5.350  -1.528  -1.108  1.00  0.00     0.009 C 
HETATM   34  C20 UNL     1      -4.526  -0.782   1.063  1.00  0.00     0.024 C 
HETATM   35  C17 UNL     1      -4.932  -0.209  -1.702  1.00  0.00    -0.013 C 
HETATM   36  C19 UNL     1      -3.708   0.282  -0.965  1.00  0.00     0.024 C 
ENDBRANCH  24  27
ENDBRANCH   4  23
TORSDOF 6
