REMARK  5 active torsions:
REMARK  status: ('A' for Active; 'I' for Inactive)
REMARK    1  A    between atoms: C5_7  and  C6_8 
REMARK    2  A    between atoms: C9_11  and  C10_12 
REMARK    3  A    between atoms: C10_12  and  C11_13 
REMARK    4  A    between atoms: C12_14  and  C13_15 
REMARK       I    between atoms: C13_15  and  N2_17 
REMARK    5  A    between atoms: N2_17  and  C14_19 
ROOT
HETATM    1  C11 UNL     1       0.319  -1.253   0.924  1.00  0.00     0.041 A 
HETATM    2  C12 UNL     1       1.703  -1.519   0.996  1.00  0.00     0.118 A 
HETATM    3  N3  UNL     1       2.164  -2.526   1.804  1.00  0.00    -0.303 N 
ATOM      4  H3  UNL     1       3.163  -2.725   1.860  1.00  0.00     0.171 HD
HETATM    5  C19 UNL     1       1.288  -3.249   2.522  1.00  0.00     0.326 A 
HETATM    6  O2  UNL     1       1.729  -4.165   3.253  1.00  0.00    -0.247 OA
HETATM    7  N4  UNL     1      -0.025  -3.009   2.469  1.00  0.00    -0.294 N 
ATOM      8  H4  UNL     1      -0.664  -3.575   3.028  1.00  0.00     0.172 HD
HETATM    9  C20 UNL     1      -0.523  -2.015   1.675  1.00  0.00     0.115 A 
HETATM   10  N5  UNL     1      -1.786  -1.818   1.677  1.00  0.00    -0.385 N 
ATOM     11  H51 UNL     1      -2.417  -2.389   2.240  1.00  0.00     0.157 HD
ATOM     12  H52 UNL     1      -2.158  -1.076   1.084  1.00  0.00     0.157 HD
ENDROOT
BRANCH   1  13
HETATM   13  C10 UNL     1      -0.111  -0.193   0.052  1.00  0.00     0.032 C 
BRANCH  13  14
HETATM   14  C9  UNL     1      -1.500  -0.027  -0.370  1.00  0.00     0.000 A 
HETATM   15  C5  UNL     1      -2.249  -0.596  -1.375  1.00  0.00     0.024 A 
HETATM   16  N1  UNL     1      -3.485  -0.049  -1.354  1.00  0.00    -0.358 N 
HETATM   17  C4  UNL     1      -3.592   0.859  -0.383  1.00  0.00     0.044 A 
ATOM     18  H1  UNL     1      -4.237  -0.298  -1.996  1.00  0.00     0.166 HD
HETATM   19  C3  UNL     1      -4.609   1.690   0.040  1.00  0.00     0.037 A 
HETATM   20  C21 UNL     1      -2.369   0.891   0.243  1.00  0.00     0.003 A 
HETATM   21  C2  UNL     1      -4.419   2.569   1.097  1.00  0.00    -0.054 A 
HETATM   22  C1  UNL     1      -5.488   3.491   1.587  1.00  0.00     0.049 C 
HETATM   23  C23 UNL     1      -3.202   2.623   1.743  1.00  0.00    -0.055 A 
HETATM   24  C22 UNL     1      -2.207   1.781   1.298  1.00  0.00     0.022 A 
HETATM   25  C24 UNL     1      -2.939   3.553   2.895  1.00  0.00     0.049 C 
BRANCH  15  26
HETATM   26  C6  UNL     1      -1.840  -1.612  -2.365  1.00  0.00     0.028 C 
HETATM   27  C7  UNL     1      -2.718  -1.625  -3.610  1.00  0.00     0.016 C 
HETATM   28  C8  UNL     1      -1.932  -2.998  -1.716  1.00  0.00     0.016 C 
ENDBRANCH  15  26
ENDBRANCH  13  14
ENDBRANCH   1  13
BRANCH   2  29
HETATM   29  C13 UNL     1       2.641  -0.683   0.281  1.00  0.00     0.269 C 
HETATM   30  O1  UNL     1       2.406   0.376  -0.342  1.00  0.00    -0.266 OA
HETATM   31  N2  UNL     1       4.025  -1.033   0.228  1.00  0.00    -0.351 N 
ATOM     32  H2  UNL     1       4.310  -1.889   0.704  1.00  0.00     0.163 HD
BRANCH  31  33
HETATM   33  C14 UNL     1       5.055  -0.273  -0.445  1.00  0.00     0.084 C 
HETATM   34  C15 UNL     1       4.907  -0.239  -1.941  1.00  0.00     0.025 C 
HETATM   35  C16 UNL     1       5.382   1.117  -2.367  1.00  0.00     0.002 C 
HETATM   36  C17 UNL     1       6.009   1.753  -1.164  1.00  0.00     0.002 C 
HETATM   37  C18 UNL     1       5.203   1.139  -0.039  1.00  0.00     0.025 C 
ENDBRANCH  31  33
ENDBRANCH   2  29
TORSDOF 5
