REMARK  4 active torsions:
REMARK  status: ('A' for Active; 'I' for Inactive)
REMARK    1  A    between atoms: C2_4  and  C3_5 
REMARK    2  A    between atoms: C3_5  and  N1_6 
REMARK    3  A    between atoms: C5_8  and  O2_9 
REMARK    4  A    between atoms: C6_11  and  O3_12 
ROOT
HETATM    1  O1  UNL     1       4.713  -0.625   0.969  1.00  0.00    -0.314 OA
ATOM      2  H1  UNL     1       5.506  -0.883   1.424  1.00  0.00     0.230 HD
HETATM    3  C1  UNL     1       3.556  -0.236   0.316  1.00  0.00     0.053 C 
HETATM    4  C2  UNL     1       2.544   0.093  -0.265  1.00  0.00    -0.046 C 
ENDROOT
BRANCH   4   5
HETATM    5  C3  UNL     1       1.345   0.481  -0.969  1.00  0.00     0.368 C 
BRANCH   5   6
HETATM    6  N1  UNL     1       0.305   0.679   0.012  1.00  0.00     0.104 N 
HETATM    7  C4  UNL     1      -0.108  -0.541   0.641  1.00  0.00     0.307 C 
HETATM    8  C5  UNL     1      -1.545  -0.299   0.973  1.00  0.00     0.176 C 
HETATM    9  C6  UNL     1      -2.064   0.474  -0.230  1.00  0.00     0.176 C 
HETATM   10  C7  UNL     1      -0.852   1.217  -0.700  1.00  0.00     0.307 C 
BRANCH   8  11
HETATM   11  O2  UNL     1      -2.271  -1.464   1.209  1.00  0.00    -0.391 OA
ATOM     12  H2  UNL     1      -3.184  -1.310   1.420  1.00  0.00     0.210 HD
ENDBRANCH   8  11
BRANCH   9  13
HETATM   13  O3  UNL     1      -2.424  -0.474  -1.204  1.00  0.00    -0.391 OA
ATOM     14  H3  UNL     1      -2.748   0.009  -1.955  1.00  0.00     0.210 HD
ENDBRANCH   9  13
ENDBRANCH   5   6
ENDBRANCH   4   5
TORSDOF 4
