REMARK  2 active torsions:
REMARK  status: ('A' for Active; 'I' for Inactive)
REMARK       I    between atoms: C2_4  and  N3_6 
REMARK    1  A    between atoms: N3_6  and  C3_8 
REMARK    2  A    between atoms: C3_8  and  C4_9 
ROOT
HETATM    1  C4  UNL     1       0.585  -0.271   0.430  1.00  0.00     0.058 C 
HETATM    2  C5  UNL     1       0.485   0.742  -0.646  1.00  0.00     0.013 C 
HETATM    3  C6  UNL     1      -0.299   1.985  -0.195  1.00  0.00     0.001 C 
HETATM    4  C7  UNL     1      -1.746   1.880  -0.710  1.00  0.00     0.000 C 
HETATM    5  C8  UNL     1      -2.685   1.572   0.386  1.00  0.00     0.000 C 
HETATM    6  C9  UNL     1      -3.712   0.546   0.199  1.00  0.00     0.000 C 
HETATM    7  C10 UNL     1      -3.392  -0.693  -0.559  1.00  0.00     0.000 C 
HETATM    8  C11 UNL     1      -3.139  -1.917   0.241  1.00  0.00     0.000 C 
HETATM    9  C12 UNL     1      -1.735  -2.259   0.572  1.00  0.00     0.003 C 
HETATM   10  C13 UNL     1      -0.737  -2.185  -0.509  1.00  0.00     0.038 C 
HETATM   11  C14 UNL     1       0.632  -1.695  -0.086  1.00  0.00     0.179 C 
HETATM   12  F1  UNL     1       1.379  -1.680  -1.251  1.00  0.00    -0.249 F 
ENDROOT
BRANCH   1  13
HETATM   13  C3  UNL     1       1.645  -0.066   1.462  1.00  0.00     0.071 C 
BRANCH  13  14
HETATM   14  N3  UNL     1       2.998  -0.007   1.078  1.00  0.00    -0.344 N 
HETATM   15  C2  UNL     1       3.641   1.026   0.391  1.00  0.00     0.187 C 
HETATM   16  N1  UNL     1       4.491   0.935  -0.552  1.00  0.00    -0.369 N 
HETATM   17  N2  UNL     1       3.325   2.380   0.796  1.00  0.00    -0.064 NA
HETATM   18  C1  UNL     1       4.915  -0.328  -1.070  1.00  0.00     0.148 C 
ATOM     19  H1  UNL     1       4.881   1.789  -0.950  1.00  0.00     0.161 HD
ATOM     20  H3  UNL     1       3.575  -0.810   1.330  1.00  0.00     0.167 HD
ENDBRANCH  13  14
ENDBRANCH   1  13
TORSDOF 2
