REMARK  3 active torsions:
REMARK  status: ('A' for Active; 'I' for Inactive)
REMARK    1  A    between atoms: C6_6  and  C7_7 
REMARK    2  A    between atoms: C9_11  and  N2_12 
REMARK    3  A    between atoms: N2_12  and  N3_14 
ROOT
HETATM    1  C7  UNL     1      -0.900  -0.413   1.359  1.00  0.00     0.045 C 
HETATM    2  C8  UNL     1       0.359  -0.547   0.693  1.00  0.00     0.061 A 
HETATM    3  N1  UNL     1       1.228   0.526   0.746  1.00  0.00    -0.190 N 
ATOM      4  H1  UNL     1       0.917   1.371   1.225  1.00  0.00     0.184 HD
HETATM    5  C9  UNL     1       2.451   0.525   0.208  1.00  0.00     0.700 A 
HETATM    6  N4  UNL     1       2.914  -0.571  -0.440  1.00  0.00    -0.154 N 
ATOM      7  H4  UNL     1       3.846  -0.583  -0.855  1.00  0.00     0.187 HD
HETATM    8  C12 UNL     1       2.110  -1.638  -0.518  1.00  0.00     0.267 A 
HETATM    9  O1  UNL     1       2.508  -2.665  -1.109  1.00  0.00    -0.267 OA
HETATM   10  C13 UNL     1       0.815  -1.652   0.046  1.00  0.00     0.034 A 
HETATM   11  C14 UNL     1      -0.025  -2.828  -0.067  1.00  0.00     0.056 C 
ENDROOT
BRANCH   1  12
HETATM   12  C6  UNL     1      -2.180  -0.363   0.742  1.00  0.00     0.011 A 
HETATM   13  C4  UNL     1      -2.571   0.675  -0.062  1.00  0.00    -0.048 A 
HETATM   14  C3  UNL     1      -3.828   0.764  -0.640  1.00  0.00     0.014 A 
HETATM   15  C5  UNL     1      -1.654   1.830  -0.374  1.00  0.00     0.049 C 
HETATM   16  C2  UNL     1      -4.741  -0.220  -0.413  1.00  0.00    -0.059 A 
HETATM   17  C1  UNL     1      -6.117  -0.119  -1.049  1.00  0.00     0.048 C 
HETATM   18  C16 UNL     1      -4.415  -1.278   0.378  1.00  0.00     0.049 A 
HETATM   19  C15 UNL     1      -3.154  -1.324   0.933  1.00  0.00     0.127 A 
HETATM   20  F1  UNL     1      -2.941  -2.392   1.757  1.00  0.00    -0.205 F 
ENDBRANCH   1  12
BRANCH   5  21
HETATM   21  N2  UNL     1       3.244   1.538   0.269  1.00  0.00    -0.135 N 
ATOM     22  H2  UNL     1       2.908   2.370   0.754  1.00  0.00     0.205 HD
BRANCH  21  23
HETATM   23  N3  UNL     1       4.507   1.585  -0.268  1.00  0.00    -0.322 N 
HETATM   24  C10 UNL     1       5.594   0.919   0.449  1.00  0.00     0.171 C 
HETATM   25  C11 UNL     1       4.854   2.253  -1.509  1.00  0.00     0.171 C 
ENDBRANCH  21  23
ENDBRANCH   5  21
TORSDOF 3
