REMARK  2 active torsions:
REMARK  status: ('A' for Active; 'I' for Inactive)
REMARK    1  A    between atoms: N3_6  and  N4_8 
REMARK    2  A    between atoms: N5_10  and  C3_12 
ROOT
HETATM    1  C1  UNL     1      -2.969   0.190  -1.881  1.00  0.00     0.169 C 
HETATM    2  N1  UNL     1      -2.160   0.094  -0.886  1.00  0.00    -0.093 N 
HETATM    3  N2  UNL     1      -1.305  -1.006  -0.735  1.00  0.00    -0.109 N 
ATOM      4  H2  UNL     1      -1.330  -1.746  -1.436  1.00  0.00     0.207 HD
HETATM    5  C2  UNL     1      -0.403  -1.131   0.358  1.00  0.00     0.728 A 
HETATM    6  N3  UNL     1       0.377  -2.143   0.487  1.00  0.00    -0.114 N 
ATOM      7  H3  UNL     1       0.346  -2.878  -0.219  1.00  0.00     0.207 HD
HETATM    8  N10 UNL     1      -0.343  -0.117   1.354  1.00  0.00    -0.115 N 
ATOM      9  H10 UNL     1       0.296  -0.187   2.146  1.00  0.00     0.206 HD
HETATM   10  N11 UNL     1      -1.199   0.983   1.202  1.00  0.00    -0.116 N 
ATOM     11  H11 UNL     1      -1.174   1.723   1.903  1.00  0.00     0.206 HD
HETATM   12  C4  UNL     1      -2.104   1.109   0.105  1.00  0.00     0.711 A 
HETATM   13  N12 UNL     1      -2.889   2.127  -0.026  1.00  0.00    -0.232 N 
ATOM     14 1H12 UNL     1      -2.849   2.856   0.686  1.00  0.00     0.174 HD
ATOM     15 2H12 UNL     1      -3.536   2.217  -0.810  1.00  0.00     0.174 HD
ENDROOT
BRANCH   6  16
HETATM   16  N4  UNL     1       1.262  -2.276   1.551  1.00  0.00    -0.214 N 
HETATM   17  N5  UNL     1       2.402  -1.725   1.607  1.00  0.00    -0.114 N 
ATOM     18  H5  UNL     1       2.985  -1.879   2.430  1.00  0.00     0.207 HD
ATOM     19  H4  UNL     1       0.975  -2.856   2.339  1.00  0.00     0.209 HD
BRANCH  17  20
HETATM   20  C3  UNL     1       2.896  -0.898   0.559  1.00  0.00     0.729 A 
HETATM   21  N6  UNL     1       2.795  -1.053  -0.773  1.00  0.00    -0.114 N 
HETATM   22  N7  UNL     1       3.408  -0.034  -1.356  1.00  0.00    -0.213 N 
ATOM     23  H6  UNL     1       2.327  -1.823  -1.252  1.00  0.00     0.207 HD
HETATM   24  N8  UNL     1       3.901   0.773  -0.455  1.00  0.00    -0.213 N 
ATOM     25  H7  UNL     1       3.484   0.101  -2.364  1.00  0.00     0.210 HD
HETATM   26  N9  UNL     1       3.596   0.258   0.725  1.00  0.00    -0.114 N 
ATOM     27  H8  UNL     1       4.421   1.634  -0.628  1.00  0.00     0.210 HD
ATOM     28  H9  UNL     1       3.848   0.666   1.625  1.00  0.00     0.207 HD
ENDBRANCH  17  20
ENDBRANCH   6  16
TORSDOF 2
