REMARK  8 active torsions:
REMARK  status: ('A' for Active; 'I' for Inactive)
REMARK    1  A    between atoms: O1_2  and  C2_3 
REMARK    2  A    between atoms: C2_3  and  C3_4 
REMARK    3  A    between atoms: C3_4  and  O2_5 
REMARK    4  A    between atoms: C3_4  and  C4_7 
REMARK    5  A    between atoms: C4_7  and  C5_8 
REMARK    6  A    between atoms: C5_8  and  C6_9 
REMARK    7  A    between atoms: C6_9  and  C7_10 
REMARK    8  A    between atoms: C13_18  and  C15_20 
ROOT
HETATM    1  C7  UNL     1       2.040   0.659  -0.636  1.00  0.00    -0.044 C 
HETATM    2  C8  UNL     1       2.254   1.807  -1.631  1.00  0.00     0.015 C 
HETATM    3  C9  UNL     1       1.390  -0.525  -1.265  1.00  0.00     0.010 C 
HETATM    4  C10 UNL     1       0.023  -0.834  -0.663  1.00  0.00     0.011 C 
HETATM    5  C11 UNL     1      -0.851   0.375  -0.925  1.00  0.00     0.036 C 
HETATM    6  C12 UNL     1      -2.246   0.163  -0.480  1.00  0.00    -0.003 C 
HETATM    7  N1  UNL     1      -2.640  -0.976  -0.147  1.00  0.00    -0.377 N 
ATOM      8  H1  UNL     1      -1.962  -1.737  -0.198  1.00  0.00     0.160 HD
HETATM    9  C13 UNL     1      -3.957  -1.304   0.298  1.00  0.00     0.119 C 
HETATM   10  C14 UNL     1      -4.809  -1.827  -0.866  1.00  0.00     0.051 C 
HETATM   11  C16 UNL     1      -4.620  -0.170   1.014  1.00  0.00     0.037 C 
HETATM   12  C17 UNL     1      -6.131  -0.338   0.951  1.00  0.00     0.016 C 
HETATM   13  C18 UNL     1      -6.663   0.827   0.153  1.00  0.00     0.079 C 
HETATM   14  C19 UNL     1      -5.554   1.759  -0.054  1.00  0.00     0.132 C 
HETATM   15  O5  UNL     1      -5.608   2.832  -0.608  1.00  0.00    -0.298 OA
HETATM   16  C20 UNL     1      -4.299   1.192   0.527  1.00  0.00     0.076 C 
HETATM   17  C21 UNL     1      -3.167   1.318  -0.437  1.00  0.00     0.005 C 
HETATM   18  C22 UNL     1      -3.623   1.576  -1.856  1.00  0.00     0.022 C 
HETATM   19  C23 UNL     1      -2.364   2.564  -0.033  1.00  0.00     0.016 C 
HETATM   20  C24 UNL     1      -1.133   2.115   0.759  1.00  0.00     0.006 C 
HETATM   21  C25 UNL     1      -0.187   1.553  -0.280  1.00  0.00    -0.004 C 
HETATM   22  C26 UNL     1       1.104   1.203   0.422  1.00  0.00     0.014 C 
ENDROOT
BRANCH   1  23
HETATM   23  C6  UNL     1       3.419   0.367  -0.057  1.00  0.00     0.009 C 
BRANCH  23  24
HETATM   24  C5  UNL     1       3.399  -0.737   0.941  1.00  0.00     0.003 C 
BRANCH  24  25
HETATM   25  C4  UNL     1       4.800  -0.949   1.465  1.00  0.00     0.034 C 
BRANCH  25  26
HETATM   26  C3  UNL     1       5.798  -1.318   0.412  1.00  0.00     0.142 C 
BRANCH  26  27
HETATM   27  C2  UNL     1       7.136  -1.497   1.086  1.00  0.00     0.198 C 
BRANCH  27  28
HETATM   28  O1  UNL     1       8.163  -1.819   0.216  1.00  0.00    -0.393 OA
HETATM   29  C1  UNL     1       8.413  -0.894  -0.766  1.00  0.00     0.201 C 
ENDBRANCH  27  28
ENDBRANCH  26  27
BRANCH  26  30
HETATM   30  O2  UNL     1       5.467  -2.512  -0.228  1.00  0.00    -0.393 OA
ATOM     31  H2  UNL     1       4.625  -2.399  -0.652  1.00  0.00     0.210 HD
ENDBRANCH  26  30
ENDBRANCH  25  26
ENDBRANCH  24  25
ENDBRANCH  23  24
ENDBRANCH   1  23
BRANCH   9  32
HETATM   32  C15 UNL     1      -3.835  -2.454   1.233  1.00  0.00     0.202 C 
HETATM   33  O3  UNL     1      -4.922  -2.892   1.735  1.00  0.00    -0.646 OA
HETATM   34  O4  UNL     1      -2.619  -3.015   1.541  1.00  0.00    -0.646 OA
ENDBRANCH   9  32
TORSDOF 8
