REMARK  2 active torsions:
REMARK  status: ('A' for Active; 'I' for Inactive)
REMARK    1  A    between atoms: C2_3  and  C3_4 
REMARK    2  A    between atoms: C3_4  and  O1_5 
ROOT
HETATM    1  N1  UNL     1      -2.706  -1.346   1.610  1.00  0.00    -0.197 NA
HETATM    2  C1  UNL     1      -2.425  -0.580   0.781  1.00  0.00     0.062 C 
HETATM    3  C2  UNL     1      -2.046   0.394  -0.258  1.00  0.00     0.162 C 
ENDROOT
BRANCH   3   4
HETATM    4  C3  UNL     1      -0.516   0.526  -0.253  1.00  0.00     0.078 C 
HETATM    5  C4  UNL     1       0.073  -0.776  -0.595  1.00  0.00     0.040 C 
HETATM    6  C5  UNL     1       1.407  -1.110  -0.106  1.00  0.00     0.013 C 
HETATM    7  C6  UNL     1       2.355   0.004   0.142  1.00  0.00     0.074 C 
HETATM    8  S1  UNL     1       1.626   1.108   1.386  1.00  0.00    -0.166 SA
HETATM    9  C7  UNL     1      -0.160   1.097   1.080  1.00  0.00     0.112 C 
BRANCH   4  10
HETATM   10  O1  UNL     1      -0.194   1.452  -1.244  1.00  0.00    -0.388 OA
ATOM     11  H1  UNL     1       0.752   1.534  -1.241  1.00  0.00     0.210 HD
ENDBRANCH   4  10
ENDBRANCH   3   4
TORSDOF 2
