REMARK  2 active torsions:
REMARK  status: ('A' for Active; 'I' for Inactive)
REMARK    1  A    between atoms: N1_1  and  C1_4 
REMARK    2  A    between atoms: C7_10  and  N2_11 
ROOT
HETATM    1  C1  UNL     1      -1.081  -0.447  -0.132  1.00  0.00     0.030 C 
HETATM    2  C2  UNL     1      -0.588   0.184  -1.458  1.00  0.00     0.038 C 
HETATM    3  C3  UNL     1       0.621   0.861  -0.774  1.00  0.00     0.023 C 
HETATM    4  C4  UNL     1      -0.264   1.746   0.133  1.00  0.00     0.014 C 
HETATM    5  C5  UNL     1      -0.781   0.537   0.944  1.00  0.00     0.016 C 
HETATM    6  C6  UNL     1       0.620   0.168   1.482  1.00  0.00     0.045 C 
HETATM    7  C7  UNL     1       1.135  -0.238   0.085  1.00  0.00     0.103 C 
HETATM    8  C8  UNL     1       0.129  -1.408  -0.041  1.00  0.00     0.068 C 
ENDROOT
BRANCH   1   9
HETATM    9  N1  UNL     1      -2.313  -1.048  -0.184  1.00  0.00    -0.421 N 
ATOM     10  H12 UNL     1      -2.856  -1.069  -1.047  1.00  0.00     0.150 HD
ATOM     11  H11 UNL     1      -2.638  -1.463   0.689  1.00  0.00     0.150 HD
ENDBRANCH   1   9
BRANCH   7  12
HETATM   12  N2  UNL     1       2.461  -0.588   0.032  1.00  0.00    -0.145 N 
HETATM   13  O1  UNL     1       3.227  -0.533   1.031  1.00  0.00    -0.536 OA
HETATM   14  O2  UNL     1       3.027  -1.025  -1.136  1.00  0.00    -0.536 OA
ENDBRANCH   7  12
TORSDOF 2
