REMARK  8 active torsions:
REMARK  status: ('A' for Active; 'I' for Inactive)
REMARK    1  A    between atoms: N1_2  and  C2_3 
REMARK    2  A    between atoms: N1_2  and  O2_8 
REMARK    3  A    between atoms: C2_3  and  O1_4 
REMARK    4  A    between atoms: O1_4  and  N2_5 
REMARK    5  A    between atoms: O2_8  and  N3_9 
REMARK    6  A    between atoms: N3_9  and  N4_11 
REMARK    7  A    between atoms: N4_11  and  C3_13 
REMARK    8  A    between atoms: C4_16  and  N6_17 
ROOT
HETATM    1  C3  UNL     1      -1.367   0.318   0.180  1.00  0.00     0.164 A 
HETATM    2  N5  UNL     1      -1.573   1.588  -0.177  1.00  0.00    -0.173 N 
ATOM      3  H5  UNL     1      -0.776   2.215  -0.288  1.00  0.00     0.186 HD
HETATM    4  C4  UNL     1      -2.817   2.053  -0.393  1.00  0.00     0.678 A 
HETATM    5  N7  UNL     1      -3.873   1.227  -0.249  1.00  0.00    -0.177 N 
ATOM      6  H7  UNL     1      -4.813   1.587  -0.415  1.00  0.00     0.185 HD
HETATM    7  C5  UNL     1      -3.718  -0.057   0.107  1.00  0.00     0.160 A 
HETATM    8  N8  UNL     1      -4.799  -0.963   0.271  1.00  0.00    -0.080 NA
HETATM    9  C6  UNL     1      -2.441  -0.529   0.328  1.00  0.00     0.133 A 
HETATM   10  N9  UNL     1      -2.206  -1.894   0.712  1.00  0.00    -0.095 NA
ENDROOT
BRANCH   1  11
HETATM   11  N4  UNL     1      -0.175  -0.164   0.397  1.00  0.00    -0.262 N 
ATOM     12  H4  UNL     1      -0.078  -1.143   0.667  1.00  0.00     0.190 HD
BRANCH  11  13
HETATM   13  N3  UNL     1       0.971   0.622   0.270  1.00  0.00    -0.186 N 
ATOM     14  H3  UNL     1       1.090   1.455   0.846  1.00  0.00     0.218 HD
BRANCH  13  15
HETATM   15  O2  UNL     1       1.925   0.269  -0.626  1.00  0.00    -0.165 OA
BRANCH  15  16
HETATM   16  N1  UNL     1       2.829  -0.481  -0.003  1.00  0.00    -0.148 NA
HETATM   17  C1  UNL     1       2.387  -1.819   0.287  1.00  0.00     0.149 C 
BRANCH  16  18
HETATM   18  C2  UNL     1       4.092  -0.578  -0.703  1.00  0.00     0.323 C 
BRANCH  18  19
HETATM   19  O1  UNL     1       4.619   0.648  -1.037  1.00  0.00    -0.271 OA
BRANCH  19  20
HETATM   20  N2  UNL     1       4.825   1.366   0.090  1.00  0.00    -0.310 N 
ATOM     21  H22 UNL     1       4.617   1.036   1.033  1.00  0.00     0.184 HD
ATOM     22  H21 UNL     1       5.216   2.275  -0.158  1.00  0.00     0.184 HD
ENDBRANCH  19  20
ENDBRANCH  18  19
ENDBRANCH  16  18
ENDBRANCH  15  16
ENDBRANCH  13  15
ENDBRANCH  11  13
ENDBRANCH   1  11
BRANCH   4  23
HETATM   23  N6  UNL     1      -3.050   3.287  -0.742  1.00  0.00    -0.234 N 
ATOM     24  H62 UNL     1      -2.251   3.912  -0.851  1.00  0.00     0.174 HD
ATOM     25  H61 UNL     1      -3.993   3.640  -0.906  1.00  0.00     0.174 HD
ENDBRANCH   4  23
TORSDOF 8
