REMARK  8 active torsions:
REMARK  status: ('A' for Active; 'I' for Inactive)
REMARK    1  A    between atoms: N1_1  and  C1_4 
REMARK    2  A    between atoms: C3_10  and  C4_11 
REMARK    3  A    between atoms: C4_11  and  N4_12 
REMARK    4  A    between atoms: N4_12  and  C5_14 
REMARK    5  A    between atoms: C5_14  and  C6_15 
REMARK    6  A    between atoms: C6_15  and  O1_16 
REMARK    7  A    between atoms: O1_16  and  N5_17 
REMARK    8  A    between atoms: C7_22  and  N7_23 
ROOT
HETATM    1  C1  UNL     1      -4.848   0.531  -0.537  1.00  0.00     0.706 A 
HETATM    2  N2  UNL     1      -3.839   1.415  -0.442  1.00  0.00    -0.019 N 
ATOM      3  H2  UNL     1      -3.928   2.419  -0.601  1.00  0.00     0.203 HD
HETATM    4  C2  UNL     1      -2.677   0.780  -0.102  1.00  0.00     0.735 A 
HETATM    5  N3  UNL     1      -1.419   1.236   0.105  1.00  0.00    -0.175 N 
ATOM      6  H3  UNL     1      -1.195   2.227   0.015  1.00  0.00     0.185 HD
HETATM    7  C3  UNL     1      -0.480   0.341   0.431  1.00  0.00     0.130 A 
HETATM    8  N6  UNL     1      -0.774  -0.941   0.545  1.00  0.00    -0.176 N 
ATOM      9  H6  UNL     1      -0.038  -1.602   0.795  1.00  0.00     0.185 HD
HETATM   10  C7  UNL     1      -2.024  -1.395   0.339  1.00  0.00     0.714 A 
HETATM   11  N8  UNL     1      -3.011  -0.516   0.006  1.00  0.00     0.105 N 
HETATM   12  N9  UNL     1      -4.313  -0.666  -0.255  1.00  0.00    -0.096 N 
ATOM     13  H9  UNL     1      -4.820  -1.551  -0.242  1.00  0.00     0.207 HD
ENDROOT
BRANCH   7  14
HETATM   14  C4  UNL     1       0.927   0.835   0.665  1.00  0.00     0.191 C 
BRANCH  14  15
HETATM   15  N4  UNL     1       1.474   1.053  -0.643  1.00  0.00    -0.412 N 
ATOM     16  H4  UNL     1       0.915   0.878  -1.478  1.00  0.00     0.153 HD
BRANCH  15  17
HETATM   17  C5  UNL     1       2.804   1.515  -0.747  1.00  0.00     0.143 C 
BRANCH  17  18
HETATM   18  C6  UNL     1       3.854   0.520  -0.355  1.00  0.00     0.219 C 
BRANCH  18  19
HETATM   19  O1  UNL     1       3.735   0.113   0.939  1.00  0.00    -0.286 OA
BRANCH  19  20
HETATM   20  N5  UNL     1       4.690  -0.798   1.220  1.00  0.00    -0.311 N 
ATOM     21  H52 UNL     1       5.389  -1.123   0.552  1.00  0.00     0.184 HD
ATOM     22  H51 UNL     1       4.601  -1.103   2.189  1.00  0.00     0.184 HD
ENDBRANCH  19  20
ENDBRANCH  18  19
ENDBRANCH  17  18
ENDBRANCH  15  17
ENDBRANCH  14  15
ENDBRANCH   7  14
BRANCH  10  23
HETATM   23  N7  UNL     1      -2.362  -2.622   0.439  1.00  0.00    -0.232 N 
ATOM     24  H72 UNL     1      -1.623  -3.280   0.688  1.00  0.00     0.174 HD
ATOM     25  H71 UNL     1      -3.309  -2.966   0.283  1.00  0.00     0.174 HD
ENDBRANCH  10  23
BRANCH   1  26
HETATM   26  N1  UNL     1      -6.088   0.796  -0.849  1.00  0.00    -0.233 N 
ATOM     27  H12 UNL     1      -6.495   1.706  -1.063  1.00  0.00     0.174 HD
ATOM     28  H11 UNL     1      -6.853   0.126  -0.921  1.00  0.00     0.174 HD
ENDBRANCH   1  26
TORSDOF 8
