REMARK  2 active torsions:
REMARK  status: ('A' for Active; 'I' for Inactive)
REMARK    1  A    between atoms: C4_8  and  C5_9 
REMARK    2  A    between atoms: C12_23  and  C13_24 
ROOT
HETATM    1  C5  UNL     1       0.023  -1.724   0.894  1.00  0.00     0.139 A 
HETATM    2  C6  UNL     1       0.295  -3.062   0.368  1.00  0.00     0.090 A 
HETATM    3  N3  UNL     1       1.402  -3.699   0.717  1.00  0.00    -0.388 N 
ATOM      4  H31 UNL     1       1.592  -4.632   0.350  1.00  0.00     0.157 HD
ATOM      5  H32 UNL     1       2.060  -3.248   1.353  1.00  0.00     0.157 HD
HETATM    6  N4  UNL     1      -0.615  -3.686  -0.512  1.00  0.00    -0.344 N 
ATOM      7  H4  UNL     1      -0.413  -4.619  -0.871  1.00  0.00     0.167 HD
HETATM    8  C7  UNL     1      -1.700  -3.084  -0.865  1.00  0.00     0.061 A 
HETATM    9  C8  UNL     1      -2.605  -3.684  -1.730  1.00  0.00     0.033 A 
HETATM   10  C9  UNL     1      -3.767  -3.056  -2.117  1.00  0.00     0.019 A 
HETATM   11  C10 UNL     1      -4.053  -1.796  -1.640  1.00  0.00     0.088 A 
HETATM   12  N5  UNL     1      -3.171  -1.237  -0.810  1.00  0.00    -0.364 N 
ATOM     13  H5  UNL     1      -3.379  -0.304  -0.454  1.00  0.00     0.165 HD
HETATM   14  C11 UNL     1      -2.009  -1.827  -0.404  1.00  0.00     0.067 A 
HETATM   15  C12 UNL     1      -1.223  -1.161   0.422  1.00  0.00    -0.002 A 
ENDROOT
BRANCH   1  16
HETATM   16  C4  UNL     1       1.183  -0.807   0.756  1.00  0.00     0.026 A 
HETATM   17  N2  UNL     1       1.625  -0.408  -0.443  1.00  0.00    -0.343 N 
HETATM   18  C3  UNL     1       2.677   0.426  -0.607  1.00  0.00     0.134 A 
ATOM     19  H2  UNL     1       1.144  -0.750  -1.275  1.00  0.00     0.167 HD
HETATM   20  N1  UNL     1       3.299   0.961  -1.684  1.00  0.00    -0.331 N 
HETATM   21  C21 UNL     1       3.347   0.904   0.500  1.00  0.00     0.078 A 
HETATM   22  C2  UNL     1       4.309   1.738  -1.309  1.00  0.00     0.079 A 
ATOM     23  H1  UNL     1       3.029   0.790  -2.653  1.00  0.00     0.168 HD
HETATM   24  C1  UNL     1       5.271   2.529  -2.120  1.00  0.00     0.089 C 
HETATM   25  N7  UNL     1       4.346   1.708   0.043  1.00  0.00    -0.343 N 
ATOM     26  H7  UNL     1       5.016   2.208   0.627  1.00  0.00     0.167 HD
HETATM   27  C20 UNL     1       2.922   0.516   1.753  1.00  0.00     0.035 A 
HETATM   28  C19 UNL     1       1.847  -0.333   1.865  1.00  0.00     0.028 A 
ENDBRANCH   1  16
BRANCH  15  29
HETATM   29  C13 UNL     1      -1.693   0.172   0.825  1.00  0.00    -0.025 A 
HETATM   30  C14 UNL     1      -1.940   0.408   2.145  1.00  0.00     0.012 A 
HETATM   31  C15 UNL     1      -2.392   1.676   2.568  1.00  0.00     0.003 A 
HETATM   32  C16 UNL     1      -2.576   2.666   1.615  1.00  0.00     0.026 A 
HETATM   33  C17 UNL     1      -2.327   2.433   0.286  1.00  0.00     0.047 A 
HETATM   34  N6  UNL     1      -2.539   3.494  -0.623  1.00  0.00    -0.102 NA
HETATM   35  C18 UNL     1      -1.883   1.167  -0.086  1.00  0.00     0.038 A 
ENDBRANCH  15  29
TORSDOF 2
