REMARK  1 active torsions:
REMARK  status: ('A' for Active; 'I' for Inactive)
REMARK    1  A    between atoms: N1_1  and  N2_4 
ROOT
HETATM    1  N2  UNL     1       3.062   0.213   0.192  1.00  0.00    -0.262 N 
HETATM    2  C1  UNL     1       2.635  -1.019  -0.415  1.00  0.00     0.156 C 
HETATM    3  C2  UNL     1       1.240  -1.409  -0.072  1.00  0.00     0.063 C 
HETATM    4  C3  UNL     1       0.304  -0.282   0.045  1.00  0.00    -0.015 A 
HETATM    5  C4  UNL     1       0.735   1.007   0.227  1.00  0.00     0.110 A 
HETATM    6  N3  UNL     1      -0.325   1.817   0.301  1.00  0.00    -0.346 N 
ATOM      7  H3  UNL     1      -0.306   2.828   0.435  1.00  0.00     0.166 HD
HETATM    8  C5  UNL     1      -1.431   1.045   0.165  1.00  0.00     0.108 A 
HETATM    9  C6  UNL     1      -1.088  -0.275   0.003  1.00  0.00    -0.015 A 
HETATM   10  C7  UNL     1      -2.099  -1.339  -0.157  1.00  0.00     0.061 C 
HETATM   11  C8  UNL     1      -3.364  -0.755  -0.727  1.00  0.00     0.128 C 
HETATM   12  N4  UNL     1      -3.789   0.441  -0.012  1.00  0.00    -0.355 N 
ATOM     13  H4  UNL     1      -4.739   0.527   0.349  1.00  0.00     0.162 HD
HETATM   14  C9  UNL     1      -2.827   1.501   0.170  1.00  0.00     0.268 C 
HETATM   15  O1  UNL     1      -3.159   2.696   0.317  1.00  0.00    -0.266 OA
HETATM   16  C10 UNL     1       2.176   1.326   0.312  1.00  0.00     0.288 C 
HETATM   17  O2  UNL     1       2.583   2.492   0.478  1.00  0.00    -0.264 OA
ENDROOT
BRANCH   1  18
HETATM   18  N1  UNL     1       4.357   0.347   0.677  1.00  0.00    -0.340 N 
ATOM     19  H12 UNL     1       4.990  -0.448   0.591  1.00  0.00     0.177 HD
ATOM     20  H11 UNL     1       4.660   1.221   1.107  1.00  0.00     0.177 HD
ENDBRANCH   1  18
TORSDOF 1
