REMARK  3 active torsions:
REMARK  status: ('A' for Active; 'I' for Inactive)
REMARK    1  A    between atoms: C2_2  and  N1_3 
REMARK    2  A    between atoms: C3_4  and  C5_6 
REMARK       I    between atoms: C5_6  and  N2_8 
REMARK    3  A    between atoms: N2_8  and  N3_10 
ROOT
HETATM    1  N1  UNL     1      -0.991  -0.206  -0.498  1.00  0.00    -0.175 NA
HETATM    2  C3  UNL     1      -0.277   0.446   0.550  1.00  0.00     0.110 C 
HETATM    3  C4  UNL     1      -0.442  -0.186   1.908  1.00  0.00     0.044 C 
HETATM    4  C6  UNL     1       1.179   0.645   0.296  1.00  0.00     0.066 C 
HETATM    5  C7  UNL     1       1.997  -0.542   0.046  1.00  0.00     0.036 C 
HETATM    6  C8  UNL     1       3.183  -0.125  -0.837  1.00  0.00     0.039 C 
HETATM    7  C9  UNL     1       2.622  -1.153   1.294  1.00  0.00     0.039 C 
HETATM    8  N4  UNL     1       1.343  -1.623  -0.651  1.00  0.00    -0.297 N 
ATOM      9  H4  UNL     1       1.555  -2.618  -0.578  1.00  0.00     0.174 HD
HETATM   10  S1  UNL     1       0.113  -0.880  -1.646  1.00  0.00     0.300 S 
HETATM   11  O2  UNL     1       0.715   0.126  -2.540  1.00  0.00    -0.188 OA
HETATM   12  O3  UNL     1      -0.553  -1.933  -2.488  1.00  0.00    -0.188 OA
ENDROOT
BRANCH   2  13
HETATM   13  C5  UNL     1      -0.852   1.819   0.676  1.00  0.00     0.259 C 
HETATM   14  O1  UNL     1      -0.397   2.606   1.545  1.00  0.00    -0.269 OA
HETATM   15  N2  UNL     1      -1.907   2.290  -0.150  1.00  0.00    -0.275 N 
ATOM     16  H2  UNL     1      -2.293   1.669  -0.862  1.00  0.00     0.189 HD
BRANCH  15  17
HETATM   17  N3  UNL     1      -2.424   3.558  -0.019  1.00  0.00    -0.343 N 
ATOM     18  H32 UNL     1      -2.027   4.165   0.698  1.00  0.00     0.176 HD
ATOM     19  H31 UNL     1      -3.182   3.896  -0.612  1.00  0.00     0.176 HD
ENDBRANCH  15  17
ENDBRANCH   2  13
BRANCH   1  20
HETATM   20  C2  UNL     1      -1.877  -1.244  -0.116  1.00  0.00     0.106 C 
HETATM   21  C1  UNL     1      -3.107  -1.371  -0.987  1.00  0.00     0.022 C 
ENDBRANCH   1  20
TORSDOF 3
