REMARK  11 active torsions:
REMARK  status: ('A' for Active; 'I' for Inactive)
REMARK    1  A    between atoms: N1_1  and  N2_4 
REMARK    2  A    between atoms: N2_4  and  C1_6 
REMARK    3  A    between atoms: C4_16  and  C5_17 
REMARK    4  A    between atoms: C5_17  and  N6_19 
REMARK    5  A    between atoms: N6_19  and  N7_21 
REMARK    6  A    between atoms: N8_24  and  O2_25 
REMARK    7  A    between atoms: N9_28  and  C7_29 
REMARK    8  A    between atoms: C7_29  and  C8_30 
REMARK    9  A    between atoms: C8_30  and  O3_31 
REMARK   10  A    between atoms: C8_30  and  C9_33 
REMARK   11  A    between atoms: C9_33  and  O4_34 
ROOT
HETATM    1  C1  UNL     1      -1.175   2.181  -0.345  1.00  0.00     0.707 A 
HETATM    2  N3  UNL     1      -0.608   3.084  -1.115  1.00  0.00    -0.152 N 
ATOM      3  H3  UNL     1      -1.096   3.954  -1.326  1.00  0.00     0.187 HD
HETATM    4  C2  UNL     1       0.590   2.863  -1.613  1.00  0.00     0.291 A 
HETATM    5  O1  UNL     1       1.204   3.690  -2.368  1.00  0.00    -0.265 OA
HETATM    6  C3  UNL     1       1.233   1.686  -1.317  1.00  0.00     0.164 A 
HETATM    7  N4  UNL     1       2.466   1.445  -1.799  1.00  0.00    -0.291 N 
ATOM      8  H4  UNL     1       2.919   2.133  -2.400  1.00  0.00     0.187 HD
HETATM    9  N5  UNL     1       3.090   0.326  -1.499  1.00  0.00    -0.280 N 
ATOM     10  H5  UNL     1       4.024   0.171  -1.879  1.00  0.00     0.188 HD
HETATM   11  C4  UNL     1       2.555  -0.615  -0.719  1.00  0.00     0.189 A 
HETATM   12  N8  UNL     1       1.297  -0.368  -0.228  1.00  0.00    -0.183 N 
HETATM   13  C6  UNL     1       0.601   0.744  -0.491  1.00  0.00     0.191 A 
HETATM   14  N9  UNL     1      -0.618   0.970   0.012  1.00  0.00    -0.138 N 
ENDROOT
BRANCH  11  15
HETATM   15  C5  UNL     1       3.227  -1.856  -0.375  1.00  0.00     0.162 C 
HETATM   16  S1  UNL     1       2.695  -3.247  -1.025  1.00  0.00    -0.055 SA
BRANCH  15  17
HETATM   17  N6  UNL     1       4.329  -1.873   0.511  1.00  0.00    -0.294 N 
ATOM     18  H6  UNL     1       4.644  -0.987   0.906  1.00  0.00     0.187 HD
BRANCH  17  19
HETATM   19  N7  UNL     1       5.009  -3.035   0.874  1.00  0.00    -0.344 N 
ATOM     20  H72 UNL     1       4.681  -3.912   0.469  1.00  0.00     0.176 HD
ATOM     21  H71 UNL     1       5.804  -3.047   1.513  1.00  0.00     0.176 HD
ENDBRANCH  17  19
ENDBRANCH  15  17
ENDBRANCH  11  15
BRANCH  12  22
HETATM   22  O2  UNL     1       0.766  -1.302   0.604  1.00  0.00    -0.279 OA
ATOM     23  H2  UNL     1      -0.105  -1.131   0.944  1.00  0.00     0.245 HD
ENDBRANCH  12  22
BRANCH  14  24
HETATM   24  C7  UNL     1      -1.283   0.052   0.845  1.00  0.00     0.123 C 
BRANCH  24  25
HETATM   25  C8  UNL     1      -2.296  -0.820   0.183  1.00  0.00     0.181 C 
BRANCH  25  26
HETATM   26  O3  UNL     1      -2.011  -1.653  -0.815  1.00  0.00    -0.388 OA
ATOM     27  H3  UNL     1      -2.656  -2.208  -1.237  1.00  0.00     0.210 HD
ENDBRANCH  25  26
BRANCH  25  28
HETATM   28  C9  UNL     1      -3.075  -1.616   1.251  1.00  0.00     0.201 C 
BRANCH  28  29
HETATM   29  O4  UNL     1      -2.274  -2.647   1.681  1.00  0.00    -0.398 OA
ATOM     30  H4  UNL     1      -2.754  -3.137   2.339  1.00  0.00     0.209 HD
ENDBRANCH  28  29
ENDBRANCH  25  28
ENDBRANCH  24  25
ENDBRANCH  14  24
BRANCH   1  31
HETATM   31  N2  UNL     1      -2.371   2.411   0.146  1.00  0.00    -0.138 N 
ATOM     32  H2  UNL     1      -2.808   1.710   0.744  1.00  0.00     0.205 HD
BRANCH  31  33
HETATM   33  N1  UNL     1      -3.051   3.585  -0.130  1.00  0.00    -0.331 N 
ATOM     34  H12 UNL     1      -2.599   4.276  -0.729  1.00  0.00     0.177 HD
ATOM     35  H11 UNL     1      -3.980   3.764   0.251  1.00  0.00     0.177 HD
ENDBRANCH  31  33
ENDBRANCH   1  31
TORSDOF 11
