REMARK  6 active torsions:
REMARK  status: ('A' for Active; 'I' for Inactive)
REMARK    1  A    between atoms: N1_2  and  N5_10 
REMARK    2  A    between atoms: N2_3  and  C2_5 
REMARK    3  A    between atoms: C2_5  and  N3_6 
REMARK    4  A    between atoms: N3_6  and  N4_7 
REMARK    5  A    between atoms: N5_10  and  C3_12 
REMARK    6  A    between atoms: N6_13  and  N7_15 
ROOT
HETATM    1  N5  UNL     1      -1.143  -0.105   0.473  1.00  0.00    -0.279 N 
ATOM      2  H5  UNL     1      -1.253   0.553   1.245  1.00  0.00     0.189 HD
ENDROOT
BRANCH   1   3
HETATM    3  N1  UNL     1      -2.236  -0.797  -0.053  1.00  0.00    -0.236 N 
HETATM    4  C1  UNL     1      -2.026  -2.168  -0.452  1.00  0.00     0.200 C 
HETATM    5  N2  UNL     1      -3.388  -0.267  -0.188  1.00  0.00    -0.267 N 
ATOM      6  H2  UNL     1      -4.170  -0.795  -0.575  1.00  0.00     0.190 HD
BRANCH   5   7
HETATM    7  C2  UNL     1      -3.545   1.087   0.220  1.00  0.00     0.318 C 
BRANCH   7   8
HETATM    8  N3  UNL     1      -3.096   2.027  -0.480  1.00  0.00    -0.327 NA
BRANCH   8   9
HETATM    9  N4  UNL     1      -2.386   2.924  -0.940  1.00  0.00    -0.279 N 
ATOM     10  H42 UNL     1      -1.644   2.796  -0.252  1.00  0.00     0.191 HD
ATOM     11  H41 UNL     1      -2.021   3.688  -1.509  1.00  0.00     0.191 HD
ENDBRANCH   8   9
ENDBRANCH   7   8
ENDBRANCH   5   7
ENDBRANCH   1   3
BRANCH   1  12
HETATM   12  C3  UNL     1       0.128  -0.355  -0.111  1.00  0.00     0.215 C 
HETATM   13  N6  UNL     1       1.115  -0.603   0.682  1.00  0.00    -0.293 N 
ATOM     14  H6  UNL     1       0.990  -0.619   1.694  1.00  0.00     0.187 HD
BRANCH  13  15
HETATM   15  N7  UNL     1       2.362  -0.849   0.102  1.00  0.00    -0.275 N 
HETATM   16  C4  UNL     1       3.123   0.157  -0.132  1.00  0.00     0.215 C 
HETATM   17  N8  UNL     1       4.388  -0.093  -0.720  1.00  0.00    -0.065 NA
HETATM   18  N9  UNL     1       2.736   1.480   0.178  1.00  0.00    -0.065 NA
ATOM     19  H7  UNL     1       2.658  -1.798  -0.128  1.00  0.00     0.189 HD
ENDBRANCH  13  15
ENDBRANCH   1  12
TORSDOF 6
