REMARK  5 active torsions:
REMARK  status: ('A' for Active; 'I' for Inactive)
REMARK    1  A    between atoms: C2_2  and  C3_3 
REMARK    2  A    between atoms: C3_3  and  C4_4 
REMARK    3  A    between atoms: C4_4  and  C5_5 
REMARK    4  A    between atoms: C5_5  and  C6_6 
REMARK    5  A    between atoms: C16_16  and  O1_17 
ROOT
HETATM    1  C6  UNL     1       0.966  -0.415  -1.032  1.00  0.00    -0.039 C 
HETATM    2  C7  UNL     1       0.541  -1.852  -0.959  1.00  0.00     0.015 C 
HETATM    3  C8  UNL     1       0.839   0.103  -2.446  1.00  0.00     0.010 C 
HETATM    4  C9  UNL     1       0.046   1.398  -2.359  1.00  0.00     0.006 C 
HETATM    5  C10 UNL     1      -0.068   1.786  -0.962  1.00  0.00    -0.004 C 
HETATM    6  C11 UNL     1      -1.415   1.793  -0.267  1.00  0.00     0.003 C 
HETATM    7  C12 UNL     1      -2.549   2.112  -1.104  1.00  0.00     0.006 C 
HETATM    8  C13 UNL     1      -3.722   1.112  -1.156  1.00  0.00     0.005 C 
HETATM    9  C14 UNL     1      -3.406   0.192  -0.078  1.00  0.00    -0.011 C 
HETATM   10  C15 UNL     1      -4.244  -0.881   0.439  1.00  0.00     0.040 C 
HETATM   11  C16 UNL     1      -3.361  -1.463   1.563  1.00  0.00     0.141 C 
HETATM   12  C17 UNL     1      -2.453  -0.522   2.230  1.00  0.00     0.001 C 
HETATM   13  C18 UNL     1      -1.292   0.099   1.666  1.00  0.00    -0.018 C 
HETATM   14  C19 UNL     1      -1.123   0.396   0.207  1.00  0.00    -0.014 C 
HETATM   15  C20 UNL     1      -2.087  -0.468  -0.494  1.00  0.00     0.019 C 
HETATM   16  C21 UNL     1       0.272   0.542  -0.184  1.00  0.00     0.011 C 
ENDROOT
BRANCH   1  17
HETATM   17  C5  UNL     1       2.468  -0.396  -0.720  1.00  0.00     0.010 C 
BRANCH  17  18
HETATM   18  C4  UNL     1       2.771  -0.953   0.637  1.00  0.00     0.001 C 
BRANCH  18  19
HETATM   19  C3  UNL     1       4.260  -0.924   0.888  1.00  0.00    -0.000 C 
BRANCH  19  20
HETATM   20  C2  UNL     1       4.823   0.459   0.836  1.00  0.00    -0.005 C 
HETATM   21  C1  UNL     1       6.326   0.412   1.106  1.00  0.00     0.005 C 
ENDBRANCH  19  20
ENDBRANCH  18  19
ENDBRANCH  17  18
ENDBRANCH   1  17
BRANCH  11  22
HETATM   22  O1  UNL     1      -4.320  -1.823   2.558  1.00  0.00    -0.392 OA
ATOM     23  H1  UNL     1      -3.776  -2.181   3.250  1.00  0.00     0.210 HD
ENDBRANCH  11  22
TORSDOF 5
