REMARK  5 active torsions:
REMARK  status: ('A' for Active; 'I' for Inactive)
REMARK    1  A    between atoms: C2_2  and  C3_3 
REMARK    2  A    between atoms: C3_3  and  C4_4 
REMARK    3  A    between atoms: C4_4  and  C5_5 
REMARK    4  A    between atoms: C5_5  and  C7_7 
REMARK    5  A    between atoms: C15_15  and  O1_16 
ROOT
HETATM    1  C7  UNL     1       1.364  -0.246  -0.593  1.00  0.00    -0.002 C 
HETATM    2  C8  UNL     1       0.838  -1.271  -1.616  1.00  0.00     0.006 C 
HETATM    3  C9  UNL     1      -0.419  -1.847  -1.087  1.00  0.00     0.006 C 
HETATM    4  C10 UNL     1      -0.850  -0.961   0.021  1.00  0.00     0.003 C 
HETATM    5  C11 UNL     1      -2.170  -0.376  -0.282  1.00  0.00    -0.036 C 
HETATM    6  C12 UNL     1      -2.333   0.172  -1.662  1.00  0.00     0.016 C 
HETATM    7  C13 UNL     1      -3.199  -1.507  -0.142  1.00  0.00     0.012 C 
HETATM    8  C14 UNL     1      -4.595  -1.079  -0.375  1.00  0.00     0.032 C 
HETATM    9  C15 UNL     1      -5.008   0.235   0.134  1.00  0.00     0.118 C 
HETATM   10  C16 UNL     1      -3.939   1.206   0.492  1.00  0.00     0.037 C 
HETATM   11  C17 UNL     1      -2.602   0.613   0.781  1.00  0.00    -0.004 C 
HETATM   12  C18 UNL     1      -1.551   1.644   0.912  1.00  0.00     0.006 C 
HETATM   13  C19 UNL     1      -0.289   1.402   0.157  1.00  0.00     0.010 C 
HETATM   14  C20 UNL     1       0.270  -0.014   0.350  1.00  0.00    -0.036 C 
HETATM   15  C21 UNL     1       0.601  -0.032   1.826  1.00  0.00     0.016 C 
ENDROOT
BRANCH   1  16
HETATM   16  C5  UNL     1       2.685  -0.764  -0.169  1.00  0.00    -0.014 C 
HETATM   17  C6  UNL     1       2.638  -2.201   0.315  1.00  0.00     0.010 C 
BRANCH  16  18
HETATM   18  C4  UNL     1       3.496  -0.006   0.809  1.00  0.00     0.005 C 
BRANCH  18  19
HETATM   19  C3  UNL     1       3.713   1.450   0.547  1.00  0.00     0.000 C 
BRANCH  19  20
HETATM   20  C2  UNL     1       4.431   1.709  -0.759  1.00  0.00    -0.005 C 
HETATM   21  C1  UNL     1       5.781   1.005  -0.649  1.00  0.00     0.005 C 
ENDBRANCH  19  20
ENDBRANCH  18  19
ENDBRANCH  16  18
ENDBRANCH   1  16
BRANCH   9  22
HETATM   22  O1  UNL     1      -5.806   0.860  -0.859  1.00  0.00    -0.396 OA
ATOM     23  H1  UNL     1      -6.073   1.710  -0.530  1.00  0.00     0.210 HD
ENDBRANCH   9  22
TORSDOF 5
