REMARK  4 active torsions:
REMARK  status: ('A' for Active; 'I' for Inactive)
REMARK    1  A    between atoms: C2_2  and  C3_3 
REMARK    2  A    between atoms: C13_13  and  C15_15 
REMARK    3  A    between atoms: C15_15  and  C16_16 
REMARK    4  A    between atoms: C16_16  and  N1_17 
ROOT
HETATM    1  C3  UNL     1      -3.211   0.366   0.266  1.00  0.00    -0.006 C 
HETATM    2  C4  UNL     1      -2.725   1.711  -0.008  1.00  0.00     0.006 C 
HETATM    3  C5  UNL     1      -1.494   1.511  -0.795  1.00  0.00     0.011 C 
HETATM    4  C6  UNL     1      -1.003   0.059  -0.637  1.00  0.00    -0.029 C 
HETATM    5  C7  UNL     1      -1.249  -0.617  -1.965  1.00  0.00     0.011 C 
HETATM    6  C8  UNL     1      -0.254  -1.673  -2.314  1.00  0.00     0.006 C 
HETATM    7  C9  UNL     1       1.179  -1.291  -2.090  1.00  0.00    -0.006 C 
HETATM    8  C10 UNL     1       1.421   0.076  -2.683  1.00  0.00     0.006 C 
HETATM    9  C11 UNL     1       0.997   1.042  -1.591  1.00  0.00     0.006 C 
HETATM   10  C12 UNL     1       0.454   0.155  -0.445  1.00  0.00     0.003 C 
HETATM   11  C13 UNL     1       1.346  -0.977  -0.613  1.00  0.00    -0.034 C 
HETATM   12  C14 UNL     1       1.263  -2.180   0.226  1.00  0.00     0.016 C 
HETATM   13  C19 UNL     1      -1.895  -0.443   0.410  1.00  0.00    -0.036 C 
HETATM   14  C20 UNL     1      -1.475  -0.113   1.817  1.00  0.00     0.016 C 
HETATM   15  C21 UNL     1      -2.458  -1.822   0.275  1.00  0.00     0.016 C 
ENDROOT
BRANCH  11  16
HETATM   16  C15 UNL     1       2.790  -0.514  -0.459  1.00  0.00     0.040 C 
BRANCH  16  17
HETATM   17  C16 UNL     1       3.095  -0.166   0.979  1.00  0.00     0.272 C 
BRANCH  17  18
HETATM   18  N1  UNL     1       4.459   0.274   1.160  1.00  0.00     0.080 N 
HETATM   19  C17 UNL     1       4.622   0.573   2.570  1.00  0.00     0.309 C 
HETATM   20  C18 UNL     1       4.828   1.417   0.390  1.00  0.00     0.309 C 
ENDBRANCH  17  18
ENDBRANCH  16  17
ENDBRANCH  11  16
BRANCH   1  21
HETATM   21  C2  UNL     1      -4.055   0.304   1.485  1.00  0.00     0.001 C 
HETATM   22  C1  UNL     1      -5.241   1.244   1.225  1.00  0.00     0.005 C 
ENDBRANCH   1  21
TORSDOF 4
