REMARK  10 active torsions:
REMARK  status: ('A' for Active; 'I' for Inactive)
REMARK    1  A    between atoms: C6_8  and  N2_9 
REMARK    2  A    between atoms: N2_9  and  C7_11 
REMARK    3  A    between atoms: C8_14  and  N4_15 
REMARK    4  A    between atoms: N4_15  and  C9_17 
REMARK    5  A    between atoms: C9_17  and  C10_18 
REMARK    6  A    between atoms: C10_18  and  N5_19 
REMARK    7  A    between atoms: C13_24  and  N7_25 
REMARK    8  A    between atoms: N7_25  and  C14_27 
REMARK    9  A    between atoms: C17_30  and  O1_31 
REMARK   10  A    between atoms: O1_31  and  C18_32 
ROOT
HETATM    1  C7  UNL     1      -0.908   0.984  -0.504  1.00  0.00     0.711 A 
HETATM    2  N3  UNL     1      -2.034   0.223  -0.555  1.00  0.00    -0.021 N 
ATOM      3  H3  UNL     1      -2.925   0.681  -0.749  1.00  0.00     0.203 HD
HETATM    4  C8  UNL     1      -2.022  -1.103  -0.361  1.00  0.00     0.707 A 
HETATM    5  N6  UNL     1      -0.849  -1.715  -0.105  1.00  0.00    -0.021 N 
ATOM      6  H6  UNL     1      -0.822  -2.724   0.044  1.00  0.00     0.203 HD
HETATM    7  C13 UNL     1       0.284  -0.998  -0.046  1.00  0.00     0.711 A 
HETATM    8  N8  UNL     1       0.247   0.331  -0.244  1.00  0.00    -0.021 N 
ATOM      9  H8  UNL     1       1.116   0.863  -0.197  1.00  0.00     0.203 HD
ENDROOT
BRANCH   7  10
HETATM   10  N7  UNL     1       1.399  -1.590   0.198  1.00  0.00    -0.191 N 
ATOM     11  H7  UNL     1       1.377  -2.600   0.340  1.00  0.00     0.184 HD
BRANCH  10  12
HETATM   12  C14 UNL     1       2.651  -0.943   0.284  1.00  0.00     0.049 A 
HETATM   13  C15 UNL     1       3.280  -0.534  -0.865  1.00  0.00     0.033 A 
HETATM   14  C16 UNL     1       4.516   0.108  -0.832  1.00  0.00     0.039 A 
HETATM   15  C17 UNL     1       5.133   0.344   0.377  1.00  0.00     0.078 A 
HETATM   16  C19 UNL     1       4.493  -0.071   1.541  1.00  0.00     0.039 A 
HETATM   17  C20 UNL     1       3.259  -0.712   1.490  1.00  0.00     0.033 A 
BRANCH  15  18
HETATM   18  O1  UNL     1       6.364   0.983   0.417  1.00  0.00    -0.255 OA
BRANCH  18  19
HETATM   19  C18 UNL     1       7.522   0.162   0.356  1.00  0.00     0.530 C 
HETATM   20  F1  UNL     1       7.569  -0.734   1.415  1.00  0.00    -0.144 F 
HETATM   21  F2  UNL     1       7.548  -0.563  -0.819  1.00  0.00    -0.144 F 
HETATM   22  F3  UNL     1       8.678   0.918   0.435  1.00  0.00    -0.144 F 
ENDBRANCH  18  19
ENDBRANCH  15  18
ENDBRANCH  10  12
ENDBRANCH   7  10
BRANCH   4  23
HETATM   23  N4  UNL     1      -3.070  -1.841  -0.405  1.00  0.00    -0.223 N 
ATOM     24  H4  UNL     1      -2.938  -2.839  -0.242  1.00  0.00     0.177 HD
BRANCH  23  25
HETATM   25  C9  UNL     1      -4.404  -1.400  -0.660  1.00  0.00     0.168 C 
BRANCH  25  26
HETATM   26  C10 UNL     1      -5.269  -2.485  -1.245  1.00  0.00     0.291 C 
BRANCH  26  27
HETATM   27  N5  UNL     1      -5.413  -3.636  -0.425  1.00  0.00     0.081 N 
HETATM   28  C11 UNL     1      -4.224  -4.412  -0.263  1.00  0.00     0.309 C 
HETATM   29  C12 UNL     1      -6.027  -3.408   0.844  1.00  0.00     0.309 C 
ENDBRANCH  26  27
ENDBRANCH  25  26
ENDBRANCH  23  25
ENDBRANCH   4  23
BRANCH   1  30
HETATM   30  N2  UNL     1      -0.956   2.259  -0.696  1.00  0.00    -0.189 N 
ATOM     31  H2  UNL     1      -1.872   2.665  -0.886  1.00  0.00     0.184 HD
BRANCH  30  32
HETATM   32  C6  UNL     1       0.133   3.136  -0.668  1.00  0.00     0.071 A 
HETATM   33  C2  UNL     1       0.217   4.039   0.398  1.00  0.00     0.032 A 
HETATM   34  C1  UNL     1      -0.855   4.019   1.451  1.00  0.00     0.070 C 
HETATM   35  N1  UNL     1       1.247   4.896   0.456  1.00  0.00    -0.368 N 
HETATM   36  C3  UNL     1       2.230   4.954  -0.459  1.00  0.00     0.088 A 
ATOM     37  H1  UNL     1       1.287   5.544   1.243  1.00  0.00     0.165 HD
HETATM   38  C4  UNL     1       2.154   4.062  -1.518  1.00  0.00     0.019 A 
HETATM   39  C5  UNL     1       1.124   3.164  -1.626  1.00  0.00     0.033 A 
ENDBRANCH  30  32
ENDBRANCH   1  30
TORSDOF 10
