REMARK  14 active torsions:
REMARK  status: ('A' for Active; 'I' for Inactive)
REMARK    1  A    between atoms: C2_2  and  N1_3 
REMARK    2  A    between atoms: N1_3  and  C3_6 
REMARK    3  A    between atoms: C3_6  and  C4_7 
REMARK    4  A    between atoms: C4_7  and  C7_10 
REMARK    5  A    between atoms: C7_10  and  C8_11 
REMARK       I    between atoms: C8_11  and  N2_13 
REMARK    6  A    between atoms: N2_13  and  C9_15 
REMARK    7  A    between atoms: C11_17  and  O2_18 
REMARK    8  A    between atoms: O2_18  and  C12_19 
REMARK    9  A    between atoms: C12_19  and  C13_20 
REMARK   10  A    between atoms: C13_20  and  O3_21 
REMARK   11  A    between atoms: C13_20  and  N3_23 
REMARK   12  A    between atoms: C22_34  and  C23_35 
REMARK   13  A    between atoms: C23_35  and  O6_37 
REMARK   14  A    between atoms: O6_37  and  C24_38 
ROOT
HETATM    1  C9  UNL     1      -0.562   0.191   0.050  1.00  0.00     0.065 A 
HETATM    2  C10 UNL     1       0.473  -0.711  -0.050  1.00  0.00     0.068 A 
HETATM    3  C11 UNL     1       1.768  -0.289  -0.253  1.00  0.00     0.072 A 
HETATM    4  C19 UNL     1       2.096   1.034  -0.367  1.00  0.00     0.054 A 
HETATM    5  C20 UNL     1       1.060   1.961  -0.268  1.00  0.00     0.047 A 
HETATM    6  C21 UNL     1       1.416   3.295  -0.380  1.00  0.00     0.202 A 
HETATM    7  O4  UNL     1       2.621   3.631  -0.567  1.00  0.00    -0.286 OA
HETATM    8  C22 UNL     1       0.426   4.276  -0.283  1.00  0.00     0.112 A 
HETATM    9  C27 UNL     1      -0.841   3.823  -0.081  1.00  0.00     0.026 A 
HETATM   10  C28 UNL     1      -1.953   4.822   0.033  1.00  0.00     0.069 C 
HETATM   11  N5  UNL     1      -1.157   2.523   0.023  1.00  0.00    -0.356 N 
ATOM     12  H5  UNL     1      -2.132   2.265   0.174  1.00  0.00     0.166 HD
HETATM   13  C29 UNL     1      -0.250   1.563  -0.063  1.00  0.00     0.074 A 
ENDROOT
BRANCH   1  14
HETATM   14  N2  UNL     1      -1.903  -0.186   0.216  1.00  0.00    -0.325 N 
HETATM   15  C8  UNL     1      -2.375  -1.484   0.487  1.00  0.00     0.223 C 
HETATM   16  O1  UNL     1      -1.671  -2.472   0.626  1.00  0.00    -0.273 OA
ATOM     17  H2  UNL     1      -2.603   0.551   0.132  1.00  0.00     0.169 HD
BRANCH  15  18
HETATM   18  C7  UNL     1      -3.866  -1.686   0.620  1.00  0.00     0.113 C 
BRANCH  18  19
HETATM   19  C4  UNL     1      -4.190  -3.132   0.936  1.00  0.00    -0.016 C 
HETATM   20  C5  UNL     1      -3.755  -4.056  -0.177  1.00  0.00     0.017 C 
HETATM   21  C6  UNL     1      -3.562  -3.578   2.220  1.00  0.00     0.017 C 
BRANCH  19  22
HETATM   22  C3  UNL     1      -5.715  -3.225   1.046  1.00  0.00     0.241 C 
BRANCH  22  23
HETATM   23  N1  UNL     1      -6.292  -2.815  -0.229  1.00  0.00    -0.075 N 
ATOM     24  H12 UNL     1      -5.904  -3.353  -1.004  1.00  0.00     0.277 HD
ATOM     25  H11 UNL     1      -5.969  -1.887  -0.503  1.00  0.00     0.277 HD
BRANCH  23  26
HETATM   26  C2  UNL     1      -7.720  -2.886  -0.208  1.00  0.00     0.228 C 
HETATM   27  C1  UNL     1      -8.157  -4.338  -0.130  1.00  0.00     0.034 C 
ENDBRANCH  23  26
ENDBRANCH  22  23
ENDBRANCH  19  22
ENDBRANCH  18  19
ENDBRANCH  15  18
ENDBRANCH   1  14
BRANCH   3  28
HETATM   28  O2  UNL     1       2.769  -1.232  -0.347  1.00  0.00    -0.343 OA
BRANCH  28  29
HETATM   29  C12 UNL     1       2.485  -2.589  -0.238  1.00  0.00     0.259 C 
BRANCH  29  30
HETATM   30  C13 UNL     1       3.646  -3.463  -0.365  1.00  0.00     0.138 C 
BRANCH  30  31
HETATM   31  O3  UNL     1       3.392  -4.733  -0.224  1.00  0.00    -0.348 OA
ATOM     32  H3  UNL     1       4.148  -5.302  -0.307  1.00  0.00     0.219 HD
ENDBRANCH  30  31
BRANCH  30  33
HETATM   33  N3  UNL     1       4.969  -3.110  -0.613  1.00  0.00    -0.360 N 
HETATM   34  C14 UNL     1       5.983  -4.196  -0.667  1.00  0.00     0.155 C 
HETATM   35  C15 UNL     1       7.261  -3.590  -0.194  1.00  0.00     0.291 C 
HETATM   36  N4  UNL     1       7.112  -2.599   0.857  1.00  0.00     0.087 N 
HETATM   37  C16 UNL     1       8.467  -2.063   1.070  1.00  0.00     0.310 C 
HETATM   38  C17 UNL     1       6.306  -1.462   0.434  1.00  0.00     0.291 C 
HETATM   39  C18 UNL     1       5.534  -1.813  -0.835  1.00  0.00     0.155 C 
ENDBRANCH  30  33
ENDBRANCH  29  30
ENDBRANCH  28  29
ENDBRANCH   3  28
BRANCH   8  40
HETATM   40  C23 UNL     1       0.810   5.677  -0.408  1.00  0.00     0.299 C 
HETATM   41  O5  UNL     1       2.008   5.994  -0.599  1.00  0.00    -0.259 OA
BRANCH  40  42
HETATM   42  O6  UNL     1      -0.106   6.691  -0.323  1.00  0.00    -0.313 OA
BRANCH  42  43
HETATM   43  C24 UNL     1       0.272   8.037  -0.445  1.00  0.00     0.124 C 
HETATM   44  C25 UNL     1      -0.365   8.676  -1.670  1.00  0.00     0.040 C 
HETATM   45  C26 UNL     1      -0.085   8.852   0.778  1.00  0.00     0.040 C 
ENDBRANCH  42  43
ENDBRANCH  40  42
ENDBRANCH   8  40
TORSDOF 14
