REMARK  6 active torsions:
REMARK  status: ('A' for Active; 'I' for Inactive)
REMARK    1  A    between atoms: C1_4  and  N2_5 
REMARK    2  A    between atoms: N2_5  and  C2_7 
REMARK    3  A    between atoms: C2_7  and  N3_8 
REMARK    4  A    between atoms: C3_10  and  C4_11 
REMARK    5  A    between atoms: C5_12  and  C6_13 
REMARK    6  A    between atoms: C6_13  and  N4_14 
ROOT
HETATM    1  N3  UNL     1       1.818  -1.053  -0.065  1.00  0.00    -0.383 N 
ATOM      2  H3  UNL     1       1.944  -0.952  -1.072  1.00  0.00     0.160 HD
HETATM    3  C3  UNL     1       0.633  -1.060   0.411  1.00  0.00     0.084 C 
ENDROOT
BRANCH   3   4
HETATM    4  C4  UNL     1      -0.547  -0.929  -0.435  1.00  0.00     0.014 C 
HETATM    5  C5  UNL     1      -1.746  -0.939   0.067  1.00  0.00    -0.002 C 
BRANCH   5   6
HETATM    6  C6  UNL     1      -2.953  -0.806  -0.786  1.00  0.00     0.200 C 
BRANCH   6   7
HETATM    7  N4  UNL     1      -3.690   0.382  -0.367  1.00  0.00    -0.199 N 
HETATM    8  N5  UNL     1      -4.647   0.614   0.511  1.00  0.00    -0.209 N 
HETATM    9  N6  UNL     1      -4.639   1.895   0.177  1.00  0.00    -0.211 N 
ATOM     10  H5  UNL     1      -5.174   0.044   1.172  1.00  0.00     0.211 HD
HETATM   11  N7  UNL     1      -3.690   1.666  -0.694  1.00  0.00    -0.209 N 
ATOM     12  H6  UNL     1      -5.159   2.720   0.476  1.00  0.00     0.211 HD
ATOM     13  H7  UNL     1      -3.165   2.240  -1.354  1.00  0.00     0.211 HD
ENDBRANCH   6   7
ENDBRANCH   5   6
ENDBRANCH   3   4
BRANCH   1  14
HETATM   14  C2  UNL     1       2.986  -1.183   0.775  1.00  0.00     0.243 C 
BRANCH  14  15
HETATM   15  N2  UNL     1       4.040  -0.357   0.259  1.00  0.00    -0.370 N 
ATOM     16  H2  UNL     1       4.925  -0.775  -0.027  1.00  0.00     0.161 HD
BRANCH  15  17
HETATM   17  C1  UNL     1       3.847   1.035   0.149  1.00  0.00     0.170 C 
HETATM   18  N1  UNL     1       4.661   1.904   0.642  1.00  0.00    -0.396 N 
ATOM     19  H12 UNL     1       5.482   1.550   1.134  1.00  0.00     0.156 HD
ATOM     20  H11 UNL     1       4.521   2.911   0.562  1.00  0.00     0.156 HD
ENDBRANCH  15  17
ENDBRANCH  14  15
ENDBRANCH   1  14
TORSDOF 6
