REMARK  6 active torsions:
REMARK  status: ('A' for Active; 'I' for Inactive)
REMARK    1  A    between atoms: C2_2  and  C4_4 
REMARK       I    between atoms: C4_4  and  N1_6 
REMARK    2  A    between atoms: N1_6  and  C5_8 
REMARK    3  A    between atoms: C5_8  and  C6_9 
REMARK    4  A    between atoms: C5_8  and  C7_16 
REMARK       I    between atoms: C6_9  and  N2_11 
REMARK    5  A    between atoms: N2_11  and  N3_13 
REMARK    6  A    between atoms: C16_25  and  O3_26 
ROOT
HETATM    1  C5  UNL     1      -1.097   0.769  -0.416  1.00  0.00     0.183 C 
ENDROOT
BRANCH   1   2
HETATM    2  N1  UNL     1      -1.840  -0.443  -0.881  1.00  0.00    -0.344 N 
HETATM    3  C4  UNL     1      -3.203  -0.626  -0.543  1.00  0.00     0.247 C 
HETATM    4  O1  UNL     1      -3.738   0.274   0.161  1.00  0.00    -0.268 OA
ATOM      5  H1  UNL     1      -1.361  -1.144  -1.446  1.00  0.00     0.163 HD
BRANCH   3   6
HETATM    6  C2  UNL     1      -4.032  -1.732  -0.923  1.00  0.00    -0.004 C 
HETATM    7  C1  UNL     1      -5.287  -1.777  -0.548  1.00  0.00     0.024 C 
HETATM    8  C3  UNL     1      -3.472  -2.828  -1.734  1.00  0.00     0.053 C 
ENDBRANCH   3   6
ENDBRANCH   1   2
BRANCH   1   9
HETATM    9  C6  UNL     1      -0.789   1.604  -1.571  1.00  0.00     0.258 C 
HETATM   10  O2  UNL     1      -0.903   1.112  -2.759  1.00  0.00    -0.269 OA
HETATM   11  N2  UNL     1      -0.377   2.931  -1.517  1.00  0.00    -0.275 N 
ATOM     12  H2  UNL     1      -0.268   3.387  -0.611  1.00  0.00     0.189 HD
BRANCH  11  13
HETATM   13  N3  UNL     1      -0.111   3.646  -2.678  1.00  0.00    -0.343 N 
ATOM     14  H32 UNL     1      -0.225   3.175  -3.576  1.00  0.00     0.176 HD
ATOM     15  H31 UNL     1       0.191   4.619  -2.638  1.00  0.00     0.176 HD
ENDBRANCH  11  13
ENDBRANCH   1   9
BRANCH   1  16
HETATM   16  C7  UNL     1      -0.022   0.352   0.510  1.00  0.00     0.026 C 
HETATM   17  C8  UNL     1       0.854   1.391   1.115  1.00  0.00    -0.007 C 
HETATM   18  C9  UNL     1       2.166   1.650   0.465  1.00  0.00     0.012 C 
HETATM   19  C15 UNL     1       1.248   0.799   2.509  1.00  0.00     0.012 C 
HETATM   20  C10 UNL     1       2.900   0.366   0.150  1.00  0.00     0.015 C 
HETATM   21  C11 UNL     1       2.056  -0.633  -0.566  1.00  0.00     0.012 C 
HETATM   22  C16 UNL     1       3.270  -0.238   1.505  1.00  0.00     0.126 C 
HETATM   23  C12 UNL     1       0.761  -0.879   0.147  1.00  0.00    -0.007 C 
HETATM   24  C13 UNL     1       1.188  -1.492   1.501  1.00  0.00     0.012 C 
HETATM   25  C14 UNL     1       1.997  -0.471   2.266  1.00  0.00     0.015 C 
BRANCH  22  26
HETATM   26  O3  UNL     1       3.886  -1.476   1.324  1.00  0.00    -0.395 OA
ATOM     27  H3  UNL     1       4.116  -1.851   2.166  1.00  0.00     0.210 HD
ENDBRANCH  22  26
ENDBRANCH   1  16
TORSDOF 6
