REMARK  6 active torsions:
REMARK  status: ('A' for Active; 'I' for Inactive)
REMARK    1  A    between atoms: C2_2  and  O1_3 
REMARK    2  A    between atoms: O1_3  and  C3_4 
REMARK    3  A    between atoms: C3_4  and  C4_6 
REMARK    4  A    between atoms: C7_9  and  N1_10 
REMARK       I    between atoms: N1_10  and  C8_12 
REMARK       I    between atoms: C8_12  and  N2_14 
REMARK    5  A    between atoms: N2_14  and  C9_16 
REMARK    6  A    between atoms: C13_20  and  C14_21 
ROOT
HETATM    1  C4  UNL     1       2.814  -0.181   0.475  1.00  0.00     0.178 C 
HETATM    2  C5  UNL     1       1.927   0.681  -0.394  1.00  0.00     0.037 C 
HETATM    3  C6  UNL     1       0.998  -0.212  -1.225  1.00  0.00     0.030 C 
HETATM    4  C7  UNL     1       0.091  -1.007  -0.275  1.00  0.00     0.119 C 
HETATM    5  C13 UNL     1       0.910  -1.619   0.841  1.00  0.00     0.202 C 
HETATM    6  N3  UNL     1       2.325  -1.514   0.633  1.00  0.00    -0.394 N 
ATOM      7  H3  UNL     1       2.936  -2.330   0.600  1.00  0.00     0.155 HD
ENDROOT
BRANCH   4   8
HETATM    8  N1  UNL     1      -0.959  -0.155   0.242  1.00  0.00    -0.336 N 
HETATM    9  C8  UNL     1      -2.327  -0.355  -0.084  1.00  0.00     0.317 C 
HETATM   10  O3  UNL     1      -2.640  -1.303  -0.847  1.00  0.00    -0.247 OA
HETATM   11  N2  UNL     1      -3.305   0.519   0.459  1.00  0.00    -0.335 N 
ATOM     12  H2  UNL     1      -3.036   1.285   1.077  1.00  0.00     0.165 HD
ATOM     13  H1  UNL     1      -0.708   0.615   0.862  1.00  0.00     0.164 HD
BRANCH  11  14
HETATM   14  C9  UNL     1      -4.703   0.296   0.112  1.00  0.00     0.023 C 
HETATM   15  C10 UNL     1      -5.528   1.350   0.811  1.00  0.00     0.037 C 
HETATM   16  C11 UNL     1      -4.916   0.388  -1.383  1.00  0.00     0.037 C 
HETATM   17  C12 UNL     1      -5.133  -1.091   0.545  1.00  0.00     0.037 C 
ENDBRANCH  11  14
ENDBRANCH   4   8
BRANCH   5  18
HETATM   18  C14 UNL     1       0.488  -1.153   2.179  1.00  0.00     0.198 C 
HETATM   19  O4  UNL     1       1.272  -0.707   3.056  1.00  0.00    -0.646 OA
HETATM   20  O5  UNL     1      -0.858  -1.200   2.514  1.00  0.00    -0.646 OA
ENDBRANCH   5  18
BRANCH   1  21
HETATM   21  C3  UNL     1       4.202  -0.265  -0.066  1.00  0.00     0.281 C 
HETATM   22  O2  UNL     1       4.756  -1.379  -0.309  1.00  0.00    -0.263 OA
BRANCH  21  23
HETATM   23  O1  UNL     1       4.964   0.862  -0.335  1.00  0.00    -0.320 OA
BRANCH  23  24
HETATM   24  C2  UNL     1       6.299   0.749  -0.856  1.00  0.00     0.174 C 
HETATM   25  C1  UNL     1       6.900   2.106  -1.057  1.00  0.00     0.034 C 
ENDBRANCH  23  24
ENDBRANCH  21  23
ENDBRANCH   1  21
TORSDOF 6
