REMARK  7 active torsions:
REMARK  status: ('A' for Active; 'I' for Inactive)
REMARK    1  A    between atoms: C2_2  and  C3_3 
REMARK    2  A    between atoms: C4_4  and  C5_5 
REMARK    3  A    between atoms: C8_8  and  O1_9 
REMARK    4  A    between atoms: O1_9  and  C9_10 
REMARK    5  A    between atoms: C12_13  and  N1_14 
REMARK    6  A    between atoms: C14_19  and  O2_20 
REMARK    7  A    between atoms: C15_22  and  O3_23 
ROOT
HETATM    1  C9  UNL     1      -1.196  -0.607   0.238  1.00  0.00     0.182 C 
HETATM    2  C10 UNL     1      -1.912  -1.864  -0.201  1.00  0.00     0.006 C 
HETATM    3  C11 UNL     1      -3.213  -2.047  -0.010  1.00  0.00    -0.001 C 
HETATM    4  C12 UNL     1      -4.123  -1.082   0.639  1.00  0.00     0.138 C 
HETATM    5  C14 UNL     1      -3.305   0.007   1.274  1.00  0.00     0.176 C 
HETATM    6  C15 UNL     1      -2.294   0.470   0.248  1.00  0.00     0.182 C 
ENDROOT
BRANCH   1   7
HETATM    7  O1  UNL     1      -0.257  -0.198  -0.701  1.00  0.00    -0.339 OA
BRANCH   7   8
HETATM    8  C8  UNL     1       1.071   0.027  -0.561  1.00  0.00     0.069 A 
HETATM    9  C7  UNL     1       1.722  -0.132   0.635  1.00  0.00     0.038 A 
HETATM   10  C6  UNL     1       3.095   0.105   0.760  1.00  0.00     0.023 A 
HETATM   11  C5  UNL     1       3.812   0.509  -0.340  1.00  0.00     0.017 A 
HETATM   12  C17 UNL     1       3.180   0.675  -1.544  1.00  0.00     0.023 A 
HETATM   13  C16 UNL     1       1.815   0.433  -1.647  1.00  0.00     0.038 A 
BRANCH  11  14
HETATM   14  C4  UNL     1       5.231   0.752  -0.196  1.00  0.00    -0.067 C 
HETATM   15  C3  UNL     1       6.421   0.955  -0.096  1.00  0.00    -0.101 C 
BRANCH  15  16
HETATM   16  C2  UNL     1       7.867   1.186   0.005  1.00  0.00     0.090 C 
HETATM   17  C1  UNL     1       8.521  -0.192   0.048  1.00  0.00     0.018 C 
ENDBRANCH  15  16
ENDBRANCH  11  14
ENDBRANCH   7   8
ENDBRANCH   1   7
BRANCH   6  18
HETATM   18  O3  UNL     1      -2.821   0.480  -1.045  1.00  0.00    -0.390 OA
ATOM     19  H3  UNL     1      -3.499   1.145  -1.039  1.00  0.00     0.210 HD
ENDBRANCH   6  18
BRANCH   5  20
HETATM   20  O2  UNL     1      -2.588  -0.580   2.330  1.00  0.00    -0.391 OA
ATOM     21  H2  UNL     1      -2.071   0.108   2.731  1.00  0.00     0.210 HD
ENDBRANCH   5  20
BRANCH   4  22
HETATM   22  N1  UNL     1      -4.991  -0.520  -0.363  1.00  0.00    -0.356 N 
HETATM   23  C13 UNL     1      -6.012   0.214  -0.125  1.00  0.00     0.197 C 
HETATM   24  N2  UNL     1      -6.765   0.691  -1.218  1.00  0.00    -0.067 NA
HETATM   25  N3  UNL     1      -6.442   0.584   1.181  1.00  0.00    -0.067 NA
ATOM     26  H1  UNL     1      -4.775  -0.723  -1.339  1.00  0.00     0.162 HD
ENDBRANCH   4  22
TORSDOF 7
