REMARK  5 active torsions:
REMARK  status: ('A' for Active; 'I' for Inactive)
REMARK    1  A    between atoms: C2_2  and  S1_5 
REMARK    2  A    between atoms: S1_5  and  N1_8 
REMARK    3  A    between atoms: N1_8  and  N2_10 
REMARK    4  A    between atoms: C6_15  and  C7_16 
REMARK    5  A    between atoms: C8_19  and  C9_20 
ROOT
HETATM    1  N2  UNL     1       0.975  -0.180  -0.179  1.00  0.00    -0.215 N 
HETATM    2  C5  UNL     1       1.266  -1.463   0.372  1.00  0.00     0.339 C 
HETATM    3  O3  UNL     1       0.740  -2.594   0.109  1.00  0.00    -0.245 OA
HETATM    4  N3  UNL     1       2.314  -1.311   1.340  1.00  0.00    -0.324 N 
ATOM      5  H3  UNL     1       2.507  -1.870   2.171  1.00  0.00     0.165 HD
HETATM    6  C6  UNL     1       3.039  -0.136   0.821  1.00  0.00     0.222 C 
HETATM    7  C8  UNL     1       1.847   0.734   0.498  1.00  0.00     0.247 C 
ENDROOT
BRANCH   1   8
HETATM    8  N1  UNL     1       0.024   0.012  -1.162  1.00  0.00    -0.219 N 
ATOM      9  H1  UNL     1       0.147  -0.346  -2.109  1.00  0.00     0.200 HD
BRANCH   8  10
HETATM   10  S1  UNL     1      -1.361   0.877  -0.703  1.00  0.00     0.251 S 
HETATM   11  O1  UNL     1      -1.846   1.655  -1.911  1.00  0.00    -0.204 OA
HETATM   12  O2  UNL     1      -1.030   1.811   0.428  1.00  0.00    -0.204 OA
BRANCH  10  13
HETATM   13  C2  UNL     1      -2.680  -0.171  -0.171  1.00  0.00     0.073 C 
HETATM   14  C1  UNL     1      -3.115  -1.134  -1.237  1.00  0.00     0.033 C 
HETATM   15  C3  UNL     1      -2.284  -0.854   1.115  1.00  0.00     0.033 C 
HETATM   16  C4  UNL     1      -3.899   0.703   0.153  1.00  0.00     0.033 C 
ENDBRANCH  10  13
ENDBRANCH   8  10
ENDBRANCH   1   8
BRANCH   7  17
HETATM   17  C9  UNL     1       2.177   1.943  -0.236  1.00  0.00     0.201 C 
HETATM   18  O6  UNL     1       1.786   2.253  -1.387  1.00  0.00    -0.646 OA
HETATM   19  O7  UNL     1       3.010   2.882   0.362  1.00  0.00    -0.646 OA
ENDBRANCH   7  17
BRANCH   6  20
HETATM   20  C7  UNL     1       3.767  -0.611  -0.353  1.00  0.00     0.199 C 
HETATM   21  O4  UNL     1       3.788  -1.766  -0.832  1.00  0.00    -0.646 OA
HETATM   22  O5  UNL     1       4.541   0.337  -1.035  1.00  0.00    -0.646 OA
ENDBRANCH   6  20
TORSDOF 5
