REMARK  5 active torsions:
REMARK  status: ('A' for Active; 'I' for Inactive)
REMARK    1  A    between atoms: C2_2  and  O1_3 
REMARK    2  A    between atoms: C6_8  and  O2_9 
REMARK    3  A    between atoms: C9_13  and  C11_15 
REMARK    4  A    between atoms: C11_15  and  O3_16 
REMARK    5  A    between atoms: C12_18  and  O4_19 
ROOT
HETATM    1  C1  UNL     1      -3.004  -1.422  -0.594  1.00  0.00     0.049 C 
HETATM    2  C2  UNL     1      -1.748  -0.822   0.056  1.00  0.00     0.081 C 
HETATM    3  C3  UNL     1      -0.587  -1.773  -0.183  1.00  0.00     0.045 C 
HETATM    4  C4  UNL     1       0.624  -1.128   0.409  1.00  0.00    -0.004 C 
HETATM    5  C5  UNL     1       1.910  -1.878   0.146  1.00  0.00     0.037 C 
HETATM    6  C6  UNL     1       2.974  -0.793   0.023  1.00  0.00     0.118 C 
HETATM    7  C7  UNL     1       2.223   0.538   0.049  1.00  0.00     0.037 C 
HETATM    8  C8  UNL     1       0.874   0.137  -0.414  1.00  0.00     0.005 C 
HETATM    9  C9  UNL     1      -0.201   1.139  -0.311  1.00  0.00     0.010 C 
HETATM   10  C10 UNL     1       0.010   2.131  -1.474  1.00  0.00     0.020 C 
HETATM   11  C12 UNL     1      -1.544   0.521  -0.535  1.00  0.00     0.162 C 
ENDROOT
BRANCH   9  12
HETATM   12  C11 UNL     1      -0.144   2.012   0.915  1.00  0.00     0.176 C 
BRANCH  12  13
HETATM   13  O3  UNL     1      -0.219   1.355   2.101  1.00  0.00    -0.400 OA
ATOM     14  H3  UNL     1      -0.183   1.906   2.874  1.00  0.00     0.209 HD
ENDBRANCH  12  13
ENDBRANCH   9  12
BRANCH  11  15
HETATM   15  O4  UNL     1      -2.591   1.344  -0.109  1.00  0.00    -0.392 OA
ATOM     16  H4  UNL     1      -2.460   2.205  -0.488  1.00  0.00     0.210 HD
ENDBRANCH  11  15
BRANCH   2  17
HETATM   17  O1  UNL     1      -2.001  -0.816   1.425  1.00  0.00    -0.388 OA
ATOM     18  H1  UNL     1      -1.224  -0.445   1.827  1.00  0.00     0.210 HD
ENDBRANCH   2  17
BRANCH   6  19
HETATM   19  O2  UNL     1       3.898  -0.878   1.054  1.00  0.00    -0.396 OA
ATOM     20  H2  UNL     1       4.561  -0.202   0.977  1.00  0.00     0.210 HD
ENDBRANCH   6  19
TORSDOF 5
