REMARK  4 active torsions:
REMARK  status: ('A' for Active; 'I' for Inactive)
REMARK    1  A    between atoms: C3_3  and  N1_4 
REMARK    2  A    between atoms: N1_4  and  C4_6 
REMARK    3  A    between atoms: C5_9  and  C6_10 
REMARK    4  A    between atoms: C12_18  and  N4_19 
ROOT
HETATM    1  C1  UNL     1       5.733  -0.769   1.731  1.00  0.00     0.014 C 
HETATM    2  C2  UNL     1       5.475  -0.691   0.546  1.00  0.00    -0.098 C 
HETATM    3  C3  UNL     1       5.186  -0.610  -0.885  1.00  0.00     0.215 C 
ENDROOT
BRANCH   3   4
HETATM    4  N1  UNL     1       3.818  -1.013  -1.151  1.00  0.00    -0.360 N 
ATOM      5  H1  UNL     1       3.608  -1.738  -1.837  1.00  0.00     0.162 HD
BRANCH   4   6
HETATM    6  C4  UNL     1       2.857  -0.415  -0.481  1.00  0.00     0.145 A 
HETATM    7  N2  UNL     1       1.552  -0.644  -0.584  1.00  0.00    -0.336 N 
HETATM    8  C5  UNL     1       0.726   0.051   0.169  1.00  0.00     0.055 A 
ATOM      9  H2  UNL     1       1.197  -1.345  -1.234  1.00  0.00     0.168 HD
HETATM   10  C15 UNL     1       1.286   0.974   1.015  1.00  0.00     0.083 A 
HETATM   11  S1  UNL     1       2.954   0.803   0.694  1.00  0.00    -0.064 SA
BRANCH   8  12
HETATM   12  C6  UNL     1      -0.747  -0.218   0.214  1.00  0.00     0.041 A 
HETATM   13  C7  UNL     1      -1.221  -1.526   0.134  1.00  0.00    -0.044 A 
HETATM   14  C8  UNL     1      -0.340  -2.709   0.167  1.00  0.00     0.049 C 
HETATM   15  C9  UNL     1      -2.592  -1.806   0.074  1.00  0.00     0.032 A 
HETATM   16  C10 UNL     1      -3.486  -0.767   0.096  1.00  0.00     0.007 A 
HETATM   17  C11 UNL     1      -4.954  -1.062   0.032  1.00  0.00     0.068 C 
HETATM   18  N3  UNL     1      -3.018   0.467   0.173  1.00  0.00    -0.346 N 
HETATM   19  C12 UNL     1      -1.677   0.791   0.232  1.00  0.00     0.116 A 
ATOM     20  H3  UNL     1      -3.693   1.231   0.190  1.00  0.00     0.167 HD
BRANCH  19  21
HETATM   21  N4  UNL     1      -1.371   2.179   0.251  1.00  0.00    -0.375 N 
HETATM   22  C13 UNL     1      -0.653   2.771  -0.839  1.00  0.00     0.150 C 
HETATM   23  C14 UNL     1      -1.857   2.961   1.369  1.00  0.00     0.150 C 
ENDBRANCH  19  21
ENDBRANCH   8  12
ENDBRANCH   4   6
ENDBRANCH   3   4
TORSDOF 4
