REMARK  7 active torsions:
REMARK  status: ('A' for Active; 'I' for Inactive)
REMARK    1  A    between atoms: C9_9  and  O1_10 
REMARK    2  A    between atoms: O1_10  and  C10_11 
REMARK    3  A    between atoms: C10_11  and  C11_13 
REMARK    4  A    between atoms: C13_16  and  O4_17 
REMARK    5  A    between atoms: O4_17  and  C14_18 
REMARK    6  A    between atoms: C14_18  and  O6_20 
REMARK    7  A    between atoms: O6_20  and  C15_21 
ROOT
HETATM    1  C1  UNL     1      -6.686  -0.313   0.270  1.00  0.00     0.022 C 
HETATM    2  C2  UNL     1      -5.604   0.389   0.485  1.00  0.00    -0.020 C 
HETATM    3  C3  UNL     1      -4.717   0.830  -0.614  1.00  0.00     0.056 C 
HETATM    4  C4  UNL     1      -3.259   0.662  -0.358  1.00  0.00    -0.007 C 
HETATM    5  C5  UNL     1      -2.532   1.800  -1.057  1.00  0.00     0.021 C 
HETATM    6  C6  UNL     1      -2.990   0.826   1.096  1.00  0.00    -0.059 C 
HETATM    7  C7  UNL     1      -1.904   0.329   1.678  1.00  0.00    -0.050 C 
HETATM    8  C8  UNL     1      -1.747   0.557   3.138  1.00  0.00     0.046 C 
HETATM    9  C9  UNL     1      -0.906  -0.412   0.896  1.00  0.00     0.172 C 
HETATM   10  C18 UNL     1      -1.327  -0.948  -0.414  1.00  0.00     0.091 C 
HETATM   11  C19 UNL     1      -1.256  -2.422  -0.488  1.00  0.00     0.098 C 
HETATM   12  F1  UNL     1      -0.058  -3.102  -0.486  1.00  0.00    -0.211 F 
HETATM   13  C20 UNL     1      -2.448  -2.953  -0.553  1.00  0.00     0.012 C 
HETATM   14  C21 UNL     1      -3.444  -1.857  -0.527  1.00  0.00     0.041 C 
HETATM   15  C22 UNL     1      -2.696  -0.621  -0.893  1.00  0.00    -0.017 C 
HETATM   16  C23 UNL     1      -2.712  -0.518  -2.404  1.00  0.00     0.017 C 
HETATM   17  C24 UNL     1      -3.979   1.579   1.926  1.00  0.00     0.118 C 
HETATM   18  C25 UNL     1      -5.246   0.760   1.842  1.00  0.00     0.158 C 
HETATM   19  O7  UNL     1      -5.903   0.445   2.854  1.00  0.00    -0.292 OA
ENDROOT
BRANCH   9  20
HETATM   20  O1  UNL     1       0.337   0.264   0.777  1.00  0.00    -0.307 OA
BRANCH  20  21
HETATM   21  C10 UNL     1       1.518  -0.137   1.340  1.00  0.00     0.292 C 
HETATM   22  O2  UNL     1       1.434  -1.202   2.007  1.00  0.00    -0.260 OA
BRANCH  21  23
HETATM   23  C11 UNL     1       2.775   0.591   1.192  1.00  0.00     0.044 C 
HETATM   24  C12 UNL     1       2.948   1.708   0.514  1.00  0.00     0.151 C 
HETATM   25  O3  UNL     1       4.272   2.083   0.612  1.00  0.00    -0.331 OA
HETATM   26  C13 UNL     1       5.037   0.921   0.839  1.00  0.00     0.281 C 
HETATM   27  C17 UNL     1       4.095   0.174   1.788  1.00  0.00     0.108 C 
BRANCH  26  28
HETATM   28  O4  UNL     1       5.134   0.222  -0.382  1.00  0.00    -0.266 OA
BRANCH  28  29
HETATM   29  C14 UNL     1       6.382  -0.130  -0.889  1.00  0.00     0.408 C 
HETATM   30  O5  UNL     1       7.384   0.199  -0.219  1.00  0.00    -0.229 OA
BRANCH  29  31
HETATM   31  O6  UNL     1       6.553  -0.808  -2.066  1.00  0.00    -0.298 OA
BRANCH  31  32
HETATM   32  C15 UNL     1       7.815  -1.181  -2.610  1.00  0.00     0.176 C 
HETATM   33  C16 UNL     1       8.703  -0.010  -2.892  1.00  0.00     0.034 C 
ENDBRANCH  31  32
ENDBRANCH  29  31
ENDBRANCH  28  29
ENDBRANCH  26  28
ENDBRANCH  21  23
ENDBRANCH  20  21
ENDBRANCH   9  20
TORSDOF 7
