REMARK  5 active torsions:
REMARK  status: ('A' for Active; 'I' for Inactive)
REMARK    1  A    between atoms: O1_2  and  C2_3 
REMARK    2  A    between atoms: C7_8  and  O2_9 
REMARK    3  A    between atoms: C10_13  and  C11_14 
REMARK    4  A    between atoms: C11_14  and  C12_15 
REMARK    5  A    between atoms: C15_21  and  C16_22 
ROOT
HETATM    1  C12 UNL     1      -0.972  -0.209   1.061  1.00  0.00    -0.024 A 
HETATM    2  C13 UNL     1      -1.216  -1.536   0.807  1.00  0.00     0.031 A 
HETATM    3  C14 UNL     1      -2.405  -1.948   0.274  1.00  0.00     0.117 A 
HETATM    4  N1  UNL     1      -3.389  -1.064  -0.022  1.00  0.00    -0.266 N 
HETATM    5  N2  UNL     1      -4.587  -1.185  -0.524  1.00  0.00    -0.296 N 
ATOM      6  H2  UNL     1      -5.002  -2.075  -0.798  1.00  0.00     0.187 HD
HETATM    7  C15 UNL     1      -5.205  -0.009  -0.637  1.00  0.00     0.049 A 
HETATM    8  C19 UNL     1      -4.322   0.932  -0.166  1.00  0.00     0.064 A 
HETATM    9 BR1  UNL     1      -4.663   2.798  -0.087  1.00  0.00    -0.046 Br
HETATM   10  C20 UNL     1      -3.187   0.251   0.215  1.00  0.00     0.082 A 
HETATM   11  C21 UNL     1      -1.997   0.696   0.751  1.00  0.00    -0.021 A 
HETATM   12  C22 UNL     1      -1.857   2.163   0.972  1.00  0.00     0.051 C 
ENDROOT
BRANCH   1  13
HETATM   13  C11 UNL     1       0.235   0.350   1.588  1.00  0.00     0.053 C 
BRANCH  13  14
HETATM   14  C10 UNL     1       1.437   0.213   1.106  1.00  0.00     0.127 A 
HETATM   15  C9  UNL     1       1.889  -0.510  -0.062  1.00  0.00     0.218 A 
HETATM   16  C5  UNL     1       3.351  -0.322  -0.120  1.00  0.00     0.054 A 
HETATM   17  O3  UNL     1       1.244  -1.180  -0.903  1.00  0.00    -0.284 OA
HETATM   18  C4  UNL     1       3.716   0.463   0.950  1.00  0.00     0.093 A 
HETATM   19  C6  UNL     1       4.260  -0.803  -1.035  1.00  0.00     0.058 A 
HETATM   20  C3  UNL     1       5.072   0.766   1.083  1.00  0.00     0.077 A 
HETATM   21  O4  UNL     1       2.597   0.792   1.690  1.00  0.00    -0.306 OA
HETATM   22  C2  UNL     1       5.992   0.293   0.177  1.00  0.00     0.104 A 
HETATM   23  C7  UNL     1       5.596  -0.493  -0.887  1.00  0.00     0.102 A 
BRANCH  22  24
HETATM   24  O1  UNL     1       7.351   0.576   0.281  1.00  0.00    -0.353 OA
HETATM   25  C1  UNL     1       7.768   1.381   1.369  1.00  0.00     0.210 C 
ENDBRANCH  22  24
BRANCH  23  26
HETATM   26  O2  UNL     1       6.538  -0.955  -1.783  1.00  0.00    -0.353 OA
HETATM   27  C8  UNL     1       6.222  -1.762  -2.897  1.00  0.00     0.210 C 
ENDBRANCH  23  26
ENDBRANCH  13  14
ENDBRANCH   1  13
BRANCH   7  28
HETATM   28  C16 UNL     1      -6.575   0.171  -1.171  1.00  0.00     0.030 C 
HETATM   29  C17 UNL     1      -7.113  -1.156  -1.654  1.00  0.00     0.016 C 
HETATM   30  C18 UNL     1      -7.493   0.616  -0.043  1.00  0.00     0.016 C 
ENDBRANCH   7  28
TORSDOF 5
