REMARK  0 active torsions:
REMARK  status: ('A' for Active; 'I' for Inactive)
ROOT
HETATM    1  C1  UNL     1      -0.227   1.240  -1.543  1.00  0.00     0.168 C 
HETATM    2  C2  UNL     1      -0.166   1.522  -0.034  1.00  0.00     0.034 C 
HETATM    3  C3  UNL     1       0.156   0.184   0.470  1.00  0.00     0.027 C 
HETATM    4  C4  UNL     1      -0.363  -0.199   1.814  1.00  0.00     0.081 C 
HETATM    5  S1  UNL     1      -0.256  -2.035   1.621  1.00  0.00    -0.166 SA
HETATM    6  C5  UNL     1      -0.086  -2.053  -0.217  1.00  0.00     0.106 C 
HETATM    7  C6  UNL     1      -0.650  -0.695  -0.504  1.00  0.00     0.135 C 
HETATM    8  O1  UNL     1      -0.296  -0.135  -1.695  1.00  0.00    -0.385 OA
ENDROOT
TORSDOF 0
