REMARK  5 active torsions:
REMARK  status: ('A' for Active; 'I' for Inactive)
REMARK    1  A    between atoms: C2_2  and  C3_3 
REMARK    2  A    between atoms: C2_2  and  C5_11 
REMARK    3  A    between atoms: C3_3  and  C4_4 
REMARK    4  A    between atoms: C4_4  and  O1_5 
REMARK    5  A    between atoms: N1_7  and  O2_9 
ROOT
HETATM    1  C5  UNL     1      -0.061   1.057   0.022  1.00  0.00    -0.006 C 
HETATM    2  C6  UNL     1      -0.275   1.289   1.524  1.00  0.00     0.006 C 
HETATM    3  C7  UNL     1      -1.752   1.006   1.750  1.00  0.00     0.011 C 
HETATM    4  C8  UNL     1      -1.921  -0.125   0.774  1.00  0.00     0.035 C 
HETATM    5  C9  UNL     1      -3.259  -0.323   0.244  1.00  0.00    -0.016 C 
HETATM    6  N2  UNL     1      -4.378  -0.241   0.845  1.00  0.00    -0.405 N 
ATOM      7  H21 UNL     1      -5.317  -0.380   0.473  1.00  0.00     0.155 HD
ATOM      8  H22 UNL     1      -4.497  -0.014   1.832  1.00  0.00     0.155 HD
HETATM    9  C10 UNL     1      -3.085  -0.655  -1.200  1.00  0.00     0.053 C 
HETATM   10  C11 UNL     1      -1.598  -0.349  -1.495  1.00  0.00     0.011 C 
HETATM   11  C12 UNL     1      -1.325   0.607  -0.449  1.00  0.00    -0.000 C 
ENDROOT
BRANCH   1  12
HETATM   12  C2  UNL     1       1.208   0.359  -0.277  1.00  0.00    -0.007 C 
HETATM   13  C1  UNL     1       2.348   1.248   0.253  1.00  0.00     0.011 C 
BRANCH  12  14
HETATM   14  C3  UNL     1       1.412  -0.984   0.285  1.00  0.00     0.090 C 
BRANCH  14  15
HETATM   15  C4  UNL     1       2.724  -1.505  -0.163  1.00  0.00     0.135 C 
HETATM   16  N1  UNL     1       3.443  -0.819  -0.975  1.00  0.00    -0.251 N 
ATOM     17  H1  UNL     1       3.075   0.079  -1.288  1.00  0.00     0.196 HD
BRANCH  15  18
HETATM   18  O1  UNL     1       3.235  -2.731   0.256  1.00  0.00    -0.348 OA
ATOM     19  H1  UNL     1       4.077  -3.065  -0.031  1.00  0.00     0.219 HD
ENDBRANCH  15  18
BRANCH  16  20
HETATM   20  O2  UNL     1       4.653  -1.200  -1.446  1.00  0.00    -0.288 OA
ATOM     21  H2  UNL     1       5.185  -0.692  -2.047  1.00  0.00     0.244 HD
ENDBRANCH  16  20
ENDBRANCH  14  15
ENDBRANCH  12  14
ENDBRANCH   1  12
TORSDOF 5
