REMARK  11 active torsions:
REMARK  status: ('A' for Active; 'I' for Inactive)
REMARK    1  A    between atoms: C2_2  and  N1_3 
REMARK    2  A    between atoms: N1_3  and  C4_5 
REMARK    3  A    between atoms: C4_5  and  C5_6 
REMARK    4  A    between atoms: N2_9  and  N3_10 
REMARK    5  A    between atoms: C8_13  and  N4_14 
REMARK    6  A    between atoms: N4_14  and  C9_16 
REMARK    7  A    between atoms: C9_16  and  C10_17 
REMARK    8  A    between atoms: C10_17  and  N5_18 
REMARK    9  A    between atoms: N5_18  and  C11_20 
REMARK   10  A    between atoms: C14_26  and  O2_27 
REMARK   11  A    between atoms: N8_31  and  O3_32 
ROOT
HETATM    1  C5  UNL     1      -2.682  -0.255  -0.782  1.00  0.00     0.066 A 
HETATM    2  C6  UNL     1      -1.599   0.353  -0.189  1.00  0.00     0.061 A 
HETATM    3  C7  UNL     1      -1.747   1.632   0.488  1.00  0.00     0.072 C 
HETATM    4  N2  UNL     1      -0.415  -0.261  -0.266  1.00  0.00    -0.095 N 
HETATM    5  C8  UNL     1      -0.192  -1.410  -0.873  1.00  0.00     0.732 A 
HETATM    6  N8  UNL     1      -1.257  -2.014  -1.482  1.00  0.00    -0.011 N 
HETATM    7  C15 UNL     1      -2.479  -1.436  -1.429  1.00  0.00     0.298 A 
HETATM    8  O4  UNL     1      -3.462  -2.026  -2.011  1.00  0.00    -0.264 OA
ENDROOT
BRANCH   5   9
HETATM    9  N4  UNL     1       0.849  -2.121  -0.806  1.00  0.00    -0.200 N 
ATOM     10  H4  UNL     1       0.811  -2.964  -1.379  1.00  0.00     0.183 HD
BRANCH   9  11
HETATM   11  C9  UNL     1       2.023  -1.975  -0.108  1.00  0.00     0.098 C 
BRANCH  11  12
HETATM   12  C10 UNL     1       3.119  -1.173  -0.738  1.00  0.00     0.166 C 
BRANCH  12  13
HETATM   13  N5  UNL     1       4.147  -0.947   0.325  1.00  0.00    -0.371 N 
ATOM     14  H5  UNL     1       4.090  -1.469   1.199  1.00  0.00     0.161 HD
BRANCH  13  15
HETATM   15  C11 UNL     1       5.172  -0.041   0.139  1.00  0.00     0.109 A 
HETATM   16  C12 UNL     1       5.394   0.703  -0.957  1.00  0.00     0.122 A 
HETATM   17  C13 UNL     1       6.299   1.771  -1.050  1.00  0.00     0.251 A 
HETATM   18  O1  UNL     1       6.462   2.420  -2.077  1.00  0.00    -0.268 OA
HETATM   19  N6  UNL     1       7.027   2.085   0.093  1.00  0.00    -0.289 N 
HETATM   20  C14 UNL     1       6.777   1.314   1.173  1.00  0.00     0.225 A 
ATOM     21  H6  UNL     1       7.705   2.847   0.114  1.00  0.00     0.172 HD
HETATM   22  N7  UNL     1       5.935   0.308   1.262  1.00  0.00    -0.308 N 
ATOM     23  H7  UNL     1       5.838  -0.211   2.135  1.00  0.00     0.171 HD
BRANCH  20  24
HETATM   24  O2  UNL     1       7.474   1.638   2.230  1.00  0.00    -0.332 OA
ATOM     25  H2  UNL     1       7.298   1.096   2.990  1.00  0.00     0.221 HD
ENDBRANCH  20  24
ENDBRANCH  13  15
ENDBRANCH  12  13
ENDBRANCH  11  12
ENDBRANCH   9  11
ENDBRANCH   5   9
BRANCH   4  26
HETATM   26  N3  UNL     1       0.619   0.384   0.432  1.00  0.00    -0.324 N 
ATOM     27  H32 UNL     1       0.446   1.273   0.902  1.00  0.00     0.178 HD
ATOM     28  H31 UNL     1       1.523  -0.085   0.373  1.00  0.00     0.178 HD
ENDBRANCH   4  26
BRANCH   6  29
HETATM   29  O3  UNL     1      -1.151  -3.208  -2.131  1.00  0.00    -0.266 OA
ATOM     30  H3  UNL     1      -1.891  -3.628  -2.554  1.00  0.00     0.246 HD
ENDBRANCH   6  29
BRANCH   1  31
HETATM   31  C4  UNL     1      -3.966   0.467  -0.649  1.00  0.00     0.318 C 
BRANCH  31  32
HETATM   32  N1  UNL     1      -4.960  -0.342   0.105  1.00  0.00     0.088 N 
HETATM   33  C3  UNL     1      -4.294  -1.329   0.952  1.00  0.00     0.310 C 
BRANCH  32  34
HETATM   34  C2  UNL     1      -5.517   0.585   1.123  1.00  0.00     0.268 C 
HETATM   35  C1  UNL     1      -6.175   1.772   0.574  1.00  0.00     0.037 C 
ENDBRANCH  32  34
ENDBRANCH  31  32
ENDBRANCH   1  31
TORSDOF 11
