REMARK  4 active torsions:
REMARK  status: ('A' for Active; 'I' for Inactive)
REMARK    1  A    between atoms: C4_5  and  C5_6 
REMARK    2  A    between atoms: C5_6  and  O1_7 
REMARK    3  A    between atoms: O1_7  and  C6_8 
REMARK    4  A    between atoms: C9_12  and  C10_13 
ROOT
HETATM    1  C10 UNL     1       2.620   1.138   1.085  1.00  0.00     0.070 C 
HETATM    2  C11 UNL     1       2.364   2.586   0.990  1.00  0.00     0.041 C 
HETATM    3  C12 UNL     1       3.150   3.405   0.044  1.00  0.00     0.178 C 
HETATM    4  O2  UNL     1       3.973   2.710  -0.862  1.00  0.00    -0.335 OA
HETATM    5  C13 UNL     1       4.443   1.424  -0.606  1.00  0.00     0.159 A 
HETATM    6  C14 UNL     1       3.797   0.651   0.335  1.00  0.00     0.027 A 
HETATM    7  C15 UNL     1       4.472  -0.546   0.373  1.00  0.00     0.100 A 
HETATM    8  C16 UNL     1       4.201  -1.713   1.197  1.00  0.00     0.104 C 
HETATM    9  N2  UNL     1       4.001  -2.640   1.864  1.00  0.00    -0.191 NA
HETATM   10  C17 UNL     1       5.507  -0.442  -0.557  1.00  0.00     0.135 A 
HETATM   11  N3  UNL     1       6.457  -1.320  -0.914  1.00  0.00    -0.351 N 
ATOM     12  H3  UNL     1       6.486  -2.238  -0.470  1.00  0.00     0.166 HD
HETATM   13  C18 UNL     1       7.365  -1.009  -1.843  1.00  0.00     0.091 A 
HETATM   14  C19 UNL     1       7.383   0.217  -2.482  1.00  0.00     0.035 A 
HETATM   15  C20 UNL     1       6.384   1.092  -2.081  1.00  0.00     0.102 A 
HETATM   16  N4  UNL     1       5.481   0.758  -1.146  1.00  0.00    -0.287 N 
ENDROOT
BRANCH   1  17
HETATM   17  C9  UNL     1       1.391   0.308   0.763  1.00  0.00     0.033 A 
HETATM   18  C8  UNL     1       0.684   0.303  -0.408  1.00  0.00     0.133 A 
HETATM   19  C7  UNL     1      -0.388  -0.523  -0.476  1.00  0.00     0.087 A 
HETATM   20  F1  UNL     1       1.043   1.112  -1.495  1.00  0.00    -0.205 F 
HETATM   21  C6  UNL     1      -0.684  -1.283   0.618  1.00  0.00     0.113 A 
HETATM   22  S1  UNL     1       0.566  -0.815   1.727  1.00  0.00    -0.066 SA
BRANCH  21  23
HETATM   23  O1  UNL     1      -1.688  -2.210   0.866  1.00  0.00    -0.343 OA
BRANCH  23  24
HETATM   24  C5  UNL     1      -2.717  -2.561   0.033  1.00  0.00     0.181 C 
BRANCH  24  25
HETATM   25  C4  UNL     1      -3.634  -1.386  -0.203  1.00  0.00     0.013 C 
HETATM   26  C3  UNL     1      -4.150  -1.012   1.202  1.00  0.00     0.026 C 
HETATM   27  C2  UNL     1      -5.014   0.223   1.077  1.00  0.00     0.117 C 
HETATM   28  N1  UNL     1      -6.043   0.007   0.112  1.00  0.00    -0.417 N 
HETATM   29  C1  UNL     1      -6.244   1.072  -0.816  1.00  0.00     0.143 C 
HETATM   30  C22 UNL     1      -6.065  -1.305  -0.448  1.00  0.00     0.117 C 
HETATM   31  C21 UNL     1      -4.799  -1.752  -1.100  1.00  0.00     0.026 C 
ENDBRANCH  24  25
ENDBRANCH  23  24
ENDBRANCH  21  23
ENDBRANCH   1  17
TORSDOF 4
