REMARK  4 active torsions:
REMARK  status: ('A' for Active; 'I' for Inactive)
REMARK    1  A    between atoms: S1_2  and  C1_4 
REMARK    2  A    between atoms: S1_2  and  N2_16 
REMARK    3  A    between atoms: C2_6  and  C3_7 
REMARK    4  A    between atoms: C11_20  and  C12_21 
ROOT
HETATM    1  O1  UNL     1       0.199  -2.082  -2.205  1.00  0.00    -0.205 OA
HETATM    2  S1  UNL     1       0.207  -0.769  -1.472  1.00  0.00     0.253 S 
HETATM    3  O2  UNL     1      -0.299   0.294  -2.371  1.00  0.00    -0.205 OA
ENDROOT
BRANCH   2   4
HETATM    4  C1  UNL     1       1.882  -0.442  -1.051  1.00  0.00     0.155 A 
HETATM    5  S2  UNL     1       2.630   1.076  -0.686  1.00  0.00    -0.055 SA
HETATM    6  C2  UNL     1       4.216   0.521  -0.430  1.00  0.00     0.093 A 
HETATM    7  N1  UNL     1       4.102  -0.780  -0.633  1.00  0.00    -0.338 N 
HETATM    8  C7  UNL     1       2.954  -1.287  -0.944  1.00  0.00     0.134 A 
ATOM      9  H1  UNL     1       4.919  -1.384  -0.544  1.00  0.00     0.167 HD
HETATM   10 CL1  UNL     1       2.744  -3.035  -1.254  1.00  0.00    -0.062 Cl
BRANCH   6  11
HETATM   11  C3  UNL     1       5.446   1.239  -0.073  1.00  0.00     0.038 A 
HETATM   12  C4  UNL     1       5.578   2.582   0.140  1.00  0.00     0.022 A 
HETATM   13  C5  UNL     1       6.796   3.038   0.458  1.00  0.00     0.008 A 
HETATM   14  C6  UNL     1       7.810   2.118   0.544  1.00  0.00     0.050 A 
HETATM   15  S3  UNL     1       7.019   0.650   0.176  1.00  0.00    -0.099 SA
ENDBRANCH   6  11
ENDBRANCH   2   4
BRANCH   2  16
HETATM   16  N2  UNL     1      -0.767  -0.927  -0.089  1.00  0.00    -0.201 NA
HETATM   17  C8  UNL     1      -0.427  -1.992   0.799  1.00  0.00     0.108 C 
HETATM   18  C9  UNL     1      -1.243  -3.194   0.373  1.00  0.00     0.017 C 
HETATM   19  C10 UNL     1      -2.524  -2.547  -0.111  1.00  0.00     0.022 C 
HETATM   20  C11 UNL     1      -2.138  -1.163  -0.509  1.00  0.00     0.078 C 
BRANCH  20  21
HETATM   21  C12 UNL     1      -3.116  -0.154  -0.011  1.00  0.00     0.008 C 
HETATM   22  C13 UNL     1      -3.182  -0.029   1.492  1.00  0.00     0.032 C 
HETATM   23  C14 UNL     1      -4.124   1.095   1.872  1.00  0.00     0.168 C 
HETATM   24  O3  UNL     1      -4.892   1.498   0.772  1.00  0.00    -0.391 OA
HETATM   25  C15 UNL     1      -4.093   2.086  -0.208  1.00  0.00     0.168 C 
HETATM   26  C16 UNL     1      -2.958   1.217  -0.635  1.00  0.00     0.032 C 
ENDBRANCH  20  21
ENDBRANCH   2  16
TORSDOF 4
