REMARK  4 active torsions:
REMARK  status: ('A' for Active; 'I' for Inactive)
REMARK    1  A    between atoms: N1_1  and  S1_4 
REMARK    2  A    between atoms: S1_4  and  C1_7 
REMARK    3  A    between atoms: C4_10  and  N2_11 
REMARK    4  A    between atoms: N2_11  and  C5_13 
ROOT
HETATM    1  C5  UNL     1      -1.126  -0.755  -0.009  1.00  0.00     0.074 A 
HETATM    2  C6  UNL     1      -2.145  -1.682   0.034  1.00  0.00     0.020 A 
HETATM    3  C7  UNL     1      -1.893  -3.038   0.123  1.00  0.00     0.016 A 
HETATM    4  C8  UNL     1      -2.866  -3.994   0.169  1.00  0.00     0.001 A 
HETATM    5  C9  UNL     1      -4.181  -3.571   0.124  1.00  0.00     0.002 A 
HETATM    6  C10 UNL     1      -4.476  -2.227   0.036  1.00  0.00     0.030 A 
HETATM    7  C11 UNL     1      -3.472  -1.276  -0.010  1.00  0.00     0.045 A 
HETATM    8  N3  UNL     1      -3.769   0.036  -0.096  1.00  0.00    -0.354 N 
ATOM      9  H3  UNL     1      -4.745   0.329  -0.128  1.00  0.00     0.166 HD
HETATM   10  C12 UNL     1      -2.790   0.971  -0.141  1.00  0.00     0.062 A 
HETATM   11  C13 UNL     1      -3.130   2.304  -0.229  1.00  0.00     0.033 A 
HETATM   12  C14 UNL     1      -2.144   3.267  -0.275  1.00  0.00     0.019 A 
HETATM   13  C15 UNL     1      -0.836   2.871  -0.232  1.00  0.00     0.088 A 
HETATM   14  N4  UNL     1      -0.559   1.563  -0.146  1.00  0.00    -0.362 N 
ATOM     15  H4  UNL     1       0.427   1.302  -0.115  1.00  0.00     0.165 HD
HETATM   16  C16 UNL     1      -1.443   0.574  -0.097  1.00  0.00     0.087 A 
ENDROOT
BRANCH   1  17
HETATM   17  N2  UNL     1       0.068  -1.151   0.032  1.00  0.00    -0.354 N 
ATOM     18  H2  UNL     1       0.169  -2.164   0.096  1.00  0.00     0.166 HD
BRANCH  17  19
HETATM   19  C4  UNL     1       1.276  -0.460   0.006  1.00  0.00     0.032 A 
HETATM   20  C3  UNL     1       1.926  -0.164  -1.172  1.00  0.00     0.031 A 
HETATM   21  C2  UNL     1       3.126   0.514  -1.171  1.00  0.00     0.027 A 
HETATM   22  C1  UNL     1       3.693   0.907   0.007  1.00  0.00     0.079 A 
HETATM   23  C18 UNL     1       3.047   0.614   1.182  1.00  0.00     0.027 A 
HETATM   24  C17 UNL     1       1.861  -0.057   1.169  1.00  0.00     0.031 A 
BRANCH  22  25
HETATM   25  S1  UNL     1       5.211   1.772   0.098  1.00  0.00     0.256 S 
HETATM   26  O1  UNL     1       5.255   2.581   1.376  1.00  0.00    -0.201 OA
HETATM   27  O2  UNL     1       5.400   2.645  -1.085  1.00  0.00    -0.201 OA
BRANCH  25  28
HETATM   28  N1  UNL     1       6.482   0.602   0.213  1.00  0.00    -0.324 N 
ATOM     29  H12 UNL     1       7.126   0.492   0.996  1.00  0.00     0.169 HD
ATOM     30  H11 UNL     1       6.452   0.057  -0.648  1.00  0.00     0.169 HD
ENDBRANCH  25  28
ENDBRANCH  22  25
ENDBRANCH  17  19
ENDBRANCH   1  17
TORSDOF 4
