REMARK  4 active torsions:
REMARK  status: ('A' for Active; 'I' for Inactive)
REMARK    1  A    between atoms: S1_2  and  C2_4 
REMARK    2  A    between atoms: C5_7  and  C6_8 
REMARK    3  A    between atoms: C7_9  and  C8_10 
REMARK    4  A    between atoms: C11_13  and  C12_14 
ROOT
HETATM    1  C8  UNL     1      -0.372  -0.486   0.124  1.00  0.00     0.018 A 
HETATM    2  C9  UNL     1      -1.103  -1.434   0.800  1.00  0.00     0.021 A 
HETATM    3  C10 UNL     1      -2.485  -1.470   0.769  1.00  0.00     0.015 A 
HETATM    4  C11 UNL     1      -3.189  -0.543   0.050  1.00  0.00    -0.007 A 
HETATM    5  C18 UNL     1      -2.474   0.435  -0.648  1.00  0.00     0.015 A 
HETATM    6  C19 UNL     1      -1.096   0.446  -0.599  1.00  0.00     0.021 A 
ENDROOT
BRANCH   1   7
HETATM    7  C7  UNL     1       1.059  -0.488   0.185  1.00  0.00    -0.060 C 
HETATM    8  C6  UNL     1       2.265  -0.472   0.225  1.00  0.00    -0.043 C 
BRANCH   8   9
HETATM    9  C5  UNL     1       3.702  -0.429   0.266  1.00  0.00     0.086 A 
HETATM   10  C4  UNL     1       4.367   0.225   1.295  1.00  0.00     0.040 A 
HETATM   11  C3  UNL     1       5.731   0.284   1.363  1.00  0.00     0.025 A 
HETATM   12  C2  UNL     1       6.453  -0.333   0.365  1.00  0.00     0.046 A 
HETATM   13  C20 UNL     1       5.763  -0.979  -0.651  1.00  0.00     0.110 A 
HETATM   14  N4  UNL     1       4.419  -1.015  -0.682  1.00  0.00    -0.358 N 
ATOM     15  H4  UNL     1       3.946  -1.499  -1.445  1.00  0.00     0.166 HD
BRANCH  12  16
HETATM   16  S1  UNL     1       8.198  -0.280   0.416  1.00  0.00     0.047 S 
HETATM   17  C1  UNL     1       8.728   1.157  -0.459  1.00  0.00     0.133 C 
HETATM   18  O1  UNL     1       8.852  -1.690  -0.193  1.00  0.00    -0.253 OA
ENDBRANCH  12  16
ENDBRANCH   8   9
ENDBRANCH   1   7
BRANCH   4  19
HETATM   19  C12 UNL     1      -4.642  -0.574   0.014  1.00  0.00     0.071 A 
HETATM   20  N1  UNL     1      -5.264  -1.745  -0.172  1.00  0.00    -0.363 N 
HETATM   21  C13 UNL     1      -6.607  -1.851  -0.218  1.00  0.00     0.089 A 
ATOM     22  H1  UNL     1      -4.701  -2.588  -0.283  1.00  0.00     0.165 HD
HETATM   23  C14 UNL     1      -7.369  -0.721  -0.069  1.00  0.00     0.032 A 
HETATM   24  C15 UNL     1      -6.803   0.504   0.124  1.00  0.00     0.012 A 
HETATM   25  C16 UNL     1      -7.204   1.805   0.307  1.00  0.00     0.120 A 
HETATM   26  C17 UNL     1      -5.405   0.560   0.163  1.00  0.00     0.087 A 
HETATM   27  N2  UNL     1      -6.127   2.594   0.446  1.00  0.00    -0.310 N 
HETATM   28  N3  UNL     1      -5.052   1.834   0.358  1.00  0.00    -0.298 N 
ATOM     29  H2  UNL     1      -6.138   3.603   0.594  1.00  0.00     0.186 HD
ATOM     30  H3  UNL     1      -4.092   2.170   0.429  1.00  0.00     0.187 HD
ENDBRANCH   4  19
TORSDOF 4
