REMARK  5 active torsions:
REMARK  status: ('A' for Active; 'I' for Inactive)
REMARK    1  A    between atoms: N1_1  and  N2_4 
REMARK    2  A    between atoms: N2_4  and  N3_6 
REMARK       I    between atoms: N3_6  and  C1_8 
REMARK       I    between atoms: C1_8  and  N5_12 
REMARK    3  A    between atoms: N5_12  and  C2_14 
REMARK    4  A    between atoms: C2_14  and  C3_15 
REMARK    5  A    between atoms: C3_15  and  C4_16 
ROOT
HETATM    1  N3  UNL     1      -2.673   2.753  -0.397  1.00  0.00    -0.119 N 
ATOM      2  H3  UNL     1      -2.363   2.991  -1.339  1.00  0.00     0.207 HD
HETATM    3  C1  UNL     1      -2.197   1.522   0.208  1.00  0.00     0.688 C 
HETATM    4  N4  UNL     1      -2.274   1.475   1.489  1.00  0.00    -0.234 N 
ATOM      5  H41 UNL     1      -1.940   0.610   1.914  1.00  0.00     0.174 HD
ATOM      6  H42 UNL     1      -2.639   2.230   2.069  1.00  0.00     0.174 HD
HETATM    7  N5  UNL     1      -1.695   0.482  -0.591  1.00  0.00    -0.214 N 
ATOM      8  H5  UNL     1      -2.146   0.286  -1.485  1.00  0.00     0.178 HD
ENDROOT
BRANCH   7   9
HETATM    9  C2  UNL     1      -0.537  -0.338  -0.182  1.00  0.00     0.071 C 
HETATM   10  C8  UNL     1      -0.944  -1.187   1.000  1.00  0.00     0.036 C 
HETATM   11  C9  UNL     1      -0.902  -2.686   0.668  1.00  0.00     0.029 C 
HETATM   12  C10 UNL     1      -1.717  -2.884  -0.573  1.00  0.00     0.167 C 
HETATM   13  O2  UNL     1      -1.487  -1.935  -1.567  1.00  0.00    -0.389 OA
HETATM   14  C11 UNL     1      -0.235  -1.299  -1.311  1.00  0.00     0.199 C 
BRANCH   9  15
HETATM   15  C3  UNL     1       0.552   0.625   0.069  1.00  0.00     0.065 C 
BRANCH  15  16
HETATM   16  C4  UNL     1       1.876   0.152   0.511  1.00  0.00     0.123 C 
HETATM   17  C5  UNL     1       2.632  -0.753  -0.396  1.00  0.00     0.034 C 
HETATM   18  C6  UNL     1       4.071  -0.208  -0.278  1.00  0.00     0.029 C 
HETATM   19  C7  UNL     1       3.740   1.276  -0.120  1.00  0.00     0.168 C 
HETATM   20  O1  UNL     1       2.682   1.266   0.734  1.00  0.00    -0.386 OA
ENDBRANCH  15  16
ENDBRANCH   9  15
ENDBRANCH   7   9
BRANCH   1  21
HETATM   21  N2  UNL     1      -3.540   3.621   0.266  1.00  0.00    -0.235 N 
ATOM     22  H2  UNL     1      -4.467   3.309   0.554  1.00  0.00     0.208 HD
BRANCH  21  23
HETATM   23  N1  UNL     1      -3.148   4.822   0.507  1.00  0.00    -0.330 N 
ATOM     24  H12 UNL     1      -2.218   5.118   0.212  1.00  0.00     0.178 HD
ATOM     25  H11 UNL     1      -3.782   5.457   0.992  1.00  0.00     0.178 HD
ENDBRANCH  21  23
ENDBRANCH   1  21
TORSDOF 5
