REMARK  14 active torsions:
REMARK  status: ('A' for Active; 'I' for Inactive)
REMARK    1  A    between atoms: C2_2  and  C3_3 
REMARK    2  A    between atoms: C2_2  and  C23_39 
REMARK    3  A    between atoms: C3_3  and  N1_4 
REMARK    4  A    between atoms: N1_4  and  C4_7 
REMARK    5  A    between atoms: C4_7  and  C5_8 
REMARK    6  A    between atoms: C4_7  and  C12_15 
REMARK    7  A    between atoms: C5_8  and  C6_9 
REMARK    8  A    between atoms: C12_15  and  N2_16 
REMARK    9  A    between atoms: C15_22  and  C16_23 
REMARK   10  A    between atoms: C16_23  and  O2_25 
REMARK   11  A    between atoms: O2_25  and  C17_26 
REMARK   12  A    between atoms: C19_29  and  C20_30 
REMARK   13  A    between atoms: C21_33  and  O4_34 
REMARK   14  A    between atoms: C22_36  and  O5_37 
ROOT
HETATM    1  N2  UNL     1       1.095   0.440  -0.936  1.00  0.00    -0.355 N 
HETATM    2  C13 UNL     1       1.608   1.688  -0.760  1.00  0.00     0.152 C 
HETATM    3  C14 UNL     1       1.781   1.782   0.759  1.00  0.00     0.255 C 
HETATM    4  N3  UNL     1       1.532   0.416   1.297  1.00  0.00    -0.043 N 
ATOM      5  H31 UNL     1       0.659   0.305   1.812  1.00  0.00     0.280 HD
ATOM      6  H32 UNL     1       2.134   0.138   2.072  1.00  0.00     0.280 HD
HETATM    7  C15 UNL     1       1.652  -0.403   0.092  1.00  0.00     0.386 C 
ENDROOT
BRANCH   1   8
HETATM    8  C12 UNL     1      -0.183   0.004  -1.308  1.00  0.00     0.093 C 
BRANCH   8   9
HETATM    9  C4  UNL     1      -1.334   0.242  -0.393  1.00  0.00     0.224 C 
BRANCH   9  10
HETATM   10  N1  UNL     1      -2.516  -0.473  -0.837  1.00  0.00    -0.066 N 
ATOM     11  H12 UNL     1      -2.818  -0.139  -1.752  1.00  0.00     0.278 HD
ATOM     12  H11 UNL     1      -3.330  -0.206  -0.283  1.00  0.00     0.278 HD
BRANCH  10  13
HETATM   13  C3  UNL     1      -2.352  -1.895  -0.844  1.00  0.00     0.238 C 
BRANCH  13  14
HETATM   14  C2  UNL     1      -3.644  -2.608  -1.128  1.00  0.00     0.014 C 
HETATM   15  C1  UNL     1      -4.265  -2.235  -2.458  1.00  0.00     0.012 C 
BRANCH  14  16
HETATM   16  C23 UNL     1      -4.589  -2.787  -0.005  1.00  0.00    -0.047 C 
HETATM   17  C24 UNL     1      -5.475  -1.650   0.342  1.00  0.00     0.015 C 
HETATM   18  C25 UNL     1      -3.784  -3.246   1.229  1.00  0.00     0.015 C 
HETATM   19  C26 UNL     1      -5.491  -3.994  -0.311  1.00  0.00     0.015 C 
ENDBRANCH  14  16
ENDBRANCH  13  14
ENDBRANCH  10  13
ENDBRANCH   9  10
BRANCH   9  20
HETATM   20  C5  UNL     1      -1.725   1.695  -0.444  1.00  0.00     0.043 C 
BRANCH  20  21
HETATM   21  C6  UNL     1      -2.706   2.306   0.452  1.00  0.00    -0.012 C 
HETATM   22  C7  UNL     1      -4.081   1.854   0.612  1.00  0.00     0.005 C 
HETATM   23  C8  UNL     1      -4.889   2.909   1.388  1.00  0.00     0.000 C 
HETATM   24  C9  UNL     1      -3.987   3.944   2.015  1.00  0.00     0.000 C 
HETATM   25  C10 UNL     1      -3.146   4.669   1.005  1.00  0.00     0.000 C 
HETATM   26  C11 UNL     1      -2.848   3.761  -0.139  1.00  0.00     0.005 C 
ENDBRANCH  20  21
ENDBRANCH   9  20
ENDBRANCH   8   9
ENDBRANCH   1   8
BRANCH   7  27
HETATM   27  C16 UNL     1       2.929  -0.971  -0.150  1.00  0.00     0.312 C 
HETATM   28  O1  UNL     1       3.092  -2.246  -0.024  1.00  0.00    -0.261 OA
BRANCH  27  29
HETATM   29  O2  UNL     1       4.053  -0.272  -0.500  1.00  0.00    -0.284 OA
BRANCH  29  30
HETATM   30  C17 UNL     1       5.276  -0.947  -0.726  1.00  0.00     0.300 C 
HETATM   31  O3  UNL     1       6.086  -0.355  -1.555  1.00  0.00    -0.357 OA
HETATM   32  C18 UNL     1       7.142   0.426  -1.256  1.00  0.00     0.183 C 
HETATM   33  C19 UNL     1       7.796   0.155   0.050  1.00  0.00     0.106 C 
HETATM   34  C21 UNL     1       7.364  -1.214   0.576  1.00  0.00     0.163 C 
HETATM   35  C22 UNL     1       5.857  -1.068   0.726  1.00  0.00     0.203 C 
BRANCH  33  36
HETATM   36  C20 UNL     1       9.301   0.157   0.051  1.00  0.00     0.361 C 
HETATM   37  F1  UNL     1       9.807   1.372  -0.339  1.00  0.00    -0.214 F 
HETATM   38  F2  UNL     1       9.685  -0.034   1.388  1.00  0.00    -0.214 F 
ENDBRANCH  33  36
BRANCH  34  39
HETATM   39  O4  UNL     1       7.735  -2.142  -0.366  1.00  0.00    -0.392 OA
ATOM     40  H4  UNL     1       7.467  -2.993  -0.039  1.00  0.00     0.210 HD
ENDBRANCH  34  39
BRANCH  35  41
HETATM   41  O5  UNL     1       5.553   0.071   1.406  1.00  0.00    -0.388 OA
ATOM     42  H5  UNL     1       5.905  -0.002   2.285  1.00  0.00     0.210 HD
ENDBRANCH  35  41
ENDBRANCH  29  30
ENDBRANCH  27  29
ENDBRANCH   7  27
TORSDOF 14
