REMARK  12 active torsions:
REMARK  status: ('A' for Active; 'I' for Inactive)
REMARK    1  A    between atoms: C1_2  and  O2_3 
REMARK    2  A    between atoms: C1_2  and  C19_32 
REMARK    3  A    between atoms: O2_3  and  C2_4 
REMARK    4  A    between atoms: C3_6  and  C4_7 
REMARK    5  A    between atoms: C5_10  and  C6_11 
REMARK    6  A    between atoms: C10_16  and  C11_17 
REMARK    7  A    between atoms: C11_17  and  N1_18 
REMARK    8  A    between atoms: N1_18  and  S2_19 
REMARK    9  A    between atoms: S2_19  and  C12_22 
REMARK   10  A    between atoms: C17_27  and  O6_28 
REMARK   11  A    between atoms: O6_28  and  C18_29 
REMARK   12  A    between atoms: C18_29  and  O7_30 
ROOT
HETATM    1  C2  UNL     1       1.238   1.703   1.575  1.00  0.00     0.134 A 
HETATM    2  S1  UNL     1       2.063   2.881   2.470  1.00  0.00    -0.062 SA
HETATM    3  C3  UNL     1       1.265   4.288   1.844  1.00  0.00     0.063 A 
HETATM    4  C5  UNL     1       0.376   3.786   0.955  1.00  0.00     0.032 A 
HETATM    5  C10 UNL     1       0.367   2.403   0.815  1.00  0.00     0.049 A 
ENDROOT
BRANCH   5   6
HETATM    6  C11 UNL     1      -0.552   1.646  -0.115  1.00  0.00     0.213 C 
BRANCH   6   7
HETATM    7  N1  UNL     1      -0.668   0.503  -0.300  1.00  0.00    -0.331 NA
BRANCH   7   8
HETATM    8  S2  UNL     1      -0.753  -1.107  -0.486  1.00  0.00     0.327 S 
HETATM    9  O4  UNL     1       0.453  -1.736  -1.192  1.00  0.00    -0.186 OA
HETATM   10  O5  UNL     1      -1.005  -1.843   0.822  1.00  0.00    -0.186 OA
BRANCH   8  11
HETATM   11  C12 UNL     1      -2.116  -1.576  -1.508  1.00  0.00     0.126 A 
HETATM   12  C13 UNL     1      -2.931  -0.623  -2.060  1.00  0.00     0.029 A 
HETATM   13  C14 UNL     1      -4.006  -1.013  -2.877  1.00  0.00     0.002 A 
HETATM   14  C15 UNL     1      -4.249  -2.349  -3.128  1.00  0.00     0.003 A 
HETATM   15  C16 UNL     1      -3.428  -3.290  -2.570  1.00  0.00     0.038 A 
HETATM   16  C17 UNL     1      -2.355  -2.905  -1.756  1.00  0.00     0.096 A 
BRANCH  16  17
HETATM   17  O6  UNL     1      -1.548  -3.867  -1.209  1.00  0.00    -0.325 OA
BRANCH  17  18
HETATM   18  C18 UNL     1      -1.667  -5.254  -1.370  1.00  0.00     0.341 C 
BRANCH  18  19
HETATM   19  O7  UNL     1      -1.563  -5.661  -2.706  1.00  0.00    -0.377 OA
ATOM     20  H7  UNL     1      -1.644  -6.601  -2.815  1.00  0.00     0.212 HD
ENDBRANCH  18  19
ENDBRANCH  17  18
ENDBRANCH  16  17
ENDBRANCH   8  11
ENDBRANCH   7   8
ENDBRANCH   6   7
ENDBRANCH   5   6
BRANCH   1  21
HETATM   21  O2  UNL     1       1.476   0.289   1.664  1.00  0.00    -0.266 OA
BRANCH  21  22
HETATM   22  C1  UNL     1       2.712  -0.170   1.162  1.00  0.00     0.299 C 
HETATM   23  O1  UNL     1       3.460   0.743   0.664  1.00  0.00    -0.259 OA
BRANCH  22  24
HETATM   24  C19 UNL     1       3.170  -1.531   1.173  1.00  0.00     0.040 A 
HETATM   25  C20 UNL     1       2.417  -2.521   1.747  1.00  0.00     0.017 A 
HETATM   26  C21 UNL     1       2.871  -3.846   1.751  1.00  0.00     0.001 A 
HETATM   27  C22 UNL     1       4.078  -4.179   1.180  1.00  0.00     0.000 A 
HETATM   28  C23 UNL     1       4.828  -3.196   0.609  1.00  0.00     0.001 A 
HETATM   29  C24 UNL     1       4.372  -1.891   0.609  1.00  0.00     0.017 A 
ENDBRANCH  22  24
ENDBRANCH  21  22
ENDBRANCH   1  21
BRANCH   4  30
HETATM   30  C6  UNL     1      -0.518   4.680   0.156  1.00  0.00     0.087 A 
HETATM   31  C7  UNL     1      -0.378   5.935  -0.305  1.00  0.00     0.040 A 
HETATM   32  C8  UNL     1      -1.536   6.295  -1.015  1.00  0.00     0.027 A 
HETATM   33  C9  UNL     1      -2.338   5.194  -0.939  1.00  0.00     0.142 A 
HETATM   34  O3  UNL     1      -1.723   4.285  -0.260  1.00  0.00    -0.322 OA
ENDBRANCH   4  30
BRANCH   3  35
HETATM   35  C4  UNL     1       1.631   5.681   2.293  1.00  0.00     0.394 C 
HETATM   36  F1  UNL     1       2.427   6.236   1.329  1.00  0.00    -0.208 F 
HETATM   37  F2  UNL     1       0.517   6.365   2.596  1.00  0.00    -0.208 F 
ENDBRANCH   3  35
TORSDOF 12
