REMARK  8 active torsions:
REMARK  status: ('A' for Active; 'I' for Inactive)
REMARK    1  A    between atoms: N1_1  and  C1_4 
REMARK    2  A    between atoms: C1_4  and  C2_5 
REMARK    3  A    between atoms: C2_5  and  C3_6 
REMARK    4  A    between atoms: C3_6  and  N2_7 
REMARK    5  A    between atoms: N2_7  and  S1_9 
REMARK    6  A    between atoms: S1_9  and  C4_12 
REMARK    7  A    between atoms: C7_15  and  N3_16 
REMARK    8  A    between atoms: N3_16  and  C8_18 
ROOT
HETATM    1  C4  UNL     1       1.020  -0.361  -1.269  1.00  0.00     0.079 A 
HETATM    2  C5  UNL     1       0.302   0.670  -0.712  1.00  0.00     0.027 A 
HETATM    3  C6  UNL     1      -0.973   0.480  -0.153  1.00  0.00     0.031 A 
HETATM    4  C7  UNL     1      -1.568  -0.756  -0.138  1.00  0.00     0.033 A 
HETATM    5  C11 UNL     1      -0.820  -1.799  -0.711  1.00  0.00     0.031 A 
HETATM    6  C12 UNL     1       0.426  -1.603  -1.255  1.00  0.00     0.027 A 
ENDROOT
BRANCH   1   7
HETATM    7  S1  UNL     1       2.609  -0.121  -1.965  1.00  0.00     0.258 S 
HETATM    8  O1  UNL     1       2.845  -1.057  -3.119  1.00  0.00    -0.201 OA
HETATM    9  O2  UNL     1       2.686   1.274  -2.510  1.00  0.00    -0.201 OA
BRANCH   7  10
HETATM   10  N2  UNL     1       3.851  -0.338  -0.789  1.00  0.00    -0.315 N 
ATOM     11  H2  UNL     1       4.578  -1.051  -0.845  1.00  0.00     0.172 HD
BRANCH  10  12
HETATM   12  C3  UNL     1       3.731   0.613   0.278  1.00  0.00     0.145 C 
BRANCH  12  13
HETATM   13  C2  UNL     1       4.830   0.359   1.241  1.00  0.00     0.124 C 
BRANCH  13  14
HETATM   14  C1  UNL     1       6.029   0.033   0.849  1.00  0.00    -0.076 C 
BRANCH  14  15
HETATM   15  N1  UNL     1       7.004  -0.616   0.361  1.00  0.00    -0.370 N 
ATOM     16  H12 UNL     1       6.457  -1.440   0.111  1.00  0.00     0.165 HD
ATOM     17  H11 UNL     1       7.943  -0.871   0.054  1.00  0.00     0.165 HD
ENDBRANCH  14  15
ENDBRANCH  13  14
ENDBRANCH  12  13
ENDBRANCH  10  12
ENDBRANCH   7  10
ENDBRANCH   1   7
BRANCH   4  18
HETATM   18  N3  UNL     1      -2.855  -1.015   0.393  1.00  0.00    -0.341 N 
ATOM     19  H3  UNL     1      -3.094  -1.999   0.517  1.00  0.00     0.167 HD
BRANCH  18  20
HETATM   20  C8  UNL     1      -3.838  -0.100   0.769  1.00  0.00     0.122 A 
HETATM   21  C9  UNL     1      -5.073  -0.445   1.304  1.00  0.00     0.137 A 
HETATM   22  N4  UNL     1      -5.761   0.671   1.534  1.00  0.00    -0.358 N 
HETATM   23  C10 UNL     1      -4.987   1.680   1.159  1.00  0.00     0.182 A 
ATOM     24  H4  UNL     1      -6.701   0.737   1.923  1.00  0.00     0.166 HD
HETATM   25  N5  UNL     1      -3.814   1.222   0.692  1.00  0.00    -0.337 N 
ATOM     26  H5  UNL     1      -3.043   1.790   0.341  1.00  0.00     0.168 HD
ENDBRANCH  18  20
ENDBRANCH   4  18
TORSDOF 8
