REMARK  12 active torsions:
REMARK  status: ('A' for Active; 'I' for Inactive)
REMARK    1  A    between atoms: C2_7  and  C3_8 
REMARK    2  A    between atoms: N4_10  and  C5_11 
REMARK    3  A    between atoms: C7_15  and  C8_16 
REMARK    4  A    between atoms: C8_16  and  N6_17 
REMARK    5  A    between atoms: C10_25  and  C11_26 
REMARK    6  A    between atoms: C11_26  and  O1_27 
REMARK    7  A    between atoms: C11_26  and  N9_29 
REMARK    8  A    between atoms: N9_29  and  C12_31 
REMARK    9  A    between atoms: C12_31  and  C13_32 
REMARK   10  A    between atoms: C14_35  and  C15_36 
REMARK   11  A    between atoms: C15_36  and  C16_38 
REMARK   12  A    between atoms: C16_38  and  O3_39 
ROOT
HETATM    1  C5  UNL     1      -2.335  -0.790  -0.096  1.00  0.00     0.707 A 
HETATM    2  N5  UNL     1      -1.930  -1.981  -0.569  1.00  0.00    -0.188 N 
ATOM      3  H5  UNL     1      -2.545  -2.789  -0.470  1.00  0.00     0.184 HD
HETATM    4  C6  UNL     1      -0.749  -2.136  -1.163  1.00  0.00     0.078 A 
HETATM    5  C7  UNL     1      -0.389  -3.390  -1.594  1.00  0.00     0.037 A 
HETATM    6  C9  UNL     1       0.851  -3.497  -2.172  1.00  0.00     0.127 A 
HETATM    7  N7  UNL     1       1.246  -4.795  -2.626  1.00  0.00    -0.082 NA
HETATM    8  N8  UNL     1       1.661  -2.449  -2.312  1.00  0.00    -0.340 N 
ATOM      9  H8  UNL     1       2.567  -2.608  -2.752  1.00  0.00     0.167 HD
HETATM   10  C10 UNL     1       1.365  -1.163  -1.905  1.00  0.00     0.102 A 
HETATM   11  C17 UNL     1       0.119  -1.064  -1.321  1.00  0.00     0.091 A 
HETATM   12  C18 UNL     1      -0.294   0.130  -0.841  1.00  0.00     0.274 A 
HETATM   13  O5  UNL     1       0.378   1.135  -0.913  1.00  0.00    -0.267 OA
HETATM   14  N12 UNL     1      -1.502   0.232  -0.247  1.00  0.00    -0.153 N 
ATOM     15  H12 UNL     1      -1.790   1.145   0.105  1.00  0.00     0.187 HD
ENDROOT
BRANCH   1  16
HETATM   16  N4  UNL     1      -3.612  -0.711   0.524  1.00  0.00    -0.081 N 
HETATM   17  C4  UNL     1      -4.144   0.488   1.063  1.00  0.00     0.169 A 
HETATM   18  C3  UNL     1      -5.345   0.529   1.636  1.00  0.00     0.114 A 
HETATM   19  N15 UNL     1      -6.195  -0.588   1.764  1.00  0.00    -0.186 N 
HETATM   20  C19 UNL     1      -5.701  -1.833   1.231  1.00  0.00     0.692 A 
ATOM     21  H15 UNL     1      -7.110  -0.519   2.210  1.00  0.00     0.184 HD
HETATM   22  N13 UNL     1      -4.419  -1.845   0.627  1.00  0.00    -0.112 N 
HETATM   23  N14 UNL     1      -6.427  -2.897   1.313  1.00  0.00    -0.233 N 
ATOM     24  H13 UNL     1      -4.069  -2.725   0.249  1.00  0.00     0.206 HD
ATOM     25 2H14 UNL     1      -6.077  -3.778   0.936  1.00  0.00     0.174 HD
ATOM     26 1H14 UNL     1      -7.350  -2.888   1.748  1.00  0.00     0.174 HD
BRANCH  18  27
HETATM   27  C2  UNL     1      -5.828   1.821   2.175  1.00  0.00     0.166 A 
HETATM   28  N3  UNL     1      -7.002   2.054   2.779  1.00  0.00    -0.267 N 
HETATM   29  N2  UNL     1      -7.025   3.329   3.102  1.00  0.00    -0.225 N 
ATOM     30  H3  UNL     1      -7.739   1.371   2.955  1.00  0.00     0.190 HD
HETATM   31  N1  UNL     1      -5.896   3.921   2.720  1.00  0.00    -0.223 N 
ATOM     32  H2  UNL     1      -7.797   3.797   3.577  1.00  0.00     0.210 HD
HETATM   33  C1  UNL     1      -5.643   5.321   2.946  1.00  0.00     0.202 C 
HETATM   34  N16 UNL     1      -5.161   2.989   2.150  1.00  0.00    -0.265 N 
ATOM     35  H16 UNL     1      -4.232   3.130   1.752  1.00  0.00     0.190 HD
ENDBRANCH  18  27
ENDBRANCH   1  16
BRANCH   5  36
HETATM   36  C8  UNL     1      -1.334  -4.535  -1.418  1.00  0.00     0.274 C 
BRANCH  36  37
HETATM   37  N6  UNL     1      -0.809  -5.778  -1.919  1.00  0.00    -0.075 N 
ATOM     38  H63 UNL     1      -0.525  -5.687  -2.894  1.00  0.00     0.274 HD
ATOM     39  H62 UNL     1       0.097  -5.986  -1.500  1.00  0.00     0.274 HD
ATOM     40  H61 UNL     1      -1.454  -6.559  -1.799  1.00  0.00     0.274 HD
ENDBRANCH  36  37
ENDBRANCH   5  36
BRANCH  10  41
HETATM   41  C11 UNL     1       2.292  -0.068  -2.192  1.00  0.00     0.164 C 
BRANCH  41  42
HETATM   42  O1  UNL     1       1.875   1.029  -2.887  1.00  0.00    -0.345 OA
ATOM     43  H1  UNL     1       2.477   1.740  -3.073  1.00  0.00     0.219 HD
ENDBRANCH  41  42
BRANCH  41  44
HETATM   44  N9  UNL     1       3.263   0.186  -1.151  1.00  0.00    -0.361 N 
ATOM     45  H9  UNL     1       3.300  -0.361  -0.291  1.00  0.00     0.162 HD
BRANCH  44  46
HETATM   46  C12 UNL     1       4.157   1.250  -1.414  1.00  0.00     0.208 C 
BRANCH  46  47
HETATM   47  C13 UNL     1       5.149   1.528  -0.387  1.00  0.00     0.166 A 
HETATM   48  N10 UNL     1       6.053   2.523  -0.435  1.00  0.00    -0.319 N 
HETATM   49  C14 UNL     1       6.794   2.476   0.670  1.00  0.00     0.176 A 
ATOM     50  H10 UNL     1       6.154   3.200  -1.191  1.00  0.00     0.169 HD
HETATM   51  N11 UNL     1       6.354   1.461   1.399  1.00  0.00    -0.240 N 
HETATM   52  O4  UNL     1       5.369   0.908   0.747  1.00  0.00    -0.221 OA
ATOM     53  H11 UNL     1       6.719   1.166   2.305  1.00  0.00     0.196 HD
BRANCH  49  54
HETATM   54  C15 UNL     1       7.877   3.384   0.988  1.00  0.00     0.217 C 
HETATM   55  O2  UNL     1       8.221   4.325   0.226  1.00  0.00    -0.287 OA
BRANCH  54  56
HETATM   56  C16 UNL     1       8.662   3.257   2.261  1.00  0.00     0.251 C 
BRANCH  56  57
HETATM   57  O3  UNL     1       8.231   2.210   3.039  1.00  0.00    -0.393 OA
ATOM     58  H3  UNL     1       8.728   2.130   3.845  1.00  0.00     0.210 HD
ENDBRANCH  56  57
ENDBRANCH  54  56
ENDBRANCH  49  54
ENDBRANCH  46  47
ENDBRANCH  44  46
ENDBRANCH  41  44
ENDBRANCH  10  41
TORSDOF 12
