REMARK  17 active torsions:
REMARK  status: ('A' for Active; 'I' for Inactive)
REMARK    1  A    between atoms: N1_1  and  N2_4 
REMARK    2  A    between atoms: N2_4  and  C1_6 
REMARK    3  A    between atoms: C1_6  and  C2_11 
REMARK    4  A    between atoms: N3_7  and  O1_9 
REMARK    5  A    between atoms: N5_14  and  C3_15 
REMARK    6  A    between atoms: C4_16  and  C5_17 
REMARK       I    between atoms: C5_17  and  N6_19 
REMARK    7  A    between atoms: N6_19  and  C6_21 
REMARK    8  A    between atoms: C6_21  and  C7_22 
REMARK    9  A    between atoms: C6_21  and  C8_25 
REMARK   10  A    between atoms: C8_25  and  O4_26 
REMARK   11  A    between atoms: C8_25  and  O5_28 
REMARK   12  A    between atoms: C9_32  and  C10_33 
REMARK   13  A    between atoms: N9_36  and  O8_37 
REMARK   14  A    between atoms: C11_41  and  C12_42 
REMARK   15  A    between atoms: C14_44  and  N11_45 
REMARK   16  A    between atoms: C16_49  and  O11_50 
REMARK   17  A    between atoms: C17_52  and  O12_53 
ROOT
HETATM    1  C2  UNL     1      -2.070   1.507  -0.188  1.00  0.00     0.126 A 
HETATM    2  N4  UNL     1      -0.954   1.941  -0.867  1.00  0.00    -0.272 N 
ATOM      3  H4  UNL     1      -0.727   2.921  -1.033  1.00  0.00     0.189 HD
HETATM    4  N5  UNL     1      -0.220   0.933  -1.273  1.00  0.00    -0.174 N 
HETATM    5  N10 UNL     1      -0.843  -0.148  -0.868  1.00  0.00    -0.275 N 
ATOM      6  H10 UNL     1      -0.511  -1.097  -1.038  1.00  0.00     0.189 HD
HETATM    7  C11 UNL     1      -1.987   0.151  -0.194  1.00  0.00     0.095 A 
ENDROOT
BRANCH   4   8
HETATM    8  C3  UNL     1       1.019   0.981  -2.007  1.00  0.00     0.206 A 
HETATM    9  C4  UNL     1       2.261   0.676  -1.498  1.00  0.00     0.152 A 
HETATM   10  N8  UNL     1       3.149   0.851  -2.527  1.00  0.00    -0.327 N 
HETATM   11  C9  UNL     1       2.508   1.242  -3.617  1.00  0.00     0.213 A 
ATOM     12  H8  UNL     1       4.156   0.702  -2.462  1.00  0.00     0.168 HD
HETATM   13  N9  UNL     1       1.218   1.318  -3.294  1.00  0.00    -0.178 N 
BRANCH   9  14
HETATM   14  C5  UNL     1       2.571   0.259  -0.147  1.00  0.00     0.273 C 
HETATM   15  O2  UNL     1       1.667   0.169   0.702  1.00  0.00    -0.266 OA
HETATM   16  N6  UNL     1       3.902  -0.048   0.219  1.00  0.00    -0.338 N 
ATOM     17  H6  UNL     1       4.636   0.030  -0.485  1.00  0.00     0.163 HD
BRANCH  16  18
HETATM   18  C6  UNL     1       4.262  -0.471   1.563  1.00  0.00     0.229 C 
BRANCH  18  19
HETATM   19  C7  UNL     1       5.347   0.371   2.078  1.00  0.00     0.258 C 
HETATM   20  N7  UNL     1       5.935   0.245   3.344  1.00  0.00    -0.060 NA
HETATM   21  O3  UNL     1       5.798   1.292   1.325  1.00  0.00    -0.274 OA
ENDBRANCH  18  19
BRANCH  18  22
HETATM   22  C8  UNL     1       4.809  -1.897   1.452  1.00  0.00     0.285 C 
BRANCH  22  23
HETATM   23  O4  UNL     1       5.175  -2.367   2.714  1.00  0.00    -0.369 OA
ATOM     24  H4  UNL     1       5.514  -3.252   2.645  1.00  0.00     0.212 HD
ENDBRANCH  22  23
BRANCH  22  25
HETATM   25  O5  UNL     1       5.990  -1.885   0.688  1.00  0.00    -0.369 OA
ATOM     26  H5  UNL     1       6.329  -2.770   0.619  1.00  0.00     0.212 HD
ENDBRANCH  22  25
ENDBRANCH  18  22
ENDBRANCH  16  18
ENDBRANCH   9  14
BRANCH  11  27
HETATM   27  C10 UNL     1       3.139   1.530  -4.921  1.00  0.00     0.247 C 
HETATM   28  O6  UNL     1       4.362   1.412  -5.069  1.00  0.00    -0.642 OA
HETATM   29  O7  UNL     1       2.313   1.933  -5.958  1.00  0.00    -0.642 OA
ENDBRANCH  11  27
BRANCH  13  30
HETATM   30  O8  UNL     1       0.242   1.698  -4.187  1.00  0.00    -0.279 OA
ATOM     31  H8  UNL     1       0.383   1.936  -5.096  1.00  0.00     0.245 HD
ENDBRANCH  13  30
ENDBRANCH   4   8
BRANCH   1  32
HETATM   32  C1  UNL     1      -3.097   2.379   0.338  1.00  0.00     0.170 C 
HETATM   33  N3  UNL     1      -3.500   3.411  -0.365  1.00  0.00    -0.250 N 
ATOM     34  H3  UNL     1      -4.214   4.033   0.014  1.00  0.00     0.196 HD
BRANCH  32  35
HETATM   35  N2  UNL     1      -3.690   2.206   1.581  1.00  0.00    -0.289 N 
ATOM     36  H2  UNL     1      -3.076   2.021   2.374  1.00  0.00     0.188 HD
BRANCH  35  37
HETATM   37  N1  UNL     1      -5.071   2.267   1.829  1.00  0.00    -0.344 N 
ATOM     38  H12 UNL     1      -5.669   2.453   1.024  1.00  0.00     0.176 HD
ATOM     39  H11 UNL     1      -5.507   2.140   2.742  1.00  0.00     0.176 HD
ENDBRANCH  35  37
ENDBRANCH  32  35
BRANCH  33  40
HETATM   40  O1  UNL     1      -2.967   3.664  -1.613  1.00  0.00    -0.288 OA
ATOM     41  H1  UNL     1      -3.259   4.411  -2.122  1.00  0.00     0.244 HD
ENDBRANCH  33  40
ENDBRANCH   1  32
BRANCH   7  42
HETATM   42  C12 UNL     1      -2.930  -0.806   0.354  1.00  0.00     0.033 A 
HETATM   43  C13 UNL     1      -3.208  -1.011   1.673  1.00  0.00     0.053 A 
HETATM   44  C14 UNL     1      -4.094  -1.986   2.117  1.00  0.00     0.106 A 
HETATM   45  C15 UNL     1      -4.735  -2.798   1.217  1.00  0.00     0.075 A 
HETATM   46  C16 UNL     1      -4.475  -2.617  -0.118  1.00  0.00     0.102 A 
HETATM   47  C17 UNL     1      -3.596  -1.648  -0.547  1.00  0.00     0.111 A 
BRANCH  44  48
HETATM   48  N11 UNL     1      -4.322  -2.125   3.523  1.00  0.00    -0.116 N 
HETATM   49  O9  UNL     1      -5.105  -2.977   3.981  1.00  0.00    -0.532 OA
HETATM   50  O10 UNL     1      -3.678  -1.314   4.423  1.00  0.00    -0.532 OA
ENDBRANCH  44  48
BRANCH  46  51
HETATM   51  O11 UNL     1      -5.132  -3.449  -1.026  1.00  0.00    -0.358 OA
ATOM     52  H11 UNL     1      -4.952  -3.324  -1.950  1.00  0.00     0.217 HD
ENDBRANCH  46  51
BRANCH  47  53
HETATM   53  O12 UNL     1      -3.359  -1.495  -1.899  1.00  0.00    -0.357 OA
ATOM     54  H12 UNL     1      -3.810  -2.066  -2.510  1.00  0.00     0.217 HD
ENDBRANCH  47  53
ENDBRANCH   7  42
TORSDOF 17
