REMARK  3 active torsions:
REMARK  status: ('A' for Active; 'I' for Inactive)
REMARK    1  A    between atoms: S1_2  and  N1_5 
REMARK       I    between atoms: N1_5  and  C2_7 
REMARK       I    between atoms: C2_7  and  N2_9 
REMARK    2  A    between atoms: C6_13  and  C7_14 
REMARK       I    between atoms: C7_14  and  N3_16 
REMARK    3  A    between atoms: N3_16  and  N4_18 
ROOT
HETATM    1  N1  UNL     1       2.246  -0.783   0.174  1.00  0.00    -0.236 N 
ATOM      2  H1  UNL     1       2.306  -1.787   0.002  1.00  0.00     0.183 HD
HETATM    3  C2  UNL     1       0.971  -0.164   0.335  1.00  0.00     0.340 C 
HETATM    4  O3  UNL     1       0.983   1.062   0.545  1.00  0.00    -0.245 OA
HETATM    5  N2  UNL     1      -0.217  -0.967   0.247  1.00  0.00    -0.269 N 
HETATM    6  C3  UNL     1      -0.207  -2.301   0.015  1.00  0.00     0.102 A 
HETATM    7  C4  UNL     1      -1.474  -2.806  -0.039  1.00  0.00     0.020 A 
HETATM    8  C5  UNL     1      -2.309  -1.739   0.170  1.00  0.00     0.037 A 
HETATM    9  C6  UNL     1      -1.490  -0.604   0.346  1.00  0.00     0.112 A 
ENDROOT
BRANCH   9  10
HETATM   10  C7  UNL     1      -2.107   0.694   0.624  1.00  0.00     0.286 C 
HETATM   11  O4  UNL     1      -1.472   1.702   0.997  1.00  0.00    -0.264 OA
HETATM   12  N3  UNL     1      -3.514   0.888   0.476  1.00  0.00    -0.271 N 
ATOM     13  H3  UNL     1      -4.108   0.117   0.171  1.00  0.00     0.189 HD
BRANCH  12  14
HETATM   14  N4  UNL     1      -4.073   2.134   0.749  1.00  0.00    -0.342 N 
ATOM     15  H42 UNL     1      -3.465   2.895   1.053  1.00  0.00     0.176 HD
ATOM     16  H41 UNL     1      -5.078   2.273   0.643  1.00  0.00     0.176 HD
ENDBRANCH  12  14
ENDBRANCH   9  10
BRANCH   1  17
HETATM   17  S1  UNL     1       3.671   0.151   0.268  1.00  0.00     0.230 S 
HETATM   18  C1  UNL     1       3.489   1.782  -0.429  1.00  0.00     0.186 C 
HETATM   19  O1  UNL     1       4.134   0.329   1.704  1.00  0.00    -0.206 OA
HETATM   20  O2  UNL     1       4.801  -0.522  -0.493  1.00  0.00    -0.206 OA
ENDBRANCH   1  17
TORSDOF 3
