REMARK  10 active torsions:
REMARK  status: ('A' for Active; 'I' for Inactive)
REMARK    1  A    between atoms: O1_2  and  C2_3 
REMARK    2  A    between atoms: C2_3  and  C3_5 
REMARK    3  A    between atoms: C3_5  and  N1_6 
REMARK       I    between atoms: N1_6  and  C4_8 
REMARK    4  A    between atoms: C4_8  and  C5_10 
REMARK    5  A    between atoms: C5_10  and  O4_12 
REMARK    6  A    between atoms: O4_12  and  C7_13 
REMARK    7  A    between atoms: C7_13  and  C8_15 
REMARK    8  A    between atoms: C8_15  and  N2_16 
REMARK    9  A    between atoms: C8_15  and  C10_21 
REMARK       I    between atoms: N2_16  and  C9_18 
REMARK   10  A    between atoms: C10_21  and  C12_23 
ROOT
HETATM    1  C5  UNL     1       0.624  -1.039  -0.832  1.00  0.00     0.219 C 
HETATM    2  C6  UNL     1       0.456  -1.660  -2.191  1.00  0.00     0.050 C 
ENDROOT
BRANCH   1   3
HETATM    3  C4  UNL     1      -0.589  -0.245  -0.523  1.00  0.00     0.247 C 
HETATM    4  N1  UNL     1      -1.855  -0.866  -0.582  1.00  0.00    -0.340 N 
ATOM      5  H1  UNL     1      -1.898  -1.853  -0.837  1.00  0.00     0.163 HD
HETATM    6  O3  UNL     1      -0.483   0.950  -0.218  1.00  0.00    -0.271 OA
BRANCH   4   7
HETATM    7  C3  UNL     1      -3.097  -0.176  -0.300  1.00  0.00     0.121 C 
HETATM    8  C13 UNL     1      -4.226  -1.187  -0.464  1.00  0.00     0.041 C 
HETATM    9  C14 UNL     1      -4.635  -1.763   0.878  1.00  0.00     0.003 C 
HETATM   10  C15 UNL     1      -5.331  -0.659   1.618  1.00  0.00     0.000 C 
HETATM   11  C16 UNL     1      -4.468   0.557   1.627  1.00  0.00     0.003 C 
HETATM   12  C17 UNL     1      -3.089   0.392   1.105  1.00  0.00     0.041 C 
BRANCH   7  13
HETATM   13  C2  UNL     1      -3.274   0.917  -1.262  1.00  0.00     0.287 C 
HETATM   14  O2  UNL     1      -2.450   1.102  -2.184  1.00  0.00    -0.262 OA
BRANCH  13  15
HETATM   15  O1  UNL     1      -4.352   1.769  -1.173  1.00  0.00    -0.325 OA
HETATM   16  C1  UNL     1      -4.512   2.817  -2.103  1.00  0.00     0.213 C 
ENDBRANCH  13  15
ENDBRANCH   7  13
ENDBRANCH   4   7
ENDBRANCH   1   3
BRANCH   1  17
HETATM   17  O4  UNL     1       1.791  -0.225  -0.758  1.00  0.00    -0.305 OA
BRANCH  17  18
HETATM   18  C7  UNL     1       2.688  -0.399   0.278  1.00  0.00     0.283 C 
HETATM   19  O5  UNL     1       2.421  -1.284   1.124  1.00  0.00    -0.263 OA
BRANCH  18  20
HETATM   20  C8  UNL     1       3.924   0.450   0.370  1.00  0.00     0.198 C 
BRANCH  20  21
HETATM   21  N2  UNL     1       4.346   0.413   1.769  1.00  0.00    -0.331 N 
HETATM   22  C9  UNL     1       4.267   1.659   2.487  1.00  0.00     0.329 C 
HETATM   23  N3  UNL     1       4.657   1.745   3.861  1.00  0.00    -0.040 NA
HETATM   24  O6  UNL     1       3.859   2.707   1.945  1.00  0.00    -0.251 OA
ATOM     25  H2  UNL     1       4.677  -0.445   2.211  1.00  0.00     0.164 HD
ENDBRANCH  20  21
BRANCH  20  26
HETATM   26  C10 UNL     1       5.050  -0.046  -0.478  1.00  0.00     0.122 C 
HETATM   27  C11 UNL     1       5.507  -1.451  -0.158  1.00  0.00     0.021 C 
BRANCH  26  28
HETATM   28  C12 UNL     1       4.927   0.163  -1.942  1.00  0.00     0.393 C 
HETATM   29  F1  UNL     1       4.819   1.492  -2.309  1.00  0.00    -0.171 F 
HETATM   30  F2  UNL     1       6.151  -0.270  -2.496  1.00  0.00    -0.171 F 
HETATM   31  F3  UNL     1       3.972  -0.546  -2.592  1.00  0.00    -0.171 F 
ENDBRANCH  26  28
ENDBRANCH  20  26
ENDBRANCH  18  20
ENDBRANCH  17  18
ENDBRANCH   1  17
TORSDOF 10
