REMARK  13 active torsions:
REMARK  status: ('A' for Active; 'I' for Inactive)
REMARK    1  A    between atoms: O1_2  and  C2_3 
REMARK    2  A    between atoms: C2_3  and  C3_4 
REMARK    3  A    between atoms: C6_9  and  O4_10 
REMARK    4  A    between atoms: C9_14  and  O5_15 
REMARK    5  A    between atoms: C10_17  and  O6_18 
REMARK    6  A    between atoms: C19_27  and  C20_28 
REMARK    7  A    between atoms: C20_28  and  C21_29 
REMARK    8  A    between atoms: C22_30  and  C23_31 
REMARK    9  A    between atoms: C23_31  and  C24_32 
REMARK   10  A    between atoms: C24_32  and  C25_33 
REMARK   11  A    between atoms: C25_33  and  O7_35 
REMARK   12  A    between atoms: O7_35  and  C27_36 
REMARK   13  A    between atoms: C29_40  and  O10_41 
ROOT
HETATM    1  C3  UNL     1      -3.616  -3.272  -0.448  1.00  0.00     0.178 C 
HETATM    2  O2  UNL     1      -3.444  -2.280  -1.398  1.00  0.00    -0.312 OA
HETATM    3  C4  UNL     1      -4.270  -1.360  -1.928  1.00  0.00     0.261 C 
HETATM    4  O3  UNL     1      -4.586  -1.391  -3.170  1.00  0.00    -0.265 OA
HETATM    5  C5  UNL     1      -4.907  -0.217  -1.173  1.00  0.00     0.143 C 
HETATM    6  C6  UNL     1      -3.919   0.275  -0.162  1.00  0.00     0.133 C 
HETATM    7  C7  UNL     1      -4.183   1.683   0.338  1.00  0.00     0.042 C 
HETATM    8  C8  UNL     1      -5.605   1.750   0.919  1.00  0.00     0.015 C 
HETATM    9  C9  UNL     1      -3.169   1.946   1.406  1.00  0.00     0.157 C 
HETATM   10  C10 UNL     1      -1.972   2.749   0.970  1.00  0.00     0.172 C 
HETATM   11  C12 UNL     1      -1.163   3.097   2.153  1.00  0.00     0.007 C 
HETATM   12  C13 UNL     1       0.079   3.519   2.241  1.00  0.00    -0.001 C 
HETATM   13  C14 UNL     1       1.120   3.805   1.327  1.00  0.00     0.006 C 
HETATM   14  C15 UNL     1       2.212   3.152   0.893  1.00  0.00    -0.062 C 
HETATM   15  C16 UNL     1       3.081   3.899  -0.149  1.00  0.00     0.048 C 
HETATM   16  C17 UNL     1       2.737   1.880   1.274  1.00  0.00     0.005 C 
HETATM   17  C18 UNL     1       2.447   0.617   1.081  1.00  0.00     0.010 C 
HETATM   18  C19 UNL     1       1.415  -0.069   0.354  1.00  0.00     0.176 C 
HETATM   19  O9  UNL     1       0.219  -0.120   1.162  1.00  0.00    -0.317 OA
HETATM   20  C29 UNL     1       0.039  -0.858   2.316  1.00  0.00     0.179 C 
HETATM   21  C30 UNL     1       0.121  -2.294   2.485  1.00  0.00     0.066 C 
HETATM   22  C31 UNL     1      -0.728  -3.244   2.093  1.00  0.00    -0.077 C 
HETATM   23  C32 UNL     1      -0.288  -4.650   2.454  1.00  0.00     0.043 C 
HETATM   24  C33 UNL     1      -2.013  -3.092   1.427  1.00  0.00     0.062 C 
HETATM   25  C34 UNL     1      -2.238  -3.711   0.097  1.00  0.00     0.066 C 
HETATM   26  C35 UNL     1      -2.286  -5.237   0.141  1.00  0.00     0.036 C 
HETATM   27 CL1  UNL     1      -0.976  -3.327  -1.096  1.00  0.00    -0.116 Cl
ENDROOT
BRANCH  18  28
HETATM   28  C20 UNL     1       1.054   0.208  -1.020  1.00  0.00     0.009 C 
BRANCH  28  29
HETATM   29  C21 UNL     1       1.866   0.027  -2.212  1.00  0.00    -0.005 C 
HETATM   30  C22 UNL     1       3.137   0.610  -2.581  1.00  0.00    -0.027 C 
BRANCH  30  31
HETATM   31  C23 UNL     1       4.403   0.343  -1.897  1.00  0.00     0.029 C 
BRANCH  31  32
HETATM   32  C24 UNL     1       5.510   1.122  -2.649  1.00  0.00     0.036 C 
BRANCH  32  33
HETATM   33  C25 UNL     1       6.838   0.874  -1.968  1.00  0.00     0.128 C 
HETATM   34  C26 UNL     1       7.885   1.663  -2.748  1.00  0.00     0.040 C 
BRANCH  33  35
HETATM   35  O7  UNL     1       6.824   1.422  -0.651  1.00  0.00    -0.317 OA
BRANCH  35  36
HETATM   36  C27 UNL     1       7.165   0.608   0.412  1.00  0.00     0.255 C 
HETATM   37  C28 UNL     1       7.156   1.167   1.803  1.00  0.00     0.126 C 
HETATM   38  O8  UNL     1       7.492  -0.600   0.303  1.00  0.00    -0.266 OA
ENDBRANCH  35  36
ENDBRANCH  33  35
ENDBRANCH  32  33
ENDBRANCH  31  32
ENDBRANCH  30  31
ENDBRANCH  28  29
ENDBRANCH  18  28
BRANCH  20  39
HETATM   39  O10 UNL     1      -0.243  -0.198   3.421  1.00  0.00    -0.341 OA
ATOM     40  H10 UNL     1      -0.367  -0.705   4.215  1.00  0.00     0.220 HD
ENDBRANCH  20  39
BRANCH  10  41
HETATM   41  O6  UNL     1      -2.317   3.836   0.194  1.00  0.00    -0.384 OA
HETATM   42  C11 UNL     1      -1.838   3.860  -1.082  1.00  0.00     0.202 C 
ENDBRANCH  10  41
BRANCH   1  43
HETATM   43  C2  UNL     1      -4.440  -4.407  -0.941  1.00  0.00     0.201 C 
BRANCH  43  44
HETATM   44  O1  UNL     1      -5.737  -4.074  -1.280  1.00  0.00    -0.393 OA
HETATM   45  C1  UNL     1      -6.493  -3.614  -0.230  1.00  0.00     0.201 C 
ENDBRANCH  43  44
ENDBRANCH   1  43
BRANCH   9  46
HETATM   46  O5  UNL     1      -3.847   2.638   2.439  1.00  0.00    -0.392 OA
ATOM     47  H5  UNL     1      -3.203   2.805   3.117  1.00  0.00     0.210 HD
ENDBRANCH   9  46
BRANCH   6  48
HETATM   48  O4  UNL     1      -2.649   0.320  -0.738  1.00  0.00    -0.395 OA
ATOM     49  H4  UNL     1      -2.022   0.632  -0.096  1.00  0.00     0.210 HD
ENDBRANCH   6  48
TORSDOF 13
