REMARK  14 active torsions:
REMARK  status: ('A' for Active; 'I' for Inactive)
REMARK    1  A    between atoms: C2_2  and  C4_4 
REMARK    2  A    between atoms: C4_4  and  O2_6 
REMARK    3  A    between atoms: O2_6  and  C5_7 
REMARK    4  A    between atoms: C8_10  and  C9_11 
REMARK    5  A    between atoms: C9_11  and  C11_13 
REMARK    6  A    between atoms: C11_13  and  N1_15 
REMARK    7  A    between atoms: N1_15  and  C13_17 
REMARK    8  A    between atoms: C13_17  and  C14_18 
REMARK    9  A    between atoms: C16_20  and  C17_21 
REMARK   10  A    between atoms: C20_27  and  O3_28 
REMARK   11  A    between atoms: C22_33  and  C24_35 
REMARK   12  A    between atoms: C24_35  and  C25_36 
REMARK   13  A    between atoms: C26_37  and  O6_38 
REMARK   14  A    between atoms: C26_37  and  C27_40 
ROOT
HETATM    1  C5  UNL     1      -1.504   2.716  -1.744  1.00  0.00     0.146 C 
HETATM    2  C6  UNL     1      -0.496   1.766  -1.321  1.00  0.00     0.036 C 
HETATM    3  C7  UNL     1       0.881   1.523  -1.197  1.00  0.00     0.040 C 
HETATM    4  C8  UNL     1       1.026   0.242  -0.266  1.00  0.00     0.162 C 
HETATM    5  O4  UNL     1      -0.176  -0.349   0.041  1.00  0.00    -0.310 OA
HETATM    6  C21 UNL     1      -1.349  -0.369   0.696  1.00  0.00     0.279 C 
HETATM    7  O5  UNL     1      -1.446  -0.450   1.983  1.00  0.00    -0.263 OA
HETATM    8  C22 UNL     1      -2.712  -0.305   0.047  1.00  0.00     0.099 C 
HETATM    9  C23 UNL     1      -3.788  -0.317   1.178  1.00  0.00     0.039 C 
HETATM   10  C31 UNL     1      -2.862   0.912  -0.693  1.00  0.00    -0.156 C 
HETATM   11  C32 UNL     1      -2.915   2.003  -1.567  1.00  0.00     0.079 C 
HETATM   12  C33 UNL     1      -3.534   1.699  -2.911  1.00  0.00     0.025 C 
ENDROOT
BRANCH   4  13
HETATM   13  C9  UNL     1       1.957   0.635   0.810  1.00  0.00    -0.033 C 
HETATM   14  C10 UNL     1       1.507   1.774   1.711  1.00  0.00     0.048 C 
BRANCH  13  15
HETATM   15  C11 UNL     1       2.856  -0.320   1.426  1.00  0.00     0.005 C 
HETATM   16  C12 UNL     1       3.729   0.298   2.564  1.00  0.00     0.068 C 
BRANCH  15  17
HETATM   17  N1  UNL     1       3.695  -1.212   0.715  1.00  0.00    -0.389 N 
ATOM     18  H1  UNL     1       3.694  -2.208   0.934  1.00  0.00     0.159 HD
BRANCH  17  19
HETATM   19  C13 UNL     1       4.542  -0.697  -0.313  1.00  0.00     0.161 C 
BRANCH  19  20
HETATM   20  C14 UNL     1       5.876  -1.319  -0.332  1.00  0.00    -0.007 A 
HETATM   21  C15 UNL     1       6.849  -0.890   0.585  1.00  0.00     0.027 A 
HETATM   22  C16 UNL     1       8.158  -1.176   0.538  1.00  0.00     0.048 A 
HETATM   23  C18 UNL     1       8.643  -1.975  -0.483  1.00  0.00     0.019 A 
HETATM   24  C19 UNL     1       7.727  -2.428  -1.427  1.00  0.00     0.038 A 
HETATM   25  C20 UNL     1       6.393  -2.104  -1.350  1.00  0.00     0.073 A 
BRANCH  22  26
HETATM   26  C17 UNL     1       9.079  -0.570   1.550  1.00  0.00     0.417 C 
HETATM   27  F1  UNL     1       8.322  -0.095   2.574  1.00  0.00    -0.166 F 
HETATM   28  F2  UNL     1      10.076  -1.413   1.918  1.00  0.00    -0.166 F 
HETATM   29  F3  UNL     1       9.677   0.552   0.915  1.00  0.00    -0.166 F 
ENDBRANCH  22  26
BRANCH  25  30
HETATM   30  O3  UNL     1       5.510  -2.585  -2.338  1.00  0.00    -0.360 OA
ATOM     31  H3  UNL     1       5.864  -3.123  -3.036  1.00  0.00     0.217 HD
ENDBRANCH  25  30
ENDBRANCH  19  20
ENDBRANCH  17  19
ENDBRANCH  15  17
ENDBRANCH  13  15
ENDBRANCH   4  13
BRANCH   1  32
HETATM   32  O2  UNL     1      -1.568   3.957  -1.153  1.00  0.00    -0.315 OA
BRANCH  32  33
HETATM   33  C4  UNL     1      -1.548   5.205  -1.647  1.00  0.00     0.262 C 
HETATM   34  O1  UNL     1      -1.436   5.340  -2.902  1.00  0.00    -0.265 OA
BRANCH  33  35
HETATM   35  C2  UNL     1      -1.659   6.351  -0.689  1.00  0.00     0.077 C 
HETATM   36  C1  UNL     1      -1.072   5.959   0.642  1.00  0.00     0.020 C 
HETATM   37  C3  UNL     1      -3.151   6.588  -0.525  1.00  0.00     0.020 C 
ENDBRANCH  33  35
ENDBRANCH  32  33
ENDBRANCH   1  32
BRANCH   8  38
HETATM   38  C24 UNL     1      -2.994  -1.590  -0.678  1.00  0.00     0.061 C 
BRANCH  38  39
HETATM   39  C25 UNL     1      -3.108  -2.802   0.155  1.00  0.00     0.008 C 
HETATM   40  C26 UNL     1      -4.228  -3.480   0.040  1.00  0.00     0.047 C 
BRANCH  40  41
HETATM   41  O6  UNL     1      -5.187  -2.960  -0.878  1.00  0.00    -0.364 OA
ATOM     42  H6  UNL     1      -5.997  -3.450  -0.961  1.00  0.00     0.217 HD
ENDBRANCH  40  41
BRANCH  40  43
HETATM   43  C27 UNL     1      -4.674  -4.684   0.700  1.00  0.00    -0.003 C 
HETATM   44  C28 UNL     1      -6.096  -4.488   1.288  1.00  0.00     0.021 C 
HETATM   45  C29 UNL     1      -4.856  -5.778  -0.336  1.00  0.00     0.021 C 
HETATM   46  C30 UNL     1      -3.853  -5.197   1.843  1.00  0.00     0.021 C 
ENDBRANCH  40  43
ENDBRANCH  38  39
ENDBRANCH   8  38
TORSDOF 14
