REMARK  9 active torsions:
REMARK  status: ('A' for Active; 'I' for Inactive)
REMARK       I    between atoms: C1_2  and  N1_3 
REMARK    1  A    between atoms: C1_2  and  C25_32 
REMARK    2  A    between atoms: N1_3  and  C2_5 
REMARK    3  A    between atoms: C5_8  and  N2_9 
REMARK    4  A    between atoms: N2_9  and  C6_11 
REMARK    5  A    between atoms: C12_17  and  N3_18 
REMARK    6  A    between atoms: N3_18  and  C13_20 
REMARK    7  A    between atoms: N4_35  and  S1_36 
REMARK    8  A    between atoms: S1_36  and  N5_37 
REMARK    9  A    between atoms: S1_36  and  C28_40 
ROOT
HETATM    1  C2  UNL     1       1.175   1.338  -0.511  1.00  0.00     0.037 A 
HETATM    2  C3  UNL     1       1.155   2.688  -0.660  1.00  0.00     0.032 A 
HETATM    3  C4  UNL     1      -0.059   3.380  -0.731  1.00  0.00     0.034 A 
HETATM    4  C5  UNL     1      -1.238   2.698  -0.652  1.00  0.00     0.055 A 
HETATM    5  C12 UNL     1      -1.277   1.319  -0.500  1.00  0.00     0.061 A 
HETATM    6  C24 UNL     1      -0.066   0.678  -0.433  1.00  0.00     0.061 A 
ENDROOT
BRANCH   1   7
HETATM    7  N1  UNL     1       2.336   0.566  -0.408  1.00  0.00    -0.327 N 
HETATM    8  C1  UNL     1       3.590   1.067  -0.068  1.00  0.00     0.226 C 
HETATM    9  O1  UNL     1       3.835   2.257   0.193  1.00  0.00    -0.273 OA
ATOM     10  H1  UNL     1       2.259  -0.434  -0.595  1.00  0.00     0.169 HD
BRANCH   8  11
HETATM   11  C25 UNL     1       4.733   0.059  -0.021  1.00  0.00     0.080 C 
HETATM   12  C26 UNL     1       4.839  -0.488  -1.422  1.00  0.00     0.029 C 
HETATM   13  C27 UNL     1       5.937  -1.532  -1.504  1.00  0.00     0.105 C 
HETATM   14  N4  UNL     1       5.926  -2.407  -0.382  1.00  0.00    -0.239 NA
HETATM   15  C29 UNL     1       4.728  -2.354   0.403  1.00  0.00     0.105 C 
HETATM   16  C30 UNL     1       4.428  -1.000   0.985  1.00  0.00     0.029 C 
BRANCH  14  17
HETATM   17  S1  UNL     1       7.345  -2.450   0.539  1.00  0.00     0.126 SA
BRANCH  17  18
HETATM   18  N5  UNL     1       7.769  -4.050   0.969  1.00  0.00    -0.072 N 
HETATM   19  O2  UNL     1       7.577  -5.019   0.196  1.00  0.00    -0.525 OA
HETATM   20  O3  UNL     1       8.339  -4.332   2.183  1.00  0.00    -0.525 OA
ENDBRANCH  17  18
BRANCH  17  21
HETATM   21  C28 UNL     1       8.704  -1.549  -0.094  1.00  0.00     0.471 C 
HETATM   22  F1  UNL     1       9.129  -1.961  -1.343  1.00  0.00    -0.159 F 
HETATM   23  F2  UNL     1       9.795  -1.832   0.749  1.00  0.00    -0.159 F 
HETATM   24  F3  UNL     1       8.550  -0.180  -0.030  1.00  0.00    -0.159 F 
ENDBRANCH  17  21
ENDBRANCH  14  17
ENDBRANCH   8  11
ENDBRANCH   1   7
BRANCH   5  25
HETATM   25  N3  UNL     1      -2.478   0.644  -0.361  1.00  0.00    -0.354 N 
ATOM     26  H3  UNL     1      -3.290   1.233  -0.178  1.00  0.00     0.166 HD
BRANCH  25  27
HETATM   27  C13 UNL     1      -2.743  -0.750  -0.436  1.00  0.00     0.033 A 
HETATM   28  C14 UNL     1      -2.078  -1.578  -1.303  1.00  0.00     0.030 A 
HETATM   29  C15 UNL     1      -2.379  -2.920  -1.288  1.00  0.00     0.010 A 
HETATM   30  C16 UNL     1      -3.323  -3.419  -0.428  1.00  0.00    -0.052 A 
HETATM   31  C17 UNL     1      -4.016  -2.622   0.460  1.00  0.00    -0.050 A 
HETATM   32  C23 UNL     1      -3.520  -4.903  -0.550  1.00  0.00     0.039 C 
HETATM   33  C18 UNL     1      -3.689  -1.284   0.418  1.00  0.00     0.037 A 
HETATM   34  C19 UNL     1      -5.066  -2.960   1.464  1.00  0.00     0.039 C 
HETATM   35  C20 UNL     1      -4.860  -4.397   1.960  1.00  0.00     0.005 C 
HETATM   36  C21 UNL     1      -3.391  -4.748   1.946  1.00  0.00     0.001 C 
HETATM   37  C22 UNL     1      -2.971  -5.503   0.727  1.00  0.00     0.005 C 
ENDBRANCH  25  27
ENDBRANCH   5  25
BRANCH   4  38
HETATM   38  N2  UNL     1      -2.454   3.401  -0.769  1.00  0.00    -0.383 N 
ATOM     39  H2  UNL     1      -3.339   2.900  -0.842  1.00  0.00     0.160 HD
BRANCH  38  40
HETATM   40  C6  UNL     1      -2.421   4.863  -0.783  1.00  0.00     0.081 C 
HETATM   41  C7  UNL     1      -1.976   5.471   0.504  1.00  0.00     0.025 C 
HETATM   42  C8  UNL     1      -3.039   6.401   1.095  1.00  0.00     0.002 C 
HETATM   43  C9  UNL     1      -4.400   5.785   1.106  1.00  0.00     0.000 C 
HETATM   44  C10 UNL     1      -4.781   5.083  -0.160  1.00  0.00     0.002 C 
HETATM   45  C11 UNL     1      -3.779   5.376  -1.229  1.00  0.00     0.025 C 
ENDBRANCH  38  40
ENDBRANCH   4  38
TORSDOF 9
