REMARK  12 active torsions:
REMARK  status: ('A' for Active; 'I' for Inactive)
REMARK    1  A    between atoms: C2_2  and  O2_4 
REMARK    2  A    between atoms: O2_4  and  C3_5 
REMARK    3  A    between atoms: C22_26  and  C24_28 
REMARK    4  A    between atoms: C24_28  and  C25_29 
REMARK    5  A    between atoms: C25_29  and  C27_31 
REMARK    6  A    between atoms: C27_31  and  O3_32 
REMARK    7  A    between atoms: C28_34  and  C29_35 
REMARK    8  A    between atoms: C29_35  and  C30_36 
REMARK    9  A    between atoms: C30_36  and  O4_37 
REMARK   10  A    between atoms: C30_36  and  C31_39 
REMARK   11  A    between atoms: C31_39  and  C33_41 
REMARK   12  A    between atoms: C33_41  and  O5_42 
ROOT
HETATM    1  C3  UNL     1      -1.249  -2.594  -1.223  1.00  0.00     0.142 C 
HETATM    2  C4  UNL     1      -2.118  -3.807  -0.716  1.00  0.00     0.038 C 
HETATM    3  C5  UNL     1      -3.062  -3.438   0.345  1.00  0.00     0.039 C 
HETATM    4  C6  UNL     1      -2.581  -2.333   1.182  1.00  0.00    -0.053 C 
HETATM    5  C7  UNL     1      -3.457  -2.084   2.173  1.00  0.00    -0.079 C 
HETATM    6  C8  UNL     1      -4.663  -2.943   2.210  1.00  0.00     0.043 C 
HETATM    7  C9  UNL     1      -3.397  -1.027   3.242  1.00  0.00     0.034 C 
HETATM    8  C10 UNL     1      -3.433   0.333   2.538  1.00  0.00     0.010 C 
HETATM    9  C11 UNL     1      -3.138   0.196   1.085  1.00  0.00     0.004 C 
HETATM   10  C12 UNL     1      -3.454   1.493   0.346  1.00  0.00     0.021 C 
HETATM   11  C13 UNL     1      -3.551   1.162  -1.119  1.00  0.00     0.015 C 
HETATM   12  C14 UNL     1      -2.371   2.509   0.628  1.00  0.00    -0.031 C 
HETATM   13  C15 UNL     1      -2.508   3.706   0.110  1.00  0.00    -0.079 C 
HETATM   14  C16 UNL     1      -3.703   4.033  -0.724  1.00  0.00     0.043 C 
HETATM   15  C17 UNL     1      -1.520   4.799   0.276  1.00  0.00     0.043 C 
HETATM   16  C18 UNL     1      -1.262   2.103   1.482  1.00  0.00     0.037 C 
HETATM   17 CL1  UNL     1      -0.389   3.282   2.410  1.00  0.00    -0.084 Cl
HETATM   18  C19 UNL     1      -0.895   0.826   1.596  1.00  0.00     0.005 C 
HETATM   19  C20 UNL     1      -1.687  -0.143   0.798  1.00  0.00     0.043 C 
HETATM   20  C21 UNL     1      -1.331  -1.574   1.011  1.00  0.00     0.077 C 
HETATM   21 CL2  UNL     1      -0.375  -1.792   2.496  1.00  0.00    -0.113 Cl
HETATM   22  C22 UNL     1      -0.445  -2.155  -0.127  1.00  0.00     0.009 C 
HETATM   23  C23 UNL     1       0.132  -3.450   0.570  1.00  0.00     0.020 C 
ENDROOT
BRANCH  22  24
HETATM   24  C24 UNL     1       0.728  -1.275  -0.155  1.00  0.00     0.025 C 
BRANCH  24  25
HETATM   25  C25 UNL     1       1.981  -1.554  -0.830  1.00  0.00     0.039 C 
HETATM   26  C26 UNL     1       1.972  -1.670  -2.315  1.00  0.00     0.017 C 
BRANCH  25  27
HETATM   27  C27 UNL     1       3.107  -0.587  -0.527  1.00  0.00     0.043 C 
HETATM   28  C28 UNL     1       2.975   0.538   0.092  1.00  0.00     0.008 C 
BRANCH  27  29
HETATM   29  O3  UNL     1       4.337  -1.020  -0.980  1.00  0.00    -0.365 OA
ATOM     30  H3  UNL     1       5.043  -0.414  -0.790  1.00  0.00     0.217 HD
ENDBRANCH  27  29
BRANCH  28  31
HETATM   31  C29 UNL     1       3.979   1.529   0.426  1.00  0.00     0.061 C 
BRANCH  31  32
HETATM   32  C30 UNL     1       5.346   1.387  -0.149  1.00  0.00     0.127 C 
BRANCH  32  33
HETATM   33  O4  UNL     1       5.264   1.463  -1.543  1.00  0.00    -0.395 OA
ATOM     34  H4  UNL     1       6.136   1.372  -1.910  1.00  0.00     0.210 HD
ENDBRANCH  32  33
BRANCH  32  35
HETATM   35  C31 UNL     1       6.251   2.527   0.272  1.00  0.00     0.034 C 
HETATM   36  C32 UNL     1       6.423   2.627   1.758  1.00  0.00     0.015 C 
BRANCH  35  37
HETATM   37  C33 UNL     1       5.849   3.856  -0.329  1.00  0.00     0.170 C 
BRANCH  37  38
HETATM   38  O5  UNL     1       6.758   4.840   0.127  1.00  0.00    -0.400 OA
ATOM     39  H5  UNL     1       6.506   5.674  -0.250  1.00  0.00     0.209 HD
ENDBRANCH  37  38
ENDBRANCH  35  37
ENDBRANCH  32  35
ENDBRANCH  31  32
ENDBRANCH  28  31
ENDBRANCH  25  27
ENDBRANCH  24  25
ENDBRANCH  22  24
BRANCH   1  40
HETATM   40  O2  UNL     1      -0.693  -3.179  -2.360  1.00  0.00    -0.315 OA
BRANCH  40  41
HETATM   41  C2  UNL     1      -1.223  -2.902  -3.636  1.00  0.00     0.255 C 
HETATM   42  C1  UNL     1      -0.613  -3.534  -4.803  1.00  0.00     0.126 C 
HETATM   43  O1  UNL     1      -2.184  -2.135  -3.726  1.00  0.00    -0.266 OA
ENDBRANCH  40  41
ENDBRANCH   1  40
TORSDOF 12
