REMARK  10 active torsions:
REMARK  status: ('A' for Active; 'I' for Inactive)
REMARK    1  A    between atoms: O1_2  and  C2_3 
REMARK    2  A    between atoms: C4_5  and  C5_6 
REMARK    3  A    between atoms: C6_7  and  C7_8 
REMARK    4  A    between atoms: C8_13  and  C9_14 
REMARK    5  A    between atoms: C9_14  and  C10_15 
REMARK    6  A    between atoms: C13_19  and  O2_20 
REMARK    7  A    between atoms: N3_25  and  C16_26 
REMARK    8  A    between atoms: C16_26  and  C17_27 
REMARK    9  A    between atoms: C17_27  and  C18_28 
REMARK   10  A    between atoms: C26_36  and  O3_37 
ROOT
HETATM    1  C7  UNL     1       1.055   1.378   1.059  1.00  0.00     0.123 A 
HETATM    2  N1  UNL     1       1.135   2.481   1.797  1.00  0.00    -0.284 N 
ATOM      3  H1  UNL     1       1.995   2.937   2.102  1.00  0.00     0.188 HD
HETATM    4  N2  UNL     1      -0.097   2.883   2.067  1.00  0.00    -0.287 N 
ATOM      5  H2  UNL     1      -0.349   3.704   2.618  1.00  0.00     0.188 HD
HETATM    6  C8  UNL     1      -0.974   2.014   1.484  1.00  0.00     0.103 A 
HETATM    7  N3  UNL     1      -0.246   1.092   0.867  1.00  0.00    -0.320 N 
ENDROOT
BRANCH   1   8
HETATM    8  C6  UNL     1       2.222   0.629   0.545  1.00  0.00     0.051 C 
HETATM    9  C5  UNL     1       3.426   1.105   0.761  1.00  0.00     0.015 C 
BRANCH   9  10
HETATM   10  C4  UNL     1       4.628   0.433   0.293  1.00  0.00    -0.033 A 
HETATM   11  C3  UNL     1       4.606  -0.750  -0.410  1.00  0.00     0.051 A 
HETATM   12  C2  UNL     1       5.763  -1.387  -0.870  1.00  0.00     0.102 A 
HETATM   13  C26 UNL     1       6.961  -0.776  -0.588  1.00  0.00     0.099 A 
HETATM   14  C25 UNL     1       7.019   0.407   0.112  1.00  0.00     0.040 A 
HETATM   15  C24 UNL     1       5.874   1.027   0.561  1.00  0.00     0.014 A 
BRANCH  12  16
HETATM   16  O1  UNL     1       5.648  -2.552  -1.556  1.00  0.00    -0.353 OA
HETATM   17  C1  UNL     1       4.427  -3.202  -1.852  1.00  0.00     0.210 C 
ENDBRANCH  12  16
BRANCH  13  18
HETATM   18  O3  UNL     1       8.138  -1.389  -1.036  1.00  0.00    -0.358 OA
ATOM     19  H3  UNL     1       8.966  -0.967  -0.841  1.00  0.00     0.217 HD
ENDBRANCH  13  18
ENDBRANCH   9  10
ENDBRANCH   1   8
BRANCH   7  20
HETATM   20  C16 UNL     1      -0.735  -0.022   0.122  1.00  0.00     0.132 C 
BRANCH  20  21
HETATM   21  C17 UNL     1      -0.980  -1.253   0.894  1.00  0.00     0.025 C 
BRANCH  21  22
HETATM   22  C18 UNL     1      -1.466  -2.399   0.063  1.00  0.00    -0.013 C 
HETATM   23  C19 UNL     1      -2.749  -2.131  -0.627  1.00  0.00     0.005 C 
HETATM   24  C20 UNL     1      -3.917  -2.134   0.347  1.00  0.00     0.000 C 
HETATM   25  C21 UNL     1      -4.011  -3.587   0.827  1.00  0.00     0.000 C 
HETATM   26  C22 UNL     1      -2.766  -3.866   1.626  1.00  0.00     0.000 C 
HETATM   27  C23 UNL     1      -1.487  -3.698   0.851  1.00  0.00     0.005 C 
ENDBRANCH  21  22
ENDBRANCH  20  21
ENDBRANCH   7  20
BRANCH   6  28
HETATM   28  C9  UNL     1      -2.411   2.119   1.577  1.00  0.00     0.116 C 
BRANCH  28  29
HETATM   29  C10 UNL     1      -2.901   3.180   0.666  1.00  0.00    -0.048 A 
HETATM   30  C11 UNL     1      -2.987   4.495   1.112  1.00  0.00     0.029 A 
HETATM   31  C12 UNL     1      -3.446   5.486   0.260  1.00  0.00     0.046 A 
HETATM   32 BR1  UNL     1      -3.571   7.307   0.867  1.00  0.00    -0.048 Br
HETATM   33  C13 UNL     1      -3.819   5.170  -1.033  1.00  0.00     0.100 A 
HETATM   34  C14 UNL     1      -3.742   3.891  -1.484  1.00  0.00     0.046 A 
HETATM   35 BR2  UNL     1      -4.246   3.392  -3.261  1.00  0.00    -0.048 Br
HETATM   36  C15 UNL     1      -3.281   2.912  -0.623  1.00  0.00     0.029 A 
BRANCH  33  37
HETATM   37  O2  UNL     1      -4.279   6.194  -1.866  1.00  0.00    -0.358 OA
ATOM     38  H2  UNL     1      -4.535   5.977  -2.755  1.00  0.00     0.217 HD
ENDBRANCH  33  37
ENDBRANCH  28  29
ENDBRANCH   6  28
TORSDOF 10
