REMARK  6 active torsions:
REMARK  status: ('A' for Active; 'I' for Inactive)
REMARK    1  A    between atoms: N1_2  and  C3_4 
REMARK    2  A    between atoms: N3_14  and  C8_16 
REMARK    3  A    between atoms: C8_16  and  C9_17 
REMARK    4  A    between atoms: C9_17  and  N4_18 
REMARK    5  A    between atoms: N8_29  and  N9_31 
REMARK       I    between atoms: C14_33  and  N11_35 
REMARK    6  A    between atoms: N11_35  and  N12_37 
ROOT
HETATM    1  C8  UNL     1      -0.689  -1.152  -0.340  1.00  0.00     0.115 C 
HETATM    2  N8  UNL     1      -0.622  -2.191   0.409  1.00  0.00    -0.285 N 
ATOM      3  H8  UNL     1       0.137  -2.860   0.277  1.00  0.00     0.188 HD
ENDROOT
BRANCH   1   4
HETATM    4  N3  UNL     1       0.261  -0.902  -1.349  1.00  0.00    -0.326 N 
HETATM    5  C7  UNL     1       1.521  -0.973  -1.222  1.00  0.00     0.160 C 
HETATM    6  C5  UNL     1       2.480  -0.691  -2.347  1.00  0.00     0.334 C 
HETATM    7  O2  UNL     1       2.366  -1.287  -0.170  1.00  0.00    -0.301 OA
HETATM    8  C4  UNL     1       3.293   0.481  -2.025  1.00  0.00     0.192 C 
HETATM    9  N2  UNL     1       3.441  -1.775  -2.040  1.00  0.00    -0.027 N 
HETATM   10  C3  UNL     1       4.247   0.057  -0.971  1.00  0.00     0.208 C 
HETATM   11  O1  UNL     1       3.208   1.573  -2.515  1.00  0.00    -0.293 OA
HETATM   12  C6  UNL     1       3.688  -1.334  -0.650  1.00  0.00     0.359 C 
ATOM     13  H22 UNL     1       3.139  -2.738  -2.189  1.00  0.00     0.281 HD
ATOM     14  H21 UNL     1       4.246  -1.888  -2.656  1.00  0.00     0.281 HD
ATOM     15  H3  UNL     1      -0.097  -0.639  -2.267  1.00  0.00     0.169 HD
BRANCH  10  16
HETATM   16  N1  UNL     1       4.374   0.904   0.137  1.00  0.00    -0.407 N 
HETATM   17  C1  UNL     1       3.279   1.144   0.981  1.00  0.00     0.143 C 
HETATM   18  C2  UNL     1       5.675   1.159   0.651  1.00  0.00     0.143 C 
ENDBRANCH  10  16
ENDBRANCH   1   4
BRANCH   1  19
HETATM   19  C9  UNL     1      -1.797  -0.184  -0.143  1.00  0.00     0.199 C 
BRANCH  19  20
HETATM   20  N4  UNL     1      -1.318   1.129   0.191  1.00  0.00    -0.369 N 
HETATM   21  C10 UNL     1      -1.948   2.225   0.064  1.00  0.00     0.105 A 
HETATM   22  C11 UNL     1      -3.231   2.268  -0.439  1.00  0.00     0.093 A 
HETATM   23  N7  UNL     1      -1.380   3.390   0.417  1.00  0.00    -0.339 N 
HETATM   24  C12 UNL     1      -3.884   3.489  -0.562  1.00  0.00     0.120 A 
HETATM   25  N5  UNL     1      -5.223   3.571  -1.083  1.00  0.00    -0.083 NA
HETATM   26  N6  UNL     1      -3.258   4.620  -0.189  1.00  0.00    -0.341 N 
HETATM   27  C13 UNL     1      -1.995   4.568   0.304  1.00  0.00     0.183 A 
ATOM     28  H6  UNL     1      -3.734   5.518  -0.277  1.00  0.00     0.167 HD
ATOM     29  H7  UNL     1      -0.431   3.373   0.790  1.00  0.00     0.168 HD
ATOM     30  H4  UNL     1      -0.373   1.187   0.570  1.00  0.00     0.161 HD
ENDBRANCH  19  20
ENDBRANCH   1  19
BRANCH   2  31
HETATM   31  N9  UNL     1      -1.572  -2.416   1.400  1.00  0.00    -0.271 N 
HETATM   32  C14 UNL     1      -2.156  -3.542   1.543  1.00  0.00     0.223 C 
HETATM   33  N10 UNL     1      -1.823  -4.602   0.660  1.00  0.00    -0.061 NA
HETATM   34  N11 UNL     1      -3.120  -3.718   2.572  1.00  0.00    -0.258 N 
ATOM     35  H11 UNL     1      -2.935  -3.391   3.520  1.00  0.00     0.191 HD
ATOM     36  H9  UNL     1      -1.810  -1.654   2.035  1.00  0.00     0.189 HD
BRANCH  34  37
HETATM   37  N12 UNL     1      -4.324  -4.347   2.258  1.00  0.00    -0.247 N 
HETATM   38  N13 UNL     1      -5.339  -3.643   1.969  1.00  0.00    -0.331 N 
ATOM     39 2H13 UNL     1      -5.258  -2.626   1.971  1.00  0.00     0.178 HD
ATOM     40 1H13 UNL     1      -6.220  -4.103   1.739  1.00  0.00     0.178 HD
ATOM     41  H12 UNL     1      -4.388  -5.365   2.261  1.00  0.00     0.207 HD
ENDBRANCH  34  37
ENDBRANCH   2  31
TORSDOF 6
