REMARK  9 active torsions:
REMARK  status: ('A' for Active; 'I' for Inactive)
REMARK    1  A    between atoms: N4_11  and  C4_12 
REMARK    2  A    between atoms: C4_12  and  O2_13 
REMARK    3  A    between atoms: O2_13  and  C5_14 
REMARK    4  A    between atoms: C5_14  and  N5_15 
REMARK    5  A    between atoms: N7_18  and  C6_19 
REMARK    6  A    between atoms: C9_24  and  N9_25 
REMARK    7  A    between atoms: C10_30  and  N11_31 
REMARK    8  A    between atoms: N11_31  and  C11_33 
REMARK    9  A    between atoms: C11_33  and  O3_37 
ROOT
HETATM    1  C1  UNL     1       5.293  -0.436  -2.435  1.00  0.00     0.021 C 
HETATM    2  C2  UNL     1       5.219   0.072  -1.336  1.00  0.00    -0.038 C 
HETATM    3  C3  UNL     1       5.153   0.663  -0.040  1.00  0.00     0.197 A 
HETATM    4  N1  UNL     1       6.234   0.949   0.598  1.00  0.00    -0.255 N 
ATOM      5  H1  UNL     1       7.138   0.749   0.171  1.00  0.00     0.191 HD
HETATM    6  N2  UNL     1       6.184   1.535   1.881  1.00  0.00    -0.179 N 
ATOM      7  H2  UNL     1       7.036   1.764   2.392  1.00  0.00     0.218 HD
HETATM    8  O1  UNL     1       4.946   1.784   2.413  1.00  0.00    -0.125 OA
HETATM    9  N3  UNL     1       3.832   1.463   1.698  1.00  0.00    -0.174 N 
ATOM     10  H3  UNL     1       2.916   1.653   2.104  1.00  0.00     0.218 HD
HETATM   11  N4  UNL     1       3.893   0.937   0.547  1.00  0.00    -0.222 N 
ENDROOT
BRANCH  11  12
HETATM   12  C4  UNL     1       2.697   0.588  -0.231  1.00  0.00     0.329 C 
BRANCH  12  13
HETATM   13  O2  UNL     1       2.656  -0.752  -0.506  1.00  0.00    -0.323 OA
BRANCH  13  14
HETATM   14  C5  UNL     1       1.584  -1.223  -1.221  1.00  0.00     0.258 C 
BRANCH  14  15
HETATM   15  N5  UNL     1       0.294  -1.015  -0.597  1.00  0.00    -0.194 N 
HETATM   16  N6  UNL     1      -0.174  -1.888   0.309  1.00  0.00    -0.228 N 
HETATM   17  N7  UNL     1      -1.327  -1.751   0.930  1.00  0.00    -0.261 N 
ATOM     18  H6  UNL     1       0.396  -2.704   0.529  1.00  0.00     0.209 HD
HETATM   19  C8  UNL     1      -2.073  -0.673   0.634  1.00  0.00     0.158 A 
HETATM   20  N8  UNL     1      -3.266  -0.433   1.207  1.00  0.00    -0.174 N 
HETATM   21  C12 UNL     1      -1.636   0.266  -0.299  1.00  0.00     0.124 A 
HETATM   22  C9  UNL     1      -4.004   0.657   0.897  1.00  0.00     0.679 A 
ATOM     23  H8  UNL     1      -3.625  -1.093   1.896  1.00  0.00     0.186 HD
HETATM   24  N10 UNL     1      -3.584   1.569  -0.006  1.00  0.00    -0.176 N 
HETATM   25  C10 UNL     1      -2.390   1.373  -0.610  1.00  0.00     0.143 A 
ATOM     26  H10 UNL     1      -4.153   2.386  -0.227  1.00  0.00     0.186 HD
HETATM   27  C13 UNL     1      -0.412   0.077  -0.927  1.00  0.00     0.286 A 
HETATM   28  O4  UNL     1      -0.043   0.917  -1.753  1.00  0.00    -0.265 OA
BRANCH  17  29
HETATM   29  C6  UNL     1      -1.801  -2.723   1.912  1.00  0.00     0.148 C 
HETATM   30  C7  UNL     1      -2.623  -3.814   1.281  1.00  0.00     0.028 C 
ENDBRANCH  17  29
BRANCH  22  31
HETATM   31  N9  UNL     1      -5.149   0.876   1.455  1.00  0.00    -0.234 N 
ATOM     32  H92 UNL     1      -5.466   0.187   2.137  1.00  0.00     0.174 HD
ATOM     33  H91 UNL     1      -5.706   1.698   1.221  1.00  0.00     0.174 HD
ENDBRANCH  22  31
BRANCH  25  34
HETATM   34  N11 UNL     1      -1.916   2.193  -1.482  1.00  0.00    -0.307 N 
ATOM     35  H11 UNL     1      -1.012   2.024  -1.924  1.00  0.00     0.171 HD
BRANCH  34  36
HETATM   36  C11 UNL     1      -2.682   3.333  -1.810  1.00  0.00     0.216 C 
HETATM   37  N12 UNL     1      -3.646   3.257  -2.649  1.00  0.00    -0.365 N 
ATOM     38 2H12 UNL     1      -3.859   2.359  -3.083  1.00  0.00     0.159 HD
ATOM     39 1H12 UNL     1      -4.199   4.080  -2.886  1.00  0.00     0.159 HD
BRANCH  36  40
HETATM   40  O3  UNL     1      -2.395   4.545  -1.224  1.00  0.00    -0.333 OA
ATOM     41  H3  UNL     1      -2.910   5.312  -1.445  1.00  0.00     0.220 HD
ENDBRANCH  36  40
ENDBRANCH  34  36
ENDBRANCH  25  34
ENDBRANCH  14  15
ENDBRANCH  13  14
ENDBRANCH  12  13
ENDBRANCH  11  12
TORSDOF 9
