REMARK  5 active torsions:
REMARK  status: ('A' for Active; 'I' for Inactive)
REMARK    1  A    between atoms: C1_4  and  C2_6 
REMARK    2  A    between atoms: C3_11  and  N5_12 
REMARK    3  A    between atoms: N6_15  and  C4_16 
REMARK    4  A    between atoms: C5_22  and  N9_23 
REMARK       I    between atoms: N9_23  and  C6_25 
REMARK       I    between atoms: C6_25  and  N10_26 
REMARK       I    between atoms: C6_25  and  N11_30 
REMARK    5  A    between atoms: N11_30  and  N12_31 
ROOT
HETATM    1  C4  UNL     1      -0.743  -1.256   0.422  1.00  0.00     0.198 A 
HETATM    2  N7  UNL     1      -1.049  -2.161   1.399  1.00  0.00    -0.221 N 
ATOM      3  H7  UNL     1      -1.970  -2.582   1.523  1.00  0.00     0.198 HD
HETATM    4  O1  UNL     1      -0.041  -2.414   2.136  1.00  0.00    -0.153 OA
HETATM    5  N8  UNL     1       0.957  -1.710   1.698  1.00  0.00    -0.222 N 
ATOM      6  H8  UNL     1       1.892  -1.718   2.105  1.00  0.00     0.198 HD
HETATM    7  C5  UNL     1       0.595  -0.968   0.637  1.00  0.00     0.173 A 
ENDROOT
BRANCH   1   8
HETATM    8  N6  UNL     1      -1.577  -0.726  -0.580  1.00  0.00    -0.106 N 
HETATM    9  C2  UNL     1      -2.340   0.377  -0.466  1.00  0.00     0.186 A 
HETATM   10  N3  UNL     1      -3.002   0.580  -1.626  1.00  0.00    -0.267 N 
HETATM   11  N4  UNL     1      -2.664  -0.378  -2.460  1.00  0.00    -0.130 N 
ATOM     12  H3  UNL     1      -3.650   1.343  -1.821  1.00  0.00     0.189 HD
HETATM   13  C3  UNL     1      -1.782  -1.187  -1.816  1.00  0.00     0.700 A 
ATOM     14  H4  UNL     1      -3.002  -0.493  -3.416  1.00  0.00     0.205 HD
BRANCH   9  15
HETATM   15  C1  UNL     1      -2.477   1.256   0.692  1.00  0.00     0.157 C 
HETATM   16  N1  UNL     1      -3.259   2.269   0.613  1.00  0.00    -0.385 N 
ATOM     17  H12 UNL     1      -3.355   2.883   1.422  1.00  0.00     0.157 HD
ATOM     18  H11 UNL     1      -3.756   2.416  -0.265  1.00  0.00     0.157 HD
HETATM   19  N2  UNL     1      -1.785   1.051   1.914  1.00  0.00    -0.079 NA
ENDBRANCH   9  15
BRANCH  13  20
HETATM   20  N5  UNL     1      -1.209  -2.247  -2.286  1.00  0.00    -0.233 N 
ATOM     21  H52 UNL     1      -1.366  -2.599  -3.230  1.00  0.00     0.174 HD
ATOM     22  H51 UNL     1      -0.547  -2.854  -1.803  1.00  0.00     0.174 HD
ENDBRANCH  13  20
ENDBRANCH   1   8
BRANCH   7  23
HETATM   23  N9  UNL     1       1.306  -0.151  -0.061  1.00  0.00    -0.330 N 
HETATM   24  C6  UNL     1       2.687   0.099   0.218  1.00  0.00     0.397 C 
HETATM   25  N10 UNL     1       3.593  -0.732  -0.539  1.00  0.00    -0.042 N 
HETATM   26  N11 UNL     1       3.017   1.489  -0.138  1.00  0.00    -0.093 NA
ATOM     27 3H10 UNL     1       3.372  -1.719  -0.406  1.00  0.00     0.278 HD
ATOM     28 2H10 UNL     1       3.407  -0.649  -1.538  1.00  0.00     0.278 HD
ATOM     29 1H10 UNL     1       4.577  -0.554  -0.340  1.00  0.00     0.278 HD
ATOM     30  H9  UNL     1       0.868   0.336  -0.842  1.00  0.00     0.164 HD
BRANCH  26  31
HETATM   31  N12 UNL     1       2.163   2.279   0.674  1.00  0.00    -0.345 N 
ATOM     32 2H12 UNL     1       1.477   1.944   1.350  1.00  0.00     0.172 HD
ATOM     33 1H12 UNL     1       2.392   3.242   0.427  1.00  0.00     0.172 HD
ENDBRANCH  26  31
ENDBRANCH   7  23
TORSDOF 5
