REMARK  5 active torsions:
REMARK  status: ('A' for Active; 'I' for Inactive)
REMARK    1  A    between atoms: C2_2  and  C3_3 
REMARK    2  A    between atoms: C3_3  and  C4_4 
REMARK    3  A    between atoms: C7_7  and  N1_8 
REMARK    4  A    between atoms: N1_8  and  C8_10 
REMARK    5  A    between atoms: C9_13  and  C10_14 
ROOT
HETATM    1  C8  UNL     1      -1.855  -0.016   0.064  1.00  0.00     0.134 A 
HETATM    2  N2  UNL     1      -2.863   0.899   0.065  1.00  0.00    -0.326 N 
ATOM      3  H2  UNL     1      -2.623   1.864  -0.164  1.00  0.00     0.169 HD
HETATM    4  C9  UNL     1      -4.132   0.634   0.340  1.00  0.00     0.121 A 
HETATM    5  N5  UNL     1      -4.433  -0.658   0.644  1.00  0.00    -0.326 N 
ATOM      6  H5  UNL     1      -5.398  -0.905   0.862  1.00  0.00     0.169 HD
HETATM    7  C13 UNL     1      -3.494  -1.616   0.664  1.00  0.00     0.142 A 
HETATM    8  N6  UNL     1      -3.522  -2.949   0.928  1.00  0.00    -0.292 N 
ATOM      9  H6  UNL     1      -4.353  -3.485   1.179  1.00  0.00     0.172 HD
HETATM   10  C14 UNL     1      -2.287  -3.446   0.806  1.00  0.00     0.326 A 
HETATM   11  O1  UNL     1      -1.935  -4.640   0.976  1.00  0.00    -0.247 OA
HETATM   12  N7  UNL     1      -1.455  -2.462   0.468  1.00  0.00    -0.302 N 
ATOM     13  H7  UNL     1      -0.452  -2.551   0.308  1.00  0.00     0.171 HD
HETATM   14  C15 UNL     1      -2.186  -1.313   0.374  1.00  0.00     0.125 A 
ENDROOT
BRANCH   1  15
HETATM   15  N1  UNL     1      -0.731   0.367  -0.208  1.00  0.00    -0.368 N 
ATOM     16  H1  UNL     1      -0.789   1.369  -0.391  1.00  0.00     0.161 HD
BRANCH  15  17
HETATM   17  C7  UNL     1       0.585  -0.002  -0.369  1.00  0.00     0.107 C 
HETATM   18  C6  UNL     1       1.387  -0.137   0.913  1.00  0.00     0.030 C 
HETATM   19  C5  UNL     1       2.801   0.323   0.658  1.00  0.00     0.034 C 
HETATM   20  C4  UNL     1       3.201  -0.045  -0.727  1.00  0.00     0.121 C 
HETATM   21  O2  UNL     1       2.511   0.719  -1.635  1.00  0.00    -0.384 OA
HETATM   22  C16 UNL     1       1.267   1.113  -1.208  1.00  0.00     0.193 C 
BRANCH  20  23
HETATM   23  C3  UNL     1       4.672   0.109  -0.992  1.00  0.00     0.031 C 
BRANCH  23  24
HETATM   24  C2  UNL     1       5.535  -0.732  -0.107  1.00  0.00    -0.002 C 
HETATM   25  C1  UNL     1       6.985  -0.452  -0.513  1.00  0.00     0.005 C 
ENDBRANCH  23  24
ENDBRANCH  20  23
ENDBRANCH  15  17
ENDBRANCH   1  15
BRANCH   4  26
HETATM   26  C10 UNL     1      -5.192   1.628   0.335  1.00  0.00     0.042 A 
HETATM   27  C11 UNL     1      -5.045   2.960   0.050  1.00  0.00     0.123 A 
HETATM   28  N3  UNL     1      -6.277   3.542   0.155  1.00  0.00    -0.311 N 
HETATM   29  N4  UNL     1      -7.181   2.623   0.493  1.00  0.00    -0.311 N 
ATOM     30  H3  UNL     1      -6.475   4.530  -0.002  1.00  0.00     0.186 HD
HETATM   31  C12 UNL     1      -6.525   1.440   0.606  1.00  0.00     0.123 A 
ATOM     32  H4  UNL     1      -8.178   2.779   0.639  1.00  0.00     0.186 HD
ENDBRANCH   4  26
TORSDOF 5
