REMARK  3 active torsions:
REMARK  status: ('A' for Active; 'I' for Inactive)
REMARK    1  A    between atoms: N1_1  and  C1_4 
REMARK    2  A    between atoms: C3_9  and  C4_10 
REMARK    3  A    between atoms: N4_11  and  N5_13 
REMARK       I    between atoms: C5_15  and  N7_17 
ROOT
HETATM    1  C1  UNL     1      -4.106  -0.124  -0.209  1.00  0.00     0.680 A 
HETATM    2  N2  UNL     1      -3.254  -0.436   0.790  1.00  0.00    -0.178 N 
ATOM      3  H2  UNL     1      -3.621  -0.880   1.632  1.00  0.00     0.185 HD
HETATM    4  C2  UNL     1      -1.922  -0.178   0.710  1.00  0.00     0.149 A 
HETATM    5  N3  UNL     1      -1.042  -0.510   1.763  1.00  0.00    -0.081 NA
HETATM    6  C3  UNL     1      -1.430   0.423  -0.434  1.00  0.00     0.091 A 
HETATM    7  C6  UNL     1      -2.340   0.724  -1.430  1.00  0.00     0.274 A 
HETATM    8  O1  UNL     1      -1.940   1.267  -2.480  1.00  0.00    -0.267 OA
HETATM    9  N11 UNL     1      -3.648   0.458  -1.323  1.00  0.00    -0.155 N 
ATOM     10  H11 UNL     1      -4.287   0.696  -2.081  1.00  0.00     0.187 HD
ENDROOT
BRANCH   6  11
HETATM   11  C4  UNL     1      -0.015   0.725  -0.580  1.00  0.00     0.127 C 
HETATM   12  N4  UNL     1       0.802   0.443   0.340  1.00  0.00    -0.308 N 
ATOM     13  H4  UNL     1       0.411   0.000   1.172  1.00  0.00     0.186 HD
BRANCH  12  14
HETATM   14  N5  UNL     1       2.155   0.664   0.349  1.00  0.00    -0.272 N 
HETATM   15  C5  UNL     1       3.057  -0.246   0.203  1.00  0.00     0.240 C 
HETATM   16  N6  UNL     1       2.658  -1.586   0.017  1.00  0.00    -0.059 NA
HETATM   17  N7  UNL     1       4.430   0.120   0.232  1.00  0.00    -0.136 N 
HETATM   18  N8  UNL     1       5.553  -0.477  -0.194  1.00  0.00     0.013 NA
HETATM   19  N10 UNL     1       5.175   1.129   0.655  1.00  0.00     0.013 NA
HETATM   20  N9  UNL     1       6.283   0.541   0.235  1.00  0.00     0.008 NA
ATOM     21  H5  UNL     1       2.473   1.624   0.482  1.00  0.00     0.189 HD
ENDBRANCH  12  14
ENDBRANCH   6  11
BRANCH   1  22
HETATM   22  N1  UNL     1      -5.358  -0.396  -0.069  1.00  0.00    -0.234 N 
ATOM     23  H12 UNL     1      -5.707  -0.840   0.780  1.00  0.00     0.174 HD
ATOM     24  H11 UNL     1      -6.002  -0.160  -0.824  1.00  0.00     0.174 HD
ENDBRANCH   1  22
TORSDOF 3
