REMARK  5 active torsions:
REMARK  status: ('A' for Active; 'I' for Inactive)
REMARK    1  A    between atoms: C2_2  and  C3_4 
REMARK    2  A    between atoms: N1_6  and  C4_7 
REMARK    3  A    between atoms: N4_14  and  N5_15 
REMARK    4  A    between atoms: C6_18  and  N6_19 
REMARK    5  A    between atoms: C7_22  and  C8_23 
ROOT
HETATM    1  C4  UNL     1      -1.066   0.327  -0.348  1.00  0.00     0.171 A 
HETATM    2  N2  UNL     1      -1.625   0.523  -1.553  1.00  0.00    -0.289 N 
ATOM      3  H2  UNL     1      -1.049   0.735  -2.368  1.00  0.00     0.172 HD
HETATM    4  C5  UNL     1      -2.966   0.432  -1.659  1.00  0.00     0.342 A 
HETATM    5  O2  UNL     1      -3.546   0.605  -2.762  1.00  0.00    -0.245 OA
HETATM    6  N3  UNL     1      -3.740   0.155  -0.597  1.00  0.00    -0.229 N 
ATOM      7  H3  UNL     1      -4.751   0.096  -0.720  1.00  0.00     0.194 HD
HETATM    8  N4  UNL     1      -3.228  -0.042   0.596  1.00  0.00    -0.179 N 
HETATM    9  C6  UNL     1      -1.888   0.046   0.713  1.00  0.00     0.184 A 
ENDROOT
BRANCH   1  10
HETATM   10  N1  UNL     1       0.376   0.415  -0.188  1.00  0.00    -0.254 N 
HETATM   11  S1  UNL     1       1.290   1.575   0.580  1.00  0.00     0.001 SA
HETATM   12  C3  UNL     1       2.392   0.441  -0.025  1.00  0.00     0.102 A 
HETATM   13  C7  UNL     1       1.406  -0.342  -0.570  1.00  0.00     0.146 A 
BRANCH  12  14
HETATM   14  C2  UNL     1       3.871   0.386   0.051  1.00  0.00     0.166 C 
HETATM   15  C1  UNL     1       4.611   1.467   0.758  1.00  0.00     0.097 C 
HETATM   16  O1  UNL     1       4.482  -0.563  -0.477  1.00  0.00    -0.292 OA
ENDBRANCH  12  14
BRANCH  13  17
HETATM   17  C8  UNL     1       1.392  -1.604  -1.334  1.00  0.00     0.229 C 
HETATM   18  O3  UNL     1       2.460  -2.174  -1.599  1.00  0.00    -0.643 OA
HETATM   19  O4  UNL     1       0.227  -2.214  -1.788  1.00  0.00    -0.643 OA
ENDBRANCH  13  17
ENDBRANCH   1  10
BRANCH   9  20
HETATM   20  N6  UNL     1      -1.344  -0.144   1.885  1.00  0.00    -0.380 N 
ATOM     21  H62 UNL     1      -0.330  -0.077   1.974  1.00  0.00     0.158 HD
ATOM     22  H61 UNL     1      -1.955  -0.353   2.674  1.00  0.00     0.158 HD
ENDBRANCH   9  20
BRANCH   8  23
HETATM   23  N5  UNL     1      -3.995  -0.333   1.727  1.00  0.00    -0.322 N 
ATOM     24  H52 UNL     1      -5.009  -0.400   1.638  1.00  0.00     0.179 HD
ATOM     25  H51 UNL     1      -3.597  -0.486   2.654  1.00  0.00     0.179 HD
ENDBRANCH   8  23
TORSDOF 5
