REMARK  3 active torsions:
REMARK  status: ('A' for Active; 'I' for Inactive)
REMARK    1  A    between atoms: N1_1  and  C1_4 
REMARK    2  A    between atoms: C4_11  and  C5_12 
REMARK       I    between atoms: C5_12  and  N4_14 
REMARK    3  A    between atoms: N4_14  and  N5_16 
ROOT
HETATM    1  C1  UNL     1      -0.691  -1.852   0.251  1.00  0.00     0.132 A 
HETATM    2  N2  UNL     1      -1.999  -1.884   0.004  1.00  0.00    -0.283 N 
ATOM      3  H2  UNL     1      -2.488  -2.766   0.153  1.00  0.00     0.188 HD
HETATM    4  N3  UNL     1      -2.710  -0.849  -0.422  1.00  0.00    -0.276 N 
ATOM      5  H3  UNL     1      -3.711  -0.946  -0.592  1.00  0.00     0.189 HD
HETATM    6  C2  UNL     1      -2.098   0.329  -0.628  1.00  0.00     0.194 A 
HETATM    7  C3  UNL     1      -0.728   0.405  -0.380  1.00  0.00     0.143 A 
HETATM    8  C4  UNL     1       0.024  -0.663   0.062  1.00  0.00     0.116 A 
HETATM    9  O2  UNL     1      -0.416   1.715  -0.682  1.00  0.00    -0.320 OA
HETATM   10  C6  UNL     1      -1.586   2.521  -0.682  1.00  0.00     0.354 C 
HETATM   11  O3  UNL     1      -2.566   1.568  -1.063  1.00  0.00    -0.306 OA
ENDROOT
BRANCH   8  12
HETATM   12  C5  UNL     1       1.445  -0.593   0.322  1.00  0.00     0.276 C 
HETATM   13  O1  UNL     1       2.003  -1.666   0.728  1.00  0.00    -0.266 OA
HETATM   14  N4  UNL     1       2.280   0.526   0.176  1.00  0.00    -0.272 N 
ATOM     15  H4  UNL     1       1.869   1.402  -0.146  1.00  0.00     0.189 HD
BRANCH  14  16
HETATM   16  N5  UNL     1       3.652   0.494   0.453  1.00  0.00    -0.342 N 
ATOM     17  H52 UNL     1       4.047  -0.390   0.774  1.00  0.00     0.176 HD
ATOM     18  H51 UNL     1       4.259   1.307   0.347  1.00  0.00     0.176 HD
ENDBRANCH  14  16
ENDBRANCH   8  12
BRANCH   1  19
HETATM   19  N1  UNL     1      -0.094  -2.904   0.659  1.00  0.00    -0.384 N 
ATOM     20  H12 UNL     1      -0.615  -3.770   0.797  1.00  0.00     0.157 HD
ATOM     21  H11 UNL     1       0.908  -2.879   0.848  1.00  0.00     0.157 HD
ENDBRANCH   1  19
TORSDOF 3
