REMARK  1 active torsions:
REMARK  status: ('A' for Active; 'I' for Inactive)
REMARK    1  A    between atoms: N1_2  and  C2_4 
ROOT
HETATM    1  C2  UNL     1       0.156   0.539  -0.279  1.00  0.00     0.185 A 
HETATM    2  N2  UNL     1       0.320  -0.694   0.235  1.00  0.00    -0.277 N 
ATOM      3  H2  UNL     1       1.239  -1.136   0.200  1.00  0.00     0.189 HD
HETATM    4  N3  UNL     1      -0.697  -1.341   0.786  1.00  0.00    -0.250 N 
ATOM      5  H3  UNL     1      -0.528  -2.273   1.164  1.00  0.00     0.192 HD
HETATM    6  C3  UNL     1      -1.939  -0.836   0.874  1.00  0.00     0.341 A 
HETATM    7  O1  UNL     1      -2.894  -1.491   1.412  1.00  0.00    -0.245 OA
HETATM    8  N4  UNL     1      -2.143   0.395   0.371  1.00  0.00    -0.271 N 
ATOM      9  H4  UNL     1      -3.070   0.818   0.417  1.00  0.00     0.174 HD
HETATM   10  C4  UNL     1      -1.113   1.075  -0.198  1.00  0.00     0.294 A 
HETATM   11  O2  UNL     1      -1.318   2.223  -0.663  1.00  0.00    -0.264 OA
ENDROOT
BRANCH   1  12
HETATM   12  N1  UNL     1       1.146   1.171  -0.816  1.00  0.00    -0.375 N 
HETATM   13  C1  UNL     1       2.445   0.528  -0.857  1.00  0.00     0.148 C 
ATOM     14  H1  UNL     1       1.017   2.105  -1.204  1.00  0.00     0.160 HD
ENDBRANCH   1  12
TORSDOF 1
