REMARK  7 active torsions:
REMARK  status: ('A' for Active; 'I' for Inactive)
REMARK    1  A    between atoms: C2_2  and  C3_3 
REMARK    2  A    between atoms: C3_3  and  O1_4 
REMARK    3  A    between atoms: O1_4  and  C4_5 
REMARK    4  A    between atoms: C10_13  and  C11_14 
REMARK    5  A    between atoms: C11_14  and  N2_15 
REMARK    6  A    between atoms: N2_15  and  N3_17 
REMARK    7  A    between atoms: N3_17  and  C12_19 
ROOT
HETATM    1  C4  UNL     1       3.498   0.668   0.207  1.00  0.00     0.101 A 
HETATM    2  C5  UNL     1       4.028   1.644   1.018  1.00  0.00     0.080 A 
HETATM    3  C6  UNL     1       5.417   1.500   1.418  1.00  0.00     0.102 C 
HETATM    4  N1  UNL     1       6.522   1.396   1.749  1.00  0.00    -0.191 NA
HETATM    5  C7  UNL     1       3.271   2.717   1.435  1.00  0.00     0.044 A 
HETATM    6  C8  UNL     1       1.959   2.849   1.055  1.00  0.00     0.013 A 
HETATM    7 BR1  UNL     1       0.873   4.320   1.611  1.00  0.00    -0.051 Br
HETATM    8  C9  UNL     1       1.423   1.858   0.233  1.00  0.00     0.034 A 
HETATM    9  C10 UNL     1       2.157   0.778  -0.197  1.00  0.00     0.017 A 
ENDROOT
BRANCH   1  10
HETATM   10  O1  UNL     1       4.253  -0.411  -0.215  1.00  0.00    -0.345 OA
BRANCH  10  11
HETATM   11  C3  UNL     1       4.254  -1.571   0.596  1.00  0.00     0.202 C 
BRANCH  11  12
HETATM   12  C2  UNL     1       5.095  -2.647   0.038  1.00  0.00    -0.011 C 
HETATM   13  C1  UNL     1       5.772  -2.536  -1.095  1.00  0.00     0.009 C 
ENDBRANCH  11  12
ENDBRANCH  10  11
ENDBRANCH   1  10
BRANCH   9  14
HETATM   14  C11 UNL     1       1.650  -0.268  -1.045  1.00  0.00     0.121 C 
BRANCH  14  15
HETATM   15  N2  UNL     1       0.492  -0.371  -1.521  1.00  0.00    -0.309 N 
ATOM     16  H2  UNL     1       0.400  -1.212  -2.091  1.00  0.00     0.186 HD
BRANCH  15  17
HETATM   17  N3  UNL     1      -0.652   0.319  -1.485  1.00  0.00    -0.280 N 
ATOM     18  H3  UNL     1      -0.591   1.297  -1.769  1.00  0.00     0.189 HD
BRANCH  17  19
HETATM   19  C12 UNL     1      -1.822  -0.093  -1.137  1.00  0.00     0.165 A 
HETATM   20  N4  UNL     1      -2.865   0.761  -1.166  1.00  0.00    -0.335 N 
HETATM   21  C13 UNL     1      -4.119   0.478  -0.838  1.00  0.00     0.047 A 
ATOM     22  H4  UNL     1      -2.671   1.716  -1.469  1.00  0.00     0.168 HD
HETATM   23  C14 UNL     1      -5.037   1.532  -0.947  1.00  0.00     0.032 A 
HETATM   24  C18 UNL     1      -4.616  -0.727  -0.404  1.00  0.00     0.025 A 
HETATM   25  C15 UNL     1      -6.367   1.390  -0.643  1.00  0.00     0.021 A 
HETATM   26  C16 UNL     1      -6.864   0.200  -0.213  1.00  0.00     0.012 A 
HETATM   27 BR2  UNL     1      -8.713   0.035   0.201  1.00  0.00    -0.051 Br
HETATM   28  C17 UNL     1      -5.981  -0.850  -0.098  1.00  0.00     0.035 A 
HETATM   29  C19 UNL     1      -3.865  -1.872  -0.236  1.00  0.00     0.083 A 
HETATM   30  N5  UNL     1      -4.412  -2.959   0.176  1.00  0.00    -0.393 N 
HETATM   31  S1  UNL     1      -2.213  -1.667  -0.622  1.00  0.00    -0.034 SA
ATOM     32  H52 UNL     1      -5.398  -3.081   0.406  1.00  0.00     0.156 HD
ATOM     33  H51 UNL     1      -3.857  -3.806   0.300  1.00  0.00     0.156 HD
ENDBRANCH  17  19
ENDBRANCH  15  17
ENDBRANCH  14  15
ENDBRANCH   9  14
TORSDOF 7
