REMARK  6 active torsions:
REMARK  status: ('A' for Active; 'I' for Inactive)
REMARK    1  A    between atoms: C6_9  and  S1_10 
REMARK    2  A    between atoms: S1_10  and  N3_13 
REMARK    3  A    between atoms: N3_13  and  N4_15 
REMARK       I    between atoms: N4_15  and  C7_17 
REMARK       I    between atoms: C7_17  and  N5_19 
REMARK    4  A    between atoms: N5_19  and  C8_21 
REMARK    5  A    between atoms: C8_21  and  C9_22 
REMARK    6  A    between atoms: C11_30  and  N9_31 
ROOT
HETATM    1  N4  UNL     1      -0.656  -1.143   0.057  1.00  0.00    -0.244 N 
ATOM      2  H4  UNL     1      -0.984  -2.062   0.353  1.00  0.00     0.192 HD
HETATM    3  C7  UNL     1       0.592  -1.066  -0.600  1.00  0.00     0.335 C 
HETATM    4  O2  UNL     1       0.966   0.084  -0.950  1.00  0.00    -0.246 OA
HETATM    5  N5  UNL     1       1.384  -2.219  -0.852  1.00  0.00    -0.335 N 
ATOM      6  H5  UNL     1       1.027  -3.123  -0.542  1.00  0.00     0.164 HD
ENDROOT
BRANCH   5   7
HETATM    7  C8  UNL     1       2.663  -2.186  -1.520  1.00  0.00     0.203 C 
BRANCH   7   8
HETATM    8  C9  UNL     1       3.675  -1.357  -0.827  1.00  0.00     0.133 A 
HETATM    9  N6  UNL     1       4.077  -1.614   0.435  1.00  0.00    -0.262 N 
HETATM   10  N7  UNL     1       4.980  -0.730   0.795  1.00  0.00    -0.029 N 
ATOM     11  H6  UNL     1       3.733  -2.376   1.019  1.00  0.00     0.189 HD
HETATM   12  C10 UNL     1       5.653  -0.596   1.954  1.00  0.00     0.374 A 
HETATM   13  C12 UNL     1       5.166   0.103  -0.236  1.00  0.00     0.725 A 
HETATM   14  O3  UNL     1       5.446  -1.397   2.886  1.00  0.00    -0.244 OA
HETATM   15  N8  UNL     1       6.542   0.406   2.084  1.00  0.00    -0.139 N 
HETATM   16  C11 UNL     1       6.747   1.256   1.063  1.00  0.00     0.694 A 
ATOM     17  H8  UNL     1       7.059   0.520   2.956  1.00  0.00     0.189 HD
HETATM   18  N10 UNL     1       6.055   1.099  -0.094  1.00  0.00    -0.020 N 
ATOM     19  H10 UNL     1       6.213   1.747  -0.866  1.00  0.00     0.203 HD
HETATM   20  N11 UNL     1       4.355  -0.284  -1.247  1.00  0.00    -0.171 N 
HETATM   21  C13 UNL     1       4.216   0.314  -2.556  1.00  0.00     0.177 C 
BRANCH  16  22
HETATM   22  N9  UNL     1       7.605   2.207   1.219  1.00  0.00    -0.234 N 
ATOM     23  H92 UNL     1       8.125   2.325   2.089  1.00  0.00     0.174 HD
ATOM     24  H91 UNL     1       7.761   2.852   0.444  1.00  0.00     0.174 HD
ENDBRANCH  16  22
ENDBRANCH   7   8
ENDBRANCH   5   7
BRANCH   1  25
HETATM   25  N3  UNL     1      -1.464  -0.047   0.326  1.00  0.00    -0.243 N 
ATOM     26  H3  UNL     1      -1.344   0.561   1.136  1.00  0.00     0.198 HD
BRANCH  25  27
HETATM   27  S1  UNL     1      -2.692   0.172  -0.860  1.00  0.00     0.140 S 
HETATM   28  O1  UNL     1      -2.411   1.469  -1.561  1.00  0.00    -0.231 OA
HETATM   29  S2  UNL     1      -2.673  -1.053  -2.040  1.00  0.00     0.036 SA
BRANCH  27  30
HETATM   30  C6  UNL     1      -4.235   0.231  -0.047  1.00  0.00     0.098 A 
HETATM   31  C2  UNL     1      -5.077  -0.809   0.264  1.00  0.00     0.045 A 
HETATM   32  C1  UNL     1      -4.869  -2.240  -0.016  1.00  0.00     0.071 C 
HETATM   33  N1  UNL     1      -6.154  -0.284   0.888  1.00  0.00    -0.302 N 
HETATM   34  N2  UNL     1      -6.038   1.025   0.987  1.00  0.00    -0.299 N 
ATOM     35  H1  UNL     1      -6.946  -0.825   1.234  1.00  0.00     0.186 HD
HETATM   36  C3  UNL     1      -6.951   1.977   1.577  1.00  0.00     0.177 C 
HETATM   37  C4  UNL     1      -4.861   1.372   0.418  1.00  0.00     0.047 A 
HETATM   38  C5  UNL     1      -4.330   2.737   0.310  1.00  0.00     0.071 C 
ENDBRANCH  27  30
ENDBRANCH  25  27
ENDBRANCH   1  25
TORSDOF 6
