REMARK  7 active torsions:
REMARK  status: ('A' for Active; 'I' for Inactive)
REMARK    1  A    between atoms: C2_2  and  O1_3 
REMARK    2  A    between atoms: O1_3  and  C3_4 
REMARK    3  A    between atoms: C3_4  and  C4_6 
REMARK    4  A    between atoms: C6_8  and  O3_9 
REMARK    5  A    between atoms: C7_11  and  C8_12 
REMARK    6  A    between atoms: N1_13  and  C9_15 
REMARK    7  A    between atoms: C16_24  and  C17_25 
ROOT
HETATM    1  C9  UNL     1       0.283  -0.091   1.076  1.00  0.00     0.096 A 
HETATM    2  S1  UNL     1       1.396   1.200   1.058  1.00  0.00    -0.067 SA
HETATM    3  C10 UNL     1       2.809   0.347   0.643  1.00  0.00     0.061 A 
HETATM    4  C11 UNL     1       2.375  -0.942   0.527  1.00  0.00    -0.014 A 
HETATM    5  C12 UNL     1       1.058  -1.170   0.753  1.00  0.00     0.086 A 
HETATM    6  C13 UNL     1       0.467  -2.518   0.657  1.00  0.00     0.103 C 
HETATM    7  N2  UNL     1      -0.022  -3.586   0.580  1.00  0.00    -0.191 NA
HETATM    8  C14 UNL     1       3.495  -1.913   0.159  1.00  0.00     0.042 C 
HETATM    9  C15 UNL     1       4.311  -1.323  -0.938  1.00  0.00     0.018 C 
HETATM   10  C16 UNL     1       5.080  -0.082  -0.528  1.00  0.00     0.065 C 
HETATM   11  C20 UNL     1       4.237   0.692   0.412  1.00  0.00     0.171 C 
HETATM   12  O4  UNL     1       4.670   1.671   1.061  1.00  0.00    -0.291 OA
ENDROOT
BRANCH   1  13
HETATM   13  N1  UNL     1      -1.134  -0.086   1.355  1.00  0.00    -0.356 N 
HETATM   14  C8  UNL     1      -1.969   0.415   0.541  1.00  0.00     0.129 C 
ATOM     15  H1  UNL     1      -1.472  -0.495   2.226  1.00  0.00     0.166 HD
BRANCH  14  16
HETATM   16  C7  UNL     1      -3.407   0.448   0.772  1.00  0.00     0.124 A 
HETATM   17  C6  UNL     1      -4.005  -0.064   1.906  1.00  0.00     0.103 A 
HETATM   18  C5  UNL     1      -5.353   0.166   1.728  1.00  0.00     0.083 A 
HETATM   19  C4  UNL     1      -5.535   0.797   0.518  1.00  0.00     0.154 A 
HETATM   20  O5  UNL     1      -4.334   0.936  -0.004  1.00  0.00    -0.300 OA
BRANCH  17  21
HETATM   21  O3  UNL     1      -3.349  -0.677   2.985  1.00  0.00    -0.358 OA
ATOM     22  H3  UNL     1      -2.420  -0.835   3.108  1.00  0.00     0.217 HD
ENDBRANCH  17  21
BRANCH  19  23
HETATM   23  C3  UNL     1      -6.791   1.229  -0.081  1.00  0.00     0.317 C 
HETATM   24  O2  UNL     1      -7.851   1.023   0.546  1.00  0.00    -0.257 OA
BRANCH  23  25
HETATM   25  O1  UNL     1      -6.856   1.856  -1.310  1.00  0.00    -0.316 OA
BRANCH  25  26
HETATM   26  C2  UNL     1      -8.045   2.294  -1.934  1.00  0.00     0.175 C 
HETATM   27  C1  UNL     1      -8.949   1.106  -2.150  1.00  0.00     0.034 C 
ENDBRANCH  25  26
ENDBRANCH  23  25
ENDBRANCH  19  23
ENDBRANCH  14  16
ENDBRANCH   1  13
BRANCH  10  28
HETATM   28  C17 UNL     1       6.450  -0.397  -0.023  1.00  0.00    -0.011 C 
HETATM   29  C18 UNL     1       7.291  -1.104  -1.069  1.00  0.00     0.010 C 
HETATM   30  C19 UNL     1       7.189   0.892   0.298  1.00  0.00     0.010 C 
ENDBRANCH  10  28
TORSDOF 7
