REMARK  6 active torsions:
REMARK  status: ('A' for Active; 'I' for Inactive)
REMARK    1  A    between atoms: O1_2  and  C2_3 
REMARK    2  A    between atoms: C3_4  and  O2_5 
REMARK    3  A    between atoms: C9_12  and  O3_13 
REMARK    4  A    between atoms: C12_16  and  C13_17 
REMARK    5  A    between atoms: C16_20  and  O4_21 
REMARK    6  A    between atoms: O4_21  and  C17_22 
ROOT
HETATM    1  C2  UNL     1      -0.145   2.706  -0.246  1.00  0.00     0.155 C 
HETATM    2  C3  UNL     1      -1.438   2.521   0.213  1.00  0.00     0.114 C 
HETATM    3  C4  UNL     1      -2.168   1.360   0.011  1.00  0.00     0.014 A 
HETATM    4  C5  UNL     1      -3.510   1.587  -0.138  1.00  0.00     0.022 A 
HETATM    5  C6  UNL     1      -4.366   0.525  -0.357  1.00  0.00    -0.058 A 
HETATM    6  C7  UNL     1      -5.844   0.774  -0.487  1.00  0.00     0.048 C 
HETATM    7  C8  UNL     1      -3.916  -0.766  -0.432  1.00  0.00     0.044 A 
HETATM    8  C9  UNL     1      -2.550  -0.993  -0.279  1.00  0.00     0.080 A 
HETATM    9  C11 UNL     1      -1.696   0.033  -0.061  1.00  0.00     0.024 A 
HETATM   10  C12 UNL     1      -0.375  -0.392   0.158  1.00  0.00     0.018 C 
HETATM   11  C16 UNL     1       0.710   0.377  -0.276  1.00  0.00     0.140 C 
HETATM   12  C22 UNL     1       0.817   1.769  -0.497  1.00  0.00     0.242 C 
HETATM   13  O5  UNL     1       1.882   2.162  -0.962  1.00  0.00    -0.282 OA
ENDROOT
BRANCH  11  14
HETATM   14  O4  UNL     1       1.835  -0.331  -0.520  1.00  0.00    -0.302 OA
BRANCH  14  15
HETATM   15  C17 UNL     1       3.107  -0.363  -0.195  1.00  0.00     0.116 A 
HETATM   16  C18 UNL     1       4.110  -0.268  -1.191  1.00  0.00     0.148 A 
HETATM   17  N1  UNL     1       5.303  -0.323  -0.615  1.00  0.00    -0.305 N 
HETATM   18  C19 UNL     1       6.585  -0.248  -1.323  1.00  0.00     0.177 C 
HETATM   19  N2  UNL     1       5.143  -0.446   0.672  1.00  0.00    -0.301 N 
HETATM   20  C20 UNL     1       3.793  -0.473   0.954  1.00  0.00     0.057 A 
ATOM     21  H2  UNL     1       5.894  -0.512   1.359  1.00  0.00     0.187 HD
HETATM   22  C21 UNL     1       3.364  -0.595   2.367  1.00  0.00     0.072 C 
ENDBRANCH  14  15
ENDBRANCH  11  14
BRANCH  10  23
HETATM   23  C13 UNL     1      -0.276  -1.709   0.794  1.00  0.00    -0.073 C 
HETATM   24  C14 UNL     1      -0.543  -1.887   2.294  1.00  0.00     0.044 C 
HETATM   25  C15 UNL     1       0.658  -2.777   0.219  1.00  0.00     0.044 C 
ENDBRANCH  10  23
BRANCH   1  26
HETATM   26  O1  UNL     1       0.177   4.045  -0.468  1.00  0.00    -0.350 OA
HETATM   27  C1  UNL     1      -0.029   4.639  -1.746  1.00  0.00     0.210 C 
ENDBRANCH   1  26
BRANCH   8  28
HETATM   28  O3  UNL     1      -2.016  -2.257  -0.342  1.00  0.00    -0.355 OA
HETATM   29  C10 UNL     1      -2.942  -3.336  -0.583  1.00  0.00     0.210 C 
ENDBRANCH   8  28
BRANCH   2  30
HETATM   30  O2  UNL     1      -2.069   3.499   0.895  1.00  0.00    -0.357 OA
ATOM     31  H2  UNL     1      -2.956   3.372   1.210  1.00  0.00     0.217 HD
ENDBRANCH   2  30
TORSDOF 6
