REMARK  4 active torsions:
REMARK  status: ('A' for Active; 'I' for Inactive)
REMARK    1  A    between atoms: C2_2  and  C4_4 
REMARK    2  A    between atoms: C4_4  and  N1_5 
REMARK    3  A    between atoms: N1_5  and  C5_7 
REMARK    4  A    between atoms: C6_10  and  C7_11 
ROOT
HETATM    1  C5  UNL     1       0.100   0.238  -0.787  1.00  0.00     0.244 A 
HETATM    2  N2  UNL     1       1.016  -0.135   0.121  1.00  0.00    -0.309 N 
ATOM      3  H2  UNL     1       0.803  -0.488   1.054  1.00  0.00     0.170 HD
HETATM    4  C6  UNL     1       2.254   0.024  -0.376  1.00  0.00     0.109 A 
HETATM    5  N3  UNL     1       2.054   0.511  -1.631  1.00  0.00    -0.245 N 
ATOM      6  H3  UNL     1       2.791   0.747  -2.295  1.00  0.00     0.196 HD
HETATM    7  O1  UNL     1       0.794   0.628  -1.850  1.00  0.00    -0.200 OA
ENDROOT
BRANCH   1   8
HETATM    8  N1  UNL     1      -1.177   0.217  -0.644  1.00  0.00    -0.354 N 
ATOM      9  H1  UNL     1      -1.788   0.524  -1.401  1.00  0.00     0.163 HD
BRANCH   8  10
HETATM   10  C4  UNL     1      -1.725  -0.242   0.587  1.00  0.00     0.127 C 
BRANCH  10  11
HETATM   11  C2  UNL     1      -3.221  -0.139   0.669  1.00  0.00    -0.005 C 
HETATM   12  C1  UNL     1      -3.589   1.325   0.502  1.00  0.00     0.011 C 
HETATM   13  C3  UNL     1      -3.943  -1.026  -0.283  1.00  0.00     0.011 C 
ENDBRANCH  10  11
ENDBRANCH   8  10
ENDBRANCH   1   8
BRANCH   4  14
HETATM   14  C7  UNL     1       3.573  -0.251   0.248  1.00  0.00     0.055 A 
HETATM   15  C8  UNL     1       4.717   0.669  -0.044  1.00  0.00     0.013 A 
HETATM   16  C9  UNL     1       4.651  -0.711  -0.667  1.00  0.00     0.013 A 
ENDBRANCH   4  14
TORSDOF 4
