REMARK  6 active torsions:
REMARK  status: ('A' for Active; 'I' for Inactive)
REMARK    1  A    between atoms: C2_2  and  C3_3 
REMARK    2  A    between atoms: C2_2  and  N4_10 
REMARK    3  A    between atoms: C3_3  and  N1_4 
REMARK    4  A    between atoms: N1_4  and  N2_6 
REMARK    5  A    between atoms: N2_6  and  N3_7 
REMARK    6  A    between atoms: C6_13  and  O1_14 
ROOT
HETATM    1  C1  UNL     1       1.270  -2.172  -0.660  1.00  0.00     0.045 C 
HETATM    2  C2  UNL     1       1.194  -0.671  -0.557  1.00  0.00     0.239 C 
ENDROOT
BRANCH   2   3
HETATM    3  C3  UNL     1       2.540  -0.229  -0.022  1.00  0.00     0.191 C 
BRANCH   3   4
HETATM    4  N1  UNL     1       2.672   1.180   0.129  1.00  0.00    -0.251 N 
ATOM      5  H1  UNL     1       1.886   1.735   0.469  1.00  0.00     0.197 HD
BRANCH   4   6
HETATM    6  N2  UNL     1       3.734   1.723  -0.151  1.00  0.00    -0.249 NA
BRANCH   6   7
HETATM    7  N3  UNL     1       4.663   2.520  -0.238  1.00  0.00    -0.261 N 
ATOM      8  H32 UNL     1       4.209   3.226   0.342  1.00  0.00     0.193 HD
ATOM      9  H31 UNL     1       5.547   2.972  -0.471  1.00  0.00     0.193 HD
ENDBRANCH   6   7
ENDBRANCH   4   6
ENDBRANCH   3   4
ENDBRANCH   2   3
BRANCH   2  10
HETATM   10  N4  UNL     1       0.139  -0.209   0.306  1.00  0.00     0.094 N 
HETATM   11  C4  UNL     1      -0.175   1.130  -0.022  1.00  0.00     0.275 C 
HETATM   12  C5  UNL     1      -1.588   1.565  -0.055  1.00  0.00     0.062 C 
HETATM   13  C6  UNL     1      -2.603   0.470  -0.166  1.00  0.00     0.121 C 
HETATM   14  C7  UNL     1      -2.217  -0.533   0.914  1.00  0.00     0.062 C 
HETATM   15  C8  UNL     1      -0.917  -1.150   0.429  1.00  0.00     0.275 C 
BRANCH  13  16
HETATM   16  O1  UNL     1      -3.874   0.914   0.113  1.00  0.00    -0.395 OA
ATOM     17  H1  UNL     1      -4.518   0.219   0.043  1.00  0.00     0.210 HD
ENDBRANCH  13  16
ENDBRANCH   2  10
TORSDOF 6
