REMARK  16 active torsions:
REMARK  status: ('A' for Active; 'I' for Inactive)
REMARK    1  A    between atoms: O1_2  and  C2_3 
REMARK    2  A    between atoms: C2_3  and  C3_5 
REMARK    3  A    between atoms: C4_6  and  O3_7 
REMARK    4  A    between atoms: C6_9  and  O4_10 
REMARK    5  A    between atoms: C7_12  and  O5_13 
REMARK    6  A    between atoms: O5_13  and  C8_14 
REMARK    7  A    between atoms: C8_14  and  C9_16 
REMARK    8  A    between atoms: C10_17  and  O7_18 
REMARK    9  A    between atoms: O7_18  and  C11_19 
REMARK   10  A    between atoms: C11_19  and  C12_21 
REMARK   11  A    between atoms: C12_21  and  O9_22 
REMARK   12  A    between atoms: C16_30  and  C17_31 
REMARK   13  A    between atoms: C19_34  and  O12_35 
REMARK   14  A    between atoms: C23_42  and  O15_43 
REMARK   15  A    between atoms: C23_42  and  C24_45 
REMARK   16  A    between atoms: C24_45  and  O16_46 
ROOT
HETATM    1  C9  UNL     1      -0.044   0.865   0.708  1.00  0.00     0.107 C 
HETATM    2  C10 UNL     1       0.398   0.013  -0.193  1.00  0.00     0.152 C 
ENDROOT
BRANCH   2   3
HETATM    3  O7  UNL     1       1.757  -0.117  -0.411  1.00  0.00    -0.287 OA
BRANCH   3   4
HETATM    4  C11 UNL     1       2.428   0.668  -1.363  1.00  0.00     0.327 C 
HETATM    5  O8  UNL     1       1.719   1.486  -1.992  1.00  0.00    -0.259 OA
BRANCH   4   6
HETATM    6  C12 UNL     1       3.884   0.515  -1.583  1.00  0.00     0.265 C 
HETATM    7  C13 UNL     1       4.162  -0.890  -2.001  1.00  0.00     0.165 C 
HETATM    8  C14 UNL     1       5.426  -1.441  -1.466  1.00  0.00     0.184 C 
HETATM    9  O10 UNL     1       5.689  -2.638  -1.724  1.00  0.00    -0.290 OA
HETATM   10  C15 UNL     1       6.320  -0.619  -0.673  1.00  0.00     0.114 A 
HETATM   11  N1  UNL     1       7.576  -0.981  -0.450  1.00  0.00    -0.346 N 
HETATM   12  C22 UNL     1       5.867   0.562  -0.136  1.00  0.00     0.112 A 
HETATM   13  C16 UNL     1       8.419  -0.213   0.294  1.00  0.00     0.113 A 
ATOM     14  H1  UNL     1       7.919  -1.856  -0.846  1.00  0.00     0.166 HD
HETATM   15  C19 UNL     1       7.976   0.978   0.840  1.00  0.00     0.104 A 
HETATM   16  C20 UNL     1       6.669   1.365   0.614  1.00  0.00     0.009 A 
HETATM   17  C21 UNL     1       6.182   2.641   1.195  1.00  0.00     0.054 C 
HETATM   18  O13 UNL     1       4.547   0.900  -0.395  1.00  0.00    -0.301 OA
BRANCH   6  19
HETATM   19  O9  UNL     1       4.236   1.439  -2.593  1.00  0.00    -0.357 OA
ATOM     20  H9  UNL     1       5.170   1.341  -2.734  1.00  0.00     0.213 HD
ENDBRANCH   6  19
BRANCH  13  21
HETATM   21  C17 UNL     1       9.789  -0.651   0.512  1.00  0.00     0.174 C 
HETATM   22  C18 UNL     1      10.258  -1.935  -0.080  1.00  0.00     0.098 C 
HETATM   23  O11 UNL     1      10.568   0.056   1.197  1.00  0.00    -0.291 OA
ENDBRANCH  13  21
BRANCH  15  24
HETATM   24  O12 UNL     1       8.870   1.727   1.590  1.00  0.00    -0.358 OA
ATOM     25  H12 UNL     1       8.566   2.545   1.965  1.00  0.00     0.217 HD
ENDBRANCH  15  24
ENDBRANCH   4   6
ENDBRANCH   3   4
ENDBRANCH   2   3
BRANCH   1  26
HETATM   26  C8  UNL     1      -1.491   1.026   0.962  1.00  0.00     0.287 C 
HETATM   27  O6  UNL     1      -1.914   1.837   1.821  1.00  0.00    -0.260 OA
BRANCH  26  28
HETATM   28  O5  UNL     1      -2.417   0.281   0.257  1.00  0.00    -0.283 OA
BRANCH  28  29
HETATM   29  C7  UNL     1      -3.808   0.379   0.443  1.00  0.00     0.308 C 
HETATM   30  C6  UNL     1      -4.262  -0.986   0.985  1.00  0.00     0.231 C 
HETATM   31  C4  UNL     1      -5.673  -0.778   1.339  1.00  0.00     0.097 C 
HETATM   32  C3  UNL     1      -6.403  -0.111   0.476  1.00  0.00     0.113 C 
HETATM   33  C23 UNL     1      -5.786   0.393  -0.804  1.00  0.00     0.223 C 
HETATM   34  O14 UNL     1      -4.470   0.721  -0.694  1.00  0.00    -0.315 OA
BRANCH  30  35
HETATM   35  O4  UNL     1      -3.481  -1.351   2.078  1.00  0.00    -0.384 OA
ATOM     36  H4  UNL     1      -2.569  -1.485   1.849  1.00  0.00     0.210 HD
ENDBRANCH  30  35
BRANCH  31  37
HETATM   37  O3  UNL     1      -6.189  -1.255   2.504  1.00  0.00    -0.356 OA
HETATM   38  C5  UNL     1      -6.369  -2.615   2.823  1.00  0.00     0.209 C 
ENDBRANCH  31  37
BRANCH  32  39
HETATM   39  C2  UNL     1      -7.811   0.138   0.756  1.00  0.00     0.297 C 
HETATM   40  O2  UNL     1      -8.360  -0.271   1.806  1.00  0.00    -0.259 OA
BRANCH  39  41
HETATM   41  O1  UNL     1      -8.556   0.844  -0.166  1.00  0.00    -0.323 OA
HETATM   42  C1  UNL     1      -9.922   1.151  -0.014  1.00  0.00     0.213 C 
ENDBRANCH  39  41
ENDBRANCH  32  39
BRANCH  33  43
HETATM   43  O15 UNL     1      -6.500   1.558  -1.128  1.00  0.00    -0.360 OA
ATOM     44  H15 UNL     1      -6.111   1.876  -1.935  1.00  0.00     0.213 HD
ENDBRANCH  33  43
BRANCH  33  45
HETATM   45  C24 UNL     1      -6.027  -0.587  -1.943  1.00  0.00     0.238 C 
BRANCH  45  46
HETATM   46  O16 UNL     1      -7.365  -0.940  -2.076  1.00  0.00    -0.395 OA
ATOM     47  H16 UNL     1      -7.515  -1.552  -2.787  1.00  0.00     0.209 HD
ENDBRANCH  45  46
ENDBRANCH  33  45
ENDBRANCH  28  29
ENDBRANCH  26  28
ENDBRANCH   1  26
TORSDOF 16
