REMARK  17 active torsions:
REMARK  status: ('A' for Active; 'I' for Inactive)
REMARK    1  A    between atoms: C2_2  and  O2_4 
REMARK    2  A    between atoms: O2_4  and  C3_5 
REMARK    3  A    between atoms: C4_6  and  O3_7 
REMARK    4  A    between atoms: N1_11  and  O5_13 
REMARK    5  A    between atoms: C6_15  and  C7_16 
REMARK    6  A    between atoms: C8_17  and  C9_18 
REMARK    7  A    between atoms: C9_18  and  O7_20 
REMARK    8  A    between atoms: O7_20  and  C10_21 
REMARK    9  A    between atoms: C11_22  and  O8_23 
REMARK   10  A    between atoms: O8_23  and  N2_24 
REMARK   11  A    between atoms: C12_30  and  O10_31 
REMARK   12  A    between atoms: O10_31  and  C13_32 
REMARK   13  A    between atoms: C15_35  and  O12_36 
REMARK   14  A    between atoms: O12_36  and  C16_37 
REMARK   15  A    between atoms: C18_40  and  O14_41 
REMARK   16  A    between atoms: O14_41  and  C19_42 
REMARK   17  A    between atoms: C21_45  and  O16_46 
ROOT
HETATM    1  C10 UNL     1      -1.386  -0.255  -1.163  1.00  0.00     0.222 C 
HETATM    2  C11 UNL     1      -1.772  -0.193  -2.640  1.00  0.00     0.325 C 
HETATM    3  O9  UNL     1      -3.076  -0.599  -2.758  1.00  0.00    -0.323 OA
HETATM    4  C12 UNL     1      -3.996   0.337  -2.306  1.00  0.00     0.304 C 
HETATM    5  C15 UNL     1      -3.476   1.132  -1.133  1.00  0.00     0.219 C 
HETATM    6  C18 UNL     1      -2.498   0.291  -0.301  1.00  0.00     0.200 C 
ENDROOT
BRANCH   1   7
HETATM    7  O7  UNL     1      -0.143   0.314  -0.914  1.00  0.00    -0.305 OA
BRANCH   7   8
HETATM    8  C9  UNL     1       0.938  -0.392  -0.465  1.00  0.00     0.283 C 
HETATM    9  O6  UNL     1       0.822  -1.603  -0.263  1.00  0.00    -0.260 OA
BRANCH   8  10
HETATM   10  C8  UNL     1       2.274   0.224  -0.199  1.00  0.00     0.083 C 
HETATM   11  C7  UNL     1       3.258  -0.514   0.229  1.00  0.00     0.025 C 
BRANCH  11  12
HETATM   12  C6  UNL     1       4.603  -0.191   0.554  1.00  0.00     0.053 A 
HETATM   13  C5  UNL     1       5.090   1.092   0.446  1.00  0.00     0.183 A 
HETATM   14  O4  UNL     1       6.341   1.320   0.763  1.00  0.00    -0.266 OA
HETATM   15  N1  UNL     1       4.408   2.100   0.053  1.00  0.00    -0.246 N 
HETATM   16  C4  UNL     1       7.170   0.412   1.178  1.00  0.00     0.223 A 
HETATM   17  C3  UNL     1       6.758  -0.879   1.310  1.00  0.00     0.171 A 
HETATM   18  C21 UNL     1       5.448  -1.221   0.998  1.00  0.00     0.119 A 
ATOM     19  H1  UNL     1       3.432   1.948  -0.200  1.00  0.00     0.196 HD
BRANCH  16  20
HETATM   20  O3  UNL     1       8.482   0.763   1.489  1.00  0.00    -0.338 OA
ATOM     21  H3  UNL     1       8.769   1.664   1.397  1.00  0.00     0.220 HD
ENDBRANCH  16  20
BRANCH  17  22
HETATM   22  O2  UNL     1       7.622  -1.895   1.757  1.00  0.00    -0.271 OA
BRANCH  22  23
HETATM   23  C2  UNL     1       7.724  -2.178   3.114  1.00  0.00     0.260 C 
HETATM   24  C1  UNL     1       8.625  -3.244   3.637  1.00  0.00     0.126 C 
HETATM   25  O1  UNL     1       7.050  -1.540   3.983  1.00  0.00    -0.265 OA
ENDBRANCH  22  23
ENDBRANCH  17  22
BRANCH  18  26
HETATM   26  O16 UNL     1       5.067  -2.535   1.143  1.00  0.00    -0.357 OA
ATOM     27  H16 UNL     1       4.171  -2.769   0.930  1.00  0.00     0.218 HD
ENDBRANCH  18  26
BRANCH  15  28
HETATM   28  O5  UNL     1       4.904   3.358  -0.048  1.00  0.00    -0.288 OA
ATOM     29  H5  UNL     1       4.397   4.107  -0.340  1.00  0.00     0.244 HD
ENDBRANCH  15  28
ENDBRANCH  11  12
ENDBRANCH   8  10
ENDBRANCH   7   8
ENDBRANCH   1   7
BRANCH   2  30
HETATM   30  O8  UNL     1      -1.501   1.067  -3.199  1.00  0.00    -0.230 OA
BRANCH  30  31
HETATM   31  N2  UNL     1      -0.586   1.264  -4.202  1.00  0.00    -0.211 N 
HETATM   32  N3  UNL     1      -0.667   2.346  -4.859  1.00  0.00    -0.326 N 
ATOM     33  H32 UNL     1      -1.389   3.032  -4.638  1.00  0.00     0.178 HD
ATOM     34  H31 UNL     1       0.013   2.492  -5.605  1.00  0.00     0.178 HD
ATOM     35  H2  UNL     1       0.130   0.569  -4.411  1.00  0.00     0.215 HD
ENDBRANCH  30  31
ENDBRANCH   2  30
BRANCH   6  36
HETATM   36  O14 UNL     1      -3.303  -0.734   0.255  1.00  0.00    -0.311 OA
BRANCH  36  37
HETATM   37  C19 UNL     1      -3.561  -0.821   1.609  1.00  0.00     0.255 C 
HETATM   38  C20 UNL     1      -4.411  -1.914   2.137  1.00  0.00     0.126 C 
HETATM   39  O15 UNL     1      -3.043   0.063   2.340  1.00  0.00    -0.266 OA
ENDBRANCH  36  37
ENDBRANCH   6  36
BRANCH   5  40
HETATM   40  O12 UNL     1      -4.533   1.471  -0.250  1.00  0.00    -0.308 OA
BRANCH  40  41
HETATM   41  C16 UNL     1      -4.854   2.802   0.019  1.00  0.00     0.255 C 
HETATM   42  C17 UNL     1      -5.948   3.201   0.933  1.00  0.00     0.126 C 
HETATM   43  O13 UNL     1      -4.137   3.664  -0.579  1.00  0.00    -0.266 OA
ENDBRANCH  40  41
ENDBRANCH   5  40
BRANCH   4  44
HETATM   44  O10 UNL     1      -5.164  -0.339  -1.886  1.00  0.00    -0.287 OA
BRANCH  44  45
HETATM   45  C13 UNL     1      -6.396  -0.118  -2.483  1.00  0.00     0.257 C 
HETATM   46  C14 UNL     1      -7.605  -0.851  -2.011  1.00  0.00     0.126 C 
HETATM   47  O11 UNL     1      -6.466   0.700  -3.413  1.00  0.00    -0.266 OA
ENDBRANCH  44  45
ENDBRANCH   4  44
TORSDOF 17
