REMARK  18 active torsions:
REMARK  status: ('A' for Active; 'I' for Inactive)
REMARK    1  A    between atoms: C2_2  and  C3_3 
REMARK    2  A    between atoms: C3_3  and  O2_5 
REMARK    3  A    between atoms: O2_5  and  C4_6 
REMARK    4  A    between atoms: C4_6  and  C5_7 
REMARK    5  A    between atoms: C6_9  and  O4_10 
REMARK    6  A    between atoms: O4_10  and  C7_11 
REMARK    7  A    between atoms: C8_13  and  C9_14 
REMARK    8  A    between atoms: C9_14  and  O6_15 
REMARK    9  A    between atoms: C9_14  and  O7_17 
REMARK   10  A    between atoms: C10_19  and  O8_20 
REMARK   11  A    between atoms: O8_20  and  C11_21 
REMARK   12  A    between atoms: C13_24  and  O10_25 
REMARK   13  A    between atoms: N1_28  and  O11_30 
REMARK   14  A    between atoms: C15_32  and  N2_33 
REMARK   15  A    between atoms: C16_37  and  N3_38 
REMARK   16  A    between atoms: C20_42  and  O12_43 
REMARK   17  A    between atoms: O12_43  and  C21_44 
REMARK   18  A    between atoms: C23_47  and  O14_48 
ROOT
HETATM    1  C7  UNL     1      -0.941   0.536  -0.572  1.00  0.00     0.273 C 
HETATM    2  O5  UNL     1      -1.148   0.475  -1.944  1.00  0.00    -0.348 OA
HETATM    3  C8  UNL     1      -2.327   0.338  -2.520  1.00  0.00     0.212 C 
HETATM    4  C10 UNL     1      -3.449  -0.271  -1.718  1.00  0.00     0.206 C 
HETATM    5  C13 UNL     1      -2.911  -0.738  -0.386  1.00  0.00     0.139 C 
HETATM    6  C14 UNL     1      -3.815  -1.094   0.670  1.00  0.00     0.080 C 
HETATM    7  N1  UNL     1      -5.007  -1.496   0.741  1.00  0.00    -0.272 N 
ATOM      8  H1  UNL     1      -5.463  -1.600  -0.165  1.00  0.00     0.193 HD
HETATM    9  C15 UNL     1      -2.913  -0.876   1.889  1.00  0.00     0.267 C 
HETATM   10  C16 UNL     1      -2.342   0.499   1.581  1.00  0.00     0.270 C 
HETATM   11  C19 UNL     1      -2.225   0.542   0.134  1.00  0.00     0.120 C 
ENDROOT
BRANCH   1  12
HETATM   12  O4  UNL     1      -0.050  -0.488  -0.265  1.00  0.00    -0.328 OA
BRANCH  12  13
HETATM   13  C6  UNL     1       1.250  -0.041  -0.091  1.00  0.00     0.295 C 
HETATM   14  O3  UNL     1       1.700  -0.356   1.157  1.00  0.00    -0.348 OA
HETATM   15  C5  UNL     1       3.103  -0.372   1.099  1.00  0.00     0.180 C 
HETATM   16  C23 UNL     1       3.473  -0.810  -0.271  1.00  0.00     0.186 C 
HETATM   17  C20 UNL     1       2.186  -0.735  -1.072  1.00  0.00     0.218 C 
BRANCH  15  18
HETATM   18  C4  UNL     1       3.541  -1.316   2.186  1.00  0.00     0.213 C 
BRANCH  18  19
HETATM   19  O2  UNL     1       4.908  -1.488   2.318  1.00  0.00    -0.319 OA
BRANCH  19  20
HETATM   20  C3  UNL     1       5.817  -0.470   2.604  1.00  0.00     0.258 C 
HETATM   21  O1  UNL     1       5.393   0.695   2.754  1.00  0.00    -0.265 OA
BRANCH  20  22
HETATM   22  C2  UNL     1       7.280  -0.824   2.720  1.00  0.00     0.106 C 
HETATM   23  C1  UNL     1       8.020   0.477   2.947  1.00  0.00     0.015 C 
ENDBRANCH  20  22
ENDBRANCH  19  20
ENDBRANCH  18  19
ENDBRANCH  15  18
BRANCH  16  24
HETATM   24  O14 UNL     1       4.009  -2.095  -0.292  1.00  0.00    -0.385 OA
HETATM   25  C24 UNL     1       5.258  -2.157  -0.861  1.00  0.00     0.202 C 
ENDBRANCH  16  24
BRANCH  17  26
HETATM   26  O12 UNL     1       2.297  -0.060  -2.286  1.00  0.00    -0.309 OA
BRANCH  26  27
HETATM   27  C21 UNL     1       2.003  -0.621  -3.516  1.00  0.00     0.255 C 
HETATM   28  C22 UNL     1       2.115   0.093  -4.810  1.00  0.00     0.126 C 
HETATM   29  O13 UNL     1       1.612  -1.822  -3.530  1.00  0.00    -0.266 OA
ENDBRANCH  26  27
ENDBRANCH  17  26
ENDBRANCH  12  13
ENDBRANCH   1  12
BRANCH   3  30
HETATM   30  C9  UNL     1      -2.746   1.647  -3.124  1.00  0.00     0.285 C 
BRANCH  30  31
HETATM   31  O6  UNL     1      -3.951   1.619  -3.804  1.00  0.00    -0.369 OA
ATOM     32  H6  UNL     1      -4.216   2.447  -4.186  1.00  0.00     0.212 HD
ENDBRANCH  30  31
BRANCH  30  33
HETATM   33  O7  UNL     1      -1.784   1.992  -4.119  1.00  0.00    -0.369 OA
ATOM     34  H7  UNL     1      -2.049   2.820  -4.501  1.00  0.00     0.212 HD
ENDBRANCH  30  33
ENDBRANCH   3  30
BRANCH   5  35
HETATM   35  O10 UNL     1      -1.980  -1.758  -0.616  1.00  0.00    -0.380 OA
ATOM     36  H10 UNL     1      -1.642  -2.052   0.222  1.00  0.00     0.211 HD
ENDBRANCH   5  35
BRANCH  10  37
HETATM   37  N3  UNL     1      -1.266   0.910   2.408  1.00  0.00     0.087 N 
HETATM   38  C17 UNL     1      -1.639   0.991   3.816  1.00  0.00     0.310 C 
HETATM   39  C18 UNL     1      -0.904   2.300   2.063  1.00  0.00     0.310 C 
ENDBRANCH  10  37
BRANCH   4  40
HETATM   40  O8  UNL     1      -4.488   0.639  -1.460  1.00  0.00    -0.310 OA
BRANCH  40  41
HETATM   41  C11 UNL     1      -5.814   0.463  -1.799  1.00  0.00     0.255 C 
HETATM   42  C12 UNL     1      -6.869   1.466  -1.486  1.00  0.00     0.126 C 
HETATM   43  O9  UNL     1      -6.148  -0.593  -2.403  1.00  0.00    -0.266 OA
ENDBRANCH  40  41
ENDBRANCH   4  40
BRANCH   9  44
HETATM   44  N2  UNL     1      -3.667  -0.922   3.074  1.00  0.00    -0.068 N 
ATOM     45  H23 UNL     1      -4.444  -0.262   3.055  1.00  0.00     0.275 HD
ATOM     46  H22 UNL     1      -4.203  -1.786   3.149  1.00  0.00     0.275 HD
ATOM     47  H21 UNL     1      -3.066  -0.777   3.886  1.00  0.00     0.275 HD
ENDBRANCH   9  44
BRANCH   7  48
HETATM   48  O11 UNL     1      -5.787  -1.812   1.781  1.00  0.00    -0.290 OA
ATOM     49  H11 UNL     1      -6.686  -2.115   1.835  1.00  0.00     0.244 HD
ENDBRANCH   7  48
TORSDOF 18
