REMARK  1 active torsions:
REMARK  status: ('A' for Active; 'I' for Inactive)
REMARK    1  A    between atoms: C5_5  and  C7_7 
ROOT
HETATM    1  C1  UNL     1       2.561  -0.704   0.877  1.00  0.00     0.021 C 
HETATM    2  C2  UNL     1       1.405  -0.307  -0.064  1.00  0.00     0.023 C 
HETATM    3  C3  UNL     1       2.077  -0.317  -1.453  1.00  0.00     0.021 C 
HETATM    4  C4  UNL     1       0.402  -1.388  -0.064  1.00  0.00     0.054 C 
HETATM    5  C5  UNL     1      -1.033  -0.998   0.024  1.00  0.00     0.122 C 
HETATM    6  C6  UNL     1      -1.765  -2.027   0.922  1.00  0.00     0.047 C 
HETATM    7  N1  UNL     1      -1.319   0.258   0.577  1.00  0.00    -0.392 N 
ATOM      8  H1  UNL     1      -2.125   0.380   1.191  1.00  0.00     0.155 HD
HETATM    9  C8  UNL     1      -0.477   1.356   0.274  1.00  0.00     0.086 C 
HETATM   10  C9  UNL     1      -0.741   2.364   1.419  1.00  0.00     0.044 C 
HETATM   11  C10 UNL     1      -0.922   2.115  -0.968  1.00  0.00     0.044 C 
HETATM   12  C11 UNL     1       0.981   1.064   0.222  1.00  0.00     0.274 C 
HETATM   13  F4  UNL     1       1.565   1.485   1.432  1.00  0.00    -0.203 F 
HETATM   14  F5  UNL     1       1.540   1.979  -0.692  1.00  0.00    -0.203 F 
ENDROOT
BRANCH   5  15
HETATM   15  C7  UNL     1      -1.749  -1.237  -1.321  1.00  0.00     0.411 C 
HETATM   16  F1  UNL     1      -3.062  -0.877  -1.230  1.00  0.00    -0.168 F 
HETATM   17  F2  UNL     1      -1.742  -2.633  -1.483  1.00  0.00    -0.168 F 
HETATM   18  F3  UNL     1      -1.077  -0.731  -2.379  1.00  0.00    -0.168 F 
ENDBRANCH   5  15
TORSDOF 1
