REMARK  1 active torsions:
REMARK  status: ('A' for Active; 'I' for Inactive)
REMARK    1  A    between atoms: C4_4  and  C5_5 
ROOT
HETATM    1  C5  UNL     1       0.520  -0.058  -0.032  1.00  0.00    -0.030 A 
HETATM    2  C6  UNL     1       1.289  -1.170  -0.291  1.00  0.00     0.012 A 
HETATM    3  C7  UNL     1       2.680  -1.104  -0.319  1.00  0.00     0.001 A 
HETATM    4  C8  UNL     1       3.332   0.088  -0.086  1.00  0.00     0.000 A 
HETATM    5  C9  UNL     1       2.554   1.197   0.172  1.00  0.00     0.001 A 
HETATM    6  C10 UNL     1       1.177   1.129   0.200  1.00  0.00     0.012 A 
ENDROOT
BRANCH   1   7
HETATM    7  C4  UNL     1      -0.963  -0.124  -0.001  1.00  0.00    -0.044 A 
HETATM    8  C3  UNL     1      -1.880   1.002   0.265  1.00  0.00     0.066 A 
HETATM    9  C2  UNL     1      -3.225   0.418   0.182  1.00  0.00    -0.022 A 
HETATM   10  C1  UNL     1      -3.101  -0.858  -0.093  1.00  0.00    -0.003 A 
HETATM   11  C11 UNL     1      -1.695  -1.202  -0.208  1.00  0.00     0.008 A 
ENDBRANCH   1   7
TORSDOF 1
