REMARK  1 active torsions:
REMARK  status: ('A' for Active; 'I' for Inactive)
REMARK    1  A    between atoms: C6_6  and  C7_7 
ROOT
HETATM    1  C1  UNL     1      -3.651   0.174  -1.208  1.00  0.00     0.013 C 
HETATM    2  C2  UNL     1      -2.834  -0.251  -0.429  1.00  0.00    -0.105 C 
HETATM    3  C3  UNL     1      -1.836  -0.765   0.541  1.00  0.00     0.109 C 
HETATM    4  C4  UNL     1      -1.198   0.363   1.270  1.00  0.00    -0.009 C 
HETATM    5  C5  UNL     1      -0.108   0.906   0.776  1.00  0.00    -0.021 C 
HETATM    6  C6  UNL     1       0.494   0.430  -0.472  1.00  0.00     0.030 C 
HETATM    7  C9  UNL     1       0.245  -0.996  -0.744  1.00  0.00    -0.021 C 
HETATM    8  C10 UNL     1      -0.854  -1.544  -0.261  1.00  0.00    -0.009 C 
ENDROOT
BRANCH   6   9
HETATM    9  C7  UNL     1       1.963   0.787  -0.535  1.00  0.00     0.008 C 
HETATM   10  C8  UNL     1       2.724   0.168   0.609  1.00  0.00     0.006 C 
ENDBRANCH   6   9
TORSDOF 1
