REMARK  4 active torsions:
REMARK  status: ('A' for Active; 'I' for Inactive)
REMARK    1  A    between atoms: C4_4  and  C5_5 
REMARK    2  A    between atoms: C5_5  and  N1_6 
REMARK    3  A    between atoms: N1_6  and  C6_8 
REMARK    4  A    between atoms: C19_23  and  C20_24 
ROOT
HETATM    1  C6  UNL     1       0.357   0.621   0.716  1.00  0.00     0.107 C 
HETATM    2  C7  UNL     1       0.251   0.964   2.187  1.00  0.00     0.072 C 
HETATM    3  C8  UNL     1      -0.248  -0.270   2.821  1.00  0.00     0.098 A 
HETATM    4  C9  UNL     1      -1.505  -0.914   2.680  1.00  0.00     0.094 A 
HETATM    5  C10 UNL     1      -2.747  -0.350   1.995  1.00  0.00     0.023 C 
HETATM    6  C11 UNL     1      -3.070  -1.018   0.701  1.00  0.00     0.011 C 
HETATM    7  C12 UNL     1      -2.923  -0.468  -0.607  1.00  0.00    -0.044 C 
HETATM    8  C13 UNL     1      -4.387  -0.321  -1.166  1.00  0.00     0.015 C 
HETATM    9  C14 UNL     1      -2.486  -1.681  -1.485  1.00  0.00     0.010 C 
HETATM   10  C15 UNL     1      -1.195  -2.256  -1.072  1.00  0.00     0.017 C 
HETATM   11  C16 UNL     1      -0.148  -1.405  -0.491  1.00  0.00     0.111 C 
HETATM   12  N2  UNL     1      -0.555  -0.483   0.555  1.00  0.00    -0.220 NA
HETATM   13  N3  UNL     1      -0.449  -1.190   1.747  1.00  0.00    -0.235 NA
HETATM   14  C17 UNL     1      -2.194   0.645  -1.150  1.00  0.00     0.010 C 
HETATM   15  C18 UNL     1      -1.641   1.774  -0.415  1.00  0.00     0.013 C 
HETATM   16  C19 UNL     1      -0.176   1.778  -0.069  1.00  0.00     0.058 C 
ENDROOT
BRANCH   1  17
HETATM   17  N1  UNL     1       1.648   0.260   0.262  1.00  0.00    -0.373 N 
ATOM     18  H1  UNL     1       1.794  -0.688  -0.085  1.00  0.00     0.161 HD
BRANCH  17  19
HETATM   19  C5  UNL     1       2.730   1.142   0.268  1.00  0.00     0.116 C 
BRANCH  19  20
HETATM   20  C4  UNL     1       3.962   0.417  -0.206  1.00  0.00     0.072 A 
HETATM   21  C3  UNL     1       4.164  -0.882  -0.533  1.00  0.00     0.067 A 
HETATM   22  C2  UNL     1       5.493  -0.984  -0.902  1.00  0.00     0.074 A 
HETATM   23  C1  UNL     1       6.223  -2.178  -1.344  1.00  0.00     0.079 C 
HETATM   24  O1  UNL     1       6.024   0.211  -0.790  1.00  0.00    -0.242 OA
HETATM   25  N4  UNL     1       5.136   1.069  -0.377  1.00  0.00    -0.260 N 
ATOM     26  H4  UNL     1       5.297   2.062  -0.211  1.00  0.00     0.195 HD
ENDBRANCH  19  20
ENDBRANCH  17  19
ENDBRANCH   1  17
BRANCH  16  27
HETATM   27  C20 UNL     1       0.232   3.090   0.513  1.00  0.00     0.056 C 
HETATM   28  C21 UNL     1      -0.449   4.174   0.711  1.00  0.00     0.264 C 
HETATM   29  F1  UNL     1       0.215   5.270   1.287  1.00  0.00    -0.173 F 
HETATM   30  F2  UNL     1      -1.732   4.471   0.453  1.00  0.00    -0.173 F 
ENDBRANCH  16  27
TORSDOF 4
