REMARK  9 active torsions:
REMARK  status: ('A' for Active; 'I' for Inactive)
REMARK    1  A    between atoms: N2_3  and  C2_5 
REMARK    2  A    between atoms: C5_8  and  O1_9 
REMARK    3  A    between atoms: O1_9  and  C6_10 
REMARK    4  A    between atoms: C7_11  and  O2_12 
REMARK    5  A    between atoms: C8_14  and  O3_15 
REMARK    6  A    between atoms: C9_17  and  O4_18 
REMARK    7  A    between atoms: O4_18  and  S1_19 
REMARK    8  A    between atoms: C10_23  and  O8_24 
REMARK    9  A    between atoms: C11_26  and  O9_27 
ROOT
HETATM    1  N1  UNL     1      -5.197   3.521  -0.204  1.00  0.00    -0.172 NA
HETATM    2  C1  UNL     1      -4.252   2.865  -0.084  1.00  0.00     0.177 C 
HETATM    3  N2  UNL     1      -3.097   2.057   0.086  1.00  0.00    -0.322 N 
ATOM      4  H2  UNL     1      -2.211   2.294  -0.359  1.00  0.00     0.172 HD
ENDROOT
BRANCH   3   5
HETATM    5  C2  UNL     1      -3.232   0.898   0.908  1.00  0.00     0.121 C 
HETATM    6  C3  UNL     1      -4.282  -0.072   0.370  1.00  0.00     0.031 C 
HETATM    7  C4  UNL     1      -3.361  -1.197   0.820  1.00  0.00     0.036 C 
HETATM    8  C5  UNL     1      -2.214  -0.180   0.758  1.00  0.00     0.145 C 
BRANCH   8   9
HETATM    9  O1  UNL     1      -1.487  -0.222  -0.401  1.00  0.00    -0.373 OA
BRANCH   9  10
HETATM   10  C6  UNL     1      -0.135  -0.397  -0.225  1.00  0.00     0.184 C 
HETATM   11  C7  UNL     1       0.583   0.756  -0.872  1.00  0.00     0.181 C 
HETATM   12  C8  UNL     1       1.959   0.333  -1.391  1.00  0.00     0.182 C 
HETATM   13  C9  UNL     1       2.631  -0.619  -0.438  1.00  0.00     0.207 C 
HETATM   14  C10 UNL     1       1.799  -1.869  -0.341  1.00  0.00     0.182 C 
HETATM   15  C11 UNL     1       0.386  -1.668  -0.856  1.00  0.00     0.181 C 
BRANCH  11  16
HETATM   16  O2  UNL     1      -0.111   1.230  -1.995  1.00  0.00    -0.390 OA
ATOM     17  H2  UNL     1       0.342   1.958  -2.404  1.00  0.00     0.210 HD
ENDBRANCH  11  16
BRANCH  12  18
HETATM   18  O3  UNL     1       2.697   1.519  -1.514  1.00  0.00    -0.390 OA
ATOM     19  H3  UNL     1       3.551   1.256  -1.836  1.00  0.00     0.210 HD
ENDBRANCH  12  18
BRANCH  13  20
HETATM   20  O4  UNL     1       2.742   0.008   0.799  1.00  0.00    -0.246 OA
BRANCH  20  21
HETATM   21  S1  UNL     1       4.337   0.220   1.260  1.00  0.00     0.252 S 
HETATM   22  O5  UNL     1       4.539  -0.248   2.674  1.00  0.00    -0.572 OA
HETATM   23  O6  UNL     1       5.294  -0.489   0.355  1.00  0.00    -0.572 OA
HETATM   24  O7  UNL     1       4.679   1.880   1.220  1.00  0.00    -0.572 OA
ENDBRANCH  20  21
ENDBRANCH  13  20
BRANCH  14  25
HETATM   25  O8  UNL     1       1.665  -2.204   1.026  1.00  0.00    -0.390 OA
ATOM     26  H8  UNL     1       1.140  -2.993   1.087  1.00  0.00     0.210 HD
ENDBRANCH  14  25
BRANCH  15  27
HETATM   27  O9  UNL     1      -0.346  -2.788  -0.462  1.00  0.00    -0.390 OA
ATOM     28  H9  UNL     1      -0.019  -3.587  -0.859  1.00  0.00     0.210 HD
ENDBRANCH  15  27
ENDBRANCH   9  10
ENDBRANCH   8   9
ENDBRANCH   3   5
TORSDOF 9
