REMARK  9 active torsions:
REMARK  status: ('A' for Active; 'I' for Inactive)
REMARK    1  A    between atoms: N1_1  and  C1_5 
REMARK    2  A    between atoms: C1_5  and  C2_6 
REMARK    3  A    between atoms: C2_6  and  N2_7 
REMARK    4  A    between atoms: C5_11  and  S1_12 
REMARK    5  A    between atoms: S1_12  and  N3_13 
REMARK    6  A    between atoms: C6_20  and  N5_21 
REMARK    7  A    between atoms: N5_21  and  N6_23 
REMARK    8  A    between atoms: C7_25  and  C8_26 
REMARK    9  A    between atoms: C9_27  and  O4_28 
ROOT
HETATM    1  N2  UNL     1      -2.509  -0.794  -0.887  1.00  0.00    -0.144 N 
HETATM    2  C3  UNL     1      -3.660  -0.272  -0.410  1.00  0.00     0.264 A 
HETATM    3  O1  UNL     1      -4.791  -0.800  -0.667  1.00  0.00    -0.267 OA
HETATM    4  C4  UNL     1      -3.568   0.857   0.370  1.00  0.00     0.119 A 
HETATM    5  C5  UNL     1      -2.335   1.429   0.648  1.00  0.00     0.169 A 
HETATM    6  N4  UNL     1      -1.237   0.859   0.142  1.00  0.00    -0.177 N 
ATOM      7  H4  UNL     1      -0.324   1.269   0.338  1.00  0.00     0.185 HD
HETATM    8  C6  UNL     1      -1.315  -0.239  -0.617  1.00  0.00     0.703 A 
ENDROOT
BRANCH   8   9
HETATM    9  N5  UNL     1      -0.193  -0.730  -1.077  1.00  0.00    -0.132 N 
ATOM     10  H5  UNL     1      -0.225  -1.565  -1.662  1.00  0.00     0.205 HD
BRANCH   9  11
HETATM   11  N6  UNL     1       1.024  -0.163  -0.801  1.00  0.00    -0.296 N 
HETATM   12  C7  UNL     1       2.041  -0.771  -0.293  1.00  0.00     0.129 C 
ATOM     13  H6  UNL     1       1.135   0.828  -1.017  1.00  0.00     0.186 HD
BRANCH  12  14
HETATM   14  C8  UNL     1       3.265  -0.018  -0.062  1.00  0.00     0.100 A 
HETATM   15  C9  UNL     1       4.348  -0.707   0.491  1.00  0.00     0.161 A 
HETATM   16  N7  UNL     1       5.471  -0.029   0.705  1.00  0.00    -0.288 N 
HETATM   17  C10 UNL     1       5.545   1.286   0.393  1.00  0.00     0.329 A 
ATOM     18  H7  UNL     1       6.281  -0.502   1.106  1.00  0.00     0.172 HD
HETATM   19  O5  UNL     1       6.626   1.868   0.617  1.00  0.00    -0.247 OA
HETATM   20  N8  UNL     1       4.502   1.948  -0.139  1.00  0.00    -0.275 N 
HETATM   21  C11 UNL     1       3.352   1.307  -0.373  1.00  0.00     0.265 A 
ATOM     22  H8  UNL     1       4.588   2.939  -0.364  1.00  0.00     0.173 HD
HETATM   23  O6  UNL     1       2.350   1.912  -0.876  1.00  0.00    -0.267 OA
BRANCH  15  24
HETATM   24  O4  UNL     1       4.215  -2.066   0.794  1.00  0.00    -0.345 OA
ATOM     25  H4  UNL     1       4.951  -2.534   1.170  1.00  0.00     0.219 HD
ENDBRANCH  15  24
ENDBRANCH  12  14
ENDBRANCH   9  11
ENDBRANCH   8   9
BRANCH   1  26
HETATM   26  C2  UNL     1      -2.603  -1.966  -1.703  1.00  0.00     0.178 C 
BRANCH  26  27
HETATM   27  C1  UNL     1      -2.566  -3.267  -0.971  1.00  0.00     0.250 C 
BRANCH  27  28
HETATM   28  N1  UNL     1      -1.358  -3.487  -0.206  1.00  0.00    -0.078 N 
ATOM     29  H13 UNL     1      -0.536  -3.391  -0.803  1.00  0.00     0.274 HD
ATOM     30  H12 UNL     1      -1.198  -2.712   0.437  1.00  0.00     0.274 HD
ATOM     31  H11 UNL     1      -1.333  -4.376   0.294  1.00  0.00     0.274 HD
ENDBRANCH  27  28
ENDBRANCH  26  27
ENDBRANCH   1  26
BRANCH   5  32
HETATM   32  S1  UNL     1      -2.236   2.870   1.644  1.00  0.00     0.273 S 
HETATM   33  O2  UNL     1      -3.358   2.888   2.659  1.00  0.00    -0.199 OA
HETATM   34  O3  UNL     1      -0.958   2.853   2.406  1.00  0.00    -0.199 OA
BRANCH  32  35
HETATM   35  N3  UNL     1      -2.325   4.300   0.725  1.00  0.00    -0.323 N 
ATOM     36  H32 UNL     1      -2.425   4.302  -0.290  1.00  0.00     0.169 HD
ATOM     37  H31 UNL     1      -2.267   5.138   1.304  1.00  0.00     0.169 HD
ENDBRANCH  32  35
ENDBRANCH   5  32
TORSDOF 9
