REMARK  7 active torsions:
REMARK  status: ('A' for Active; 'I' for Inactive)
REMARK    1  A    between atoms: N2_4  and  C1_6 
REMARK    2  A    between atoms: C2_7  and  C3_8 
REMARK    3  A    between atoms: C3_8  and  N3_9 
REMARK    4  A    between atoms: C3_8  and  C4_13 
REMARK    5  A    between atoms: C4_13  and  O1_14 
REMARK    6  A    between atoms: C4_13  and  C5_16 
REMARK    7  A    between atoms: C6_17  and  O2_18 
ROOT
HETATM    1  C4  UNL     1       0.446  -0.565  -0.854  1.00  0.00     0.105 C 
ENDROOT
BRANCH   1   2
HETATM    2  C3  UNL     1       1.511  -0.871   0.146  1.00  0.00     0.320 C 
BRANCH   2   3
HETATM    3  C2  UNL     1       2.847  -0.285  -0.168  1.00  0.00    -0.042 C 
HETATM    4  C1  UNL     1       3.901   0.200  -0.352  1.00  0.00     0.028 C 
BRANCH   4   5
HETATM    5  N2  UNL     1       5.186   0.817  -0.556  1.00  0.00    -0.265 N 
HETATM    6  N1  UNL     1       5.595   1.678   0.300  1.00  0.00    -0.338 N 
ATOM      7  H12 UNL     1       5.011   1.910   1.103  1.00  0.00     0.177 HD
ATOM      8  H11 UNL     1       6.505   2.115   0.155  1.00  0.00     0.177 HD
ATOM      9  H2  UNL     1       5.758   0.574  -1.365  1.00  0.00     0.197 HD
ENDBRANCH   4   5
ENDBRANCH   2   3
BRANCH   2  10
HETATM   10  N3  UNL     1       1.140  -0.342   1.469  1.00  0.00    -0.059 N 
ATOM     11  H33 UNL     1       1.841  -0.516   2.189  1.00  0.00     0.276 HD
ATOM     12  H32 UNL     1       1.161   0.676   1.521  1.00  0.00     0.276 HD
ATOM     13  H31 UNL     1       0.227  -0.743   1.684  1.00  0.00     0.276 HD
ENDBRANCH   2  10
ENDBRANCH   1   2
BRANCH   1  14
HETATM   14  O1  UNL     1       0.484  -1.164  -2.070  1.00  0.00    -0.361 OA
ATOM     15  H1  UNL     1      -0.194  -0.969  -2.706  1.00  0.00     0.217 HD
ENDBRANCH   1  14
BRANCH   1  16
HETATM   16  C5  UNL     1      -0.765   0.026  -0.303  1.00  0.00     0.115 A 
HETATM   17  C6  UNL     1      -1.797  -0.825   0.034  1.00  0.00     0.162 A 
HETATM   18  N4  UNL     1      -2.957  -0.287   0.440  1.00  0.00    -0.288 N 
HETATM   19  C7  UNL     1      -3.159   1.060   0.530  1.00  0.00     0.329 A 
ATOM     20  H4  UNL     1      -3.722  -0.912   0.693  1.00  0.00     0.172 HD
HETATM   21  O3  UNL     1      -4.298   1.483   0.927  1.00  0.00    -0.247 OA
HETATM   22  N5  UNL     1      -2.168   1.880   0.206  1.00  0.00    -0.275 N 
HETATM   23  C8  UNL     1      -0.988   1.414  -0.202  1.00  0.00     0.266 A 
ATOM     24  H5  UNL     1      -2.312   2.888   0.270  1.00  0.00     0.173 HD
HETATM   25  O4  UNL     1      -0.045   2.250  -0.500  1.00  0.00    -0.267 OA
BRANCH  17  26
HETATM   26  O2  UNL     1      -1.619  -2.216  -0.051  1.00  0.00    -0.345 OA
ATOM     27  H2  UNL     1      -2.330  -2.802   0.181  1.00  0.00     0.219 HD
ENDBRANCH  17  26
ENDBRANCH   1  16
TORSDOF 7
