REMARK  7 active torsions:
REMARK  status: ('A' for Active; 'I' for Inactive)
REMARK    1  A    between atoms: O1_2  and  C2_3 
REMARK    2  A    between atoms: C5_6  and  C6_7 
REMARK    3  A    between atoms: C7_8  and  C8_9 
REMARK    4  A    between atoms: C10_11  and  C11_12 
REMARK    5  A    between atoms: C16_26  and  S2_27 
REMARK    6  A    between atoms: S2_27  and  C17_28 
REMARK    7  A    between atoms: C19_32  and  O2_33 
ROOT
HETATM    1  C11 UNL     1      -5.080   0.569   0.175  1.00  0.00     0.075 A 
HETATM    2  N1  UNL     1      -6.135  -0.214  -0.169  1.00  0.00    -0.350 N 
ATOM      3  H1  UNL     1      -5.943  -1.164  -0.488  1.00  0.00     0.166 HD
HETATM    4  C12 UNL     1      -7.413   0.186  -0.115  1.00  0.00     0.182 A 
HETATM    5  N2  UNL     1      -7.674   1.429   0.301  1.00  0.00    -0.338 N 
ATOM      6  H2  UNL     1      -8.636   1.763   0.352  1.00  0.00     0.168 HD
HETATM    7  C13 UNL     1      -6.662   2.230   0.650  1.00  0.00     0.123 A 
HETATM    8  N3  UNL     1      -6.903   3.426   1.051  1.00  0.00    -0.384 N 
ATOM      9  H31 UNL     1      -6.131   4.037   1.317  1.00  0.00     0.157 HD
ATOM     10  H32 UNL     1      -7.877   3.727   1.089  1.00  0.00     0.157 HD
HETATM   11  C14 UNL     1      -5.314   1.814   0.597  1.00  0.00     0.116 A 
HETATM   12  C15 UNL     1      -4.319   2.740   1.060  1.00  0.00     0.105 C 
HETATM   13  N4  UNL     1      -3.540   3.488   1.462  1.00  0.00    -0.191 NA
ENDROOT
BRANCH   1  14
HETATM   14  C10 UNL     1      -3.742  -0.050   0.096  1.00  0.00     0.035 A 
HETATM   15  C9  UNL     1      -2.492   0.434   0.054  1.00  0.00     0.034 A 
HETATM   16  C8  UNL     1      -1.433  -0.459   0.057  1.00  0.00    -0.011 A 
HETATM   17  C16 UNL     1      -1.772  -1.773   0.100  1.00  0.00     0.057 A 
HETATM   18  S1  UNL     1      -3.493  -1.747   0.137  1.00  0.00    -0.080 SA
BRANCH  16  19
HETATM   19  C7  UNL     1      -0.032   0.073   0.015  1.00  0.00     0.014 C 
HETATM   20  C6  UNL     1       1.000  -0.664   0.137  1.00  0.00     0.012 C 
BRANCH  20  21
HETATM   21  C5  UNL     1       2.358  -0.107   0.088  1.00  0.00    -0.033 A 
HETATM   22  C4  UNL     1       2.575   1.210  -0.088  1.00  0.00     0.014 A 
HETATM   23  C3  UNL     1       3.884   1.741  -0.132  1.00  0.00     0.040 A 
HETATM   24  C2  UNL     1       4.921   0.855   0.013  1.00  0.00     0.101 A 
HETATM   25  C19 UNL     1       4.718  -0.494   0.194  1.00  0.00     0.102 A 
HETATM   26  C18 UNL     1       3.450  -0.970   0.231  1.00  0.00     0.051 A 
BRANCH  24  27
HETATM   27  O1  UNL     1       6.217   1.336  -0.024  1.00  0.00    -0.353 OA
HETATM   28  C1  UNL     1       6.511   2.707  -0.205  1.00  0.00     0.210 C 
ENDBRANCH  24  27
BRANCH  25  29
HETATM   29  O2  UNL     1       5.795  -1.379   0.340  1.00  0.00    -0.353 OA
HETATM   30  C20 UNL     1       5.568  -2.752   0.524  1.00  0.00     0.210 C 
ENDBRANCH  25  29
ENDBRANCH  20  21
ENDBRANCH  16  19
BRANCH  17  31
HETATM   31  S2  UNL     1      -0.766  -3.284   0.066  1.00  0.00    -0.053 SA
BRANCH  31  32
HETATM   32  C17 UNL     1      -0.569  -3.858  -1.639  1.00  0.00     0.421 C 
HETATM   33  F1  UNL     1      -1.831  -4.262  -2.104  1.00  0.00    -0.202 F 
HETATM   34  F2  UNL     1      -0.010  -2.952  -2.482  1.00  0.00    -0.202 F 
ENDBRANCH  31  32
ENDBRANCH  17  31
ENDBRANCH   1  14
TORSDOF 7
