REMARK  6 active torsions:
REMARK  status: ('A' for Active; 'I' for Inactive)
REMARK    1  A    between atoms: C3_4  and  C4_5 
REMARK    2  A    between atoms: C7_13  and  N5_14 
REMARK    3  A    between atoms: N5_14  and  C8_16 
REMARK    4  A    between atoms: C11_19  and  O1_20 
REMARK    5  A    between atoms: O1_20  and  C12_21 
REMARK    6  A    between atoms: C12_21  and  C13_22 
ROOT
HETATM    1  N1  UNL     1       5.110   2.772   1.767  1.00  0.00    -0.191 NA
HETATM    2  C1  UNL     1       5.138   1.714   1.286  1.00  0.00     0.105 C 
HETATM    3  C2  UNL     1       5.191   0.395   0.700  1.00  0.00     0.117 A 
HETATM    4  C3  UNL     1       6.340  -0.344   0.517  1.00  0.00     0.056 A 
HETATM    5  N2  UNL     1       5.945  -1.496  -0.053  1.00  0.00    -0.280 N 
ATOM      6  H2  UNL     1       6.564  -2.263  -0.318  1.00  0.00     0.189 HD
HETATM    7  N3  UNL     1       4.624  -1.485  -0.220  1.00  0.00    -0.163 N 
HETATM    8  N4  UNL     1       3.596  -2.191  -0.672  1.00  0.00    -0.109 N 
ATOM      9  H4  UNL     1       3.671  -3.122  -1.081  1.00  0.00     0.208 HD
HETATM   10  C7  UNL     1       2.442  -1.518  -0.520  1.00  0.00     0.700 A 
HETATM   11  N6  UNL     1       2.775  -0.347   0.050  1.00  0.00    -0.170 N 
ATOM     12  H6  UNL     1       2.127   0.400   0.301  1.00  0.00     0.186 HD
HETATM   13  C21 UNL     1       4.109  -0.327   0.234  1.00  0.00     0.183 A 
ENDROOT
BRANCH   4  14
HETATM   14  C4  UNL     1       7.745   0.058   0.882  1.00  0.00     0.039 A 
HETATM   15  C5  UNL     1       8.851  -0.888   0.600  1.00  0.00     0.011 A 
HETATM   16  C6  UNL     1       8.693   0.413  -0.200  1.00  0.00     0.011 A 
ENDBRANCH   4  14
BRANCH  10  17
HETATM   17  N5  UNL     1       1.245  -1.931  -0.862  1.00  0.00    -0.190 N 
ATOM     18  H5  UNL     1       1.121  -2.848  -1.291  1.00  0.00     0.184 HD
BRANCH  17  19
HETATM   19  C8  UNL     1       0.131  -1.097  -0.632  1.00  0.00     0.049 A 
HETATM   20  C9  UNL     1      -0.937  -1.616   0.057  1.00  0.00     0.033 A 
HETATM   21  C10 UNL     1      -2.042  -0.847   0.306  1.00  0.00     0.039 A 
HETATM   22  C11 UNL     1      -2.115   0.448  -0.122  1.00  0.00     0.068 A 
HETATM   23  C19 UNL     1      -0.997   0.947  -0.827  1.00  0.00     0.039 A 
HETATM   24  C20 UNL     1       0.112   0.194  -1.083  1.00  0.00     0.033 A 
BRANCH  22  25
HETATM   25  O1  UNL     1      -3.172   1.266   0.082  1.00  0.00    -0.351 OA
BRANCH  25  26
HETATM   26  C12 UNL     1      -4.393   1.174   0.664  1.00  0.00     0.180 C 
BRANCH  26  27
HETATM   27  C13 UNL     1      -5.329   0.202   0.022  1.00  0.00     0.014 C 
HETATM   28  C14 UNL     1      -5.549   0.632  -1.428  1.00  0.00     0.033 C 
HETATM   29  C15 UNL     1      -6.553   1.758  -1.494  1.00  0.00    -0.030 C 
HETATM   30  C16 UNL     1      -7.688   1.525  -0.850  1.00  0.00    -0.031 C 
HETATM   31  C17 UNL     1      -7.803   0.213  -0.169  1.00  0.00     0.027 C 
HETATM   32  C18 UNL     1      -6.636   0.119   0.785  1.00  0.00     0.011 C 
ENDBRANCH  26  27
ENDBRANCH  25  26
ENDBRANCH  22  25
ENDBRANCH  17  19
ENDBRANCH  10  17
TORSDOF 6
