REMARK  5 active torsions:
REMARK  status: ('A' for Active; 'I' for Inactive)
REMARK    1  A    between atoms: N4_10  and  O1_11 
REMARK    2  A    between atoms: O1_11  and  C3_12 
REMARK    3  A    between atoms: C3_12  and  C4_13 
REMARK    4  A    between atoms: C4_13  and  C5_14 
REMARK    5  A    between atoms: C5_14  and  C6_15 
ROOT
HETATM    1  O1  UNL     1       1.816   0.711   0.181  1.00  0.00    -0.259 OA
ENDROOT
BRANCH   1   2
HETATM    2  N4  UNL     1       3.126   0.319   0.296  1.00  0.00    -0.043 N 
HETATM    3  C1  UNL     1       4.064   0.218  -0.650  1.00  0.00     0.718 A 
HETATM    4  N1  UNL     1       3.905   0.480  -1.894  1.00  0.00    -0.231 N 
HETATM    5  N2  UNL     1       5.235  -0.208  -0.107  1.00  0.00    -0.129 N 
ATOM      6  H12 UNL     1       4.621   0.403  -2.616  1.00  0.00     0.174 HD
ATOM      7  H11 UNL     1       3.026   0.800  -2.301  1.00  0.00     0.174 HD
HETATM    8  N3  UNL     1       4.974  -0.358   1.180  1.00  0.00    -0.279 N 
ATOM      9  H2  UNL     1       6.120  -0.375  -0.587  1.00  0.00     0.205 HD
HETATM   10  C2  UNL     1       3.693  -0.043   1.452  1.00  0.00     0.249 A 
ATOM     11  H3  UNL     1       5.652  -0.671   1.875  1.00  0.00     0.188 HD
ENDBRANCH   1   2
BRANCH   1  12
HETATM   12  C3  UNL     1       0.792  -0.291   0.257  1.00  0.00     0.203 C 
BRANCH  12  13
HETATM   13  C4  UNL     1      -0.575   0.323   0.110  1.00  0.00     0.035 C 
BRANCH  13  14
HETATM   14  C5  UNL     1      -1.590  -0.804   0.202  1.00  0.00     0.061 C 
BRANCH  14  15
HETATM   15  C6  UNL     1      -2.973  -0.291   0.068  1.00  0.00     0.025 A 
HETATM   16  C7  UNL     1      -3.811   0.137   1.074  1.00  0.00     0.114 A 
HETATM   17  N5  UNL     1      -4.967   0.519   0.530  1.00  0.00    -0.360 N 
HETATM   18  C8  UNL     1      -4.896   0.349  -0.797  1.00  0.00     0.180 A 
ATOM     19  H5  UNL     1      -5.773   0.881   1.040  1.00  0.00     0.166 HD
HETATM   20  N6  UNL     1      -3.661  -0.152  -1.076  1.00  0.00    -0.355 N 
ATOM     21  H6  UNL     1      -3.314  -0.385  -2.006  1.00  0.00     0.166 HD
ENDBRANCH  14  15
ENDBRANCH  13  14
ENDBRANCH  12  13
ENDBRANCH   1  12
TORSDOF 5
