REMARK  7 active torsions:
REMARK  status: ('A' for Active; 'I' for Inactive)
REMARK    1  A    between atoms: C2_2  and  C3_3 
REMARK    2  A    between atoms: C5_5  and  C6_6 
REMARK    3  A    between atoms: C8_8  and  O1_9 
REMARK    4  A    between atoms: C9_11  and  C10_12 
REMARK    5  A    between atoms: C15_18  and  N2_19 
REMARK    6  A    between atoms: N2_19  and  C17_21 
REMARK    7  A    between atoms: C23_27  and  O2_28 
ROOT
HETATM    1  C6  UNL     1      -3.208   0.380   0.113  1.00  0.00    -0.031 A 
HETATM    2  C7  UNL     1      -2.580  -0.008  -1.097  1.00  0.00     0.049 A 
HETATM    3  C8  UNL     1      -1.326  -0.565  -1.109  1.00  0.00     0.080 A 
HETATM    4  C9  UNL     1      -0.614  -0.768   0.042  1.00  0.00     0.040 A 
HETATM    5  C23 UNL     1      -1.273  -0.373   1.215  1.00  0.00     0.080 A 
HETATM    6  C24 UNL     1      -2.532   0.185   1.256  1.00  0.00     0.049 A 
ENDROOT
BRANCH   4   7
HETATM    7  C10 UNL     1       0.753  -1.154   0.114  1.00  0.00    -0.008 C 
HETATM    8  C11 UNL     1       0.871  -2.592   0.776  1.00  0.00     0.157 C 
HETATM    9  N1  UNL     1       1.135  -3.483  -0.304  1.00  0.00    -0.412 N 
HETATM   10  C12 UNL     1       0.553  -4.729  -0.242  1.00  0.00     0.143 C 
HETATM   11  C13 UNL     1       2.408  -3.377  -0.916  1.00  0.00     0.122 C 
HETATM   12  C14 UNL     1       2.948  -2.000  -0.461  1.00  0.00     0.071 C 
HETATM   13  C15 UNL     1       1.887  -0.922  -0.700  1.00  0.00    -0.002 C 
BRANCH  13  14
HETATM   14  N2  UNL     1       2.489   0.335  -0.978  1.00  0.00    -0.286 NA
HETATM   15  C16 UNL     1       1.771   1.114  -1.969  1.00  0.00     0.117 C 
BRANCH  14  16
HETATM   16  C17 UNL     1       2.616   1.249   0.147  1.00  0.00     0.062 C 
HETATM   17  C18 UNL     1       3.459   0.863   1.288  1.00  0.00     0.020 C 
HETATM   18  C19 UNL     1       4.599   1.814   1.573  1.00  0.00     0.002 C 
HETATM   19  C20 UNL     1       5.479   1.812   0.357  1.00  0.00     0.000 C 
HETATM   20  C21 UNL     1       4.617   2.261  -0.820  1.00  0.00     0.002 C 
HETATM   21  C22 UNL     1       3.203   2.545  -0.383  1.00  0.00     0.020 C 
ENDBRANCH  14  16
ENDBRANCH  13  14
ENDBRANCH   4   7
BRANCH   3  22
HETATM   22  O1  UNL     1      -0.827  -0.939  -2.361  1.00  0.00    -0.360 OA
ATOM     23  H1  UNL     1       0.041  -1.325  -2.369  1.00  0.00     0.217 HD
ENDBRANCH   3  22
BRANCH   5  24
HETATM   24  O2  UNL     1      -0.629  -0.550   2.444  1.00  0.00    -0.360 OA
ATOM     25  H2  UNL     1      -1.075  -0.282   3.239  1.00  0.00     0.217 HD
ENDBRANCH   5  24
BRANCH   1  26
HETATM   26  C5  UNL     1      -4.493   1.036   0.021  1.00  0.00     0.014 C 
HETATM   27  C3  UNL     1      -5.606   0.855   0.615  1.00  0.00    -0.083 C 
HETATM   28  C4  UNL     1      -5.915  -0.175   1.643  1.00  0.00     0.043 C 
BRANCH  27  29
HETATM   29  C2  UNL     1      -6.794   1.736   0.268  1.00  0.00     0.029 C 
HETATM   30  C1  UNL     1      -6.436   2.824  -0.691  1.00  0.00     0.010 C 
ENDBRANCH  27  29
ENDBRANCH   1  26
TORSDOF 7
