REMARK  2 active torsions:
REMARK  status: ('A' for Active; 'I' for Inactive)
REMARK    1  A    between atoms: C3_6  and  C4_7 
REMARK    2  A    between atoms: C9_16  and  N4_17 
ROOT
HETATM    1  N1  UNL     1      -1.864   2.818  -2.545  1.00  0.00    -0.190 NA
HETATM    2  C1  UNL     1      -1.410   2.026  -1.833  1.00  0.00     0.120 C 
HETATM    3  C2  UNL     1      -0.809   1.029  -0.939  1.00  0.00     0.148 A 
HETATM    4  N2  UNL     1       0.483   0.898  -0.826  1.00  0.00    -0.343 N 
ATOM      5  H2  UNL     1       1.099   1.502  -1.371  1.00  0.00     0.167 HD
HETATM    6  C3  UNL     1       1.001   0.006  -0.026  1.00  0.00     0.059 A 
HETATM    7  S1  UNL     1      -0.408  -0.727   0.638  1.00  0.00    -0.056 SA
HETATM    8  C9  UNL     1      -1.593   0.193  -0.185  1.00  0.00     0.112 A 
ENDROOT
BRANCH   8   9
HETATM    9  N4  UNL     1      -3.022   0.108  -0.102  1.00  0.00    -0.373 N 
HETATM   10  C10 UNL     1      -3.663  -0.861   0.770  1.00  0.00     0.123 C 
HETATM   11  C11 UNL     1      -4.939  -0.113   1.128  1.00  0.00     0.021 C 
HETATM   12  C12 UNL     1      -5.335   0.391  -0.266  1.00  0.00     0.021 C 
HETATM   13  C13 UNL     1      -4.014   0.875  -0.787  1.00  0.00     0.123 C 
ENDBRANCH   8   9
BRANCH   6  14
HETATM   14  C4  UNL     1       2.401  -0.360   0.298  1.00  0.00     0.068 C 
HETATM   15  C5  UNL     1       3.189  -0.809  -0.886  1.00  0.00     0.014 C 
HETATM   16  C6  UNL     1       4.492  -1.370  -0.352  1.00  0.00     0.028 C 
HETATM   17  C7  UNL     1       5.190  -0.462   0.595  1.00  0.00     0.232 C 
HETATM   18  N3  UNL     1       4.340   0.204   1.535  1.00  0.00    -0.074 N 
HETATM   19  C8  UNL     1       3.160   0.786   0.935  1.00  0.00     0.243 C 
ATOM     20  H32 UNL     1       4.085  -0.423   2.298  1.00  0.00     0.277 HD
ATOM     21  H31 UNL     1       4.862   0.906   2.059  1.00  0.00     0.277 HD
ENDBRANCH   6  14
TORSDOF 2
