REMARK  4 active torsions:
REMARK  status: ('A' for Active; 'I' for Inactive)
REMARK    1  A    between atoms: C4_4  and  O1_5 
REMARK    2  A    between atoms: O1_5  and  C5_6 
REMARK       I    between atoms: C5_6  and  N1_8 
REMARK    3  A    between atoms: N1_8  and  C6_10 
REMARK    4  A    between atoms: C11_16  and  O3_17 
ROOT
HETATM    1  C5  UNL     1       0.486  -0.197  -0.084  1.00  0.00     0.361 C 
HETATM    2  O2  UNL     1       0.416   0.800   0.679  1.00  0.00    -0.238 OA
HETATM    3  N1  UNL     1       1.773  -0.644  -0.524  1.00  0.00    -0.330 N 
ATOM      4  H1  UNL     1       1.802  -1.456  -1.141  1.00  0.00     0.165 HD
ENDROOT
BRANCH   1   5
HETATM    5  O1  UNL     1      -0.688  -0.800  -0.448  1.00  0.00    -0.299 OA
BRANCH   5   6
HETATM    6  C4  UNL     1      -1.972  -0.425  -0.063  1.00  0.00     0.134 C 
HETATM    7  C3  UNL     1      -2.639  -1.511   0.774  1.00  0.00     0.037 C 
HETATM    8  C2  UNL     1      -3.941  -1.070   1.344  1.00  0.00    -0.015 C 
HETATM    9  C1  UNL     1      -3.914  -1.000   2.862  1.00  0.00     0.010 C 
HETATM   10  C16 UNL     1      -4.290   0.282   0.825  1.00  0.00     0.013 C 
HETATM   11  C13 UNL     1      -4.169   0.428  -0.662  1.00  0.00    -0.045 C 
HETATM   12  C12 UNL     1      -2.857  -0.024  -1.215  1.00  0.00     0.041 C 
HETATM   13  C14 UNL     1      -5.317  -0.336  -1.333  1.00  0.00     0.015 C 
HETATM   14  C15 UNL     1      -4.422   1.906  -0.977  1.00  0.00     0.015 C 
ENDBRANCH   5   6
ENDBRANCH   1   5
BRANCH   3  15
HETATM   15  C6  UNL     1       3.005  -0.051  -0.172  1.00  0.00     0.118 C 
HETATM   16  C7  UNL     1       3.857   0.403  -1.316  1.00  0.00     0.058 C 
HETATM   17  C8  UNL     1       5.107   1.022  -0.841  1.00  0.00     0.274 C 
HETATM   18  N2  UNL     1       5.730   0.474   0.300  1.00  0.00     0.086 N 
HETATM   19  C9  UNL     1       6.525   1.442   1.040  1.00  0.00     0.310 C 
HETATM   20  C10 UNL     1       4.946  -0.264   1.209  1.00  0.00     0.305 C 
HETATM   21  C11 UNL     1       3.860  -1.092   0.565  1.00  0.00     0.169 C 
BRANCH  21  22
HETATM   22  O3  UNL     1       4.475  -1.918  -0.380  1.00  0.00    -0.392 OA
ATOM     23  H3  UNL     1       5.004  -2.562   0.076  1.00  0.00     0.210 HD
ENDBRANCH  21  22
ENDBRANCH   3  15
TORSDOF 4
