REMARK  9 active torsions:
REMARK  status: ('A' for Active; 'I' for Inactive)
REMARK    1  A    between atoms: N1_1  and  C1_4 
REMARK    2  A    between atoms: C2_7  and  N3_8 
REMARK    3  A    between atoms: N3_8  and  C3_10 
REMARK    4  A    between atoms: C3_10  and  C4_11 
REMARK    5  A    between atoms: C4_11  and  O1_12 
REMARK    6  A    between atoms: C5_16  and  N5_17 
REMARK    7  A    between atoms: N5_17  and  N6_19 
REMARK    8  A    between atoms: C6_21  and  C7_22 
REMARK    9  A    between atoms: N9_28  and  N10_30 
ROOT
HETATM    1  C1  UNL     1      -1.913   0.120  -1.745  1.00  0.00     0.705 A 
HETATM    2  N2  UNL     1      -2.915   0.009  -0.840  1.00  0.00    -0.022 N 
ATOM      3  H2  UNL     1      -3.882   0.085  -1.155  1.00  0.00     0.203 HD
HETATM    4  C2  UNL     1      -2.663  -0.198   0.461  1.00  0.00     0.707 A 
HETATM    5  N4  UNL     1      -1.362  -0.288   0.813  1.00  0.00    -0.020 N 
ATOM      6  H4  UNL     1      -1.137  -0.445   1.795  1.00  0.00     0.203 HD
HETATM    7  C5  UNL     1      -0.354  -0.182  -0.059  1.00  0.00     0.726 A 
HETATM    8  N11 UNL     1      -0.625   0.026  -1.368  1.00  0.00    -0.020 N 
ATOM      9  H11 UNL     1       0.128   0.109  -2.051  1.00  0.00     0.203 HD
ENDROOT
BRANCH   7  10
HETATM   10  N5  UNL     1       0.885  -0.268   0.271  1.00  0.00    -0.131 N 
ATOM     11  H5  UNL     1       1.612  -0.180  -0.439  1.00  0.00     0.205 HD
BRANCH  10  12
HETATM   12  N6  UNL     1       1.233  -0.483   1.608  1.00  0.00    -0.295 N 
HETATM   13  C6  UNL     1       2.466  -0.595   1.991  1.00  0.00     0.146 C 
ATOM     14  H6  UNL     1       0.492  -0.554   2.305  1.00  0.00     0.186 HD
BRANCH  13  15
HETATM   15  C7  UNL     1       3.530  -0.494   0.985  1.00  0.00     0.109 A 
HETATM   16  N7  UNL     1       4.831  -0.585   1.204  1.00  0.00    -0.290 N 
HETATM   17  N8  UNL     1       5.654  -0.479   0.246  1.00  0.00    -0.278 N 
ATOM     18  H7  UNL     1       5.175  -0.742   2.151  1.00  0.00     0.187 HD
HETATM   19  C8  UNL     1       5.183  -0.275  -0.987  1.00  0.00     0.179 A 
ATOM     20  H8  UNL     1       6.658  -0.548   0.414  1.00  0.00     0.189 HD
HETATM   21  N9  UNL     1       5.854  -0.138  -2.108  1.00  0.00    -0.285 N 
HETATM   22  S1  UNL     1       3.490  -0.241  -0.702  1.00  0.00    -0.031 SA
ATOM     23  H9  UNL     1       5.371   0.016  -2.993  1.00  0.00     0.188 HD
BRANCH  21  24
HETATM   24  N10 UNL     1       7.236  -0.209  -2.055  1.00  0.00    -0.343 N 
ATOM     25 2H10 UNL     1       7.705  -0.364  -1.162  1.00  0.00     0.176 HD
ATOM     26 1H10 UNL     1       7.757  -0.103  -2.925  1.00  0.00     0.176 HD
ENDBRANCH  21  24
ENDBRANCH  13  15
ENDBRANCH  10  12
ENDBRANCH   7  10
BRANCH   4  27
HETATM   27  N3  UNL     1      -3.547  -0.312   1.363  1.00  0.00    -0.223 N 
ATOM     28  H3  UNL     1      -3.196  -0.467   2.308  1.00  0.00     0.177 HD
BRANCH  27  29
HETATM   29  C3  UNL     1      -4.965  -0.253   1.235  1.00  0.00     0.164 C 
BRANCH  29  30
HETATM   30  C4  UNL     1      -5.536   1.132   1.518  1.00  0.00     0.184 C 
BRANCH  30  31
HETATM   31  O1  UNL     1      -5.009   2.054   0.640  1.00  0.00    -0.399 OA
ATOM     32  H1  UNL     1      -5.365   2.917   0.816  1.00  0.00     0.209 HD
ENDBRANCH  30  31
ENDBRANCH  29  30
ENDBRANCH  27  29
ENDBRANCH   4  27
BRANCH   1  33
HETATM   33  N1  UNL     1      -2.235   0.320  -2.993  1.00  0.00    -0.234 N 
ATOM     34  H12 UNL     1      -3.212   0.391  -3.279  1.00  0.00     0.174 HD
ATOM     35  H11 UNL     1      -1.481   0.404  -3.674  1.00  0.00     0.174 HD
ENDBRANCH   1  33
TORSDOF 9
