REMARK  6 active torsions:
REMARK  status: ('A' for Active; 'I' for Inactive)
REMARK    1  A    between atoms: N1_1  and  C1_5 
REMARK    2  A    between atoms: C1_5  and  C2_6 
REMARK    3  A    between atoms: C2_6  and  N2_7 
REMARK    4  A    between atoms: C2_6  and  C7_17 
REMARK    5  A    between atoms: N2_7  and  C3_9 
REMARK    6  A    between atoms: C3_9  and  C4_10 
ROOT
HETATM    1  C2  UNL     1      -1.083  -0.403  -0.688  1.00  0.00     0.158 C 
ENDROOT
BRANCH   1   2
HETATM    2  C1  UNL     1      -1.634  -1.715  -0.124  1.00  0.00     0.260 C 
BRANCH   2   3
HETATM    3  N1  UNL     1      -1.010  -2.854  -0.773  1.00  0.00    -0.077 N 
ATOM      4  H13 UNL     1      -1.104  -2.809  -1.788  1.00  0.00     0.274 HD
ATOM      5  H12 UNL     1       0.007  -2.814  -0.712  1.00  0.00     0.274 HD
ATOM      6  H11 UNL     1      -1.377  -3.728  -0.397  1.00  0.00     0.274 HD
ENDBRANCH   2   3
ENDBRANCH   1   2
BRANCH   1   7
HETATM    7  N2  UNL     1       0.305  -0.264  -0.511  1.00  0.00    -0.385 N 
ATOM      8  H2  UNL     1       0.903  -0.180  -1.333  1.00  0.00     0.159 HD
BRANCH   7   9
HETATM    9  C3  UNL     1       0.890  -0.237   0.758  1.00  0.00     0.114 C 
BRANCH   9  10
HETATM   10  C4  UNL     1       2.390  -0.110   0.553  1.00  0.00     0.063 A 
HETATM   11  C5  UNL     1       3.035   0.790  -0.258  1.00  0.00     0.119 A 
HETATM   12  N3  UNL     1       4.358   0.593  -0.172  1.00  0.00    -0.360 N 
HETATM   13  C6  UNL     1       4.542  -0.413   0.677  1.00  0.00     0.180 A 
ATOM     14  H3  UNL     1       5.084   1.115  -0.663  1.00  0.00     0.166 HD
HETATM   15  N4  UNL     1       3.354  -0.848   1.124  1.00  0.00    -0.350 N 
ATOM     16  H4  UNL     1       3.208  -1.610   1.786  1.00  0.00     0.166 HD
ENDBRANCH   9  10
ENDBRANCH   7   9
ENDBRANCH   1   7
BRANCH   1  17
HETATM   17  C7  UNL     1      -1.955   0.719  -0.348  1.00  0.00     0.050 A 
HETATM   18  C8  UNL     1      -2.072   1.522   0.751  1.00  0.00     0.116 A 
HETATM   19  N5  UNL     1      -3.044   2.448   0.593  1.00  0.00    -0.360 N 
HETATM   20  C9  UNL     1      -3.547   2.219  -0.628  1.00  0.00     0.180 A 
ATOM     21  H5  UNL     1      -3.332   3.165   1.259  1.00  0.00     0.166 HD
HETATM   22  N6  UNL     1      -2.914   1.194  -1.207  1.00  0.00    -0.353 N 
ATOM     23  H6  UNL     1      -3.112   0.825  -2.137  1.00  0.00     0.166 HD
ENDBRANCH   1  17
TORSDOF 6
