REMARK  5 active torsions:
REMARK  status: ('A' for Active; 'I' for Inactive)
REMARK    1  A    between atoms: C2_2  and  O1_3 
REMARK    2  A    between atoms: O1_3  and  C3_4 
REMARK    3  A    between atoms: C3_4  and  C4_6 
REMARK    4  A    between atoms: C5_7  and  N1_8 
REMARK       I    between atoms: N1_8  and  C6_10 
REMARK    5  A    between atoms: C9_15  and  C10_16 
ROOT
HETATM    1  C4  UNL     1       0.537  -0.005  -0.680  1.00  0.00     0.115 C 
HETATM    2  C5  UNL     1       0.327   1.248  -0.406  1.00  0.00     0.101 C 
HETATM    3  S1  UNL     1      -1.394   1.700  -0.226  1.00  0.00    -0.064 SA
HETATM    4  C8  UNL     1      -2.129   0.068   0.074  1.00  0.00     0.045 C 
HETATM    5  C9  UNL     1      -3.207  -0.168   0.762  1.00  0.00     0.003 C 
HETATM    6  S2  UNL     1      -0.986  -0.978  -0.805  1.00  0.00    -0.074 SA
ENDROOT
BRANCH   1   7
HETATM    7  C3  UNL     1       1.851  -0.659  -0.885  1.00  0.00     0.303 C 
HETATM    8  O2  UNL     1       1.903  -1.912  -1.151  1.00  0.00    -0.259 OA
BRANCH   7   9
HETATM    9  O1  UNL     1       3.070  -0.041  -0.817  1.00  0.00    -0.317 OA
BRANCH   9  10
HETATM   10  C2  UNL     1       4.287  -0.732  -1.024  1.00  0.00     0.174 C 
HETATM   11  C1  UNL     1       4.493  -1.846  -0.043  1.00  0.00     0.034 C 
ENDBRANCH   9  10
ENDBRANCH   7   9
ENDBRANCH   1   7
BRANCH   2  12
HETATM   12  N1  UNL     1       1.345   2.267  -0.244  1.00  0.00    -0.320 N 
HETATM   13  C6  UNL     1       0.978   3.601   0.055  1.00  0.00     0.218 C 
HETATM   14  C7  UNL     1       2.006   4.671   0.228  1.00  0.00     0.117 C 
HETATM   15  O3  UNL     1      -0.236   3.881   0.176  1.00  0.00    -0.274 OA
ATOM     16  H1  UNL     1       2.330   2.022  -0.346  1.00  0.00     0.169 HD
ENDBRANCH   2  12
BRANCH   5  17
HETATM   17  C10 UNL     1      -3.800  -1.479   1.005  1.00  0.00     0.002 C 
HETATM   18  C11 UNL     1      -3.078  -2.658   0.453  1.00  0.00     0.013 C 
HETATM   19  C12 UNL     1      -5.230  -1.543   0.443  1.00  0.00     0.013 C 
ENDBRANCH   5  17
TORSDOF 5
