REMARK  3 active torsions:
REMARK  status: ('A' for Active; 'I' for Inactive)
REMARK    1  A    between atoms: C1_4  and  C2_6 
REMARK    2  A    between atoms: C5_9  and  N3_10 
REMARK    3  A    between atoms: N3_10  and  S1_12 
ROOT
HETATM    1  C2  UNL     1       1.611  -0.013   0.066  1.00  0.00     0.006 A 
HETATM    2  C3  UNL     1       0.949   1.012   0.681  1.00  0.00     0.017 A 
HETATM    3  C4  UNL     1      -0.447   1.069   0.747  1.00  0.00     0.033 A 
HETATM    4  C5  UNL     1      -1.219   0.084   0.189  1.00  0.00     0.067 A 
HETATM    5  C6  UNL     1      -0.539  -0.961  -0.438  1.00  0.00     0.074 A 
HETATM    6  N4  UNL     1      -1.324  -1.983  -1.018  1.00  0.00    -0.100 NA
HETATM    7  C7  UNL     1       0.836  -1.015  -0.503  1.00  0.00     0.043 A 
ENDROOT
BRANCH   1   8
HETATM    8  C1  UNL     1       3.079  -0.072  -0.004  1.00  0.00     0.120 C 
HETATM    9  N1  UNL     1       3.836   0.827   0.505  1.00  0.00    -0.387 N 
ATOM     10  H12 UNL     1       4.854   0.786   0.456  1.00  0.00     0.157 HD
ATOM     11  H11 UNL     1       3.396   1.617   0.977  1.00  0.00     0.157 HD
HETATM   12  N2  UNL     1       3.686  -1.163  -0.656  1.00  0.00    -0.082 NA
ENDBRANCH   1   8
BRANCH   4  13
HETATM   13  N3  UNL     1      -2.632   0.063   0.221  1.00  0.00    -0.269 N 
ATOM     14  H3  UNL     1      -3.130  -0.819   0.104  1.00  0.00     0.179 HD
BRANCH  13  15
HETATM   15  S1  UNL     1      -3.513   1.521   0.456  1.00  0.00     0.358 S 
HETATM   16  O1  UNL     1      -2.741   2.626  -0.187  1.00  0.00    -0.187 OA
HETATM   17  O2  UNL     1      -4.907   1.417  -0.101  1.00  0.00    -0.187 OA
ENDBRANCH  13  15
ENDBRANCH   4  13
TORSDOF 3
