REMARK  5 active torsions:
REMARK  status: ('A' for Active; 'I' for Inactive)
REMARK    1  A    between atoms: C2_2  and  C3_3 
REMARK    2  A    between atoms: C5_5  and  N1_6 
REMARK    3  A    between atoms: N1_6  and  C6_9 
REMARK    4  A    between atoms: C10_13  and  N2_14 
REMARK    5  A    between atoms: C12_21  and  C13_22 
ROOT
HETATM    1  C3  UNL     1      -0.738   0.997  -0.615  1.00  0.00     0.032 C 
HETATM    2  C4  UNL     1      -2.209   0.705  -0.544  1.00  0.00     0.043 C 
HETATM    3  C5  UNL     1      -2.535  -0.281   0.523  1.00  0.00     0.186 C 
HETATM    4  C8  UNL     1      -2.126   0.465   1.817  1.00  0.00     0.035 C 
HETATM    5  C9  UNL     1      -0.650   0.468   1.855  1.00  0.00     0.028 C 
HETATM    6  C10 UNL     1       0.072   0.720   0.578  1.00  0.00     0.091 C 
ENDROOT
BRANCH   6   7
HETATM    7  N2  UNL     1       0.960  -0.390   0.358  1.00  0.00    -0.364 N 
HETATM    8  C11 UNL     1       2.261  -0.311   0.277  1.00  0.00     0.161 A 
HETATM    9  N3  UNL     1       3.088   0.728   0.365  1.00  0.00    -0.279 N 
HETATM   10  S1  UNL     1       3.387  -1.606   0.043  1.00  0.00    -0.032 SA
HETATM   11  N4  UNL     1       4.339   0.541   0.268  1.00  0.00    -0.290 N 
ATOM     12  H3  UNL     1       2.719   1.668   0.509  1.00  0.00     0.189 HD
HETATM   13  C12 UNL     1       4.818  -0.681   0.081  1.00  0.00     0.141 A 
ATOM     14  H4  UNL     1       4.978   1.333   0.334  1.00  0.00     0.187 HD
ATOM     15  H2  UNL     1       0.539  -1.314   0.257  1.00  0.00     0.162 HD
BRANCH  13  16
HETATM   16  C13 UNL     1       6.266  -1.096  -0.046  1.00  0.00     0.289 C 
HETATM   17  C14 UNL     1       6.437  -1.617  -1.451  1.00  0.00     0.098 C 
HETATM   18  F1  UNL     1       7.021   0.033   0.186  1.00  0.00    -0.199 F 
HETATM   19  F2  UNL     1       6.441  -2.069   0.912  1.00  0.00    -0.199 F 
ENDBRANCH  13  16
ENDBRANCH   6   7
BRANCH   1  20
HETATM   20  C2  UNL     1      -0.634   2.462  -0.975  1.00  0.00    -0.030 C 
HETATM   21  C1  UNL     1      -0.183   2.913  -2.107  1.00  0.00     0.007 C 
ENDBRANCH   1  20
BRANCH   3  22
HETATM   22  N1  UNL     1      -3.926  -0.640   0.605  1.00  0.00    -0.071 N 
ATOM     23  H12 UNL     1      -4.129  -1.213   1.424  1.00  0.00     0.277 HD
ATOM     24  H11 UNL     1      -4.518   0.158   0.835  1.00  0.00     0.277 HD
BRANCH  22  25
HETATM   25  C6  UNL     1      -4.329  -1.282  -0.624  1.00  0.00     0.228 C 
HETATM   26  C7  UNL     1      -5.806  -1.686  -0.461  1.00  0.00     0.034 C 
ENDBRANCH  22  25
ENDBRANCH   3  22
TORSDOF 5
