REMARK  4 active torsions:
REMARK  status: ('A' for Active; 'I' for Inactive)
REMARK    1  A    between atoms: N1_2  and  N2_3 
REMARK       I    between atoms: N1_2  and  C2_6 
REMARK       I    between atoms: C2_6  and  N6_14 
REMARK    2  A    between atoms: N3_7  and  N4_9 
REMARK    3  A    between atoms: N6_14  and  N7_16 
REMARK    4  A    between atoms: N7_16  and  N8_17 
ROOT
HETATM    1  C1  UNL     1      -2.020   0.562  -0.290  1.00  0.00     0.197 C 
HETATM    2  N1  UNL     1      -1.058  -0.267   0.408  1.00  0.00    -0.132 N 
HETATM    3  C2  UNL     1       0.295  -0.360   0.057  1.00  0.00     0.727 C 
HETATM    4  N3  UNL     1       0.756  -1.409  -0.491  1.00  0.00    -0.116 N 
ATOM      5  H3  UNL     1       1.748  -1.429  -0.728  1.00  0.00     0.207 HD
HETATM    6  N6  UNL     1       1.142   0.725   0.319  1.00  0.00    -0.114 N 
ATOM      7  H6  UNL     1       1.490   0.823   1.273  1.00  0.00     0.203 HD
ENDROOT
BRANCH   2   8
HETATM    8  N2  UNL     1      -1.519  -1.012   1.490  1.00  0.00    -0.329 N 
ATOM      9  H22 UNL     1      -2.504  -0.944   1.746  1.00  0.00     0.177 HD
ATOM     10  H21 UNL     1      -0.842  -1.596   1.981  1.00  0.00     0.177 HD
ENDBRANCH   2   8
BRANCH   4  11
HETATM   11  N4  UNL     1      -0.014  -2.540  -0.790  1.00  0.00    -0.235 N 
HETATM   12  N5  UNL     1       0.527  -3.676  -0.936  1.00  0.00    -0.330 N 
ATOM     13  H52 UNL     1       1.539  -3.751  -0.831  1.00  0.00     0.178 HD
ATOM     14  H51 UNL     1      -0.034  -4.500  -1.154  1.00  0.00     0.178 HD
ATOM     15  H4  UNL     1      -1.025  -2.448  -0.892  1.00  0.00     0.208 HD
ENDBRANCH   4  11
BRANCH   6  16
HETATM   16  N7  UNL     1       1.550   1.679  -0.605  1.00  0.00    -0.015 NA
BRANCH  16  17
HETATM   17  N8  UNL     1       2.909   1.923  -0.475  1.00  0.00    -0.328 N 
ATOM     18  H82 UNL     1       3.510   1.460   0.207  1.00  0.00     0.174 HD
ATOM     19  H81 UNL     1       3.209   2.623  -1.153  1.00  0.00     0.174 HD
ENDBRANCH  16  17
ENDBRANCH   6  16
TORSDOF 4
