REMARK  4 active torsions:
REMARK  status: ('A' for Active; 'I' for Inactive)
REMARK    1  A    between atoms: N3_4  and  N4_6 
REMARK    2  A    between atoms: N4_6  and  N5_7 
REMARK    3  A    between atoms: N4_6  and  N6_10 
REMARK       I    between atoms: N7_12  and  C2_14 
REMARK    4  A    between atoms: N9_16  and  O1_18 
ROOT
HETATM    1  N6  UNL     1      -0.998  -0.205   0.545  1.00  0.00    -0.204 N 
ATOM      2  H6  UNL     1      -1.541  -0.113   1.404  1.00  0.00     0.212 HD
HETATM    3  N7  UNL     1      -1.604  -0.124  -0.568  1.00  0.00    -0.255 N 
ATOM      4  H7  UNL     1      -1.108  -0.210  -1.455  1.00  0.00     0.191 HD
HETATM    5  C2  UNL     1      -3.008   0.092  -0.517  1.00  0.00     0.228 C 
HETATM    6  N8  UNL     1      -3.946  -0.929  -0.792  1.00  0.00    -0.060 NA
HETATM    7  N9  UNL     1      -3.426   1.286  -0.201  1.00  0.00    -0.240 N 
ATOM      8  H9  UNL     1      -4.431   1.456  -0.159  1.00  0.00     0.197 HD
ENDROOT
BRANCH   1   9
HETATM    9  N4  UNL     1       0.388  -0.416   0.645  1.00  0.00    -0.121 N 
BRANCH   9  10
HETATM   10  N3  UNL     1       1.279   0.656   0.698  1.00  0.00    -0.238 N 
HETATM   11  C1  UNL     1       2.525   0.504   0.453  1.00  0.00     0.218 C 
HETATM   12  N1  UNL     1       3.146  -0.714   0.109  1.00  0.00    -0.065 NA
HETATM   13  N2  UNL     1       3.352   1.662   0.534  1.00  0.00    -0.065 NA
ATOM     14  H3  UNL     1       0.928   1.583   0.938  1.00  0.00     0.193 HD
ENDBRANCH   9  10
BRANCH   9  15
HETATM   15  N5  UNL     1       0.833  -1.724   0.689  1.00  0.00    -0.308 N 
ATOM     16  H52 UNL     1       1.839  -1.877   0.762  1.00  0.00     0.180 HD
ATOM     17  H51 UNL     1       0.181  -2.508   0.650  1.00  0.00     0.180 HD
ENDBRANCH   9  15
ENDBRANCH   1   9
BRANCH   7  18
HETATM   18  O1  UNL     1      -2.583   2.309   0.074  1.00  0.00    -0.287 OA
ATOM     19  H1  UNL     1      -2.888   3.179   0.304  1.00  0.00     0.244 HD
ENDBRANCH   7  18
TORSDOF 4
