REMARK  4 active torsions:
REMARK  status: ('A' for Active; 'I' for Inactive)
REMARK       I    between atoms: C2_2  and  N1_4 
REMARK    1  A    between atoms: N1_4  and  C3_6 
REMARK    2  A    between atoms: N2_12  and  C9_13 
REMARK    3  A    between atoms: C9_13  and  C10_14 
REMARK       I    between atoms: N3_19  and  C14_20 
REMARK       I    between atoms: C14_20  and  N4_22 
REMARK    4  A    between atoms: N4_22  and  C15_24 
ROOT
HETATM    1  C10 UNL     1      -0.431  -0.242  -1.046  1.00  0.00     0.120 C 
HETATM    2  C11 UNL     1      -0.138  -1.654  -1.475  1.00  0.00     0.032 C 
HETATM    3  C12 UNL     1      -1.293  -2.078  -2.356  1.00  0.00     0.061 C 
HETATM    4  C13 UNL     1      -2.136  -0.787  -2.388  1.00  0.00     0.275 C 
HETATM    5  F1  UNL     1      -3.398  -1.037  -2.772  1.00  0.00    -0.227 F 
HETATM    6  N3  UNL     1      -1.906  -0.297  -1.051  1.00  0.00    -0.296 N 
HETATM    7  C14 UNL     1      -2.834   0.038  -0.082  1.00  0.00     0.321 C 
HETATM    8  O2  UNL     1      -2.356   0.493   1.035  1.00  0.00    -0.247 OA
HETATM    9  N4  UNL     1      -4.233  -0.069  -0.201  1.00  0.00    -0.335 N 
ATOM     10  H4  UNL     1      -4.632  -0.423  -1.070  1.00  0.00     0.165 HD
ENDROOT
BRANCH   1  11
HETATM   11  C9  UNL     1       0.220   0.177   0.190  1.00  0.00     0.298 C 
BRANCH  11  12
HETATM   12  N2  UNL     1       1.612   0.218   0.302  1.00  0.00     0.095 N 
HETATM   13  C5  UNL     1       2.029   0.757   1.558  1.00  0.00     0.225 C 
HETATM   14  C4  UNL     1       3.350   1.503   1.291  1.00  0.00     0.061 C 
HETATM   15  C6  UNL     1       2.613  -0.451   2.283  1.00  0.00     0.044 C 
HETATM   16  C3  UNL     1       4.353   0.403   1.013  1.00  0.00     0.092 C 
HETATM   17  C7  UNL     1       3.554  -0.834   1.120  1.00  0.00     0.039 C 
HETATM   18  C8  UNL     1       2.460  -0.856   0.036  1.00  0.00     0.279 C 
BRANCH  16  19
HETATM   19  N1  UNL     1       5.028   0.590  -0.248  1.00  0.00    -0.356 N 
HETATM   20  C2  UNL     1       6.435   0.761  -0.249  1.00  0.00     0.213 C 
HETATM   21  C1  UNL     1       7.168   0.957  -1.521  1.00  0.00     0.117 C 
HETATM   22  O1  UNL     1       7.105   0.753   0.819  1.00  0.00    -0.274 OA
ATOM     23  H1  UNL     1       4.503   0.599  -1.122  1.00  0.00     0.162 HD
ENDBRANCH  16  19
ENDBRANCH  11  12
ENDBRANCH   1  11
BRANCH   9  24
HETATM   24  C15 UNL     1      -5.128   0.314   0.888  1.00  0.00     0.023 C 
HETATM   25  C16 UNL     1      -4.929   1.781   1.232  1.00  0.00     0.037 C 
HETATM   26  C17 UNL     1      -6.551   0.174   0.402  1.00  0.00     0.037 C 
HETATM   27  C18 UNL     1      -4.964  -0.521   2.113  1.00  0.00     0.037 C 
ENDBRANCH   9  24
TORSDOF 4
