REMARK  4 active torsions:
REMARK  status: ('A' for Active; 'I' for Inactive)
REMARK    1  A    between atoms: N1_1  and  C1_4 
REMARK    2  A    between atoms: C2_9  and  C3_10 
REMARK    3  A    between atoms: C3_10  and  C4_11 
REMARK    4  A    between atoms: C4_11  and  C5_12 
ROOT
HETATM    1  C1  UNL     1       3.813   0.056  -0.070  1.00  0.00     0.238 A 
HETATM    2  N2  UNL     1       3.341  -0.774  -1.017  1.00  0.00    -0.263 N 
ATOM      3  H2  UNL     1       3.884  -1.290  -1.709  1.00  0.00     0.190 HD
HETATM    4  N3  UNL     1       2.024  -0.782  -0.865  1.00  0.00    -0.280 N 
ATOM      5  H3  UNL     1       1.374  -1.321  -1.437  1.00  0.00     0.189 HD
HETATM    6  C2  UNL     1       1.668   0.025   0.155  1.00  0.00     0.142 A 
HETATM    7  O1  UNL     1       2.802   0.515   0.610  1.00  0.00    -0.264 OA
ENDROOT
BRANCH   6   8
HETATM    8  C3  UNL     1       0.291   0.311   0.671  1.00  0.00     0.088 C 
BRANCH   8   9
HETATM    9  C4  UNL     1      -0.677  -0.488  -0.177  1.00  0.00     0.032 C 
BRANCH   9  10
HETATM   10  C5  UNL     1      -2.101  -0.295   0.231  1.00  0.00     0.111 C 
HETATM   11  C6  UNL     1      -2.632   1.104   0.160  1.00  0.00     0.152 C 
HETATM   12  N4  UNL     1      -3.871   0.432  -0.262  1.00  0.00    -0.146 NA
HETATM   13  N5  UNL     1      -3.025  -0.522  -0.886  1.00  0.00    -0.142 NA
ENDBRANCH   9  10
ENDBRANCH   8   9
ENDBRANCH   6   8
BRANCH   1  14
HETATM   14  N1  UNL     1       5.085   0.316   0.090  1.00  0.00    -0.364 N 
ATOM     15  H12 UNL     1       5.877  -0.044  -0.443  1.00  0.00     0.159 HD
ATOM     16  H11 UNL     1       5.443   0.946   0.808  1.00  0.00     0.159 HD
ENDBRANCH   1  14
TORSDOF 4
