REMARK  2 active torsions:
REMARK  status: ('A' for Active; 'I' for Inactive)
REMARK    1  A    between atoms: N1_6  and  O1_8 
REMARK    2  A    between atoms: C6_11  and  C7_12 
ROOT
HETATM    1  C1  UNL     1       0.331  -1.585   1.280  1.00  0.00     0.015 C 
HETATM    2  C2  UNL     1       0.006  -0.909  -0.057  1.00  0.00    -0.041 C 
HETATM    3  C3  UNL     1      -0.346  -2.071  -0.996  1.00  0.00     0.015 C 
HETATM    4  C4  UNL     1       1.253  -0.322  -0.631  1.00  0.00     0.075 C 
HETATM    5  C5  UNL     1       1.563   1.032  -0.184  1.00  0.00     0.069 C 
HETATM    6  N1  UNL     1       2.733   1.341   0.146  1.00  0.00    -0.267 N 
ATOM      7  H1  UNL     1       3.418   0.588   0.076  1.00  0.00     0.194 HD
HETATM    8  S1  UNL     1       0.252   2.213  -0.123  1.00  0.00    -0.103 SA
HETATM    9  C6  UNL     1      -1.222   1.242  -0.642  1.00  0.00     0.115 C 
HETATM   10  C8  UNL     1      -1.181  -0.058   0.064  1.00  0.00     0.031 C 
ENDROOT
BRANCH   6  11
HETATM   11  O1  UNL     1       3.216   2.516   0.578  1.00  0.00    -0.289 OA
ATOM     12  H1  UNL     1       4.102   2.750   0.828  1.00  0.00     0.244 HD
ENDBRANCH   6  11
BRANCH   9  13
HETATM   13  C7  UNL     1      -2.434   1.993  -0.213  1.00  0.00     0.246 C 
HETATM   14  O2  UNL     1      -2.410   2.750   0.755  1.00  0.00    -0.306 OA
ENDBRANCH   9  13
TORSDOF 2
