REMARK  4 active torsions:
REMARK  status: ('A' for Active; 'I' for Inactive)
REMARK    1  A    between atoms: C2_2  and  O2_4 
REMARK    2  A    between atoms: O2_4  and  C3_5 
REMARK    3  A    between atoms: C12_15  and  O3_16 
REMARK    4  A    between atoms: C13_19  and  O5_20 
ROOT
HETATM    1  C3  UNL     1      -0.513   0.442  -0.472  1.00  0.00     0.188 C 
HETATM    2  C4  UNL     1       0.603   0.612  -1.364  1.00  0.00     0.051 C 
HETATM    3  C5  UNL     1       1.847  -0.162  -1.296  1.00  0.00     0.007 C 
HETATM    4  C6  UNL     1       2.945   0.574  -0.527  1.00  0.00    -0.018 C 
HETATM    5  C7  UNL     1       3.531   1.593  -1.476  1.00  0.00     0.010 C 
HETATM    6  C8  UNL     1       3.992  -0.380  -0.070  1.00  0.00     0.008 C 
HETATM    7  C9  UNL     1       3.573  -1.306   1.024  1.00  0.00     0.029 C 
HETATM    8  C10 UNL     1       3.375  -0.657   2.335  1.00  0.00     0.002 C 
HETATM    9  C11 UNL     1       2.237  -0.615   3.018  1.00  0.00     0.088 C 
HETATM   10 CL1  UNL     1       2.194   0.219   4.599  1.00  0.00    -0.080 Cl
HETATM   11  C12 UNL     1       0.970  -1.204   2.592  1.00  0.00     0.204 C 
HETATM   12  O4  UNL     1       0.320  -0.937   1.395  1.00  0.00    -0.264 OA
HETATM   13  C13 UNL     1      -0.340   0.201   0.983  1.00  0.00     0.324 C 
HETATM   14  O6  UNL     1      -1.716  -0.038   1.307  1.00  0.00    -0.318 OA
HETATM   15  C14 UNL     1      -1.982  -1.158   0.523  1.00  0.00     0.199 C 
HETATM   16  C15 UNL     1      -3.301  -1.040  -0.158  1.00  0.00     0.084 C 
HETATM   17  C16 UNL     1      -4.251  -0.013   0.423  1.00  0.00     0.048 C 
HETATM   18  C17 UNL     1      -4.039  -2.337  -0.399  1.00  0.00     0.048 C 
HETATM   19  O7  UNL     1      -2.609  -0.607  -1.299  1.00  0.00    -0.361 OA
HETATM   20  C18 UNL     1      -1.328  -0.835  -0.789  1.00  0.00     0.127 C 
HETATM   21  C19 UNL     1      -0.652  -1.915  -1.513  1.00  0.00     0.052 C 
ENDROOT
BRANCH   1  22
HETATM   22  O2  UNL     1      -1.462   1.444  -0.650  1.00  0.00    -0.299 OA
BRANCH  22  23
HETATM   23  C2  UNL     1      -1.433   2.769  -0.534  1.00  0.00     0.255 C 
HETATM   24  C1  UNL     1      -2.588   3.657  -0.780  1.00  0.00     0.126 C 
HETATM   25  O1  UNL     1      -0.355   3.270  -0.196  1.00  0.00    -0.266 OA
ENDBRANCH  22  23
ENDBRANCH   1  22
BRANCH  13  26
HETATM   26  O5  UNL     1       0.021   1.254   1.768  1.00  0.00    -0.340 OA
ATOM     27  H5  UNL     1       0.132   1.100   2.699  1.00  0.00     0.215 HD
ENDBRANCH  13  26
BRANCH  11  28
HETATM   28  O3  UNL     1       0.473  -2.039   3.461  1.00  0.00    -0.340 OA
ATOM     29  H3  UNL     1      -0.351  -2.422   3.184  1.00  0.00     0.220 HD
ENDBRANCH  11  28
TORSDOF 4
