REMARK  0 active torsions:
REMARK  status: ('A' for Active; 'I' for Inactive)
ROOT
HETATM    1 CL1  UNL     1      -4.504  -0.265  -2.183  1.00  0.00    -0.095 Cl
HETATM    2  C1  UNL     1      -4.449   0.162  -0.473  1.00  0.00     0.281 C 
HETATM    3  C2  UNL     1      -4.376  -1.021   0.439  1.00  0.00     0.051 C 
HETATM    4  C3  UNL     1      -4.263  -2.333  -0.264  1.00  0.00     0.029 C 
HETATM    5  C4  UNL     1      -3.197  -3.237   0.340  1.00  0.00     0.167 C 
HETATM    6  O1  UNL     1      -1.937  -2.978  -0.192  1.00  0.00    -0.389 OA
HETATM    7  C5  UNL     1      -1.146  -4.105   0.040  1.00  0.00     0.193 C 
HETATM    8  C6  UNL     1       0.295  -3.753   0.306  1.00  0.00     0.193 C 
HETATM    9  O2  UNL     1       1.129  -4.687  -0.329  1.00  0.00    -0.387 OA
HETATM   10  C7  UNL     1       2.155  -4.070  -1.037  1.00  0.00     0.193 C 
HETATM   11  C8  UNL     1       3.330  -3.728  -0.140  1.00  0.00     0.193 C 
HETATM   12  O3  UNL     1       3.756  -2.458  -0.483  1.00  0.00    -0.387 OA
HETATM   13  C9  UNL     1       3.625  -1.534   0.541  1.00  0.00     0.193 C 
HETATM   14  C10 UNL     1       4.525  -0.371   0.233  1.00  0.00     0.193 C 
HETATM   15  O4  UNL     1       3.836   0.848   0.202  1.00  0.00    -0.388 OA
HETATM   16  C11 UNL     1       4.591   1.720  -0.565  1.00  0.00     0.178 C 
HETATM   17  C12 UNL     1       4.515   3.135  -0.059  1.00  0.00     0.100 C 
HETATM   18  S1  UNL     1       2.955   3.929  -0.571  1.00  0.00    -0.166 SA
HETATM   19  C13 UNL     1       1.876   3.993   0.859  1.00  0.00     0.084 C 
HETATM   20  C14 UNL     1       0.606   4.738   0.619  1.00  0.00     0.084 C 
HETATM   21  S2  UNL     1      -0.512   3.806  -0.457  1.00  0.00    -0.168 SA
HETATM   22  C15 UNL     1      -2.197   4.405  -0.154  1.00  0.00     0.075 C 
HETATM   23  C16 UNL     1      -3.003   3.333   0.552  1.00  0.00     0.038 C 
HETATM   24  C17 UNL     1      -3.648   2.433  -0.491  1.00  0.00     0.235 C 
HETATM   25  N1  UNL     1      -3.318   1.053  -0.174  1.00  0.00    -0.058 N 
ATOM     26  H11 UNL     1      -2.465   0.751  -0.646  1.00  0.00     0.278 HD
ATOM     27  H12 UNL     1      -3.004   0.953   0.791  1.00  0.00     0.278 HD
ENDROOT
TORSDOF 0
