REMARK  5 active torsions:
REMARK  status: ('A' for Active; 'I' for Inactive)
REMARK    1  A    between atoms: C2_2  and  C3_3 
REMARK    2  A    between atoms: C2_2  and  C4_8 
REMARK    3  A    between atoms: C3_3  and  N1_4 
REMARK    4  A    between atoms: C4_8  and  O1_10 
REMARK    5  A    between atoms: O1_10  and  C6_11 
ROOT
HETATM    1  C6  UNL     1       2.899   0.599   0.123  1.00  0.00     0.091 A 
HETATM    2  C7  UNL     1       2.517   1.070  -1.111  1.00  0.00     0.039 A 
HETATM    3  C8  UNL     1       1.174   1.182  -1.392  1.00  0.00     0.011 A 
HETATM    4  C9  UNL     1       0.181   0.846  -0.501  1.00  0.00    -0.045 A 
HETATM    5  C10 UNL     1       0.560   0.377   0.728  1.00  0.00    -0.027 A 
HETATM    6  C11 UNL     1       1.881   0.252   1.046  1.00  0.00     0.074 A 
HETATM    7 CL1  UNL     1       2.304  -0.356   2.638  1.00  0.00    -0.081 Cl
HETATM    8  C12 UNL     1      -0.499   0.021   1.697  1.00  0.00     0.041 C 
HETATM    9  C13 UNL     1      -1.542   1.115   1.577  1.00  0.00     0.010 C 
HETATM   10  C14 UNL     1      -2.214   1.111   0.220  1.00  0.00    -0.001 C 
HETATM   11  C15 UNL     1      -1.251   0.985  -0.871  1.00  0.00     0.024 C 
HETATM   12  C16 UNL     1      -1.529  -0.148  -1.844  1.00  0.00     0.011 C 
HETATM   13  C17 UNL     1      -3.002   0.050  -2.236  1.00  0.00     0.014 C 
HETATM   14  C18 UNL     1      -3.754  -0.487  -1.023  1.00  0.00    -0.021 C 
HETATM   15  C19 UNL     1      -3.416  -1.986  -0.984  1.00  0.00     0.020 C 
HETATM   16  C20 UNL     1      -5.215  -0.415  -1.257  1.00  0.00     0.001 C 
HETATM   17  C21 UNL     1      -6.165  -0.694  -0.393  1.00  0.00     0.019 C 
HETATM   18  C22 UNL     1      -7.524  -0.548  -0.858  1.00  0.00     0.095 C 
HETATM   19  N2  UNL     1      -8.612  -0.448  -1.240  1.00  0.00    -0.192 NA
HETATM   20  C23 UNL     1      -6.054  -1.143   1.017  1.00  0.00     0.050 C 
HETATM   21  C24 UNL     1      -5.327  -0.060   1.790  1.00  0.00     0.006 C 
HETATM   22  C25 UNL     1      -4.585   0.874   0.858  1.00  0.00     0.006 C 
HETATM   23  C26 UNL     1      -3.376   0.177   0.238  1.00  0.00     0.002 C 
ENDROOT
BRANCH   1  24
HETATM   24  O1  UNL     1       4.192   0.434   0.544  1.00  0.00    -0.344 OA
BRANCH  24  25
HETATM   25  C4  UNL     1       5.331   0.709  -0.196  1.00  0.00     0.130 C 
HETATM   26  C5  UNL     1       6.141   1.802   0.482  1.00  0.00     0.040 C 
BRANCH  25  27
HETATM   27  C2  UNL     1       6.173  -0.537  -0.408  1.00  0.00     0.036 C 
HETATM   28  C1  UNL     1       5.241  -1.541  -1.093  1.00  0.00     0.014 C 
BRANCH  27  29
HETATM   29  C3  UNL     1       6.677  -1.143   0.867  1.00  0.00     0.236 C 
BRANCH  29  30
HETATM   30  N1  UNL     1       7.573  -0.272   1.594  1.00  0.00    -0.079 N 
ATOM     31  H13 UNL     1       8.348   0.027   1.003  1.00  0.00     0.274 HD
ATOM     32  H12 UNL     1       7.137   0.633   1.769  1.00  0.00     0.274 HD
ATOM     33  H11 UNL     1       7.916  -0.684   2.462  1.00  0.00     0.274 HD
ENDBRANCH  29  30
ENDBRANCH  27  29
ENDBRANCH  25  27
ENDBRANCH  24  25
ENDBRANCH   1  24
TORSDOF 5
