REMARK  6 active torsions:
REMARK  status: ('A' for Active; 'I' for Inactive)
REMARK    1  A    between atoms: N2_8  and  C5_9 
REMARK    2  A    between atoms: C5_9  and  C6_10 
REMARK    3  A    between atoms: C7_11  and  C8_12 
REMARK    4  A    between atoms: C8_12  and  C9_13 
REMARK    5  A    between atoms: C12_18  and  O2_19 
REMARK    6  A    between atoms: C13_21  and  O3_22 
ROOT
HETATM    1  C8  UNL     1      -1.355  -1.510  -0.092  1.00  0.00     0.038 C 
ENDROOT
BRANCH   1   2
HETATM    2  C7  UNL     1      -0.644  -1.322   1.172  1.00  0.00    -0.028 C 
HETATM    3  C6  UNL     1       0.646  -1.344   1.334  1.00  0.00    -0.010 C 
BRANCH   3   4
HETATM    4  C5  UNL     1       1.591  -1.566   0.240  1.00  0.00     0.164 C 
BRANCH   4   5
HETATM    5  N2  UNL     1       2.507  -0.430   0.069  1.00  0.00    -0.265 N 
HETATM    6  C4  UNL     1       2.284   0.702  -0.769  1.00  0.00     0.326 C 
HETATM    7  N1  UNL     1       3.420   1.584  -0.652  1.00  0.00    -0.325 N 
HETATM    8  O1  UNL     1       1.264   0.885  -1.484  1.00  0.00    -0.247 OA
HETATM    9  C2  UNL     1       4.493   0.743  -0.185  1.00  0.00     0.108 C 
ATOM     10  H1  UNL     1       3.456   2.583  -0.855  1.00  0.00     0.165 HD
HETATM   11  C1  UNL     1       5.075  -0.010  -1.341  1.00  0.00     0.049 C 
HETATM   12  C3  UNL     1       5.523   1.507   0.608  1.00  0.00     0.049 C 
HETATM   13  C15 UNL     1       3.772  -0.225   0.686  1.00  0.00     0.255 C 
HETATM   14  O4  UNL     1       4.153  -0.776   1.752  1.00  0.00    -0.270 OA
ENDBRANCH   4   5
ENDBRANCH   3   4
ENDBRANCH   1   2
BRANCH   1  15
HETATM   15  C9  UNL     1      -2.159  -0.210  -0.310  1.00  0.00     0.047 C 
HETATM   16  C10 UNL     1      -2.924  -0.306  -1.587  1.00  0.00     0.010 C 
HETATM   17 BR1  UNL     1      -1.917  -0.761  -3.161  1.00  0.00    -0.054 Br
HETATM   18  C11 UNL     1      -4.212  -0.095  -1.657  1.00  0.00     0.033 C 
HETATM   19 BR2  UNL     1      -5.078  -0.250  -3.361  1.00  0.00    -0.052 Br
HETATM   20  C12 UNL     1      -5.058   0.262  -0.480  1.00  0.00     0.189 C 
HETATM   21  C13 UNL     1      -4.148   0.991   0.495  1.00  0.00     0.167 C 
HETATM   22  C14 UNL     1      -3.051  -0.009   0.872  1.00  0.00     0.098 C 
HETATM   23 BR3  UNL     1      -3.964  -1.642   1.377  1.00  0.00    -0.088 Br
BRANCH  20  24
HETATM   24  O2  UNL     1      -6.022   1.195  -0.887  1.00  0.00    -0.388 OA
ATOM     25  H2  UNL     1      -6.560   1.422  -0.138  1.00  0.00     0.210 HD
ENDBRANCH  20  24
BRANCH  21  26
HETATM   26  O3  UNL     1      -4.918   1.263   1.627  1.00  0.00    -0.391 OA
ATOM     27  H3  UNL     1      -4.349   1.719   2.236  1.00  0.00     0.210 HD
ENDBRANCH  21  26
ENDBRANCH   1  15
TORSDOF 6
