REMARK  7 active torsions:
REMARK  status: ('A' for Active; 'I' for Inactive)
REMARK    1  A    between atoms: S1_2  and  N1_5 
REMARK    2  A    between atoms: N1_5  and  C2_7 
REMARK    3  A    between atoms: C5_14  and  C6_15 
REMARK    4  A    between atoms: C6_15  and  C7_16 
REMARK    5  A    between atoms: C7_16  and  C8_17 
REMARK    6  A    between atoms: C10_19  and  O3_20 
REMARK    7  A    between atoms: C11_22  and  O4_23 
ROOT
HETATM    1  C2  UNL     1       3.204   0.130   0.346  1.00  0.00     0.133 A 
HETATM    2  N2  UNL     1       3.610  -0.961  -0.321  1.00  0.00    -0.334 N 
ATOM      3  H2  UNL     1       4.562  -0.977  -0.686  1.00  0.00     0.168 HD
HETATM    4  C3  UNL     1       2.826  -2.040  -0.535  1.00  0.00     0.099 A 
HETATM    5 BR1  UNL     1       3.477  -3.569  -1.501  1.00  0.00    -0.030 Br
HETATM    6  C4  UNL     1       1.524  -2.089  -0.068  1.00  0.00     0.052 A 
HETATM    7 BR2  UNL     1       0.427  -3.630  -0.374  1.00  0.00    -0.048 Br
HETATM    8  C5  UNL     1       1.079  -0.981   0.623  1.00  0.00    -0.017 A 
HETATM    9  C13 UNL     1       1.907   0.110   0.825  1.00  0.00     0.063 A 
HETATM   10 BR3  UNL     1       1.193   1.609   1.802  1.00  0.00    -0.046 Br
ENDROOT
BRANCH   8  11
HETATM   11  C6  UNL     1      -0.318  -1.011   1.129  1.00  0.00     0.042 C 
BRANCH  11  12
HETATM   12  C7  UNL     1      -1.314  -0.761   0.019  1.00  0.00     0.009 C 
BRANCH  12  13
HETATM   13  C8  UNL     1      -2.726  -0.797   0.566  1.00  0.00    -0.009 C 
HETATM   14  C9  UNL     1      -3.715  -0.548  -0.538  1.00  0.00     0.039 C 
HETATM   15  C10 UNL     1      -4.747   0.412  -0.023  1.00  0.00     0.147 C 
HETATM   16  C11 UNL     1      -4.394   0.639   1.421  1.00  0.00     0.147 C 
HETATM   17  C12 UNL     1      -2.909   0.423   1.450  1.00  0.00     0.039 C 
BRANCH  15  18
HETATM   18  O3  UNL     1      -4.703   1.612  -0.759  1.00  0.00    -0.393 OA
ATOM     19  H3  UNL     1      -5.356   2.220  -0.433  1.00  0.00     0.210 HD
ENDBRANCH  15  18
BRANCH  16  20
HETATM   20  O4  UNL     1      -4.743   1.919   1.865  1.00  0.00    -0.393 OA
ATOM     21  H4  UNL     1      -4.520   2.062   2.777  1.00  0.00     0.210 HD
ENDBRANCH  16  20
ENDBRANCH  12  13
ENDBRANCH  11  12
ENDBRANCH   8  11
BRANCH   1  22
HETATM   22  N1  UNL     1       3.931   1.168   0.562  1.00  0.00    -0.269 N 
ATOM     23  H1  UNL     1       3.506   1.934   1.084  1.00  0.00     0.180 HD
BRANCH  22  24
HETATM   24  S1  UNL     1       5.551   1.375   0.049  1.00  0.00     0.228 S 
HETATM   25  C1  UNL     1       5.564   1.571  -1.713  1.00  0.00     0.186 C 
HETATM   26  O1  UNL     1       6.389   0.192   0.452  1.00  0.00    -0.206 OA
HETATM   27  O2  UNL     1       6.093   2.627   0.722  1.00  0.00    -0.206 OA
ENDBRANCH  22  24
ENDBRANCH   1  22
TORSDOF 7
