REMARK  7 active torsions:
REMARK  status: ('A' for Active; 'I' for Inactive)
REMARK    1  A    between atoms: C2_2  and  C3_3 
REMARK    2  A    between atoms: C3_3  and  N1_4 
REMARK    3  A    between atoms: N1_4  and  C4_6 
REMARK    4  A    between atoms: C4_6  and  C5_10 
REMARK    5  A    between atoms: C7_12  and  O1_13 
REMARK    6  A    between atoms: C8_15  and  O2_16 
REMARK    7  A    between atoms: C20_29  and  C22_31 
ROOT
HETATM    1  C5  UNL     1      -0.761   0.840   0.251  1.00  0.00     0.061 C 
HETATM    2  C6  UNL     1      -2.094   0.149   0.027  1.00  0.00     0.053 C 
HETATM    3  C7  UNL     1      -1.857  -0.922  -1.043  1.00  0.00     0.089 C 
HETATM    4  C8  UNL     1      -3.112  -1.298  -1.739  1.00  0.00     0.153 C 
HETATM    5  C9  UNL     1      -3.735  -2.592  -1.449  1.00  0.00     0.039 C 
HETATM    6  C10 UNL     1      -2.932  -3.568  -0.653  1.00  0.00    -0.016 C 
HETATM    7  C11 UNL     1      -3.902  -4.555   0.013  1.00  0.00     0.010 C 
HETATM    8  C12 UNL     1      -2.127  -2.859   0.399  1.00  0.00     0.012 C 
HETATM    9  C13 UNL     1      -1.113  -2.003  -0.370  1.00  0.00     0.031 C 
HETATM   10  C14 UNL     1      -0.084  -1.573   0.607  1.00  0.00    -0.033 C 
HETATM   11  C15 UNL     1      -0.420  -1.990   2.036  1.00  0.00     0.016 C 
HETATM   12  C16 UNL     1       1.181  -2.400   0.301  1.00  0.00     0.010 C 
HETATM   13  C17 UNL     1       2.341  -1.943   1.126  1.00  0.00     0.006 C 
HETATM   14  C18 UNL     1       2.728  -0.559   0.666  1.00  0.00    -0.009 C 
HETATM   15  C19 UNL     1       3.971  -0.634  -0.177  1.00  0.00     0.025 C 
HETATM   16  C20 UNL     1       4.414   0.770  -0.479  1.00  0.00     0.045 C 
HETATM   17  C21 UNL     1       4.903   1.400   0.805  1.00  0.00     0.027 C 
HETATM   18  C23 UNL     1       3.330   1.548  -1.137  1.00  0.00     0.020 C 
HETATM   19  C24 UNL     1       2.003   1.473  -0.422  1.00  0.00     0.007 C 
HETATM   20  C25 UNL     1       1.617   0.055  -0.213  1.00  0.00    -0.005 C 
HETATM   21  C26 UNL     1       0.341  -0.134   0.569  1.00  0.00     0.010 C 
ENDROOT
BRANCH   1  22
HETATM   22  C4  UNL     1      -1.042   1.776   1.407  1.00  0.00     0.075 C 
HETATM   23  N2  UNL     1      -1.734   1.409   2.424  1.00  0.00    -0.389 N 
ATOM     24  H22 UNL     1      -1.923   2.040   3.203  1.00  0.00     0.157 HD
ATOM     25  H21 UNL     1      -2.083   0.451   2.387  1.00  0.00     0.157 HD
BRANCH  22  26
HETATM   26  N1  UNL     1      -0.557   3.105   1.458  1.00  0.00    -0.380 N 
ATOM     27  H1  UNL     1       0.442   3.277   1.571  1.00  0.00     0.160 HD
BRANCH  26  28
HETATM   28  C3  UNL     1      -1.470   4.218   1.351  1.00  0.00     0.120 C 
BRANCH  28  29
HETATM   29  C2  UNL     1      -2.032   4.255  -0.042  1.00  0.00     0.015 C 
HETATM   30  C1  UNL     1      -2.989   5.408  -0.135  1.00  0.00     0.006 C 
ENDBRANCH  28  29
ENDBRANCH  26  28
ENDBRANCH  22  26
ENDBRANCH   1  22
BRANCH   3  31
HETATM   31  O1  UNL     1      -1.038  -0.299  -1.986  1.00  0.00    -0.387 OA
ATOM     32  H1  UNL     1      -0.891  -0.963  -2.649  1.00  0.00     0.210 HD
ENDBRANCH   3  31
BRANCH   4  33
HETATM   33  O2  UNL     1      -2.981  -1.178  -3.146  1.00  0.00    -0.393 OA
ATOM     34  H2  UNL     1      -3.785  -1.419  -3.592  1.00  0.00     0.210 HD
ENDBRANCH   4  33
BRANCH  16  35
HETATM   35  C22 UNL     1       5.582   0.713  -1.394  1.00  0.00     0.181 C 
HETATM   36  O3  UNL     1       6.051  -0.416  -1.761  1.00  0.00    -0.647 OA
HETATM   37  O4  UNL     1       6.219   1.836  -1.893  1.00  0.00    -0.647 OA
ENDBRANCH  16  35
TORSDOF 7
