REMARK  5 active torsions:
REMARK  status: ('A' for Active; 'I' for Inactive)
REMARK    1  A    between atoms: C1_2  and  C2_3 
REMARK       I    between atoms: C1_2  and  N3_28 
REMARK    2  A    between atoms: C2_3  and  C3_4 
REMARK    3  A    between atoms: C11_15  and  C12_16 
REMARK    4  A    between atoms: N3_28  and  C19_30 
REMARK    5  A    between atoms: C19_30  and  C20_31 
ROOT
HETATM    1  C3  UNL     1       0.694   0.456   0.946  1.00  0.00     0.194 C 
HETATM    2  C4  UNL     1       0.461   1.626   0.019  1.00  0.00     0.033 C 
HETATM    3  C5  UNL     1      -0.921   2.174   0.334  1.00  0.00     0.002 C 
HETATM    4  C6  UNL     1      -1.574   2.804  -0.873  1.00  0.00     0.000 C 
HETATM    5  C7  UNL     1      -2.810   3.520  -0.400  1.00  0.00     0.000 C 
HETATM    6  C8  UNL     1      -4.088   2.818  -0.851  1.00  0.00     0.009 C 
HETATM    7  C9  UNL     1      -4.437   1.700   0.075  1.00  0.00     0.103 C 
HETATM    8  C10 UNL     1      -5.883   1.669   0.418  1.00  0.00     0.218 C 
HETATM    9  O2  UNL     1      -6.490   2.768   0.227  1.00  0.00    -0.274 OA
HETATM   10  N1  UNL     1      -6.587   0.549   0.918  1.00  0.00    -0.347 N 
ATOM     11  H1  UNL     1      -7.190   0.707   1.726  1.00  0.00     0.163 HD
HETATM   12  C11 UNL     1      -6.535  -0.795   0.396  1.00  0.00     0.185 C 
HETATM   13  C13 UNL     1      -5.462  -1.627   1.024  1.00  0.00     0.036 C 
HETATM   14  C14 UNL     1      -4.551  -2.306   0.026  1.00  0.00     0.002 C 
HETATM   15  C15 UNL     1      -3.243  -2.635   0.763  1.00  0.00     0.000 C 
HETATM   16  C16 UNL     1      -2.202  -2.904  -0.312  1.00  0.00     0.002 C 
HETATM   17  C17 UNL     1      -1.339  -1.653  -0.510  1.00  0.00     0.027 C 
HETATM   18  C18 UNL     1      -0.213  -1.733   0.500  1.00  0.00     0.232 C 
HETATM   19  N2  UNL     1       0.842  -0.788   0.215  1.00  0.00    -0.070 N 
ATOM     20  H21 UNL     1       1.759  -1.203   0.381  1.00  0.00     0.277 HD
ATOM     21  H22 UNL     1       0.918  -0.616  -0.788  1.00  0.00     0.277 HD
ENDROOT
BRANCH   1  22
HETATM   22  C2  UNL     1       1.917   0.765   1.779  1.00  0.00     0.135 C 
BRANCH  22  23
HETATM   23  C1  UNL     1       3.118   0.961   0.888  1.00  0.00     0.219 C 
HETATM   24  O1  UNL     1       2.966   0.851  -0.352  1.00  0.00    -0.274 OA
HETATM   25  N3  UNL     1       4.384   1.259   1.409  1.00  0.00    -0.361 N 
ATOM     26  H3  UNL     1       4.416   1.342   2.425  1.00  0.00     0.162 HD
BRANCH  25  27
HETATM   27  C19 UNL     1       5.625   1.464   0.762  1.00  0.00     0.127 C 
BRANCH  27  28
HETATM   28  C20 UNL     1       6.283   0.399   0.020  1.00  0.00     0.003 C 
HETATM   29  C21 UNL     1       6.601  -0.827   0.869  1.00  0.00     0.006 C 
HETATM   30  C22 UNL     1       7.031  -1.979  -0.021  1.00  0.00     0.000 C 
HETATM   31  C23 UNL     1       7.759  -1.481  -1.247  1.00  0.00     0.000 C 
HETATM   32  C24 UNL     1       6.911  -0.595  -2.132  1.00  0.00     0.000 C 
HETATM   33  C25 UNL     1       5.766   0.024  -1.319  1.00  0.00     0.006 C 
ENDBRANCH  27  28
ENDBRANCH  25  27
ENDBRANCH  22  23
ENDBRANCH   1  22
BRANCH  12  34
HETATM   34  C12 UNL     1      -6.492  -0.837  -1.076  1.00  0.00     0.196 C 
HETATM   35  O3  UNL     1      -6.485   0.231  -1.782  1.00  0.00    -0.646 OA
HETATM   36  O4  UNL     1      -6.456  -2.006  -1.820  1.00  0.00    -0.646 OA
ENDBRANCH  12  34
TORSDOF 5
