REMARK  0 active torsions:
REMARK  status: ('A' for Active; 'I' for Inactive)
ROOT
HETATM    1  C1  UNL     1       1.937   0.331   0.144  1.00  0.00     0.010 C 
HETATM    2  C2  UNL     1       0.476   0.560   0.272  1.00  0.00    -0.014 C 
HETATM    3  C3  UNL     1      -0.290  -0.362   1.174  1.00  0.00     0.009 C 
HETATM    4  C4  UNL     1      -1.193  -0.786   0.054  1.00  0.00    -0.009 A 
HETATM    5  C5  UNL     1      -1.735   0.249  -0.910  1.00  0.00     0.010 A 
HETATM    6  C6  UNL     1      -0.301  -0.051  -0.900  1.00  0.00    -0.006 A 
ENDROOT
TORSDOF 0
