REMARK  12 active torsions:
REMARK  status: ('A' for Active; 'I' for Inactive)
REMARK    1  A    between atoms: C1_2  and  C2_4 
REMARK    2  A    between atoms: C2_4  and  C3_5 
REMARK    3  A    between atoms: C6_8  and  C7_9 
REMARK    4  A    between atoms: C7_9  and  N2_10 
REMARK    5  A    between atoms: C10_16  and  S1_17 
REMARK    6  A    between atoms: S1_17  and  C11_18 
REMARK    7  A    between atoms: C17_24  and  N4_25 
REMARK    8  A    between atoms: N4_25  and  C18_27 
REMARK    9  A    between atoms: N5_30  and  C21_31 
REMARK   10  A    between atoms: C21_31  and  C22_32 
REMARK   11  A    between atoms: C22_32  and  O2_33 
REMARK   12  A    between atoms: O2_33  and  C23_34 
ROOT
HETATM    1  N2  UNL     1      -2.300  -0.866   1.865  1.00  0.00    -0.226 N 
ATOM      2  H2  UNL     1      -3.190  -1.364   1.843  1.00  0.00     0.177 HD
HETATM    3  C8  UNL     1      -1.252  -1.557   1.658  1.00  0.00     0.679 A 
HETATM    4  N3  UNL     1      -1.392  -2.897   1.421  1.00  0.00    -0.201 N 
ATOM      5  H3  UNL     1      -2.334  -3.289   1.411  1.00  0.00     0.183 HD
HETATM    6  C9  UNL     1      -0.363  -3.721   1.202  1.00  0.00     0.129 A 
HETATM    7  C10 UNL     1       0.930  -3.254   1.203  1.00  0.00     0.066 A 
HETATM    8  C17 UNL     1       1.094  -1.883   1.445  1.00  0.00     0.136 A 
HETATM    9  N7  UNL     1       0.024  -1.103   1.658  1.00  0.00    -0.176 N 
ATOM     10  H7  UNL     1       0.180  -0.110   1.830  1.00  0.00     0.186 HD
ENDROOT
BRANCH   1  11
HETATM   11  C7  UNL     1      -2.356   0.534   2.125  1.00  0.00     0.143 C 
BRANCH  11  12
HETATM   12  C6  UNL     1      -3.459   1.180   1.293  1.00  0.00     0.008 C 
HETATM   13  C5  UNL     1      -3.109   0.912  -0.146  1.00  0.00     0.007 C 
HETATM   14  C4  UNL     1      -3.677   1.895  -1.111  1.00  0.00     0.010 C 
HETATM   15  C3  UNL     1      -5.174   1.679  -1.308  1.00  0.00     0.027 C 
HETATM   16  C32 UNL     1      -5.582   0.359  -0.756  1.00  0.00    -0.047 A 
HETATM   17  C27 UNL     1      -5.415  -0.122   0.525  1.00  0.00    -0.051 A 
HETATM   18  C31 UNL     1      -6.201  -0.452  -1.679  1.00  0.00     0.008 A 
HETATM   19  C26 UNL     1      -4.762   0.562   1.696  1.00  0.00     0.045 C 
HETATM   20  C28 UNL     1      -5.859  -1.381   0.864  1.00  0.00     0.007 A 
HETATM   21  C29 UNL     1      -6.483  -2.212  -0.045  1.00  0.00     0.001 A 
HETATM   22  C30 UNL     1      -6.632  -1.698  -1.317  1.00  0.00     0.001 A 
BRANCH  15  23
HETATM   23  C2  UNL     1      -5.858   2.844  -0.652  1.00  0.00     0.108 C 
BRANCH  23  24
HETATM   24  C1  UNL     1      -7.316   2.846  -0.727  1.00  0.00     0.231 C 
HETATM   25  N1  UNL     1      -7.988   3.948  -0.085  1.00  0.00    -0.062 NA
HETATM   26  O1  UNL     1      -7.988   1.980  -1.293  1.00  0.00    -0.277 OA
ENDBRANCH  23  24
ENDBRANCH  15  23
ENDBRANCH  11  12
ENDBRANCH   1  11
BRANCH   8  27
HETATM   27  N4  UNL     1       2.273  -1.434   1.462  1.00  0.00    -0.370 N 
ATOM     28  H4  UNL     1       3.021  -2.107   1.296  1.00  0.00     0.161 HD
BRANCH  27  29
HETATM   29  C18 UNL     1       2.670  -0.078   1.690  1.00  0.00     0.086 C 
HETATM   30  C19 UNL     1       3.926  -0.134   2.548  1.00  0.00     0.055 C 
HETATM   31  C20 UNL     1       4.793   1.044   2.156  1.00  0.00     0.274 C 
HETATM   32  N5  UNL     1       5.343   0.844   0.819  1.00  0.00     0.090 N 
HETATM   33  C24 UNL     1       4.282   0.624  -0.138  1.00  0.00     0.274 C 
HETATM   34  C25 UNL     1       2.906   0.698   0.441  1.00  0.00     0.055 C 
BRANCH  32  35
HETATM   35  C21 UNL     1       6.253   1.901   0.463  1.00  0.00     0.299 C 
BRANCH  35  36
HETATM   36  C22 UNL     1       6.905   1.697  -0.881  1.00  0.00     0.210 C 
BRANCH  36  37
HETATM   37  O2  UNL     1       7.797   2.690  -1.262  1.00  0.00    -0.305 OA
BRANCH  37  38
HETATM   38  C23 UNL     1       7.453   3.994  -1.450  1.00  0.00     0.372 C 
HETATM   39  N6  UNL     1       8.393   5.004  -1.838  1.00  0.00    -0.032 NA
HETATM   40  O3  UNL     1       6.283   4.375  -1.290  1.00  0.00    -0.242 OA
ENDBRANCH  37  38
ENDBRANCH  36  37
ENDBRANCH  35  36
ENDBRANCH  32  35
ENDBRANCH  27  29
ENDBRANCH   8  27
BRANCH   7  41
HETATM   41  S1  UNL     1       2.329  -4.324   0.912  1.00  0.00    -0.085 SA
BRANCH  41  42
HETATM   42  C11 UNL     1       2.724  -4.426  -0.818  1.00  0.00     0.005 A 
HETATM   43  C12 UNL     1       2.113  -5.427  -1.560  1.00  0.00     0.019 A 
HETATM   44  C13 UNL     1       2.385  -5.545  -2.911  1.00  0.00     0.001 A 
HETATM   45  C14 UNL     1       3.267  -4.644  -3.468  1.00  0.00     0.000 A 
HETATM   46  C15 UNL     1       3.872  -3.646  -2.713  1.00  0.00     0.001 A 
HETATM   47  C16 UNL     1       3.606  -3.523  -1.366  1.00  0.00     0.019 A 
ENDBRANCH  41  42
ENDBRANCH   7  41
TORSDOF 12
