REMARK  12 active torsions:
REMARK  status: ('A' for Active; 'I' for Inactive)
REMARK    1  A    between atoms: C2_2  and  C3_3 
REMARK    2  A    between atoms: C3_3  and  C5_5 
REMARK    3  A    between atoms: C5_5  and  C6_6 
REMARK    4  A    between atoms: C6_6  and  N1_7 
REMARK    5  A    between atoms: N1_7  and  C7_9 
REMARK    6  A    between atoms: C8_12  and  N3_13 
REMARK    7  A    between atoms: C10_15  and  C11_16 
REMARK    8  A    between atoms: C11_16  and  N4_17 
REMARK       I    between atoms: N4_17  and  C12_19 
REMARK       I    between atoms: C12_19  and  N5_21 
REMARK    9  A    between atoms: C17_29  and  N6_30 
REMARK   10  A    between atoms: N7_36  and  C23_37 
REMARK   11  A    between atoms: C23_37  and  C24_38 
REMARK   12  A    between atoms: C24_38  and  O4_39 
ROOT
HETATM    1  C7  UNL     1      -1.235  -2.548  -0.406  1.00  0.00     0.681 A 
HETATM    2  N2  UNL     1      -2.322  -1.854  -0.155  1.00  0.00    -0.173 N 
ATOM      3  H2  UNL     1      -3.218  -2.340  -0.183  1.00  0.00     0.186 HD
HETATM    4  C8  UNL     1      -2.324  -0.523   0.140  1.00  0.00     0.170 A 
HETATM    5  C16 UNL     1      -1.106   0.105   0.168  1.00  0.00     0.205 A 
HETATM    6  F1  UNL     1      -1.050   1.424   0.452  1.00  0.00    -0.198 F 
HETATM    7  C17 UNL     1       0.067  -0.600  -0.094  1.00  0.00     0.162 A 
HETATM    8  N8  UNL     1      -0.027  -1.907  -0.375  1.00  0.00    -0.174 N 
ATOM      9  H8  UNL     1       0.823  -2.436  -0.570  1.00  0.00     0.186 HD
ENDROOT
BRANCH   7  10
HETATM   10  N6  UNL     1       1.334   0.026  -0.054  1.00  0.00    -0.364 N 
HETATM   11  C18 UNL     1       2.196  -0.015   1.114  1.00  0.00     0.125 C 
HETATM   12  C19 UNL     1       3.114   1.187   1.163  1.00  0.00     0.029 C 
HETATM   13  C20 UNL     1       4.016   1.246  -0.053  1.00  0.00    -0.035 C 
HETATM   14  C21 UNL     1       5.260   0.419   0.208  1.00  0.00     0.029 C 
HETATM   15  C27 UNL     1       4.366   2.681  -0.296  1.00  0.00     0.029 C 
HETATM   16  C28 UNL     1       3.316   0.653  -1.246  1.00  0.00     0.029 C 
HETATM   17  C22 UNL     1       6.280   1.264   0.951  1.00  0.00     0.117 C 
HETATM   18  N7  UNL     1       6.691   2.409   0.215  1.00  0.00    -0.410 N 
HETATM   19  C26 UNL     1       5.782   2.891  -0.770  1.00  0.00     0.117 C 
HETATM   20  C29 UNL     1       1.831   0.762  -1.195  1.00  0.00     0.125 C 
BRANCH  18  21
HETATM   21  C23 UNL     1       8.079   2.478  -0.128  1.00  0.00     0.143 C 
BRANCH  21  22
HETATM   22  C24 UNL     1       8.519   1.462  -1.122  1.00  0.00     0.186 C 
BRANCH  22  23
HETATM   23  O4  UNL     1       9.848   1.598  -1.408  1.00  0.00    -0.394 OA
HETATM   24  C25 UNL     1      10.726   1.461  -0.369  1.00  0.00     0.201 C 
ENDBRANCH  22  23
ENDBRANCH  21  22
ENDBRANCH  18  21
ENDBRANCH   7  10
BRANCH   4  25
HETATM   25  N3  UNL     1      -3.524   0.198   0.418  1.00  0.00    -0.274 N 
HETATM   26  C9  UNL     1      -3.947   0.800   1.655  1.00  0.00     0.170 C 
HETATM   27  C10 UNL     1      -5.176   1.575   1.297  1.00  0.00     0.170 C 
HETATM   28  O2  UNL     1      -5.679   0.933   0.155  1.00  0.00    -0.295 OA
HETATM   29  C15 UNL     1      -4.545   0.447  -0.529  1.00  0.00     0.369 C 
HETATM   30  O3  UNL     1      -4.477   0.271  -1.782  1.00  0.00    -0.238 OA
BRANCH  27  31
HETATM   31  C11 UNL     1      -4.779   2.985   0.919  1.00  0.00     0.158 C 
BRANCH  31  32
HETATM   32  N4  UNL     1      -5.872   3.772   0.441  1.00  0.00    -0.340 N 
HETATM   33  C12 UNL     1      -5.663   5.115   0.052  1.00  0.00     0.317 C 
HETATM   34  O1  UNL     1      -4.487   5.580   0.136  1.00  0.00    -0.247 OA
HETATM   35  N5  UNL     1      -6.693   5.959  -0.423  1.00  0.00    -0.343 N 
HETATM   36  C13 UNL     1      -6.353   7.330  -0.791  1.00  0.00     0.154 C 
HETATM   37  C14 UNL     1      -8.078   5.582  -0.580  1.00  0.00     0.154 C 
ATOM     38  H4  UNL     1      -6.805   3.364   0.380  1.00  0.00     0.164 HD
ENDBRANCH  31  32
ENDBRANCH  27  31
ENDBRANCH   4  25
BRANCH   1  39
HETATM   39  N1  UNL     1      -1.188  -3.793  -0.677  1.00  0.00    -0.226 N 
ATOM     40  H1  UNL     1      -0.298  -4.257  -0.860  1.00  0.00     0.177 HD
BRANCH  39  41
HETATM   41  C6  UNL     1      -2.446  -4.535  -0.717  1.00  0.00     0.138 C 
BRANCH  41  42
HETATM   42  C5  UNL     1      -2.176  -5.841   0.002  1.00  0.00     0.024 C 
BRANCH  42  43
HETATM   43  C3  UNL     1      -3.396  -6.733   0.039  1.00  0.00    -0.017 C 
HETATM   44  C4  UNL     1      -3.773  -7.057  -1.390  1.00  0.00     0.010 C 
BRANCH  43  45
HETATM   45  C2  UNL     1      -2.970  -7.994   0.787  1.00  0.00    -0.000 C 
HETATM   46  C1  UNL     1      -4.045  -9.034   0.852  1.00  0.00     0.005 C 
ENDBRANCH  43  45
ENDBRANCH  42  43
ENDBRANCH  41  42
ENDBRANCH  39  41
ENDBRANCH   1  39
TORSDOF 12
