REMARK  11 active torsions:
REMARK  status: ('A' for Active; 'I' for Inactive)
REMARK    1  A    between atoms: C5_5  and  C6_6 
REMARK       I    between atoms: C6_6  and  N1_8 
REMARK    2  A    between atoms: N1_8  and  C7_10 
REMARK    3  A    between atoms: C7_10  and  C8_11 
REMARK    4  A    between atoms: C7_10  and  C12_19 
REMARK    5  A    between atoms: C8_11  and  N2_12 
REMARK    6  A    between atoms: C12_19  and  C13_21 
REMARK       I    between atoms: C13_21  and  N4_23 
REMARK    7  A    between atoms: C18_29  and  C19_30 
REMARK       I    between atoms: C19_30  and  N5_32 
REMARK    8  A    between atoms: N5_32  and  C20_34 
REMARK    9  A    between atoms: C20_34  and  C21_35 
REMARK   10  A    between atoms: C20_34  and  C25_41 
REMARK   11  A    between atoms: C21_35  and  C22_37 
ROOT
HETATM    1  C13 UNL     1       0.001   1.170   0.285  1.00  0.00     0.293 C 
HETATM    2  O3  UNL     1      -0.269   1.229  -0.974  1.00  0.00    -0.264 OA
HETATM    3  N4  UNL     1      -1.078   1.524   1.128  1.00  0.00    -0.322 N 
HETATM    4  C14 UNL     1      -1.028   1.526   2.572  1.00  0.00     0.202 C 
HETATM    5  S1  UNL     1      -1.772   3.193   2.868  1.00  0.00    -0.137 SA
HETATM    6  C15 UNL     1      -2.884   3.123   1.402  1.00  0.00     0.032 C 
HETATM    7  C16 UNL     1      -4.269   3.091   1.971  1.00  0.00     0.029 C 
HETATM    8  C17 UNL     1      -2.617   4.423   0.656  1.00  0.00     0.029 C 
HETATM    9  C18 UNL     1      -2.411   1.939   0.683  1.00  0.00     0.198 C 
ENDROOT
BRANCH   1  10
HETATM   10  C12 UNL     1       1.323   0.767   0.613  1.00  0.00     0.240 C 
HETATM   11  O2  UNL     1       1.697   0.653   1.807  1.00  0.00    -0.285 OA
BRANCH  10  12
HETATM   12  C7  UNL     1       2.383   0.443  -0.403  1.00  0.00     0.182 C 
BRANCH  12  13
HETATM   13  N1  UNL     1       3.613   0.046   0.258  1.00  0.00    -0.347 N 
HETATM   14  C6  UNL     1       4.186  -1.224   0.250  1.00  0.00     0.222 C 
HETATM   15  O1  UNL     1       3.633  -2.160  -0.384  1.00  0.00    -0.273 OA
ATOM     16  H1  UNL     1       4.107   0.769   0.781  1.00  0.00     0.163 HD
BRANCH  14  17
HETATM   17  C5  UNL     1       5.446  -1.498   0.981  1.00  0.00     0.078 C 
HETATM   18  C4  UNL     1       5.905  -2.924   0.873  1.00  0.00     0.014 C 
HETATM   19  C3  UNL     1       7.164  -2.963   0.018  1.00  0.00     0.005 C 
HETATM   20  C2  UNL     1       8.273  -2.310   0.815  1.00  0.00    -0.019 C 
HETATM   21  C1  UNL     1       9.501  -2.141  -0.085  1.00  0.00     0.010 C 
HETATM   22  C29 UNL     1       7.801  -0.977   1.323  1.00  0.00     0.005 C 
HETATM   23  C28 UNL     1       6.541  -0.522   0.640  1.00  0.00     0.014 C 
ENDBRANCH  14  17
ENDBRANCH  12  13
BRANCH  12  24
HETATM   24  C8  UNL     1       2.663   1.626  -1.263  1.00  0.00     0.162 C 
BRANCH  24  25
HETATM   25  N2  UNL     1       3.639   1.385  -2.302  1.00  0.00    -0.346 N 
HETATM   26  C9  UNL     1       3.463   0.941  -3.549  1.00  0.00     0.185 A 
HETATM   27  N3  UNL     1       4.638   0.873  -4.189  1.00  0.00    -0.328 N 
HETATM   28  C10 UNL     1       5.591   1.283  -3.335  1.00  0.00     0.204 A 
ATOM     29  H3  UNL     1       4.783   0.566  -5.151  1.00  0.00     0.169 HD
HETATM   30  F1  UNL     1       6.898   1.335  -3.662  1.00  0.00    -0.185 F 
HETATM   31  C11 UNL     1       4.952   1.602  -2.154  1.00  0.00     0.153 A 
ENDBRANCH  24  25
ENDBRANCH  12  24
ENDBRANCH  10  12
ENDBRANCH   1  10
BRANCH   9  32
HETATM   32  C19 UNL     1      -3.321   0.817   0.658  1.00  0.00     0.242 C 
HETATM   33  O4  UNL     1      -2.929  -0.284   1.181  1.00  0.00    -0.271 OA
HETATM   34  N5  UNL     1      -4.622   0.776   0.110  1.00  0.00    -0.347 N 
ATOM     35  H5  UNL     1      -4.986   1.631  -0.311  1.00  0.00     0.163 HD
BRANCH  34  36
HETATM   36  C20 UNL     1      -5.474  -0.393   0.104  1.00  0.00     0.161 C 
BRANCH  36  37
HETATM   37  C21 UNL     1      -6.769  -0.254   0.751  1.00  0.00     0.188 C 
HETATM   38  O5  UNL     1      -6.981   0.898   1.219  1.00  0.00    -0.292 OA
BRANCH  37  39
HETATM   39  C22 UNL     1      -7.858  -1.185   0.955  1.00  0.00     0.158 C 
HETATM   40  C23 UNL     1      -8.641  -1.661  -0.208  1.00  0.00     0.060 C 
HETATM   41  C24 UNL     1      -7.383  -2.469   1.679  1.00  0.00     0.060 C 
HETATM   42  F2  UNL     1      -8.766  -0.642   1.879  1.00  0.00    -0.235 F 
ENDBRANCH  37  39
ENDBRANCH  36  37
BRANCH  36  43
HETATM   43  C25 UNL     1      -5.603  -0.965  -1.292  1.00  0.00     0.008 C 
HETATM   44  C26 UNL     1      -4.201  -1.367  -1.808  1.00  0.00     0.012 C 
HETATM   45  C27 UNL     1      -6.266  -0.032  -2.264  1.00  0.00     0.012 C 
ENDBRANCH  36  43
ENDBRANCH  34  36
ENDBRANCH   9  32
TORSDOF 11
