REMARK  7 active torsions:
REMARK  status: ('A' for Active; 'I' for Inactive)
REMARK    1  A    between atoms: C3_3  and  C4_4 
REMARK    2  A    between atoms: C4_4  and  C5_5 
REMARK    3  A    between atoms: C5_5  and  C6_6 
REMARK    4  A    between atoms: C6_6  and  C7_7 
REMARK    5  A    between atoms: C7_7  and  N1_8 
REMARK    6  A    between atoms: N2_11  and  C10_12 
REMARK    7  A    between atoms: C13_18  and  N4_19 
ROOT
HETATM    1  C1  UNL     1       6.838  -0.437  -1.783  1.00  0.00     0.012 C 
HETATM    2  C2  UNL     1       6.114  -0.142  -0.865  1.00  0.00    -0.117 C 
HETATM    3  C3  UNL     1       5.243   0.229   0.283  1.00  0.00     0.093 C 
ENDROOT
BRANCH   3   4
HETATM    4  C4  UNL     1       4.132   1.058  -0.299  1.00  0.00     0.012 C 
BRANCH   4   5
HETATM    5  C5  UNL     1       3.191   1.507   0.764  1.00  0.00     0.002 C 
BRANCH   5   6
HETATM    6  C6  UNL     1       2.581   0.334   1.470  1.00  0.00     0.030 C 
BRANCH   6   7
HETATM    7  C7  UNL     1       1.823  -0.525   0.522  1.00  0.00     0.272 C 
BRANCH   7   8
HETATM    8  N1  UNL     1       0.741   0.169  -0.169  1.00  0.00     0.091 N 
HETATM    9  C8  UNL     1       0.095  -0.816  -1.018  1.00  0.00     0.292 C 
HETATM   10  C9  UNL     1      -1.350  -0.503  -1.297  1.00  0.00     0.154 C 
HETATM   11  N2  UNL     1      -2.084  -0.432  -0.055  1.00  0.00    -0.363 N 
HETATM   12  C14 UNL     1      -1.254  -0.294   1.142  1.00  0.00     0.154 C 
HETATM   13  C15 UNL     1      -0.202   0.752   0.735  1.00  0.00     0.292 C 
BRANCH  11  14
HETATM   14  C10 UNL     1      -3.480  -0.478  -0.025  1.00  0.00     0.124 A 
HETATM   15  C11 UNL     1      -4.161  -1.674  -0.043  1.00  0.00     0.123 A 
HETATM   16  C12 UNL     1      -5.557  -1.701   0.001  1.00  0.00     0.263 A 
HETATM   17  O1  UNL     1      -6.183  -2.792  -0.015  1.00  0.00    -0.268 OA
HETATM   18  N3  UNL     1      -6.238  -0.545   0.061  1.00  0.00    -0.156 N 
HETATM   19  C13 UNL     1      -5.582   0.632   0.080  1.00  0.00     0.680 A 
ATOM     20  H3  UNL     1      -7.257  -0.558   0.092  1.00  0.00     0.187 HD
HETATM   21  N5  UNL     1      -4.246   0.651   0.038  1.00  0.00    -0.177 N 
ATOM     22  H5  UNL     1      -3.774   1.555   0.054  1.00  0.00     0.185 HD
BRANCH  19  23
HETATM   23  N4  UNL     1      -6.301   1.708   0.143  1.00  0.00    -0.234 N 
ATOM     24  H42 UNL     1      -7.320   1.694   0.175  1.00  0.00     0.174 HD
ATOM     25  H41 UNL     1      -5.804   2.599   0.157  1.00  0.00     0.174 HD
ENDBRANCH  19  23
ENDBRANCH  11  14
ENDBRANCH   7   8
ENDBRANCH   6   7
ENDBRANCH   5   6
ENDBRANCH   4   5
ENDBRANCH   3   4
TORSDOF 7
