REMARK  7 active torsions:
REMARK  status: ('A' for Active; 'I' for Inactive)
REMARK    1  A    between atoms: C4_4  and  O1_5 
REMARK    2  A    between atoms: N1_7  and  C5_8 
REMARK    3  A    between atoms: C5_8  and  C6_9 
REMARK    4  A    between atoms: C6_9  and  C7_10 
REMARK    5  A    between atoms: C7_10  and  C8_11 
REMARK    6  A    between atoms: C8_11  and  C9_12 
REMARK    7  A    between atoms: C22_27  and  O4_28 
ROOT
HETATM    1  C9  UNL     1      -0.551  -1.538   1.643  1.00  0.00     0.090 C 
HETATM    2  C10 UNL     1      -1.030  -0.695   2.757  1.00  0.00     0.263 C 
HETATM    3  O2  UNL     1      -0.777  -1.149   3.893  1.00  0.00    -0.265 OA
HETATM    4  O3  UNL     1      -1.719   0.532   2.753  1.00  0.00    -0.313 OA
HETATM    5  C11 UNL     1      -2.261   0.966   1.492  1.00  0.00     0.167 C 
HETATM    6  C12 UNL     1      -3.406   1.900   1.515  1.00  0.00     0.043 C 
HETATM    7  C13 UNL     1      -4.074   0.944   0.507  1.00  0.00     0.029 C 
HETATM    8  C14 UNL     1      -3.784   1.274  -0.896  1.00  0.00    -0.012 C 
HETATM    9  C15 UNL     1      -3.155   2.631  -1.134  1.00  0.00     0.010 C 
HETATM   10  C16 UNL     1      -2.943   0.263  -1.626  1.00  0.00     0.005 C 
HETATM   11  C17 UNL     1      -3.129  -1.141  -1.124  1.00  0.00     0.013 C 
HETATM   12  C18 UNL     1      -2.772  -1.250   0.372  1.00  0.00    -0.006 C 
HETATM   13  C19 UNL     1      -3.498  -2.502   0.836  1.00  0.00     0.019 C 
HETATM   14  C20 UNL     1      -1.306  -1.567   0.397  1.00  0.00     0.006 C 
HETATM   15  C21 UNL     1      -1.098  -2.952  -0.218  1.00  0.00     0.011 C 
HETATM   16  C22 UNL     1      -3.264  -0.117   1.137  1.00  0.00     0.096 C 
ENDROOT
BRANCH   1  17
HETATM   17  C8  UNL     1       0.857  -0.987   1.364  1.00  0.00     0.015 C 
BRANCH  17  18
HETATM   18  C7  UNL     1       1.589  -1.655   0.268  1.00  0.00     0.002 C 
BRANCH  18  19
HETATM   19  C6  UNL     1       2.992  -1.052   0.088  1.00  0.00     0.020 C 
BRANCH  19  20
HETATM   20  C5  UNL     1       2.945   0.405  -0.245  1.00  0.00     0.130 C 
BRANCH  20  21
HETATM   21  N1  UNL     1       4.273   0.955  -0.419  1.00  0.00    -0.338 N 
HETATM   22  C4  UNL     1       5.000   1.488   0.576  1.00  0.00     0.142 A 
HETATM   23  C3  UNL     1       6.225   1.930   0.106  1.00  0.00     0.064 A 
HETATM   24  C2  UNL     1       6.208   1.635  -1.243  1.00  0.00    -0.042 A 
HETATM   25  C1  UNL     1       7.320   1.928  -2.185  1.00  0.00     0.049 C 
HETATM   26  C23 UNL     1       5.015   1.047  -1.531  1.00  0.00     0.100 A 
BRANCH  22  27
HETATM   27  O1  UNL     1       4.615   1.601   1.915  1.00  0.00    -0.346 OA
ATOM     28  H1  UNL     1       3.774   1.298   2.237  1.00  0.00     0.219 HD
ENDBRANCH  22  27
ENDBRANCH  20  21
ENDBRANCH  19  20
ENDBRANCH  18  19
ENDBRANCH  17  18
ENDBRANCH   1  17
BRANCH  16  29
HETATM   29  O4  UNL     1      -3.898  -0.510   2.344  1.00  0.00    -0.386 OA
ATOM     30  H4  UNL     1      -4.526  -1.188   2.122  1.00  0.00     0.210 HD
ENDBRANCH  16  29
TORSDOF 7
