REMARK  5 active torsions:
REMARK  status: ('A' for Active; 'I' for Inactive)
REMARK       I    between atoms: C2_2  and  N1_4 
REMARK    1  A    between atoms: N1_4  and  C3_5 
REMARK    2  A    between atoms: C3_5  and  C4_9 
REMARK    3  A    between atoms: C7_12  and  C8_13 
REMARK       I    between atoms: C8_13  and  N3_15 
REMARK    4  A    between atoms: N3_15  and  N4_17 
REMARK    5  A    between atoms: N4_17  and  S1_19 
ROOT
HETATM    1  C4  UNL     1       2.120  -0.644  -0.025  1.00  0.00     0.022 A 
HETATM    2  C5  UNL     1       1.479  -1.308   0.890  1.00  0.00     0.017 A 
HETATM    3  C6  UNL     1       0.090  -1.018   1.050  1.00  0.00     0.018 A 
HETATM    4  C7  UNL     1      -0.408  -0.049   0.188  1.00  0.00     0.033 A 
HETATM    5  C10 UNL     1       0.328   0.625  -0.765  1.00  0.00     0.018 A 
HETATM    6  C11 UNL     1       1.712   0.275  -0.852  1.00  0.00     0.017 A 
ENDROOT
BRANCH   4   7
HETATM    7  C8  UNL     1      -1.897   0.147   0.296  1.00  0.00     0.270 C 
HETATM    8  O2  UNL     1      -2.289   1.292   0.090  1.00  0.00    -0.266 OA
HETATM    9  N3  UNL     1      -2.649  -0.974   0.607  1.00  0.00    -0.256 N 
ATOM     10  H3  UNL     1      -2.100  -1.824   0.736  1.00  0.00     0.191 HD
BRANCH   9  11
HETATM   11  N4  UNL     1      -3.981  -1.143   0.770  1.00  0.00    -0.225 N 
ATOM     12  H4  UNL     1      -4.360  -1.730   1.513  1.00  0.00     0.200 HD
BRANCH  11  13
HETATM   13  S1  UNL     1      -4.964  -0.348  -0.299  1.00  0.00     0.240 S 
HETATM   14  C9  UNL     1      -5.771   1.079   0.484  1.00  0.00     0.187 C 
HETATM   15  O3  UNL     1      -4.261   0.198  -1.533  1.00  0.00    -0.205 OA
HETATM   16  O4  UNL     1      -6.053  -1.266  -0.824  1.00  0.00    -0.205 OA
ENDBRANCH  11  13
ENDBRANCH   9  11
ENDBRANCH   4   7
BRANCH   1  17
HETATM   17  C3  UNL     1       3.684  -1.403  -0.428  1.00  0.00     0.186 C 
HETATM   18  N2  UNL     1       3.171  -2.449  -0.178  1.00  0.00    -0.373 N 
ATOM     19  H22 UNL     1       4.065  -2.883  -0.408  1.00  0.00     0.158 HD
ATOM     20  H21 UNL     1       2.755  -3.360   0.017  1.00  0.00     0.158 HD
BRANCH  17  21
HETATM   21  N1  UNL     1       4.232  -0.203  -0.685  1.00  0.00    -0.352 NA
HETATM   22  C2  UNL     1       4.771   0.960  -0.941  1.00  0.00     0.289 C 
HETATM   23  C1  UNL     1       4.465   2.181  -0.090  1.00  0.00     0.135 C 
HETATM   24  O1  UNL     1       5.599   1.286  -1.874  1.00  0.00    -0.258 OA
ENDBRANCH  17  21
ENDBRANCH   1  17
TORSDOF 5
