REMARK  4 active torsions:
REMARK  status: ('A' for Active; 'I' for Inactive)
REMARK    1  A    between atoms: N1_1  and  N2_4 
REMARK       I    between atoms: N2_4  and  C1_5 
REMARK    2  A    between atoms: C1_5  and  C2_7 
REMARK    3  A    between atoms: C5_13  and  N4_14 
REMARK    4  A    between atoms: N4_14  and  N5_16 
ROOT
HETATM    1  C2  UNL     1       0.559  -0.913  -0.080  1.00  0.00     0.134 A 
HETATM    2  C3  UNL     1       0.121  -2.034  -0.730  1.00  0.00     0.128 A 
HETATM    3  N3  UNL     1      -1.112  -2.085  -1.308  1.00  0.00    -0.328 N 
ATOM      4  H3  UNL     1      -1.423  -2.929  -1.790  1.00  0.00     0.168 HD
HETATM    5  C4  UNL     1      -1.911  -1.011  -1.235  1.00  0.00     0.290 A 
HETATM    6  O2  UNL     1      -3.080  -1.025  -1.768  1.00  0.00    -0.264 OA
HETATM    7  C5  UNL     1      -1.492   0.118  -0.590  1.00  0.00     0.189 A 
HETATM    8  N6  UNL     1      -0.266   0.144  -0.026  1.00  0.00    -0.330 N 
ATOM      9  H6  UNL     1       0.042   0.990   0.454  1.00  0.00     0.168 HD
ENDROOT
BRANCH   1  10
HETATM   10  C1  UNL     1       1.924  -0.862   0.571  1.00  0.00     0.362 C 
HETATM   11  N2  UNL     1       2.368   0.233   1.171  1.00  0.00    -0.287 NA
HETATM   12  O1  UNL     1       2.559  -1.980   0.462  1.00  0.00    -0.247 OA
BRANCH  11  13
HETATM   13  N1  UNL     1       2.821   1.347   1.781  1.00  0.00    -0.276 N 
ATOM     14  H12 UNL     1       2.525   0.497   1.300  1.00  0.00     0.191 HD
ATOM     15  H11 UNL     1       3.163   2.190   2.243  1.00  0.00     0.191 HD
ENDBRANCH  11  13
ENDBRANCH   1  10
BRANCH   7  16
HETATM   16  N4  UNL     1      -2.359   1.255  -0.524  1.00  0.00    -0.287 N 
ATOM     17  H4  UNL     1      -3.275   1.192  -0.969  1.00  0.00     0.188 HD
BRANCH  16  18
HETATM   18  N5  UNL     1      -2.015   2.446   0.119  1.00  0.00    -0.343 N 
ATOM     19  H52 UNL     1      -1.096   2.491   0.559  1.00  0.00     0.176 HD
ATOM     20  H51 UNL     1      -2.633   3.256   0.166  1.00  0.00     0.176 HD
ENDBRANCH  16  18
ENDBRANCH   7  16
TORSDOF 4
