REMARK  6 active torsions:
REMARK  status: ('A' for Active; 'I' for Inactive)
REMARK    1  A    between atoms: C2_2  and  S1_3 
REMARK    2  A    between atoms: S1_3  and  C3_4 
REMARK    3  A    between atoms: N1_8  and  C5_9 
REMARK    4  A    between atoms: C5_9  and  N2_10 
REMARK    5  A    between atoms: C10_15  and  C11_16 
REMARK    6  A    between atoms: C12_17  and  C14_20 
ROOT
HETATM    1  C11 UNL     1       0.345   1.096   0.018  1.00  0.00     0.059 C 
HETATM    2  C12 UNL     1       0.925   2.102   0.644  1.00  0.00     0.111 C 
HETATM    3  C13 UNL     1       1.955   1.972   1.633  1.00  0.00     0.104 C 
HETATM    4  N3  UNL     1       2.782   1.881   2.468  1.00  0.00    -0.191 NA
ENDROOT
BRANCH   2   5
HETATM    5  C14 UNL     1       0.506   3.459   0.322  1.00  0.00     0.275 C 
HETATM    6  N4  UNL     1      -0.503   3.692  -0.644  1.00  0.00    -0.057 NA
HETATM    7  O1  UNL     1       1.025   4.444   0.887  1.00  0.00    -0.270 OA
ENDBRANCH   2   5
BRANCH   1   8
HETATM    8  C10 UNL     1       0.706  -0.333   0.270  1.00  0.00     0.063 A 
HETATM    9  C3  UNL     1       1.985  -0.732  -0.009  1.00  0.00     0.071 A 
HETATM   10  S2  UNL     1       2.005  -2.343   0.529  1.00  0.00    -0.051 SA
HETATM   11  C4  UNL     1       0.403  -2.443   1.078  1.00  0.00     0.148 A 
HETATM   12  S3  UNL     1      -0.406  -3.717   1.769  1.00  0.00    -0.052 SA
HETATM   13  N1  UNL     1      -0.092  -1.219   0.824  1.00  0.00    -0.303 N 
BRANCH   9  14
HETATM   14  S1  UNL     1       3.349   0.136  -0.792  1.00  0.00    -0.121 SA
BRANCH  14  15
HETATM   15  C2  UNL     1       4.788  -0.977  -0.931  1.00  0.00     0.075 C 
HETATM   16  C1  UNL     1       5.359  -1.349   0.398  1.00  0.00     0.016 C 
ENDBRANCH  14  15
ENDBRANCH   9  14
BRANCH  13  17
HETATM   17  C5  UNL     1      -1.490  -0.897   1.217  1.00  0.00     0.404 C 
BRANCH  17  18
HETATM   18  N2  UNL     1      -2.444  -1.366   0.304  1.00  0.00     0.106 N 
HETATM   19  C6  UNL     1      -2.422  -0.983  -1.051  1.00  0.00     0.274 C 
HETATM   20  C7  UNL     1      -3.337   0.218  -1.194  1.00  0.00     0.032 C 
HETATM   21  C8  UNL     1      -4.171   0.256   0.041  1.00  0.00     0.032 C 
HETATM   22  C9  UNL     1      -3.795  -0.981   0.786  1.00  0.00     0.274 C 
ENDBRANCH  17  18
ENDBRANCH  13  17
ENDBRANCH   1   8
TORSDOF 6
