REMARK  10 active torsions:
REMARK  status: ('A' for Active; 'I' for Inactive)
REMARK    1  A    between atoms: N1_1  and  C1_4 
REMARK    2  A    between atoms: C2_9  and  S1_10 
REMARK    3  A    between atoms: S1_10  and  C3_11 
REMARK    4  A    between atoms: C3_11  and  C4_12 
REMARK    5  A    between atoms: C4_12  and  N4_13 
REMARK    6  A    between atoms: C4_12  and  C9_35 
REMARK       I    between atoms: N4_13  and  C5_15 
REMARK    7  A    between atoms: C5_15  and  C6_17 
REMARK    8  A    between atoms: N7_22  and  C7_23 
REMARK    9  A    between atoms: C8_29  and  N10_30 
REMARK       I    between atoms: C9_35  and  N12_37 
REMARK   10  A    between atoms: N12_37  and  C10_39 
ROOT
HETATM    1  C4  UNL     1      -0.706  -1.209   1.092  1.00  0.00     0.187 C 
ENDROOT
BRANCH   1   2
HETATM    2  C3  UNL     1      -0.551  -1.152   2.564  1.00  0.00     0.117 C 
BRANCH   2   3
HETATM    3  S1  UNL     1      -0.701   0.439   3.343  1.00  0.00    -0.089 SA
BRANCH   3   4
HETATM    4  C2  UNL     1       0.608   1.579   2.998  1.00  0.00     0.174 A 
HETATM    5  N3  UNL     1       0.684   2.516   2.039  1.00  0.00    -0.265 N 
HETATM    6  N2  UNL     1       1.812   3.185   2.103  1.00  0.00    -0.130 N 
ATOM      7  H3  UNL     1      -0.045   2.687   1.346  1.00  0.00     0.189 HD
HETATM    8  C1  UNL     1       2.510   2.679   3.134  1.00  0.00     0.692 A 
ATOM      9  H2  UNL     1       2.103   3.944   1.487  1.00  0.00     0.205 HD
HETATM   10  N13 UNL     1       1.790   1.707   3.683  1.00  0.00    -0.168 N 
ATOM     11  H13 UNL     1       2.071   1.145   4.486  1.00  0.00     0.186 HD
BRANCH   8  12
HETATM   12  N1  UNL     1       3.672   3.098   3.491  1.00  0.00    -0.233 N 
ATOM     13  H12 UNL     1       4.225   3.844   3.069  1.00  0.00     0.174 HD
ATOM     14  H11 UNL     1       4.202   2.714   4.273  1.00  0.00     0.174 HD
ENDBRANCH   8  12
ENDBRANCH   3   4
ENDBRANCH   2   3
ENDBRANCH   1   2
BRANCH   1  15
HETATM   15  N4  UNL     1      -2.016  -0.724   0.690  1.00  0.00    -0.340 N 
HETATM   16  C5  UNL     1      -2.978  -1.610   0.154  1.00  0.00     0.289 C 
HETATM   17  O1  UNL     1      -2.685  -2.818   0.031  1.00  0.00    -0.264 OA
ATOM     18  H4  UNL     1      -2.243   0.265   0.796  1.00  0.00     0.163 HD
BRANCH  16  19
HETATM   19  C6  UNL     1      -4.294  -1.164  -0.257  1.00  0.00     0.206 A 
HETATM   20  N5  UNL     1      -4.804   0.079  -0.236  1.00  0.00    -0.264 N 
HETATM   21  N6  UNL     1      -6.034   0.064  -0.686  1.00  0.00    -0.218 N 
ATOM     22  H5  UNL     1      -4.307   0.911   0.083  1.00  0.00     0.190 HD
HETATM   23  N7  UNL     1      -6.354  -1.192  -1.012  1.00  0.00    -0.158 N 
ATOM     24  H6  UNL     1      -6.646   0.876  -0.773  1.00  0.00     0.210 HD
HETATM   25  N11 UNL     1      -5.288  -1.919  -0.744  1.00  0.00    -0.255 N 
ATOM     26  H11 UNL     1      -5.227  -2.927  -0.889  1.00  0.00     0.191 HD
BRANCH  23  27
HETATM   27  C7  UNL     1      -7.581  -1.657  -1.533  1.00  0.00     0.214 A 
HETATM   28  N8  UNL     1      -8.683  -0.877  -1.705  1.00  0.00    -0.219 N 
HETATM   29  O2  UNL     1      -9.639  -1.615  -2.201  1.00  0.00    -0.153 OA
ATOM     30  H8  UNL     1      -8.751   0.116  -1.484  1.00  0.00     0.198 HD
HETATM   31  N9  UNL     1      -9.220  -2.836  -2.363  1.00  0.00    -0.222 N 
HETATM   32  C8  UNL     1      -7.932  -2.897  -1.954  1.00  0.00     0.171 A 
ATOM     33  H9  UNL     1      -9.768  -3.612  -2.734  1.00  0.00     0.198 HD
BRANCH  32  34
HETATM   34  N10 UNL     1      -7.212  -3.950  -1.976  1.00  0.00    -0.381 N 
ATOM     35 2H10 UNL     1      -6.241  -3.996  -1.668  1.00  0.00     0.157 HD
ATOM     36 1H10 UNL     1      -7.476  -4.883  -2.293  1.00  0.00     0.157 HD
ENDBRANCH  32  34
ENDBRANCH  23  27
ENDBRANCH  16  19
ENDBRANCH   1  15
BRANCH   1  37
HETATM   37  C9  UNL     1       0.403  -0.583   0.332  1.00  0.00     0.245 C 
HETATM   38  O3  UNL     1       0.100   0.253  -0.544  1.00  0.00    -0.271 OA
HETATM   39  N12 UNL     1       1.729  -0.923   0.594  1.00  0.00    -0.325 N 
ATOM     40  H12 UNL     1       1.886  -1.622   1.320  1.00  0.00     0.169 HD
BRANCH  39  41
HETATM   41  C10 UNL     1       2.878  -0.401  -0.040  1.00  0.00     0.037 A 
HETATM   42  C11 UNL     1       4.058  -1.119   0.109  1.00  0.00     0.032 A 
HETATM   43  C12 UNL     1       5.209  -0.655  -0.464  1.00  0.00     0.042 A 
HETATM   44  C13 UNL     1       5.238   0.516  -1.193  1.00  0.00     0.102 A 
HETATM   45  C14 UNL     1       4.092   1.256  -1.364  1.00  0.00     0.104 A 
HETATM   46  O5  UNL     1       6.393   1.013  -1.788  1.00  0.00    -0.346 OA
HETATM   47  C15 UNL     1       2.925   0.758  -0.766  1.00  0.00     0.069 A 
HETATM   48  O4  UNL     1       4.062   2.444  -2.089  1.00  0.00    -0.346 OA
HETATM   49  C16 UNL     1       5.160   2.749  -2.911  1.00  0.00     0.202 C 
HETATM   50  C17 UNL     1       6.426   2.368  -2.198  1.00  0.00     0.202 C 
ENDBRANCH  39  41
ENDBRANCH   1  37
TORSDOF 10
