REMARK  8 active torsions:
REMARK  status: ('A' for Active; 'I' for Inactive)
REMARK    1  A    between atoms: C2_6  and  N4_7 
REMARK    2  A    between atoms: C3_11  and  N6_12 
REMARK    3  A    between atoms: N6_12  and  N7_14 
REMARK       I    between atoms: N7_14  and  C4_16 
REMARK       I    between atoms: C4_16  and  N11_30 
REMARK    4  A    between atoms: N8_17  and  N9_19 
REMARK    5  A    between atoms: N9_19  and  C5_21 
REMARK    6  A    between atoms: C5_21  and  C6_22 
REMARK    7  A    between atoms: C6_22  and  N10_23 
REMARK       I    between atoms: N10_23  and  C7_25 
REMARK    8  A    between atoms: C7_25  and  C8_27 
ROOT
HETATM    1  N1  UNL     1      -6.604  -5.354  -1.972  1.00  0.00    -0.169 NA
HETATM    2  C1  UNL     1      -6.049  -4.580  -1.326  1.00  0.00     0.221 C 
HETATM    3  N2  UNL     1      -5.358  -3.620  -0.552  1.00  0.00     0.002 N 
HETATM    4  N3  UNL     1      -5.429  -3.419   0.754  1.00  0.00    -0.100 N 
ATOM      5  H3  UNL     1      -6.011  -3.946   1.405  1.00  0.00     0.207 HD
HETATM    6  C2  UNL     1      -4.612  -2.411   1.082  1.00  0.00     0.728 A 
HETATM    7  N5  UNL     1      -4.004  -1.960  -0.054  1.00  0.00     0.206 N 
HETATM    8  C3  UNL     1      -3.135  -1.077  -0.579  1.00  0.00     0.748 A 
HETATM    9  N12 UNL     1      -3.100  -1.321  -1.895  1.00  0.00    -0.115 N 
ATOM     10  H12 UNL     1      -2.527  -0.808  -2.564  1.00  0.00     0.206 HD
HETATM   11  N13 UNL     1      -3.909  -2.317  -2.209  1.00  0.00    -0.114 N 
ATOM     12  H13 UNL     1      -4.069  -2.702  -3.140  1.00  0.00     0.206 HD
HETATM   13  C14 UNL     1      -4.485  -2.727  -1.054  1.00  0.00     0.765 A 
ENDROOT
BRANCH   6  14
HETATM   14  N4  UNL     1      -4.396  -1.910   2.253  1.00  0.00    -0.232 N 
ATOM     15  H42 UNL     1      -4.850  -2.247   3.102  1.00  0.00     0.174 HD
ATOM     16  H41 UNL     1      -3.773  -1.142   2.503  1.00  0.00     0.174 HD
ENDBRANCH   6  14
BRANCH   8  17
HETATM   17  N6  UNL     1      -2.499  -0.197   0.118  1.00  0.00    -0.115 N 
ATOM     18  H6  UNL     1      -2.642  -0.144   1.127  1.00  0.00     0.206 HD
BRANCH  17  19
HETATM   19  N7  UNL     1      -1.620   0.677  -0.507  1.00  0.00    -0.116 N 
HETATM   20  C4  UNL     1      -0.470   1.218   0.104  1.00  0.00     0.709 C 
HETATM   21  N8  UNL     1       0.379   0.472   0.669  1.00  0.00    -0.135 N 
HETATM   22  N11 UNL     1      -0.287   2.622   0.070  1.00  0.00    -0.211 N 
ATOM     23  H8  UNL     1       0.201  -0.532   0.666  1.00  0.00     0.205 HD
HETATM   24  C10 UNL     1       0.421   3.206  -1.031  1.00  0.00     0.167 C 
HETATM   25  C13 UNL     1      -0.826   3.415   1.154  1.00  0.00     0.167 C 
HETATM   26  C11 UNL     1       0.006   4.635  -1.298  1.00  0.00     0.188 C 
HETATM   27  O2  UNL     1      -0.219   5.356  -0.141  1.00  0.00    -0.388 OA
HETATM   28  C12 UNL     1      -1.193   4.797   0.661  1.00  0.00     0.188 C 
ATOM     29  H7  UNL     1      -1.819   0.945  -1.471  1.00  0.00     0.206 HD
BRANCH  21  30
HETATM   30  N9  UNL     1       1.541   0.921   1.296  1.00  0.00    -0.321 N 
ATOM     31  H9  UNL     1       1.445   1.526   2.112  1.00  0.00     0.180 HD
BRANCH  30  32
HETATM   32  C5  UNL     1       2.854   0.582   0.860  1.00  0.00     0.159 C 
BRANCH  32  33
HETATM   33  C6  UNL     1       3.157  -0.876   0.863  1.00  0.00     0.144 C 
BRANCH  33  34
HETATM   34  N10 UNL     1       4.540  -1.041   0.390  1.00  0.00    -0.356 N 
HETATM   35  C7  UNL     1       5.115  -2.334   0.285  1.00  0.00     0.241 C 
HETATM   36  O1  UNL     1       4.442  -3.343   0.597  1.00  0.00    -0.269 OA
ATOM     37  H10 UNL     1       5.090  -0.220   0.136  1.00  0.00     0.162 HD
BRANCH  35  38
HETATM   38  C8  UNL     1       6.475  -2.467  -0.183  1.00  0.00     0.081 C 
HETATM   39  C9  UNL     1       7.022  -3.653  -0.286  1.00  0.00     0.061 C 
HETATM   40 BR1  UNL     1       8.809  -3.909  -0.894  1.00  0.00    -0.063 Br
ENDBRANCH  35  38
ENDBRANCH  33  34
ENDBRANCH  32  33
ENDBRANCH  30  32
ENDBRANCH  21  30
ENDBRANCH  17  19
ENDBRANCH   8  17
TORSDOF 8
