REMARK  12 active torsions:
REMARK  status: ('A' for Active; 'I' for Inactive)
REMARK    1  A    between atoms: C2_2  and  C3_3 
REMARK       I    between atoms: C3_3  and  N1_5 
REMARK    2  A    between atoms: N1_5  and  C4_7 
REMARK    3  A    between atoms: C4_7  and  C5_8 
REMARK    4  A    between atoms: C8_11  and  N2_12 
REMARK    5  A    between atoms: N2_12  and  C9_14 
REMARK    6  A    between atoms: C10_17  and  N4_18 
REMARK    7  A    between atoms: N4_18  and  C11_19 
REMARK    8  A    between atoms: C15_24  and  N5_25 
REMARK    9  A    between atoms: N5_25  and  C16_27 
REMARK   10  A    between atoms: C19_32  and  C20_33 
REMARK   11  A    between atoms: C22_37  and  N8_38 
REMARK   12  A    between atoms: N8_38  and  C23_40 
ROOT
HETATM    1  C9  UNL     1       1.208   2.297  -1.147  1.00  0.00     0.696 A 
HETATM    2  N3  UNL     1       0.307   1.326  -1.039  1.00  0.00    -0.148 N 
ATOM      3  H3  UNL     1       0.643   0.365  -0.983  1.00  0.00     0.188 HD
HETATM    4  C10 UNL     1      -1.055   1.539  -0.998  1.00  0.00     0.288 A 
HETATM    5  N7  UNL     1      -1.435   2.853  -1.076  1.00  0.00    -0.148 N 
ATOM      6  H7  UNL     1      -2.432   3.067  -1.049  1.00  0.00     0.188 HD
HETATM    7  C22 UNL     1      -0.585   3.859  -1.184  1.00  0.00     0.696 A 
HETATM    8  N9  UNL     1       0.740   3.546  -1.217  1.00  0.00    -0.022 N 
ATOM      9  H9  UNL     1       1.413   4.308  -1.300  1.00  0.00     0.203 HD
ENDROOT
BRANCH   4  10
HETATM   10  N4  UNL     1      -1.817   0.626  -0.921  1.00  0.00    -0.369 NA
BRANCH  10  11
HETATM   11  C11 UNL     1      -2.668  -0.382  -0.837  1.00  0.00     0.125 A 
HETATM   12  C12 UNL     1      -2.557  -1.487  -1.712  1.00  0.00     0.069 A 
HETATM   13  C13 UNL     1      -3.423  -2.532  -1.600  1.00  0.00     0.039 A 
HETATM   14 CL1  UNL     1      -3.231  -3.884  -2.720  1.00  0.00    -0.084 Cl
HETATM   15  C14 UNL     1      -4.413  -2.536  -0.646  1.00  0.00     0.054 A 
HETATM   16  C15 UNL     1      -4.564  -1.475   0.235  1.00  0.00     0.048 A 
HETATM   17  C19 UNL     1      -3.694  -0.433   0.120  1.00  0.00     0.031 A 
BRANCH  16  18
HETATM   18  N5  UNL     1      -5.647  -1.557   1.135  1.00  0.00    -0.346 N 
ATOM     19  H5  UNL     1      -5.872  -0.750   1.717  1.00  0.00     0.167 HD
BRANCH  18  20
HETATM   20  C16 UNL     1      -6.434  -2.739   1.251  1.00  0.00     0.072 C 
HETATM   21  C17 UNL     1      -6.123  -3.684   2.342  1.00  0.00     0.088 C 
HETATM   22  N6  UNL     1      -7.379  -2.949   0.413  1.00  0.00    -0.384 N 
HETATM   23  C18 UNL     1      -8.226  -4.125   0.458  1.00  0.00     0.147 C 
ATOM     24  H6  UNL     1      -7.543  -2.258  -0.319  1.00  0.00     0.160 HD
ENDBRANCH  18  20
ENDBRANCH  16  18
BRANCH  17  25
HETATM   25  C20 UNL     1      -3.769   0.720   0.982  1.00  0.00     0.007 C 
HETATM   26  C21 UNL     1      -3.886   0.634   2.284  1.00  0.00     0.012 C 
ENDBRANCH  17  25
ENDBRANCH  10  11
ENDBRANCH   4  10
BRANCH   1  27
HETATM   27  N2  UNL     1       2.471   2.124  -1.167  1.00  0.00    -0.221 N 
ATOM     28  H2  UNL     1       3.066   2.948  -1.255  1.00  0.00     0.178 HD
BRANCH  27  29
HETATM   29  C8  UNL     1       3.116   0.818  -1.072  1.00  0.00     0.099 C 
HETATM   30  C7  UNL     1       3.205   0.508   0.376  1.00  0.00     0.026 C 
HETATM   31  C6  UNL     1       4.270  -0.473   0.781  1.00  0.00     0.012 C 
HETATM   32  C5  UNL     1       5.563   0.036   0.152  1.00  0.00     0.024 C 
HETATM   33  C27 UNL     1       5.426  -0.121  -1.306  1.00  0.00     0.012 C 
HETATM   34  C26 UNL     1       4.424   0.925  -1.801  1.00  0.00     0.026 C 
BRANCH  32  35
HETATM   35  C4  UNL     1       6.773  -0.377   0.863  1.00  0.00     0.068 C 
BRANCH  35  36
HETATM   36  N1  UNL     1       7.087  -1.730   1.060  1.00  0.00    -0.337 N 
HETATM   37  C3  UNL     1       7.379  -2.719   0.124  1.00  0.00     0.244 C 
HETATM   38  O1  UNL     1       7.406  -2.478  -1.108  1.00  0.00    -0.268 OA
ATOM     39  H1  UNL     1       7.104  -2.035   2.033  1.00  0.00     0.168 HD
BRANCH  37  40
HETATM   40  C2  UNL     1       7.672  -4.100   0.490  1.00  0.00     0.064 C 
HETATM   41  C1  UNL     1       7.689  -4.528   1.731  1.00  0.00     0.017 C 
ENDBRANCH  37  40
ENDBRANCH  35  36
ENDBRANCH  32  35
ENDBRANCH  27  29
ENDBRANCH   1  27
BRANCH   7  42
HETATM   42  N8  UNL     1      -0.950   5.081  -1.252  1.00  0.00    -0.221 N 
ATOM     43  H8  UNL     1      -0.230   5.798  -1.335  1.00  0.00     0.178 HD
BRANCH  42  44
HETATM   44  C23 UNL     1      -2.320   5.493  -1.218  1.00  0.00     0.099 A 
HETATM   45  C24 UNL     1      -2.775   6.277   0.049  1.00  0.00     0.028 A 
HETATM   46  C25 UNL     1      -2.653   6.962  -1.245  1.00  0.00     0.028 A 
ENDBRANCH  42  44
ENDBRANCH   7  42
TORSDOF 12
