REMARK  13 active torsions:
REMARK  status: ('A' for Active; 'I' for Inactive)
REMARK    1  A    between atoms: C2_2  and  C3_4 
REMARK    2  A    between atoms: C3_4  and  O3_6 
REMARK    3  A    between atoms: O3_6  and  C4_7 
REMARK    4  A    between atoms: C4_7  and  C5_8 
REMARK    5  A    between atoms: C6_11  and  O6_12 
REMARK    6  A    between atoms: C7_14  and  C8_15 
REMARK    7  A    between atoms: C8_15  and  O7_17 
REMARK    8  A    between atoms: C10_19  and  C11_20 
REMARK    9  A    between atoms: C17_28  and  C19_30 
REMARK   10  A    between atoms: N1_31  and  O8_33 
REMARK   11  A    between atoms: C20_35  and  C21_36 
REMARK   12  A    between atoms: C22_37  and  C23_38 
REMARK   13  A    between atoms: C23_38  and  C26_41 
ROOT
HETATM    1  C4  UNL     1      -0.760   1.294  -0.908  1.00  0.00     0.209 C 
HETATM    2  C6  UNL     1      -2.237   1.332  -0.909  1.00  0.00     0.176 C 
HETATM    3  C7  UNL     1      -2.969   0.220  -0.133  1.00  0.00     0.057 C 
HETATM    4  C10 UNL     1      -2.435  -1.094  -0.646  1.00  0.00     0.047 C 
HETATM    5  C17 UNL     1      -0.965  -1.194  -0.261  1.00  0.00     0.025 C 
HETATM    6  C18 UNL     1      -0.237  -2.184  -1.097  1.00  0.00     0.027 C 
HETATM    7  C20 UNL     1      -0.276   0.146  -0.169  1.00  0.00    -0.018 C 
ENDROOT
BRANCH   1   8
HETATM    8  O3  UNL     1      -0.192   2.486  -0.367  1.00  0.00    -0.285 OA
BRANCH   8   9
HETATM    9  C3  UNL     1      -0.262   3.015   0.864  1.00  0.00     0.330 C 
HETATM   10  O2  UNL     1      -0.941   2.427   1.720  1.00  0.00    -0.256 OA
BRANCH   9  11
HETATM   11  C2  UNL     1       0.435   4.262   1.242  1.00  0.00     0.220 C 
HETATM   12  C1  UNL     1       0.296   4.743   2.630  1.00  0.00     0.103 C 
HETATM   13  O1  UNL     1       1.115   4.882   0.411  1.00  0.00    -0.287 OA
ENDBRANCH   9  11
ENDBRANCH   8   9
ENDBRANCH   1   8
BRANCH   1  14
HETATM   14  C5  UNL     1      -0.369   1.394  -2.346  1.00  0.00     0.217 C 
HETATM   15  O4  UNL     1      -0.489   0.553  -3.218  1.00  0.00    -0.645 OA
HETATM   16  O5  UNL     1       0.196   2.584  -2.751  1.00  0.00    -0.645 OA
ENDBRANCH   1  14
BRANCH   2  17
HETATM   17  O6  UNL     1      -2.814   1.393  -2.169  1.00  0.00    -0.391 OA
ATOM     18  H6  UNL     1      -3.764   1.417  -2.170  1.00  0.00     0.210 HD
ENDBRANCH   2  17
BRANCH   7  19
HETATM   19  C21 UNL     1       1.186  -0.049   0.021  1.00  0.00     0.005 C 
HETATM   20  C22 UNL     1       2.183   0.299  -0.729  1.00  0.00    -0.013 C 
BRANCH  20  21
HETATM   21  C23 UNL     1       3.644   0.031  -0.400  1.00  0.00    -0.012 C 
HETATM   22  C24 UNL     1       3.819  -1.169   0.443  1.00  0.00     0.023 C 
HETATM   23  C25 UNL     1       4.392  -0.234  -1.717  1.00  0.00     0.023 C 
BRANCH  21  24
HETATM   24  C26 UNL     1       4.212   1.233   0.211  1.00  0.00    -0.012 C 
HETATM   25  C27 UNL     1       5.468   1.409   0.521  1.00  0.00    -0.090 C 
HETATM   26  C28 UNL     1       6.576   0.440   0.326  1.00  0.00     0.042 C 
HETATM   27  C29 UNL     1       5.804   2.770   1.135  1.00  0.00     0.042 C 
ENDBRANCH  21  24
ENDBRANCH  20  21
ENDBRANCH   7  19
BRANCH   3  28
HETATM   28  C8  UNL     1      -4.390   0.532  -0.503  1.00  0.00     0.121 C 
HETATM   29  C9  UNL     1      -5.516  -0.248   0.013  1.00  0.00     0.040 C 
BRANCH  28  30
HETATM   30  O7  UNL     1      -4.644   1.875  -0.087  1.00  0.00    -0.395 OA
ATOM     31  H7  UNL     1      -5.543   2.072  -0.321  1.00  0.00     0.210 HD
ENDBRANCH  28  30
ENDBRANCH   3  28
BRANCH   5  32
HETATM   32  C19 UNL     1      -0.807  -1.720   1.160  1.00  0.00     0.101 C 
HETATM   33  N1  UNL     1      -0.304  -2.745   1.580  1.00  0.00    -0.283 N 
ATOM     34  H1  UNL     1      -0.375  -2.771   2.597  1.00  0.00     0.192 HD
BRANCH  33  35
HETATM   35  O8  UNL     1       0.306  -3.839   1.147  1.00  0.00    -0.291 OA
ATOM     36  H8  UNL     1       0.699  -4.639   1.475  1.00  0.00     0.244 HD
ENDBRANCH  33  35
ENDBRANCH   5  32
BRANCH   4  37
HETATM   37  C11 UNL     1      -3.135  -2.296  -0.079  1.00  0.00    -0.030 A 
HETATM   38  C12 UNL     1      -3.500  -2.412   1.251  1.00  0.00     0.011 A 
HETATM   39  C13 UNL     1      -3.996  -3.562   1.826  1.00  0.00     0.024 A 
HETATM   40  C14 UNL     1      -4.151  -4.680   1.068  1.00  0.00     0.035 A 
HETATM   41 CL1  UNL     1      -4.777  -6.195   1.720  1.00  0.00    -0.084 Cl
HETATM   42  C15 UNL     1      -3.814  -4.636  -0.251  1.00  0.00     0.048 A 
HETATM   43  C16 UNL     1      -3.316  -3.456  -0.808  1.00  0.00     0.042 A 
HETATM   44 CL2  UNL     1      -3.039  -3.452  -2.539  1.00  0.00    -0.084 Cl
ENDBRANCH   4  37
TORSDOF 13
