REMARK  14 active torsions:
REMARK  status: ('A' for Active; 'I' for Inactive)
REMARK    1  A    between atoms: O1_2  and  C2_3 
REMARK    2  A    between atoms: C4_6  and  O3_7 
REMARK    3  A    between atoms: C8_12  and  O4_13 
REMARK    4  A    between atoms: C12_19  and  O6_21 
REMARK    5  A    between atoms: C19_28  and  C20_29 
REMARK    6  A    between atoms: C20_29  and  C21_30 
REMARK    7  A    between atoms: C21_30  and  O7_31 
REMARK    8  A    between atoms: C21_30  and  C22_33 
REMARK    9  A    between atoms: C22_33  and  C23_34 
REMARK   10  A    between atoms: C23_34  and  O8_35 
REMARK   11  A    between atoms: C23_34  and  C24_37 
REMARK   12  A    between atoms: C24_37  and  C25_38 
REMARK   13  A    between atoms: C25_38  and  C26_39 
REMARK   14  A    between atoms: C26_39  and  C27_40 
ROOT
HETATM    1  C2  UNL     1      -1.320  -2.828   0.311  1.00  0.00     0.096 C 
HETATM    2  C3  UNL     1      -2.135  -2.412   1.273  1.00  0.00     0.175 C 
HETATM    3  O2  UNL     1      -2.698  -1.214   1.460  1.00  0.00    -0.330 OA
HETATM    4  C4  UNL     1      -2.365   0.033   1.918  1.00  0.00     0.262 C 
HETATM    5  C5  UNL     1      -3.668   0.853   1.923  1.00  0.00     0.068 C 
HETATM    6  C6  UNL     1      -3.523   2.285   1.627  1.00  0.00     0.018 C 
HETATM    7  C7  UNL     1      -2.067   2.792   1.608  1.00  0.00     0.012 C 
HETATM    8  C8  UNL     1      -4.432   2.983   0.741  1.00  0.00     0.159 C 
HETATM    9  C9  UNL     1      -4.852   2.778  -0.609  1.00  0.00     0.113 A 
HETATM   10  C10 UNL     1      -5.836   3.977  -0.896  1.00  0.00     0.051 C 
HETATM   11  O5  UNL     1      -5.641   1.491  -0.504  1.00  0.00    -0.363 OA
HETATM   12  C11 UNL     1      -4.903   1.858  -1.587  1.00  0.00     0.197 A 
HETATM   13  C12 UNL     1      -3.835   1.034  -2.221  1.00  0.00     0.101 C 
HETATM   14  C13 UNL     1      -2.463   1.576  -2.192  1.00  0.00     0.053 C 
HETATM   15  C14 UNL     1      -3.869  -0.377  -1.731  1.00  0.00     0.009 C 
HETATM   16  C15 UNL     1      -3.031  -1.332  -1.636  1.00  0.00    -0.019 C 
HETATM   17  C16 UNL     1      -1.603  -1.527  -1.966  1.00  0.00     0.039 C 
HETATM   18  C17 UNL     1      -1.440  -2.417  -3.204  1.00  0.00     0.019 C 
HETATM   19  C18 UNL     1      -0.807  -2.105  -0.824  1.00  0.00    -0.019 C 
HETATM   20  C19 UNL     1       0.498  -1.947  -0.944  1.00  0.00    -0.014 C 
ENDROOT
BRANCH   1  21
HETATM   21  O1  UNL     1      -0.909  -4.183   0.431  1.00  0.00    -0.353 OA
HETATM   22  C1  UNL     1      -1.294  -5.028   1.481  1.00  0.00     0.210 C 
ENDBRANCH   1  21
BRANCH  20  23
HETATM   23  C20 UNL     1       1.516  -2.458   0.000  1.00  0.00     0.059 C 
BRANCH  23  24
HETATM   24  C21 UNL     1       2.360  -1.360   0.622  1.00  0.00     0.124 C 
BRANCH  24  25
HETATM   25  O7  UNL     1       1.606  -0.452   1.332  1.00  0.00    -0.395 OA
ATOM     26  H7  UNL     1       2.134   0.235   1.721  1.00  0.00     0.210 HD
ENDBRANCH  24  25
BRANCH  24  27
HETATM   27  C22 UNL     1       3.196  -0.679  -0.445  1.00  0.00     0.063 C 
BRANCH  27  28
HETATM   28  C23 UNL     1       4.051   0.422   0.170  1.00  0.00     0.120 C 
BRANCH  28  29
HETATM   29  O8  UNL     1       3.240   1.359   0.770  1.00  0.00    -0.395 OA
ATOM     30  H8  UNL     1       3.773   2.045   1.153  1.00  0.00     0.210 HD
ENDBRANCH  28  29
BRANCH  28  31
HETATM   31  C24 UNL     1       5.001  -0.136   1.199  1.00  0.00     0.032 C 
BRANCH  31  32
HETATM   32  C25 UNL     1       5.955  -1.147   0.673  1.00  0.00     0.007 C 
BRANCH  32  33
HETATM   33  C26 UNL     1       6.946  -0.673  -0.344  1.00  0.00     0.036 C 
BRANCH  33  34
HETATM   34  C27 UNL     1       7.850   0.369   0.210  1.00  0.00    -0.050 C 
HETATM   35  C28 UNL     1       8.605   0.091   1.490  1.00  0.00     0.046 C 
HETATM   36  C29 UNL     1       8.014   1.518  -0.375  1.00  0.00     0.105 C 
HETATM   37 CL1  UNL     1       9.098   2.710   0.334  1.00  0.00    -0.071 Cl
HETATM   38 CL2  UNL     1       7.222   1.919  -1.870  1.00  0.00    -0.071 Cl
ENDBRANCH  33  34
ENDBRANCH  32  33
ENDBRANCH  31  32
ENDBRANCH  28  31
ENDBRANCH  27  28
ENDBRANCH  24  27
ENDBRANCH  23  24
ENDBRANCH  20  23
BRANCH   4  39
HETATM   39  O3  UNL     1      -1.759   0.092   3.170  1.00  0.00    -0.371 OA
ATOM     40  H3  UNL     1      -1.528   0.957   3.488  1.00  0.00     0.212 HD
ENDBRANCH   4  39
BRANCH  13  41
HETATM   41  O6  UNL     1      -4.128   0.993  -3.591  1.00  0.00    -0.383 OA
ATOM     42  H6  UNL     1      -3.447   0.468  -3.995  1.00  0.00     0.211 HD
ENDBRANCH  13  41
BRANCH   8  43
HETATM   43  O4  UNL     1      -5.635   3.055   1.526  1.00  0.00    -0.392 OA
ATOM     44  H4  UNL     1      -6.231   3.513   0.945  1.00  0.00     0.210 HD
ENDBRANCH   8  43
TORSDOF 14
