REMARK  8 active torsions:
REMARK  status: ('A' for Active; 'I' for Inactive)
REMARK    1  A    between atoms: C2_2  and  C3_3 
REMARK    2  A    between atoms: C3_3  and  C4_4 
REMARK    3  A    between atoms: C4_4  and  N1_5 
REMARK    4  A    between atoms: C4_4  and  C13_18 
REMARK    5  A    between atoms: N1_5  and  S1_7 
REMARK    6  A    between atoms: S1_7  and  C5_10 
REMARK       I    between atoms: C13_18  and  N2_20 
REMARK    7  A    between atoms: N2_20  and  C14_22 
REMARK    8  A    between atoms: C14_22  and  C15_23 
ROOT
HETATM    1  C4  UNL     1       1.315  -1.155   0.566  1.00  0.00     0.193 C 
ENDROOT
BRANCH   1   2
HETATM    2  C3  UNL     1       1.107  -2.506  -0.023  1.00  0.00    -0.011 C 
HETATM    3  C25 UNL     1      -0.124  -2.604  -0.910  1.00  0.00     0.012 C 
HETATM    4  C26 UNL     1      -1.152  -3.423  -0.201  1.00  0.00     0.001 C 
HETATM    5  C27 UNL     1      -0.524  -3.969   1.058  1.00  0.00     0.001 C 
HETATM    6  C28 UNL     1       0.918  -3.584   1.027  1.00  0.00     0.012 C 
BRANCH   2   7
HETATM    7  C2  UNL     1       2.267  -2.845  -0.935  1.00  0.00     0.007 C 
HETATM    8  C1  UNL     1       2.155  -4.193  -1.563  1.00  0.00     0.006 C 
ENDBRANCH   2   7
ENDBRANCH   1   2
BRANCH   1   9
HETATM    9  N1  UNL     1       2.501  -0.998   1.321  1.00  0.00    -0.301 N 
ATOM     10  H1  UNL     1       2.821  -1.830   1.817  1.00  0.00     0.173 HD
BRANCH   9  11
HETATM   11  S1  UNL     1       3.418   0.322   1.505  1.00  0.00     0.260 S 
HETATM   12  O1  UNL     1       4.621  -0.078   2.409  1.00  0.00    -0.200 OA
HETATM   13  O2  UNL     1       2.783   1.418   2.371  1.00  0.00    -0.200 OA
BRANCH  11  14
HETATM   14  C5  UNL     1       4.173   1.076   0.166  1.00  0.00     0.085 A 
HETATM   15  C6  UNL     1       3.927   0.697  -1.122  1.00  0.00     0.026 A 
HETATM   16  C7  UNL     1       4.499   1.299  -2.240  1.00  0.00     0.008 A 
HETATM   17  C8  UNL     1       5.367   2.344  -2.035  1.00  0.00    -0.061 A 
HETATM   18  C9  UNL     1       6.017   3.037  -3.170  1.00  0.00     0.048 C 
HETATM   19  C10 UNL     1       5.647   2.763  -0.766  1.00  0.00     0.015 A 
HETATM   20  C11 UNL     1       5.065   2.146   0.317  1.00  0.00    -0.038 A 
HETATM   21  C12 UNL     1       5.396   2.630   1.663  1.00  0.00     0.050 C 
ENDBRANCH  11  14
ENDBRANCH   9  11
ENDBRANCH   1   9
BRANCH   1  22
HETATM   22  C13 UNL     1       0.133  -0.835   1.510  1.00  0.00     0.241 C 
HETATM   23  O3  UNL     1       0.160  -1.140   2.717  1.00  0.00    -0.271 OA
HETATM   24  N2  UNL     1      -1.010  -0.184   1.028  1.00  0.00    -0.359 N 
ATOM     25  H2  UNL     1      -1.047   0.079   0.043  1.00  0.00     0.162 HD
BRANCH  24  26
HETATM   26  C14 UNL     1      -2.148   0.131   1.882  1.00  0.00     0.132 C 
BRANCH  26  27
HETATM   27  C15 UNL     1      -3.235   0.822   1.129  1.00  0.00    -0.023 C 
HETATM   28  C16 UNL     1      -4.392   1.134   2.032  1.00  0.00     0.015 C 
HETATM   29  C17 UNL     1      -5.530   1.758   1.279  1.00  0.00    -0.013 C 
HETATM   30  C18 UNL     1      -5.107   2.991   0.511  1.00  0.00     0.009 C 
HETATM   31  C22 UNL     1      -6.071   0.769   0.282  1.00  0.00     0.009 C 
HETATM   32  C19 UNL     1      -3.954   2.600  -0.384  1.00  0.00    -0.013 C 
HETATM   33  C20 UNL     1      -4.474   1.631  -1.400  1.00  0.00     0.009 C 
HETATM   34  C24 UNL     1      -2.805   2.062   0.425  1.00  0.00     0.015 C 
HETATM   35  C21 UNL     1      -4.950   0.392  -0.658  1.00  0.00    -0.013 C 
HETATM   36  C23 UNL     1      -3.762  -0.165   0.078  1.00  0.00     0.015 C 
ENDBRANCH  26  27
ENDBRANCH  24  26
ENDBRANCH   1  22
TORSDOF 8
