REMARK  8 active torsions:
REMARK  status: ('A' for Active; 'I' for Inactive)
REMARK    1  A    between atoms: C3_3  and  C4_4 
REMARK    2  A    between atoms: C4_4  and  N1_7 
REMARK    3  A    between atoms: N1_7  and  C7_8 
REMARK       I    between atoms: N1_7  and  C12_14 
REMARK    4  A    between atoms: C7_8  and  C8_9 
REMARK    5  A    between atoms: C12_14  and  C13_16 
REMARK    6  A    between atoms: C13_16  and  C14_19 
REMARK    7  A    between atoms: C14_19  and  O3_20 
REMARK    8  A    between atoms: N2_22  and  O4_24 
ROOT
HETATM    1  N1  UNL     1       0.733   0.003  -0.021  1.00  0.00    -0.307 N 
HETATM    2  C12 UNL     1       1.010  -1.100   0.812  1.00  0.00     0.306 C 
HETATM    3  O2  UNL     1       0.088  -1.966   1.066  1.00  0.00    -0.266 OA
ENDROOT
BRANCH   1   4
HETATM    4  C4  UNL     1      -0.582   0.069  -0.653  1.00  0.00     0.060 C 
HETATM    5  C5  UNL     1      -0.427  -1.054  -1.709  1.00  0.00     0.044 C 
HETATM    6  C6  UNL     1      -0.703   1.349  -1.466  1.00  0.00     0.044 C 
BRANCH   4   7
HETATM    7  C3  UNL     1      -1.787  -0.103   0.137  1.00  0.00    -0.006 A 
HETATM    8  C2  UNL     1      -2.031   0.315   1.364  1.00  0.00     0.021 A 
HETATM    9  C1  UNL     1      -1.194   1.086   2.335  1.00  0.00     0.055 C 
HETATM   10  C18 UNL     1      -3.389  -0.044   1.784  1.00  0.00     0.290 A 
HETATM   11  O5  UNL     1      -3.978  -0.702   0.761  1.00  0.00    -0.302 OA
HETATM   12  O6  UNL     1      -3.986   0.178   2.879  1.00  0.00    -0.260 OA
HETATM   13  C15 UNL     1      -3.078  -0.688  -0.327  1.00  0.00     0.090 A 
HETATM   14  C16 UNL     1      -3.040  -2.117  -0.781  1.00  0.00     0.051 C 
HETATM   15  C17 UNL     1      -3.794   0.108  -1.384  1.00  0.00     0.051 C 
ENDBRANCH   4   7
ENDBRANCH   1   4
BRANCH   1  16
HETATM   16  C7  UNL     1       1.730   0.937  -0.384  1.00  0.00     0.132 C 
BRANCH  16  17
HETATM   17  C8  UNL     1       2.033   2.134   0.381  1.00  0.00     0.090 A 
HETATM   18  C9  UNL     1       2.702   3.203  -0.280  1.00  0.00     0.040 A 
HETATM   19  C10 UNL     1       2.879   4.207   0.626  1.00  0.00     0.027 A 
HETATM   20  C11 UNL     1       2.335   3.762   1.802  1.00  0.00     0.142 A 
HETATM   21  O1  UNL     1       1.882   2.582   1.565  1.00  0.00    -0.321 OA
ENDBRANCH  16  17
ENDBRANCH   1  16
BRANCH   2  22
HETATM   22  C13 UNL     1       2.281  -1.447   1.474  1.00  0.00     0.387 C 
HETATM   23  F1  UNL     1       3.071  -0.428   1.872  1.00  0.00    -0.186 F 
HETATM   24  F2  UNL     1       1.944  -2.088   2.710  1.00  0.00    -0.186 F 
BRANCH  22  25
HETATM   25  C14 UNL     1       2.998  -2.502   0.679  1.00  0.00     0.219 C 
HETATM   26  N2  UNL     1       3.305  -3.629   1.241  1.00  0.00    -0.245 N 
ATOM     27  H2  UNL     1       3.048  -3.768   2.218  1.00  0.00     0.196 HD
BRANCH  25  28
HETATM   28  O3  UNL     1       3.366  -2.362  -0.640  1.00  0.00    -0.343 OA
ATOM     29  H3  UNL     1       3.819  -3.029  -1.142  1.00  0.00     0.219 HD
ENDBRANCH  25  28
BRANCH  26  30
HETATM   30  O4  UNL     1       3.957  -4.644   0.590  1.00  0.00    -0.288 OA
ATOM     31  H4  UNL     1       4.182  -5.470   1.002  1.00  0.00     0.244 HD
ENDBRANCH  26  30
ENDBRANCH  22  25
ENDBRANCH   2  22
TORSDOF 8
