REMARK  3 active torsions:
REMARK  status: ('A' for Active; 'I' for Inactive)
REMARK    1  A    between atoms: C3_4  and  N2_5 
REMARK    2  A    between atoms: C6_14  and  C7_15 
REMARK    3  A    between atoms: C7_15  and  N6_16 
ROOT
HETATM    1  C1  UNL     1      -2.151  -1.924  -0.565  1.00  0.00     0.157 C 
HETATM    2  N1  UNL     1      -1.119  -0.951  -0.345  1.00  0.00    -0.346 N 
HETATM    3  C2  UNL     1       0.183  -1.244  -0.251  1.00  0.00     0.142 A 
HETATM    4  C3  UNL     1       0.861  -0.058  -0.040  1.00  0.00     0.145 A 
HETATM    5  N5  UNL     1      -0.090   0.893  -0.019  1.00  0.00    -0.328 N 
ATOM      6  H5  UNL     1       0.096   1.886   0.120  1.00  0.00     0.169 HD
HETATM    7  C6  UNL     1      -1.318   0.372  -0.204  1.00  0.00     0.110 A 
ENDROOT
BRANCH   4   8
HETATM    8  N2  UNL     1       2.277   0.126   0.123  1.00  0.00    -0.233 N 
HETATM    9  C4  UNL     1       2.904   1.095   0.811  1.00  0.00     0.209 A 
HETATM   10  N3  UNL     1       4.240   0.955   0.747  1.00  0.00    -0.346 N 
HETATM   11  C5  UNL     1       4.433  -0.150  -0.016  1.00  0.00     0.199 A 
ATOM     12  H3  UNL     1       4.950   1.548   1.177  1.00  0.00     0.167 HD
HETATM   13  N4  UNL     1       3.212  -0.627  -0.377  1.00  0.00    -0.287 N 
ATOM     14  H4  UNL     1       3.053  -1.453  -0.954  1.00  0.00     0.188 HD
ENDBRANCH   4   8
BRANCH   7  15
HETATM   15  C7  UNL     1      -2.604   1.109  -0.242  1.00  0.00     0.306 C 
BRANCH  15  16
HETATM   16  N6  UNL     1      -3.216   1.225   1.065  1.00  0.00    -0.073 N 
ATOM     17  H63 UNL     1      -3.331   0.309   1.499  1.00  0.00     0.274 HD
ATOM     18  H62 UNL     1      -2.572   1.645   1.736  1.00  0.00     0.274 HD
ATOM     19  H61 UNL     1      -4.101   1.732   1.039  1.00  0.00     0.274 HD
ENDBRANCH  15  16
ENDBRANCH   7  15
TORSDOF 3
