REMARK  5 active torsions:
REMARK  status: ('A' for Active; 'I' for Inactive)
REMARK    1  A    between atoms: C3_5  and  N2_6 
REMARK    2  A    between atoms: N3_9  and  O1_10 
REMARK    3  A    between atoms: C6_14  and  C7_15 
REMARK    4  A    between atoms: C7_15  and  C8_16 
REMARK    5  A    between atoms: N4_17  and  O2_19 
ROOT
HETATM    1  C1  UNL     1       0.118  -2.560  -0.118  1.00  0.00     0.069 C 
HETATM    2  C2  UNL     1      -0.562  -1.282   0.161  1.00  0.00     0.031 A 
HETATM    3  N1  UNL     1      -1.717  -1.270   0.893  1.00  0.00    -0.194 N 
ATOM      4  H1  UNL     1      -2.089  -2.149   1.251  1.00  0.00     0.184 HD
HETATM    5  C3  UNL     1      -2.371  -0.128   1.150  1.00  0.00     0.702 A 
HETATM    6  N3  UNL     1      -1.875   1.021   0.674  1.00  0.00    -0.057 N 
HETATM    7  C4  UNL     1      -0.729   1.064  -0.059  1.00  0.00     0.063 A 
HETATM    8  C5  UNL     1      -0.269   2.351  -0.521  1.00  0.00     0.072 C 
HETATM    9  C6  UNL     1      -0.055  -0.097  -0.325  1.00  0.00    -0.005 A 
ENDROOT
BRANCH   9  10
HETATM   10  C7  UNL     1       1.175  -0.069  -1.080  1.00  0.00     0.089 C 
BRANCH  10  11
HETATM   11  C8  UNL     1       2.319  -0.123  -0.093  1.00  0.00     0.091 C 
HETATM   12  N4  UNL     1       3.433   0.468  -0.337  1.00  0.00    -0.284 N 
ATOM     13  H4  UNL     1       4.199   0.427   0.335  1.00  0.00     0.192 HD
BRANCH  12  14
HETATM   14  O2  UNL     1       3.577   1.155  -1.515  1.00  0.00    -0.291 OA
ATOM     15  H2  UNL     1       4.401   1.592  -1.695  1.00  0.00     0.244 HD
ENDBRANCH  12  14
ENDBRANCH  10  11
ENDBRANCH   9  10
BRANCH   6  16
HETATM   16  O1  UNL     1      -2.576   2.170   0.961  1.00  0.00    -0.269 OA
ATOM     17  H1  UNL     1      -2.224   2.985   0.623  1.00  0.00     0.245 HD
ENDBRANCH   6  16
BRANCH   5  18
HETATM   18  N2  UNL     1      -3.455  -0.195   1.848  1.00  0.00    -0.232 N 
ATOM     19  H22 UNL     1      -3.833  -1.070   2.211  1.00  0.00     0.174 HD
ATOM     20  H21 UNL     1      -3.952   0.674   2.044  1.00  0.00     0.174 HD
ENDBRANCH   5  18
TORSDOF 5
