REMARK  3 active torsions:
REMARK  status: ('A' for Active; 'I' for Inactive)
REMARK    1  A    between atoms: N3_8  and  C6_9 
REMARK    2  A    between atoms: C6_9  and  C7_10 
REMARK    3  A    between atoms: C7_10  and  N4_11 
ROOT
HETATM    1  C1  UNL     1       4.908  -0.151  -0.582  1.00  0.00     0.154 C 
HETATM    2  N1  UNL     1       3.487  -0.078  -0.213  1.00  0.00    -0.370 N 
HETATM    3  C2  UNL     1       3.089  -0.297   1.050  1.00  0.00     0.091 A 
HETATM    4  C3  UNL     1       1.772  -0.243   1.458  1.00  0.00     0.033 A 
HETATM    5  C4  UNL     1       0.819   0.056   0.492  1.00  0.00     0.018 A 
HETATM    6  C5  UNL     1      -0.526   0.123   0.849  1.00  0.00     0.129 A 
HETATM    7  N2  UNL     1      -0.931  -0.111   2.191  1.00  0.00    -0.082 NA
HETATM    8  N3  UNL     1      -1.452   0.411  -0.081  1.00  0.00    -0.343 N 
HETATM    9  C8  UNL     1      -1.034   0.627  -1.338  1.00  0.00     0.093 A 
HETATM   10  C9  UNL     1       0.275   0.571  -1.735  1.00  0.00     0.031 A 
HETATM   11  C10 UNL     1       1.253   0.276  -0.795  1.00  0.00    -0.006 A 
HETATM   12  C11 UNL     1       2.584   0.213  -1.166  1.00  0.00     0.102 A 
ENDROOT
BRANCH   8  13
HETATM   13  C6  UNL     1      -2.861   0.497   0.221  1.00  0.00     0.156 C 
BRANCH  13  14
HETATM   14  C7  UNL     1      -3.567  -0.828   0.061  1.00  0.00     0.249 C 
BRANCH  14  15
HETATM   15  N4  UNL     1      -4.975  -0.586   0.398  1.00  0.00    -0.078 N 
ATOM     16  H43 UNL     1      -5.105  -0.166   1.318  1.00  0.00     0.274 HD
ATOM     17  H42 UNL     1      -5.398   0.167  -0.144  1.00  0.00     0.274 HD
ATOM     18  H41 UNL     1      -5.452  -1.481   0.290  1.00  0.00     0.274 HD
ENDBRANCH  14  15
ENDBRANCH  13  14
ENDBRANCH   8  13
TORSDOF 3
