REMARK  4 active torsions:
REMARK  status: ('A' for Active; 'I' for Inactive)
REMARK    1  A    between atoms: S1_2  and  N1_4 
REMARK    2  A    between atoms: S1_2  and  C8_17 
REMARK    3  A    between atoms: N1_4  and  C1_6 
REMARK    4  A    between atoms: C2_9  and  C3_10 
ROOT
HETATM    1  O1  UNL     1      -1.466  -0.595  -3.492  1.00  0.00    -0.200 OA
HETATM    2  S1  UNL     1      -1.395  -0.485  -1.995  1.00  0.00     0.272 S 
HETATM    3  O2  UNL     1      -1.366  -1.858  -1.439  1.00  0.00    -0.200 OA
ENDROOT
BRANCH   2   4
HETATM    4  N1  UNL     1       0.017   0.427  -1.609  1.00  0.00    -0.259 N 
ATOM      5  H1  UNL     1       0.060   1.436  -1.752  1.00  0.00     0.181 HD
BRANCH   4   6
HETATM    6  C1  UNL     1       1.035  -0.248  -1.121  1.00  0.00     0.158 A 
HETATM    7  N2  UNL     1       2.223   0.217  -0.749  1.00  0.00    -0.335 N 
HETATM    8  C2  UNL     1       3.106  -0.640  -0.283  1.00  0.00     0.058 A 
ATOM      9  H2  UNL     1       2.444   1.210  -0.823  1.00  0.00     0.168 HD
HETATM   10  C7  UNL     1       2.741  -1.953  -0.213  1.00  0.00     0.084 A 
HETATM   11  S3  UNL     1       1.147  -1.919  -0.816  1.00  0.00    -0.063 SA
BRANCH   8  12
HETATM   12  C3  UNL     1       4.460  -0.195   0.155  1.00  0.00     0.032 A 
HETATM   13  C4  UNL     1       5.470  -0.966   0.656  1.00  0.00     0.021 A 
HETATM   14  C5  UNL     1       6.613  -0.344   0.986  1.00  0.00     0.008 A 
HETATM   15  C6  UNL     1       6.669   1.011   0.794  1.00  0.00     0.050 A 
HETATM   16  S2  UNL     1       5.130   1.372   0.160  1.00  0.00    -0.100 SA
ENDBRANCH   8  12
ENDBRANCH   4   6
ENDBRANCH   2   4
BRANCH   2  17
HETATM   17  C8  UNL     1      -2.835   0.396  -1.487  1.00  0.00     0.132 A 
HETATM   18  S4  UNL     1      -3.733   1.513  -2.399  1.00  0.00    -0.067 SA
HETATM   19  C9  UNL     1      -4.923   1.905  -1.252  1.00  0.00     0.064 A 
HETATM   20 BR1  UNL     1      -6.392   3.140  -1.463  1.00  0.00    -0.042 Br
HETATM   21  C10 UNL     1      -4.587   1.144  -0.165  1.00  0.00     0.001 A 
HETATM   22  C11 UNL     1      -5.297   1.131   1.057  1.00  0.00     0.014 A 
HETATM   23  C15 UNL     1      -3.497   0.354  -0.284  1.00  0.00     0.006 A 
HETATM   24  C12 UNL     1      -4.914   0.343   2.122  1.00  0.00     0.001 A 
HETATM   25  C13 UNL     1      -3.801  -0.464   2.002  1.00  0.00     0.001 A 
HETATM   26  C14 UNL     1      -3.110  -0.451   0.814  1.00  0.00     0.014 A 
ENDBRANCH   2  17
TORSDOF 4
