REMARK  9 active torsions:
REMARK  status: ('A' for Active; 'I' for Inactive)
REMARK    1  A    between atoms: C2_2  and  C3_6 
REMARK    2  A    between atoms: C3_6  and  N2_7 
REMARK    3  A    between atoms: C3_6  and  C4_11 
REMARK       I    between atoms: C4_11  and  N3_13 
REMARK    4  A    between atoms: N3_13  and  C5_15 
REMARK    5  A    between atoms: C5_15  and  C7_17 
REMARK    6  A    between atoms: C7_17  and  C8_18 
REMARK    7  A    between atoms: C8_18  and  C9_20 
REMARK    8  A    between atoms: C9_20  and  C10_21 
REMARK    9  A    between atoms: C10_21  and  C11_22 
ROOT
HETATM    1  C4  UNL     1       3.032  -0.981   0.215  1.00  0.00     0.254 C 
HETATM    2  O1  UNL     1       2.748  -2.145  -0.158  1.00  0.00    -0.271 OA
HETATM    3  N3  UNL     1       2.094   0.063   0.035  1.00  0.00    -0.354 N 
ATOM      4  H3  UNL     1       2.314   1.013   0.335  1.00  0.00     0.162 HD
ENDROOT
BRANCH   3   5
HETATM    5  C5  UNL     1       0.825  -0.234  -0.578  1.00  0.00     0.087 C 
HETATM    6  C6  UNL     1       0.635   0.595  -1.829  1.00  0.00     0.032 C 
BRANCH   5   7
HETATM    7  C7  UNL     1      -0.328   0.084   0.350  1.00  0.00     0.103 C 
BRANCH   7   8
HETATM    8  C8  UNL     1      -1.599  -0.239  -0.326  1.00  0.00     0.129 C 
HETATM    9  O2  UNL     1      -1.561  -0.689  -1.456  1.00  0.00    -0.298 OA
BRANCH   8  10
HETATM   10  C9  UNL     1      -2.928  -0.029   0.344  1.00  0.00     0.084 C 
BRANCH  10  11
HETATM   11  C10 UNL     1      -4.022  -0.454  -0.607  1.00  0.00     0.066 C 
BRANCH  11  12
HETATM   12  C11 UNL     1      -5.365  -0.267   0.003  1.00  0.00     0.025 A 
HETATM   13  C12 UNL     1      -6.589  -0.544  -0.559  1.00  0.00     0.114 A 
HETATM   14  N4  UNL     1      -7.577  -0.242   0.302  1.00  0.00    -0.360 N 
HETATM   15  C13 UNL     1      -6.967   0.228   1.415  1.00  0.00     0.180 A 
ATOM     16  H4  UNL     1      -8.580  -0.346   0.148  1.00  0.00     0.166 HD
HETATM   17  N5  UNL     1      -5.633   0.216   1.244  1.00  0.00    -0.355 N 
ATOM     18  H5  UNL     1      -4.941   0.518   1.929  1.00  0.00     0.166 HD
ENDBRANCH  11  12
ENDBRANCH  10  11
ENDBRANCH   8  10
ENDBRANCH   7   8
ENDBRANCH   5   7
ENDBRANCH   3   5
BRANCH   1  19
HETATM   19  C3  UNL     1       4.336  -0.654   0.849  1.00  0.00     0.319 C 
BRANCH  19  20
HETATM   20  C2  UNL     1       5.025   0.361   0.017  1.00  0.00     0.015 C 
HETATM   21  C1  UNL     1       6.359   0.854   0.458  1.00  0.00     0.065 C 
HETATM   22  N1  UNL     1       4.463   0.782  -1.047  1.00  0.00    -0.404 N 
ATOM     23  H12 UNL     1       4.937   1.480  -1.620  1.00  0.00     0.155 HD
ATOM     24  H11 UNL     1       3.549   0.444  -1.349  1.00  0.00     0.155 HD
ENDBRANCH  19  20
BRANCH  19  25
HETATM   25  N2  UNL     1       5.163  -1.840   0.991  1.00  0.00    -0.061 N 
ATOM     26  H23 UNL     1       5.443  -2.218   0.086  1.00  0.00     0.275 HD
ATOM     27  H22 UNL     1       6.089  -1.616   1.355  1.00  0.00     0.275 HD
ATOM     28  H21 UNL     1       4.689  -2.538   1.564  1.00  0.00     0.275 HD
ENDBRANCH  19  25
ENDBRANCH   1  19
TORSDOF 9
