REMARK  11 active torsions:
REMARK  status: ('A' for Active; 'I' for Inactive)
REMARK    1  A    between atoms: C2_2  and  C3_3 
REMARK    2  A    between atoms: C3_3  and  C4_4 
REMARK    3  A    between atoms: C5_5  and  C6_6 
REMARK    4  A    between atoms: C6_6  and  N1_7 
REMARK    5  A    between atoms: C9_10  and  C10_11 
REMARK       I    between atoms: C10_11  and  N2_13 
REMARK    6  A    between atoms: N2_13  and  C11_15 
REMARK    7  A    between atoms: C16_20  and  C17_21 
REMARK    8  A    between atoms: C17_21  and  C18_22 
REMARK    9  A    between atoms: C18_22  and  C19_23 
REMARK   10  A    between atoms: C19_23  and  C20_24 
REMARK   11  A    between atoms: C20_24  and  O2_25 
ROOT
HETATM    1  N1  UNL     1       1.888  -0.232  -0.119  1.00  0.00    -0.044 N 
HETATM    2  C7  UNL     1       1.077   0.255  -1.200  1.00  0.00     0.241 C 
HETATM    3  C8  UNL     1      -0.149  -0.583  -1.306  1.00  0.00     0.048 C 
HETATM    4  C9  UNL     1      -1.005  -0.364  -0.069  1.00  0.00     0.052 C 
HETATM    5  C15 UNL     1      -1.863   0.836  -0.382  1.00  0.00     0.025 C 
HETATM    6  C16 UNL     1      -2.666   1.371   0.739  1.00  0.00    -0.013 C 
HETATM    7  C21 UNL     1      -1.781   1.736   1.890  1.00  0.00     0.005 C 
HETATM    8  C22 UNL     1      -0.339   1.387   1.605  1.00  0.00     0.013 C 
HETATM    9  C23 UNL     1      -0.222  -0.082   1.161  1.00  0.00     0.007 C 
HETATM   10  C24 UNL     1      -0.804  -0.832   2.364  1.00  0.00     0.019 C 
HETATM   11  C25 UNL     1       1.236  -0.408   1.115  1.00  0.00     0.160 A 
HETATM   12  C26 UNL     1       1.739  -1.566   1.968  1.00  0.00     0.049 C 
HETATM   13  C27 UNL     1       2.264   0.680   0.945  1.00  0.00     0.279 A 
ENDROOT
BRANCH   4  14
HETATM   14  C10 UNL     1      -1.878  -1.576   0.006  1.00  0.00     0.228 C 
HETATM   15  O1  UNL     1      -3.121  -1.460  -0.035  1.00  0.00    -0.273 OA
HETATM   16  N2  UNL     1      -1.376  -2.901   0.123  1.00  0.00    -0.352 N 
ATOM     17  H2  UNL     1      -0.368  -3.056   0.160  1.00  0.00     0.163 HD
BRANCH  16  18
HETATM   18  C11 UNL     1      -2.267  -4.024   0.190  1.00  0.00     0.022 C 
HETATM   19  C12 UNL     1      -3.202  -3.948   1.380  1.00  0.00     0.037 C 
HETATM   20  C13 UNL     1      -1.502  -5.306   0.133  1.00  0.00     0.037 C 
HETATM   21  C14 UNL     1      -3.150  -3.963  -1.049  1.00  0.00     0.037 C 
ENDBRANCH  16  18
ENDBRANCH   4  14
BRANCH   6  22
HETATM   22  C17 UNL     1      -3.478   2.548   0.249  1.00  0.00     0.005 C 
BRANCH  22  23
HETATM   23  C18 UNL     1      -2.680   3.681  -0.287  1.00  0.00     0.002 C 
BRANCH  23  24
HETATM   24  C19 UNL     1      -3.610   4.788  -0.728  1.00  0.00     0.026 C 
BRANCH  24  25
HETATM   25  C20 UNL     1      -4.577   4.397  -1.796  1.00  0.00     0.164 C 
BRANCH  25  26
HETATM   26  O2  UNL     1      -5.341   5.560  -2.065  1.00  0.00    -0.401 OA
ATOM     27  H2  UNL     1      -5.956   5.311  -2.745  1.00  0.00     0.209 HD
ENDBRANCH  25  26
ENDBRANCH  24  25
ENDBRANCH  23  24
ENDBRANCH  22  23
ENDBRANCH   6  22
BRANCH   1  28
HETATM   28  C6  UNL     1       2.966  -1.141  -0.501  1.00  0.00     0.332 C 
BRANCH  28  29
HETATM   29  C5  UNL     1       4.284  -0.555  -0.256  1.00  0.00    -0.079 C 
HETATM   30  C4  UNL     1       5.381  -0.090  -0.058  1.00  0.00    -0.105 C 
BRANCH  30  31
HETATM   31  C3  UNL     1       6.715   0.453   0.197  1.00  0.00     0.093 C 
BRANCH  31  32
HETATM   32  C2  UNL     1       7.412   0.572  -1.142  1.00  0.00     0.007 C 
HETATM   33  C1  UNL     1       8.811   1.140  -0.887  1.00  0.00     0.006 C 
ENDBRANCH  31  32
ENDBRANCH  30  31
ENDBRANCH  28  29
ENDBRANCH   1  28
TORSDOF 11
