REMARK  4 active torsions:
REMARK  status: ('A' for Active; 'I' for Inactive)
REMARK    1  A    between atoms: C4_4  and  N1_5 
REMARK       I    between atoms: N1_5  and  C5_7 
REMARK    2  A    between atoms: C5_7  and  C6_9 
REMARK    3  A    between atoms: C10_17  and  N2_18 
REMARK    4  A    between atoms: N2_18  and  N3_20 
ROOT
HETATM    1  C6  UNL     1      -1.872   0.409   0.107  1.00  0.00     0.106 A 
HETATM    2  S1  UNL     1      -2.043   0.733  -1.555  1.00  0.00    -0.038 SA
HETATM    3  C7  UNL     1      -3.659   0.642  -2.079  1.00  0.00     0.237 A 
HETATM    4  O2  UNL     1      -3.992   0.853  -3.290  1.00  0.00    -0.278 OA
HETATM    5  C8  UNL     1      -4.573   0.326  -1.099  1.00  0.00     0.115 A 
HETATM    6 CL1  UNL     1      -6.254   0.239  -1.677  1.00  0.00    -0.077 Cl
HETATM    7  C9  UNL     1      -4.276   0.089   0.220  1.00  0.00     0.089 A 
HETATM    8 CL2  UNL     1      -5.640  -0.298   1.272  1.00  0.00    -0.080 Cl
HETATM    9  C10 UNL     1      -3.043   0.120   0.806  1.00  0.00     0.095 A 
ENDROOT
BRANCH   1  10
HETATM   10  C5  UNL     1      -0.557   0.434   0.770  1.00  0.00     0.266 C 
HETATM   11  N1  UNL     1       0.563   0.738  -0.027  1.00  0.00    -0.307 N 
ATOM     12  H1  UNL     1       0.421   1.361  -0.822  1.00  0.00     0.170 HD
HETATM   13  O1  UNL     1      -0.497   0.188   1.989  1.00  0.00    -0.267 OA
BRANCH  11  14
HETATM   14  C4  UNL     1       1.743   0.293   0.171  1.00  0.00     0.124 A 
HETATM   15  C3  UNL     1       2.814   0.629  -0.652  1.00  0.00     0.076 A 
HETATM   16  C2  UNL     1       3.952  -0.003  -0.185  1.00  0.00     0.025 A 
HETATM   17  C1  UNL     1       5.341   0.057  -0.744  1.00  0.00     0.070 C 
HETATM   18  N6  UNL     1       3.562  -0.701   0.895  1.00  0.00    -0.304 N 
HETATM   19  N5  UNL     1       2.252  -0.521   1.100  1.00  0.00    -0.285 N 
ATOM     20  H6  UNL     1       4.172  -1.280   1.471  1.00  0.00     0.186 HD
ATOM     21  H5  UNL     1       1.718  -0.945   1.858  1.00  0.00     0.188 HD
ENDBRANCH  11  14
ENDBRANCH   1  10
BRANCH   9  22
HETATM   22  N2  UNL     1      -2.840  -0.144   2.197  1.00  0.00    -0.284 N 
ATOM     23  H2  UNL     1      -2.286   0.492   2.771  1.00  0.00     0.188 HD
BRANCH  22  24
HETATM   24  N3  UNL     1      -3.346  -1.153   2.689  1.00  0.00    -0.249 N 
HETATM   25  N4  UNL     1      -3.319  -2.310   3.098  1.00  0.00    -0.331 N 
ATOM     26  H42 UNL     1      -2.341  -2.547   2.933  1.00  0.00     0.178 HD
ATOM     27  H41 UNL     1      -3.738  -3.146   3.506  1.00  0.00     0.178 HD
ATOM     28  H3  UNL     1      -4.317  -0.877   2.838  1.00  0.00     0.207 HD
ENDBRANCH  22  24
ENDBRANCH   9  22
TORSDOF 4
