REMARK  17 active torsions:
REMARK  status: ('A' for Active; 'I' for Inactive)
REMARK    1  A    between atoms: C2_2  and  C3_3 
REMARK    2  A    between atoms: C3_3  and  C5_5 
REMARK    3  A    between atoms: C5_5  and  O1_6 
REMARK    4  A    between atoms: C5_5  and  C6_8 
REMARK    5  A    between atoms: C6_8  and  C7_10 
REMARK    6  A    between atoms: C7_10  and  O3_11 
REMARK    7  A    between atoms: C9_15  and  O5_16 
REMARK    8  A    between atoms: C17_26  and  O7_27 
REMARK    9  A    between atoms: C17_26  and  C18_29 
REMARK   10  A    between atoms: C20_32  and  O9_33 
REMARK   11  A    between atoms: C20_32  and  C21_35 
REMARK   12  A    between atoms: C21_35  and  O10_36 
REMARK   13  A    between atoms: C21_35  and  C22_38 
REMARK   14  A    between atoms: C25_42  and  O12_43 
REMARK   15  A    between atoms: O12_43  and  C26_44 
REMARK   16  A    between atoms: C26_44  and  C27_46 
REMARK   17  A    between atoms: C27_46  and  C28_47 
ROOT
HETATM    1  C7  UNL     1      -0.901   0.317  -0.354  1.00  0.00     0.218 C 
HETATM    2  C8  UNL     1       0.217   0.757   0.520  1.00  0.00     0.214 C 
HETATM    3  O4  UNL     1       0.116   1.849   1.018  1.00  0.00    -0.290 OA
HETATM    4  C9  UNL     1       1.400  -0.092   0.770  1.00  0.00     0.190 C 
HETATM    5  C10 UNL     1       1.675  -0.695  -0.562  1.00  0.00     0.036 C 
HETATM    6  C11 UNL     1       2.746  -0.414  -1.265  1.00  0.00     0.026 C 
HETATM    7  C12 UNL     1       3.764   0.515  -0.802  1.00  0.00     0.002 A 
HETATM    8  C13 UNL     1       3.631   1.077   0.375  1.00  0.00    -0.007 A 
HETATM    9  C14 UNL     1       4.628   2.048   0.832  1.00  0.00     0.015 A 
HETATM   10  C15 UNL     1       5.653   2.347   0.071  1.00  0.00     0.055 A 
HETATM   11  C16 UNL     1       5.847   1.753  -1.221  1.00  0.00     0.196 A 
HETATM   12  O6  UNL     1       6.825   2.083  -1.930  1.00  0.00    -0.289 OA
HETATM   13  C17 UNL     1       4.921   0.756  -1.742  1.00  0.00     0.210 A 
HETATM   14  C20 UNL     1       2.637   0.513   1.327  1.00  0.00     0.154 C 
HETATM   15  C24 UNL     1       0.581  -1.530  -1.097  1.00  0.00     0.192 C 
HETATM   16  O11 UNL     1       0.906  -2.518  -1.770  1.00  0.00    -0.290 OA
HETATM   17  C25 UNL     1      -0.824  -1.133  -0.801  1.00  0.00     0.256 C 
ENDROOT
BRANCH   1  18
HETATM   18  C6  UNL     1      -2.195   0.590   0.302  1.00  0.00     0.200 C 
HETATM   19  O2  UNL     1      -2.443   0.045   1.378  1.00  0.00    -0.291 OA
BRANCH  18  20
HETATM   20  C5  UNL     1      -3.238   1.466  -0.233  1.00  0.00     0.195 C 
BRANCH  20  21
HETATM   21  C3  UNL     1      -2.923   2.915  -0.354  1.00  0.00     0.017 C 
HETATM   22  C4  UNL     1      -3.009   3.634   0.986  1.00  0.00     0.013 C 
BRANCH  21  23
HETATM   23  C2  UNL     1      -4.098   3.524  -1.158  1.00  0.00     0.002 C 
HETATM   24  C1  UNL     1      -4.174   2.925  -2.534  1.00  0.00     0.005 C 
ENDBRANCH  21  23
ENDBRANCH  20  21
BRANCH  20  25
HETATM   25  O1  UNL     1      -4.454   1.393   0.471  1.00  0.00    -0.388 OA
ATOM     26  H1  UNL     1      -4.655   0.468   0.548  1.00  0.00     0.210 HD
ENDBRANCH  20  25
ENDBRANCH  18  20
ENDBRANCH   1  18
BRANCH   1  27
HETATM   27  O3  UNL     1      -0.847   1.146  -1.501  1.00  0.00    -0.372 OA
ATOM     28  H3  UNL     1      -0.014   0.970  -1.923  1.00  0.00     0.211 HD
ENDBRANCH   1  27
BRANCH  17  29
HETATM   29  O12 UNL     1      -1.572  -2.023  -0.061  1.00  0.00    -0.304 OA
BRANCH  29  30
HETATM   30  C26 UNL     1      -2.662  -2.737  -0.468  1.00  0.00     0.260 C 
HETATM   31  O13 UNL     1      -3.033  -2.572  -1.652  1.00  0.00    -0.265 OA
BRANCH  30  32
HETATM   32  C27 UNL     1      -3.422  -3.679   0.383  1.00  0.00     0.115 C 
BRANCH  32  33
HETATM   33  C28 UNL     1      -4.578  -4.310  -0.316  1.00  0.00    -0.013 C 
HETATM   34  C29 UNL     1      -5.606  -3.332  -0.815  1.00  0.00     0.010 C 
HETATM   35  C30 UNL     1      -5.281  -5.201   0.719  1.00  0.00     0.010 C 
ENDBRANCH  32  33
ENDBRANCH  30  32
ENDBRANCH  29  30
ENDBRANCH  17  29
BRANCH   4  36
HETATM   36  O5  UNL     1       1.024  -1.115   1.689  1.00  0.00    -0.374 OA
ATOM     37  H5  UNL     1       1.785  -1.661   1.850  1.00  0.00     0.211 HD
ENDBRANCH   4  36
BRANCH  14  38
HETATM   38  O9  UNL     1       3.301  -0.732   1.734  1.00  0.00    -0.378 OA
ATOM     39  H9  UNL     1       4.092  -0.345   2.090  1.00  0.00     0.211 HD
ENDBRANCH  14  38
BRANCH  14  40
HETATM   40  C21 UNL     1       2.448   1.243   2.593  1.00  0.00     0.161 C 
BRANCH  40  41
HETATM   41  O10 UNL     1       1.321   0.585   3.244  1.00  0.00    -0.392 OA
ATOM     42  H10 UNL     1       1.199   1.056   4.060  1.00  0.00     0.210 HD
ENDBRANCH  40  41
BRANCH  40  43
HETATM   43  C22 UNL     1       3.543   0.985   3.624  1.00  0.00     0.031 C 
HETATM   44  C23 UNL     1       3.650  -0.413   4.133  1.00  0.00     0.007 C 
ENDBRANCH  40  43
ENDBRANCH  14  40
BRANCH  13  45
HETATM   45  O7  UNL     1       4.395   1.259  -2.945  1.00  0.00    -0.370 OA
ATOM     46  H7  UNL     1       5.123   1.411  -3.536  1.00  0.00     0.212 HD
ENDBRANCH  13  45
BRANCH  13  47
HETATM   47  C18 UNL     1       5.594  -0.521  -2.068  1.00  0.00     0.170 C 
HETATM   48  C19 UNL     1       5.647  -1.079  -3.443  1.00  0.00     0.095 C 
HETATM   49  O8  UNL     1       6.138  -1.164  -1.181  1.00  0.00    -0.294 OA
ENDBRANCH  13  47
TORSDOF 17
