REMARK  19 active torsions:
REMARK  status: ('A' for Active; 'I' for Inactive)
REMARK    1  A    between atoms: C2_2  and  O1_3 
REMARK    2  A    between atoms: O1_3  and  C3_4 
REMARK    3  A    between atoms: C3_4  and  C4_6 
REMARK    4  A    between atoms: C4_6  and  C5_7 
REMARK    5  A    between atoms: C5_7  and  O3_8 
REMARK    6  A    between atoms: C5_7  and  C6_10 
REMARK    7  A    between atoms: C6_10  and  O5_12 
REMARK    8  A    between atoms: O5_12  and  C7_13 
REMARK    9  A    between atoms: C10_16  and  O6_18 
REMARK   10  A    between atoms: C13_21  and  O7_22 
REMARK   11  A    between atoms: O7_22  and  C14_23 
REMARK   12  A    between atoms: C16_26  and  O9_27 
REMARK   13  A    between atoms: O9_27  and  C17_28 
REMARK   14  A    between atoms: C21_33  and  C22_34 
REMARK   15  A    between atoms: C22_34  and  O11_35 
REMARK   16  A    between atoms: O11_35  and  C23_36 
REMARK       I    between atoms: C23_36  and  N1_38 
REMARK   17  A    between atoms: N1_38  and  C24_40 
REMARK   18  A    between atoms: C24_40  and  C25_41 
REMARK   19  A    between atoms: C24_40  and  C27_43 
ROOT
HETATM    1  C7  UNL     1       0.652  -1.037  -0.944  1.00  0.00     0.137 C 
HETATM    2  C8  UNL     1      -0.507  -1.014  -1.955  1.00  0.00     0.041 C 
HETATM    3  C9  UNL     1      -0.842   0.386  -1.937  1.00  0.00     0.036 C 
HETATM    4  C10 UNL     1      -2.006   1.040  -2.426  1.00  0.00     0.062 C 
HETATM    5  C11 UNL     1      -3.330   0.358  -2.381  1.00  0.00     0.046 C 
HETATM    6  C12 UNL     1      -1.969   2.349  -1.661  1.00  0.00     0.080 C 
HETATM    7  C13 UNL     1      -0.879   2.226  -0.591  1.00  0.00     0.110 C 
HETATM    8  C16 UNL     1       0.482   2.581  -0.989  1.00  0.00     0.168 C 
HETATM    9  C19 UNL     1       1.392   1.367  -0.689  1.00  0.00     0.043 C 
HETATM   10  C20 UNL     1       0.547   0.277  -0.151  1.00  0.00     0.032 C 
HETATM   11  C21 UNL     1      -0.817   0.727  -0.483  1.00  0.00     0.029 C 
ENDROOT
BRANCH   1  12
HETATM   12  O5  UNL     1       1.885  -1.177  -1.562  1.00  0.00    -0.314 OA
BRANCH  12  13
HETATM   13  C6  UNL     1       2.719  -2.245  -1.240  1.00  0.00     0.288 C 
HETATM   14  O4  UNL     1       2.331  -3.077  -0.378  1.00  0.00    -0.262 OA
BRANCH  13  15
HETATM   15  C5  UNL     1       4.030  -2.372  -1.917  1.00  0.00     0.226 C 
BRANCH  15  16
HETATM   16  C4  UNL     1       4.936  -1.176  -1.723  1.00  0.00     0.153 C 
BRANCH  16  17
HETATM   17  C3  UNL     1       5.272  -1.025  -0.298  1.00  0.00     0.261 C 
HETATM   18  O2  UNL     1       4.394  -0.702   0.528  1.00  0.00    -0.265 OA
BRANCH  17  19
HETATM   19  O1  UNL     1       6.579  -1.247   0.123  1.00  0.00    -0.322 OA
BRANCH  19  20
HETATM   20  C2  UNL     1       6.821  -1.084   1.528  1.00  0.00     0.174 C 
HETATM   21  C1  UNL     1       6.462   0.316   1.944  1.00  0.00     0.034 C 
ENDBRANCH  19  20
ENDBRANCH  17  19
ENDBRANCH  16  17
ENDBRANCH  15  16
BRANCH  15  22
HETATM   22  O3  UNL     1       4.658  -3.516  -1.469  1.00  0.00    -0.385 OA
ATOM     23  H3  UNL     1       4.089  -4.267  -1.591  1.00  0.00     0.210 HD
ENDBRANCH  15  22
ENDBRANCH  13  15
ENDBRANCH  12  13
ENDBRANCH   1  12
BRANCH  11  24
HETATM   24  C22 UNL     1      -1.837   0.208   0.404  1.00  0.00     0.194 C 
BRANCH  24  25
HETATM   25  O11 UNL     1      -1.894  -1.213   0.485  1.00  0.00    -0.303 OA
BRANCH  25  26
HETATM   26  C23 UNL     1      -2.866  -1.819   1.315  1.00  0.00     0.361 C 
HETATM   27  O12 UNL     1      -3.620  -1.056   1.933  1.00  0.00    -0.238 OA
HETATM   28  N1  UNL     1      -2.898  -3.220   1.374  1.00  0.00    -0.322 N 
ATOM     29  H1  UNL     1      -2.194  -3.699   0.813  1.00  0.00     0.165 HD
BRANCH  28  30
HETATM   30  C24 UNL     1      -3.777  -4.066   2.108  1.00  0.00     0.187 C 
BRANCH  30  31
HETATM   31  C25 UNL     1      -5.064  -3.429   2.619  1.00  0.00     0.032 C 
HETATM   32  C26 UNL     1      -5.879  -2.993   1.447  1.00  0.00     0.007 C 
ENDBRANCH  30  31
BRANCH  30  33
HETATM   33  C27 UNL     1      -3.057  -4.864   3.086  1.00  0.00     0.196 C 
HETATM   34  O13 UNL     1      -1.814  -4.750   3.209  1.00  0.00    -0.646 OA
HETATM   35  O14 UNL     1      -3.745  -5.770   3.905  1.00  0.00    -0.646 OA
ENDBRANCH  30  33
ENDBRANCH  28  30
ENDBRANCH  25  26
ENDBRANCH  24  25
ENDBRANCH  11  24
BRANCH   4  36
HETATM   36  O6  UNL     1      -1.803   1.392  -3.789  1.00  0.00    -0.390 OA
ATOM     37  H6  UNL     1      -2.581   1.829  -4.116  1.00  0.00     0.210 HD
ENDBRANCH   4  36
BRANCH   8  38
HETATM   38  O9  UNL     1       1.052   3.706  -0.335  1.00  0.00    -0.313 OA
BRANCH  38  39
HETATM   39  C17 UNL     1       1.638   4.772  -1.030  1.00  0.00     0.255 C 
HETATM   40  C18 UNL     1       2.217   5.942  -0.276  1.00  0.00     0.126 C 
HETATM   41  O10 UNL     1       1.652   4.698  -2.277  1.00  0.00    -0.266 OA
ENDBRANCH  38  39
ENDBRANCH   8  38
BRANCH   7  42
HETATM   42  O7  UNL     1      -1.331   2.770   0.638  1.00  0.00    -0.307 OA
BRANCH  42  43
HETATM   43  C14 UNL     1      -1.769   4.048   0.842  1.00  0.00     0.255 C 
HETATM   44  C15 UNL     1      -2.219   4.574   2.154  1.00  0.00     0.126 C 
HETATM   45  O8  UNL     1      -1.801   4.847  -0.120  1.00  0.00    -0.266 OA
ENDBRANCH  42  43
ENDBRANCH   7  42
TORSDOF 19
