REMARK  15 active torsions:
REMARK  status: ('A' for Active; 'I' for Inactive)
REMARK    1  A    between atoms: C2_2  and  C3_3 
REMARK    2  A    between atoms: C3_3  and  C5_5 
REMARK    3  A    between atoms: C5_5  and  C6_6 
REMARK    4  A    between atoms: C5_5  and  O1_8 
REMARK    5  A    between atoms: O1_8  and  C8_9 
REMARK    6  A    between atoms: C9_10  and  C10_11 
REMARK    7  A    between atoms: C10_11  and  O2_12 
REMARK    8  A    between atoms: C12_15  and  C13_16 
REMARK    9  A    between atoms: C14_18  and  C15_19 
REMARK   10  A    between atoms: C16_21  and  C17_22 
REMARK   11  A    between atoms: C18_25  and  O8_26 
REMARK   12  A    between atoms: C19_28  and  O9_29 
REMARK   13  A    between atoms: C20_31  and  O10_32 
REMARK   14  A    between atoms: C21_34  and  O11_35 
REMARK   15  A    between atoms: C22_37  and  O12_38 
ROOT
HETATM    1  C8  UNL     1      -2.188  -0.491   0.036  1.00  0.00     0.158 C 
HETATM    2  C9  UNL     1      -1.558   0.896   0.171  1.00  0.00     0.175 C 
HETATM    3  O3  UNL     1      -0.213   0.765  -0.031  1.00  0.00    -0.372 OA
HETATM    4  C12 UNL     1       0.125  -0.118  -1.085  1.00  0.00     0.171 C 
HETATM    5  C23 UNL     1      -0.121  -1.513  -0.669  1.00  0.00     0.130 C 
HETATM    6  C24 UNL     1      -0.844  -2.239  -1.744  1.00  0.00     0.067 C 
HETATM    7  N1  UNL     1      -1.393  -2.806  -2.596  1.00  0.00    -0.197 NA
HETATM    8  C25 UNL     1      -1.146  -1.460   0.483  1.00  0.00     0.033 C 
HETATM    9  C26 UNL     1      -1.617  -2.852   0.738  1.00  0.00     0.014 C 
ENDROOT
BRANCH   4  10
HETATM   10  C13 UNL     1       1.478   0.240  -1.519  1.00  0.00     0.183 C 
HETATM   11  O4  UNL     1       2.457   0.135  -0.522  1.00  0.00    -0.370 OA
HETATM   12  C14 UNL     1       3.537   0.714  -1.187  1.00  0.00     0.185 C 
HETATM   13  C21 UNL     1       3.564  -0.026  -2.503  1.00  0.00     0.181 C 
HETATM   14  C22 UNL     1       2.098  -0.479  -2.641  1.00  0.00     0.181 C 
BRANCH  12  15
HETATM   15  C15 UNL     1       4.819   0.596  -0.408  1.00  0.00     0.185 C 
HETATM   16  O5  UNL     1       5.143  -0.739  -0.175  1.00  0.00    -0.362 OA
HETATM   17  C16 UNL     1       6.495  -0.783   0.159  1.00  0.00     0.254 C 
HETATM   18  C18 UNL     1       6.936   0.383   0.988  1.00  0.00     0.189 C 
HETATM   19  C19 UNL     1       5.825   0.949   1.857  1.00  0.00     0.181 C 
HETATM   20  C20 UNL     1       4.692   1.307   0.932  1.00  0.00     0.181 C 
BRANCH  17  21
HETATM   21  C17 UNL     1       6.850  -2.076   0.810  1.00  0.00     0.205 C 
HETATM   22  O6  UNL     1       6.033  -2.995   1.024  1.00  0.00    -0.646 OA
HETATM   23  O7  UNL     1       8.169  -2.260   1.198  1.00  0.00    -0.646 OA
ENDBRANCH  17  21
BRANCH  18  24
HETATM   24  O8  UNL     1       8.021   0.090   1.797  1.00  0.00    -0.390 OA
ATOM     25  H8  UNL     1       8.301   0.830   2.323  1.00  0.00     0.210 HD
ENDBRANCH  18  24
BRANCH  19  26
HETATM   26  O9  UNL     1       6.306   2.081   2.492  1.00  0.00    -0.390 OA
ATOM     27  H9  UNL     1       5.612   2.435   3.035  1.00  0.00     0.210 HD
ENDBRANCH  19  26
BRANCH  20  28
HETATM   28  O10 UNL     1       4.694   2.690   0.766  1.00  0.00    -0.390 OA
ATOM     29  H10 UNL     1       4.615   3.134   1.602  1.00  0.00     0.210 HD
ENDBRANCH  20  28
ENDBRANCH  12  15
BRANCH  13  30
HETATM   30  O11 UNL     1       4.426  -1.087  -2.403  1.00  0.00    -0.390 OA
ATOM     31  H11 UNL     1       4.443  -1.553  -3.231  1.00  0.00     0.210 HD
ENDBRANCH  13  30
BRANCH  14  32
HETATM   32  O12 UNL     1       2.109  -1.840  -2.575  1.00  0.00    -0.390 OA
ATOM     33  H12 UNL     1       2.510  -2.305  -3.300  1.00  0.00     0.210 HD
ENDBRANCH  14  32
ENDBRANCH   4  10
BRANCH   1  34
HETATM   34  O1  UNL     1      -3.404  -0.561   0.655  1.00  0.00    -0.377 OA
BRANCH  34  35
HETATM   35  C5  UNL     1      -4.481  -0.699  -0.255  1.00  0.00     0.125 C 
BRANCH  35  36
HETATM   36  C3  UNL     1      -5.306   0.559  -0.275  1.00  0.00     0.010 C 
HETATM   37  C4  UNL     1      -5.981   0.919   0.995  1.00  0.00     0.012 C 
BRANCH  36  38
HETATM   38  C2  UNL     1      -6.290   0.481  -1.415  1.00  0.00     0.002 C 
HETATM   39  C1  UNL     1      -6.963   1.820  -1.590  1.00  0.00     0.005 C 
ENDBRANCH  36  38
ENDBRANCH  35  36
BRANCH  35  40
HETATM   40  C6  UNL     1      -5.244  -1.961  -0.088  1.00  0.00     0.028 C 
HETATM   41  C7  UNL     1      -6.039  -2.104   1.164  1.00  0.00     0.007 C 
ENDBRANCH  35  40
ENDBRANCH  34  35
ENDBRANCH   1  34
BRANCH   2  42
HETATM   42  C10 UNL     1      -1.825   1.335   1.594  1.00  0.00     0.201 C 
BRANCH  42  43
HETATM   43  O2  UNL     1      -1.230   2.545   1.879  1.00  0.00    -0.393 OA
HETATM   44  C11 UNL     1      -1.679   3.573   1.060  1.00  0.00     0.201 C 
ENDBRANCH  42  43
ENDBRANCH   2  42
TORSDOF 15
