REMARK  13 active torsions:
REMARK  status: ('A' for Active; 'I' for Inactive)
REMARK    1  A    between atoms: O1_2  and  C2_3 
REMARK    2  A    between atoms: C2_3  and  C3_5 
REMARK    3  A    between atoms: C5_8  and  O4_9 
REMARK    4  A    between atoms: N1_12  and  N2_13 
REMARK    5  A    between atoms: N2_13  and  C7_15 
REMARK    6  A    between atoms: C7_15  and  O5_16 
REMARK       I    between atoms: N4_21  and  C9_22 
REMARK    7  A    between atoms: N5_25  and  N6_26 
REMARK    8  A    between atoms: N6_26  and  N7_27 
REMARK    9  A    between atoms: C11_30  and  C12_31 
REMARK   10  A    between atoms: C12_31  and  O7_32 
REMARK   11  A    between atoms: C12_31  and  O8_34 
REMARK   12  A    between atoms: C13_36  and  C14_37 
REMARK   13  A    between atoms: C14_37  and  O9_38 
ROOT
HETATM    1  C3  UNL     1      -2.370  -0.209   0.884  1.00  0.00     0.124 C 
HETATM    2  C4  UNL     1      -2.808  -0.935   2.127  1.00  0.00     0.198 C 
HETATM    3  O3  UNL     1      -2.349  -2.214   1.932  1.00  0.00    -0.358 OA
HETATM    4  C5  UNL     1      -1.122  -2.130   1.289  1.00  0.00     0.283 C 
HETATM    5  C6  UNL     1      -0.954  -0.722   0.775  1.00  0.00     0.188 C 
HETATM    6  N1  UNL     1      -0.779  -0.657  -0.653  1.00  0.00    -0.278 N 
HETATM    7  C11 UNL     1      -2.053  -0.981  -1.232  1.00  0.00     0.089 C 
HETATM    8  C13 UNL     1      -2.999  -0.733  -0.364  1.00  0.00    -0.005 C 
ENDROOT
BRANCH   6   9
HETATM    9  N2  UNL     1       0.395  -0.343  -1.311  1.00  0.00    -0.274 N 
ATOM     10  H2  UNL     1       0.343   0.049  -2.251  1.00  0.00     0.189 HD
BRANCH   9  11
HETATM   11  C7  UNL     1       1.678  -0.548  -0.720  1.00  0.00     0.205 C 
HETATM   12  C8  UNL     1       2.592   0.427  -0.736  1.00  0.00     0.214 A 
HETATM   13  N3  UNL     1       2.701   1.750  -1.208  1.00  0.00    -0.254 N 
HETATM   14  N5  UNL     1       3.919   0.548  -0.254  1.00  0.00    -0.134 N 
HETATM   15  N4  UNL     1       4.000   1.852  -0.730  1.00  0.00    -0.138 N 
ATOM     16  H3  UNL     1       2.074   2.383  -1.705  1.00  0.00     0.191 HD
HETATM   17  C9  UNL     1       5.000   2.879  -0.732  1.00  0.00     0.255 C 
HETATM   18  C10 UNL     1       6.320   2.636  -0.111  1.00  0.00     0.121 C 
HETATM   19  O6  UNL     1       4.779   3.993  -1.254  1.00  0.00    -0.270 OA
BRANCH  11  20
HETATM   20  O5  UNL     1       1.967  -1.748  -0.138  1.00  0.00    -0.342 OA
ATOM     21  H5  UNL     1       2.821  -1.884   0.255  1.00  0.00     0.219 HD
ENDBRANCH  11  20
BRANCH  14  22
HETATM   22  N6  UNL     1       4.798  -0.292   0.423  1.00  0.00    -0.003 NA
BRANCH  22  23
HETATM   23  N7  UNL     1       5.547  -0.997  -0.527  1.00  0.00    -0.327 N 
ATOM     24  H72 UNL     1       5.453  -0.900  -1.538  1.00  0.00     0.174 HD
ATOM     25  H71 UNL     1       6.191  -1.613  -0.031  1.00  0.00     0.174 HD
ENDBRANCH  22  23
ENDBRANCH  14  22
ENDBRANCH   9  11
ENDBRANCH   6   9
BRANCH   7  26
HETATM   26  C12 UNL     1      -2.142  -1.511  -2.634  1.00  0.00     0.307 C 
BRANCH  26  27
HETATM   27  O7  UNL     1      -3.391  -1.800  -3.082  1.00  0.00    -0.366 OA
ATOM     28  H7  UNL     1      -3.447  -2.135  -3.969  1.00  0.00     0.213 HD
ENDBRANCH  26  27
BRANCH  26  29
HETATM   29  O8  UNL     1      -1.634  -0.534  -3.534  1.00  0.00    -0.366 OA
ATOM     30  H8  UNL     1      -1.690  -0.869  -4.421  1.00  0.00     0.213 HD
ENDBRANCH  26  29
ENDBRANCH   7  26
BRANCH   1  31
HETATM   31  C2  UNL     1      -2.440   1.240   0.982  1.00  0.00     0.276 C 
HETATM   32  O2  UNL     1      -1.411   1.929   0.841  1.00  0.00    -0.264 OA
BRANCH  31  33
HETATM   33  O1  UNL     1      -3.641   1.864   1.231  1.00  0.00    -0.326 OA
HETATM   34  C1  UNL     1      -3.761   3.264   1.335  1.00  0.00     0.213 C 
ENDBRANCH  31  33
ENDBRANCH   1  31
BRANCH   4  35
HETATM   35  O4  UNL     1      -1.139  -3.074   0.253  1.00  0.00    -0.369 OA
ATOM     36  H4  UNL     1      -0.299  -3.016  -0.187  1.00  0.00     0.212 HD
ENDBRANCH   4  35
BRANCH   8  37
HETATM   37  C14 UNL     1      -4.477  -0.894  -0.493  1.00  0.00     0.202 C 
BRANCH  37  38
HETATM   38  O9  UNL     1      -4.990  -1.797   0.468  1.00  0.00    -0.397 OA
ATOM     39  H9  UNL     1      -5.931  -1.899   0.386  1.00  0.00     0.209 HD
ENDBRANCH  37  38
ENDBRANCH   8  37
TORSDOF 13
