REMARK  1 active torsions:
REMARK  status: ('A' for Active; 'I' for Inactive)
REMARK    1  A    between atoms: C5_6  and  C6_7 
ROOT
HETATM    1  C6  UNL     1      -0.344   0.277   0.473  1.00  0.00     0.080 C 
HETATM    2  C7  UNL     1       0.929  -0.339  -0.022  1.00  0.00     0.054 C 
HETATM    3  C8  UNL     1       1.382  -1.403   0.972  1.00  0.00     0.240 C 
HETATM    4  N1  UNL     1       2.812  -1.458   1.085  1.00  0.00    -0.073 N 
ATOM      5  H11 UNL     1       3.097  -2.274   1.626  1.00  0.00     0.277 HD
ATOM      6  H12 UNL     1       3.152  -0.717   1.698  1.00  0.00     0.277 HD
HETATM    7  C9  UNL     1       3.498  -1.424  -0.173  1.00  0.00     0.255 C 
HETATM    8  C10 UNL     1       3.134  -0.243  -1.020  1.00  0.00     0.138 C 
HETATM    9 CL1  UNL     1       4.509   0.761  -1.468  1.00  0.00    -0.121 Cl
HETATM   10  C11 UNL     1       2.077   0.566  -0.254  1.00  0.00     0.156 C 
HETATM   11  O1  UNL     1       1.695   1.699  -1.029  1.00  0.00    -0.330 OA
HETATM   12  C12 UNL     1       0.582   2.359  -0.596  1.00  0.00     0.150 C 
HETATM   13  N2  UNL     1       0.476   3.666  -0.674  1.00  0.00    -0.381 N 
ATOM     14  H21 UNL     1      -0.356   4.159  -0.350  1.00  0.00     0.158 HD
ATOM     15  H22 UNL     1       1.280   4.146  -1.078  1.00  0.00     0.158 HD
HETATM   16  C13 UNL     1      -0.590   1.660  -0.007  1.00  0.00     0.209 C 
HETATM   17  C14 UNL     1      -0.999   2.505   1.128  1.00  0.00     0.094 C 
HETATM   18  N3  UNL     1      -1.307   3.193   2.034  1.00  0.00    -0.195 NA
HETATM   19  C15 UNL     1      -1.630   1.714  -1.048  1.00  0.00     0.094 C 
HETATM   20  N4  UNL     1      -2.462   1.774  -1.866  1.00  0.00    -0.195 NA
ENDROOT
BRANCH   1  21
HETATM   21  C5  UNL     1      -1.440  -0.608  -0.078  1.00  0.00    -0.004 A 
HETATM   22  C2  UNL     1      -2.753  -0.734   0.254  1.00  0.00    -0.048 A 
HETATM   23  C1  UNL     1      -3.325   0.063   1.419  1.00  0.00     0.049 C 
HETATM   24  C3  UNL     1      -3.498  -1.598  -0.454  1.00  0.00     0.015 A 
HETATM   25  C4  UNL     1      -2.891  -2.293  -1.456  1.00  0.00     0.051 A 
HETATM   26  S1  UNL     1      -1.288  -1.726  -1.393  1.00  0.00    -0.105 SA
ENDBRANCH   1  21
TORSDOF 1
