REMARK  4 active torsions:
REMARK  status: ('A' for Active; 'I' for Inactive)
REMARK    1  A    between atoms: N1_1  and  C1_5 
REMARK    2  A    between atoms: C1_5  and  C2_6 
REMARK    3  A    between atoms: C2_6  and  N2_7 
REMARK    4  A    between atoms: N2_7  and  C3_9 
ROOT
HETATM    1  C3  UNL     1       0.087   0.782   0.566  1.00  0.00     0.147 A 
HETATM    2  N3  UNL     1       0.705   1.963   0.628  1.00  0.00    -0.282 N 
ATOM      3  H3  UNL     1       0.273   2.843   0.908  1.00  0.00     0.188 HD
HETATM    4  N4  UNL     1       1.962   1.809   0.269  1.00  0.00    -0.282 N 
ATOM      5  H4  UNL     1       2.645   2.566   0.233  1.00  0.00     0.188 HD
HETATM    6  C4  UNL     1       2.235   0.526  -0.045  1.00  0.00     0.152 A 
HETATM    7  N5  UNL     1       3.153  -0.369  -0.455  1.00  0.00    -0.336 N 
ATOM      8  H5  UNL     1       4.128  -0.163  -0.672  1.00  0.00     0.168 HD
HETATM    9  C5  UNL     1       2.573  -1.580  -0.532  1.00  0.00     0.182 A 
HETATM   10  N6  UNL     1       1.289  -1.428  -0.166  1.00  0.00    -0.346 N 
ATOM     11  H6  UNL     1       0.607  -2.186  -0.130  1.00  0.00     0.167 HD
HETATM   12  C6  UNL     1       1.017  -0.140   0.148  1.00  0.00     0.124 A 
ENDROOT
BRANCH   1  13
HETATM   13  N2  UNL     1      -1.137   0.561   0.846  1.00  0.00    -0.372 N 
ATOM     14  H2  UNL     1      -1.713   1.347   1.147  1.00  0.00     0.161 HD
BRANCH  13  15
HETATM   15  C2  UNL     1      -1.752  -0.742   0.760  1.00  0.00     0.148 C 
BRANCH  15  16
HETATM   16  C1  UNL     1      -2.350  -0.863  -0.646  1.00  0.00     0.249 C 
BRANCH  16  17
HETATM   17  N1  UNL     1      -3.324   0.237  -0.731  1.00  0.00    -0.078 N 
ATOM     18  H13 UNL     1      -4.017   0.237   0.017  1.00  0.00     0.274 HD
ATOM     19  H12 UNL     1      -2.932   1.156  -0.524  1.00  0.00     0.274 HD
ATOM     20  H11 UNL     1      -3.722   0.156  -1.667  1.00  0.00     0.274 HD
ENDBRANCH  16  17
ENDBRANCH  15  16
ENDBRANCH  13  15
ENDBRANCH   1  13
TORSDOF 4
