REMARK  2 active torsions:
REMARK  status: ('A' for Active; 'I' for Inactive)
REMARK    1  A    between atoms: C1_2  and  C2_4 
REMARK       I    between atoms: N2_6  and  C4_7 
REMARK    2  A    between atoms: C4_7  and  C5_9 
ROOT
HETATM    1  C2  UNL     1      -0.712  -0.179  -1.057  1.00  0.00     0.194 A 
HETATM    2  C3  UNL     1      -0.853  -1.520  -0.504  1.00  0.00     0.161 A 
HETATM    3  N2  UNL     1       0.339  -0.679  -0.193  1.00  0.00    -0.331 N 
HETATM    4  C4  UNL     1       1.573  -0.583   0.499  1.00  0.00     0.275 C 
HETATM    5  O2  UNL     1       1.976  -1.553   1.200  1.00  0.00    -0.268 OA
ENDROOT
BRANCH   1   6
HETATM    6  C1  UNL     1      -1.661   0.828  -0.542  1.00  0.00     0.255 C 
HETATM    7  N1  UNL     1      -2.211   0.723   0.767  1.00  0.00    -0.060 NA
HETATM    8  O1  UNL     1      -1.972   1.784  -1.293  1.00  0.00    -0.275 OA
ENDBRANCH   1   6
BRANCH   4   9
HETATM    9  C5  UNL     1       2.421   0.635   0.427  1.00  0.00     0.269 C 
HETATM   10 CL1  UNL     1       1.545   2.044   1.040  1.00  0.00    -0.073 Cl
HETATM   11 CL2  UNL     1       2.876   0.873  -1.298  1.00  0.00    -0.073 Cl
HETATM   12 CL3  UNL     1       3.936   0.365   1.314  1.00  0.00    -0.073 Cl
ENDBRANCH   4   9
TORSDOF 2
