REMARK  6 active torsions:
REMARK  status: ('A' for Active; 'I' for Inactive)
REMARK    1  A    between atoms: C2_2  and  O1_3 
REMARK    2  A    between atoms: O1_3  and  C3_4 
REMARK    3  A    between atoms: N2_18  and  C12_19 
REMARK    4  A    between atoms: C12_19  and  C13_20 
REMARK    5  A    between atoms: C13_20  and  C14_21 
REMARK    6  A    between atoms: C14_21  and  N3_22 
ROOT
HETATM    1  C3  UNL     1       4.537   0.892   0.237  1.00  0.00     0.089 A 
HETATM    2  C4  UNL     1       4.230   1.648   1.346  1.00  0.00     0.080 A 
HETATM    3  C5  UNL     1       3.262   1.217   2.218  1.00  0.00     0.121 A 
HETATM    4  F1  UNL     1       2.941   1.939   3.314  1.00  0.00    -0.206 F 
HETATM    5  C6  UNL     1       2.588   0.020   1.988  1.00  0.00     0.073 A 
HETATM    6  C7  UNL     1       2.867  -0.749   0.903  1.00  0.00     0.058 A 
HETATM    7  C8  UNL     1       3.849  -0.284   0.046  1.00  0.00     0.092 A 
HETATM    8  C9  UNL     1       4.287  -0.979  -1.173  1.00  0.00     0.257 C 
HETATM    9  O2  UNL     1       5.253  -0.438  -1.767  1.00  0.00    -0.267 OA
HETATM   10  N1  UNL     1       3.822  -2.151  -1.807  1.00  0.00    -0.348 N 
ATOM     11  H1  UNL     1       4.459  -2.615  -2.455  1.00  0.00     0.163 HD
HETATM   12  C10 UNL     1       2.504  -2.757  -1.614  1.00  0.00     0.226 C 
HETATM   13  C11 UNL     1       2.148  -2.889  -0.195  1.00  0.00     0.242 C 
HETATM   14  O3  UNL     1       1.860  -4.078   0.195  1.00  0.00    -0.271 OA
HETATM   15  N2  UNL     1       2.056  -1.922   0.877  1.00  0.00    -0.315 N 
ENDROOT
BRANCH  15  16
HETATM   16  C12 UNL     1       1.116  -2.189   1.917  1.00  0.00     0.134 C 
BRANCH  16  17
HETATM   17  C13 UNL     1      -0.261  -1.633   1.674  1.00  0.00     0.040 C 
BRANCH  17  18
HETATM   18  C14 UNL     1      -0.910  -2.183   0.432  1.00  0.00     0.127 C 
BRANCH  18  19
HETATM   19  N3  UNL     1      -2.215  -1.583   0.307  1.00  0.00    -0.351 N 
HETATM   20  C15 UNL     1      -3.457  -2.119   0.873  1.00  0.00     0.127 C 
HETATM   21  C16 UNL     1      -4.528  -1.537  -0.056  1.00  0.00     0.041 C 
HETATM   22  C17 UNL     1      -3.950  -0.207  -0.396  1.00  0.00     0.075 C 
HETATM   23  C18 UNL     1      -4.454   0.293  -1.766  1.00  0.00     0.057 C 
HETATM   24  C21 UNL     1      -4.454   0.918   0.451  1.00  0.00     0.242 C 
HETATM   25  C23 UNL     1      -2.499  -0.376  -0.387  1.00  0.00     0.230 C 
HETATM   26  C19 UNL     1      -5.122   1.557  -1.287  1.00  0.00     0.226 C 
HETATM   27  C20 UNL     1      -5.857   1.118  -0.061  1.00  0.00     0.073 C 
HETATM   28  N4  UNL     1      -4.096   2.084  -0.373  1.00  0.00     0.095 N 
HETATM   29  C22 UNL     1      -4.466   3.321   0.257  1.00  0.00     0.310 C 
HETATM   30  O4  UNL     1      -1.645   0.393  -0.893  1.00  0.00    -0.272 OA
ENDBRANCH  18  19
ENDBRANCH  17  18
ENDBRANCH  16  17
ENDBRANCH  15  16
BRANCH   1  31
HETATM   31  O1  UNL     1       5.483   1.252  -0.671  1.00  0.00    -0.350 OA
BRANCH  31  32
HETATM   32  C2  UNL     1       6.288   2.375  -0.684  1.00  0.00     0.171 C 
HETATM   33  C1  UNL     1       5.598   3.683  -0.735  1.00  0.00     0.034 C 
ENDBRANCH  31  32
ENDBRANCH   1  31
TORSDOF 6
