REMARK  13 active torsions:
REMARK  status: ('A' for Active; 'I' for Inactive)
REMARK    1  A    between atoms: C3_3  and  N1_6 
REMARK    2  A    between atoms: N1_6  and  C6_9 
REMARK    3  A    between atoms: C6_9  and  C7_10 
REMARK    4  A    between atoms: C8_13  and  C9_14 
REMARK    5  A    between atoms: N3_17  and  C12_18 
REMARK    6  A    between atoms: N5_29  and  C19_30 
REMARK    7  A    between atoms: N6_33  and  C22_34 
REMARK    8  A    between atoms: C22_34  and  C23_35 
REMARK    9  A    between atoms: C22_34  and  C27_39 
REMARK   10  A    between atoms: C23_35  and  C24_36 
REMARK   11  A    between atoms: C27_39  and  O1_40 
REMARK   12  A    between atoms: C27_39  and  N7_42 
REMARK   13  A    between atoms: N7_42  and  O2_44 
ROOT
HETATM    1  C1  UNL     1      -1.972   7.188  -1.395  1.00  0.00     0.014 C 
HETATM    2  C2  UNL     1      -2.214   6.564  -0.396  1.00  0.00    -0.079 C 
HETATM    3  C3  UNL     1      -2.490   5.816   0.831  1.00  0.00     0.180 C 
HETATM    4  C4  UNL     1      -1.548   6.178   1.945  1.00  0.00     0.060 C 
HETATM    5  C5  UNL     1      -3.902   6.180   1.313  1.00  0.00     0.060 C 
ENDROOT
BRANCH   3   6
HETATM    6  N1  UNL     1      -2.501   4.397   0.560  1.00  0.00    -0.049 N 
ATOM      7  H12 UNL     1      -2.815   3.855   1.365  1.00  0.00     0.279 HD
ATOM      8  H11 UNL     1      -3.242   4.136  -0.091  1.00  0.00     0.279 HD
BRANCH   6   9
HETATM    9  C6  UNL     1      -1.190   3.975   0.094  1.00  0.00     0.311 C 
BRANCH   9  10
HETATM   10  C7  UNL     1      -1.170   2.519  -0.189  1.00  0.00     0.123 A 
HETATM   11  N2  UNL     1      -2.122   1.642   0.052  1.00  0.00    -0.332 N 
HETATM   12  C8  UNL     1      -1.720   0.393  -0.360  1.00  0.00     0.104 A 
ATOM     13  H2  UNL     1      -3.023   1.857   0.480  1.00  0.00     0.168 HD
HETATM   14  N5  UNL     1      -0.490   0.531  -0.863  1.00  0.00    -0.274 N 
HETATM   15  N8  UNL     1      -0.168   1.837  -0.751  1.00  0.00    -0.284 N 
ATOM     16  H8  UNL     1       0.716   2.246  -1.053  1.00  0.00     0.188 HD
BRANCH  12  17
HETATM   17  C9  UNL     1      -2.538  -0.808  -0.247  1.00  0.00     0.058 C 
HETATM   18  C10 UNL     1      -2.419  -1.460   1.140  1.00  0.00     0.032 C 
HETATM   19  C11 UNL     1      -3.075  -2.794   1.094  1.00  0.00     0.124 C 
HETATM   20  N3  UNL     1      -4.002  -3.026   0.040  1.00  0.00    -0.378 N 
HETATM   21  C17 UNL     1      -3.867  -2.524  -1.329  1.00  0.00     0.124 C 
HETATM   22  C18 UNL     1      -2.525  -1.775  -1.358  1.00  0.00     0.032 C 
BRANCH  20  23
HETATM   23  C12 UNL     1      -5.159  -3.808   0.283  1.00  0.00     0.077 A 
HETATM   24  C13 UNL     1      -5.148  -5.186   0.090  1.00  0.00     0.077 A 
HETATM   25 CL1  UNL     1      -3.674  -5.941  -0.457  1.00  0.00    -0.080 Cl
HETATM   26  C14 UNL     1      -6.286  -5.925   0.330  1.00  0.00     0.113 A 
HETATM   27  N4  UNL     1      -7.406  -5.317   0.749  1.00  0.00    -0.372 N 
HETATM   28  C15 UNL     1      -7.448  -4.001   0.943  1.00  0.00     0.113 A 
ATOM     29  H4  UNL     1      -8.242  -5.875   0.922  1.00  0.00     0.164 HD
HETATM   30  C16 UNL     1      -6.319  -3.219   0.712  1.00  0.00     0.077 A 
HETATM   31 CL2  UNL     1      -6.355  -1.491   0.964  1.00  0.00    -0.080 Cl
ENDBRANCH  20  23
ENDBRANCH  12  17
BRANCH  14  32
HETATM   32  C19 UNL     1       0.362  -0.449  -1.437  1.00  0.00     0.113 C 
HETATM   33  C20 UNL     1       1.147  -1.294  -0.498  1.00  0.00     0.057 C 
HETATM   34  C21 UNL     1       2.239  -0.560   0.255  1.00  0.00     0.275 C 
HETATM   35  N6  UNL     1       3.157   0.038  -0.653  1.00  0.00     0.101 N 
HETATM   36  C28 UNL     1       2.799  -0.153  -2.023  1.00  0.00     0.275 C 
HETATM   37  C29 UNL     1       1.387   0.286  -2.327  1.00  0.00     0.057 C 
BRANCH  35  38
HETATM   38  C22 UNL     1       4.549  -0.282  -0.448  1.00  0.00     0.298 C 
BRANCH  38  39
HETATM   39  C23 UNL     1       4.857  -1.723  -0.613  1.00  0.00     0.048 C 
BRANCH  39  40
HETATM   40  C24 UNL     1       6.251  -2.169  -0.439  1.00  0.00    -0.020 C 
HETATM   41  C25 UNL     1       7.249  -1.525  -1.366  1.00  0.00     0.009 C 
HETATM   42  C26 UNL     1       6.780  -2.227   0.947  1.00  0.00     0.009 C 
ENDBRANCH  39  40
ENDBRANCH  38  39
BRANCH  38  43
HETATM   43  C27 UNL     1       5.072   0.327   0.797  1.00  0.00     0.169 C 
BRANCH  43  44
HETATM   44  O1  UNL     1       6.130   1.261   0.777  1.00  0.00    -0.346 OA
ATOM     45  H1  UNL     1       6.465   1.652   1.575  1.00  0.00     0.219 HD
ENDBRANCH  43  44
BRANCH  43  46
HETATM   46  N7  UNL     1       4.603   0.052   1.971  1.00  0.00    -0.249 N 
ATOM     47  H7  UNL     1       3.836  -0.618   2.030  1.00  0.00     0.196 HD
BRANCH  46  48
HETATM   48  O2  UNL     1       5.057   0.589   3.122  1.00  0.00    -0.288 OA
ATOM     49  H2  UNL     1       4.713   0.387   3.984  1.00  0.00     0.244 HD
ENDBRANCH  46  48
ENDBRANCH  43  46
ENDBRANCH  38  43
ENDBRANCH  35  38
ENDBRANCH  14  32
ENDBRANCH   9  10
ENDBRANCH   6   9
ENDBRANCH   3   6
TORSDOF 13
