REMARK  9 active torsions:
REMARK  status: ('A' for Active; 'I' for Inactive)
REMARK    1  A    between atoms: C2_2  and  C3_3 
REMARK    2  A    between atoms: C8_8  and  O1_9 
REMARK    3  A    between atoms: C12_18  and  S2_19 
REMARK    4  A    between atoms: S2_19  and  C13_20 
REMARK    5  A    between atoms: C20_30  and  C21_31 
REMARK    6  A    between atoms: C21_31  and  N3_32 
REMARK    7  A    between atoms: N3_32  and  C22_35 
REMARK    8  A    between atoms: C22_35  and  C23_36 
REMARK    9  A    between atoms: C23_36  and  O3_37 
ROOT
HETATM    1  C3  UNL     1       0.475  -2.728   0.337  1.00  0.00     0.137 C 
HETATM    2  C4  UNL     1      -0.070  -2.247   1.648  1.00  0.00     0.066 C 
HETATM    3  C5  UNL     1      -1.344  -1.503   1.537  1.00  0.00     0.047 C 
HETATM    4  C6  UNL     1      -1.352  -0.666   0.324  1.00  0.00    -0.010 A 
HETATM    5  C7  UNL     1      -0.381  -0.690  -0.659  1.00  0.00     0.076 A 
HETATM    6  C8  UNL     1      -0.428   0.073  -1.770  1.00  0.00     0.121 A 
HETATM    7  C9  UNL     1      -1.498   0.972  -2.006  1.00  0.00     0.090 A 
HETATM    8  N1  UNL     1      -1.651   1.763  -3.045  1.00  0.00    -0.314 N 
ATOM      9  H1  UNL     1      -0.959   1.776  -3.794  1.00  0.00     0.170 HD
HETATM   10  C10 UNL     1      -2.727   2.548  -3.101  1.00  0.00     0.289 A 
HETATM   11  O2  UNL     1      -3.031   3.379  -4.038  1.00  0.00    -0.260 OA
HETATM   12  S1  UNL     1      -3.555   2.177  -1.666  1.00  0.00    -0.025 SA
HETATM   13  C11 UNL     1      -2.463   1.004  -1.039  1.00  0.00     0.057 A 
HETATM   14  C12 UNL     1      -2.418   0.218   0.105  1.00  0.00     0.034 A 
HETATM   15  N2  UNL     1       0.773  -1.552  -0.499  1.00  0.00    -0.346 N 
HETATM   16  C19 UNL     1       2.042  -1.381  -1.010  1.00  0.00     0.135 C 
HETATM   17  C20 UNL     1       3.094  -1.650   0.107  1.00  0.00     0.058 C 
HETATM   18  C25 UNL     1       2.687  -2.766   0.990  1.00  0.00     0.128 C 
HETATM   19  C26 UNL     1       3.842  -3.770   1.131  1.00  0.00     0.040 C 
HETATM   20  O4  UNL     1       1.619  -3.507   0.501  1.00  0.00    -0.355 OA
ENDROOT
BRANCH  14  21
HETATM   21  S2  UNL     1      -3.701   0.323   1.299  1.00  0.00    -0.087 SA
BRANCH  21  22
HETATM   22  C13 UNL     1      -4.988   1.459   0.922  1.00  0.00     0.023 A 
HETATM   23  C14 UNL     1      -6.089   1.034   0.214  1.00  0.00     0.023 A 
HETATM   24  C15 UNL     1      -7.111   1.900  -0.064  1.00  0.00     0.044 A 
HETATM   25  C16 UNL     1      -7.034   3.221   0.376  1.00  0.00     0.117 A 
HETATM   26  F1  UNL     1      -8.058   4.066   0.092  1.00  0.00    -0.206 F 
HETATM   27  C17 UNL     1      -5.930   3.643   1.084  1.00  0.00     0.062 A 
HETATM   28  C18 UNL     1      -4.903   2.766   1.361  1.00  0.00     0.031 A 
HETATM   29 BR1  UNL     1      -3.397   3.396   2.344  1.00  0.00    -0.050 Br
ENDBRANCH  21  22
ENDBRANCH  14  21
BRANCH   6  30
HETATM   30  O1  UNL     1       0.599  -0.037  -2.691  1.00  0.00    -0.356 OA
ATOM     31  H1  UNL     1       0.566   0.500  -3.474  1.00  0.00     0.218 HD
ENDBRANCH   6  30
BRANCH   1  32
HETATM   32  C2  UNL     1      -0.536  -3.617  -0.342  1.00  0.00     0.057 C 
HETATM   33  C1  UNL     1      -0.030  -4.130  -1.675  1.00  0.00     0.010 C 
ENDBRANCH   1  32
BRANCH  17  34
HETATM   34  C21 UNL     1       3.363  -0.428   0.919  1.00  0.00     0.241 C 
BRANCH  34  35
HETATM   35  N3  UNL     1       3.862   0.595   0.051  1.00  0.00    -0.073 N 
ATOM     36  H32 UNL     1       4.674   0.276  -0.478  1.00  0.00     0.277 HD
ATOM     37  H31 UNL     1       3.227   0.769  -0.728  1.00  0.00     0.277 HD
BRANCH  35  38
HETATM   38  C22 UNL     1       4.144   1.791   0.776  1.00  0.00     0.258 C 
BRANCH  38  39
HETATM   39  C23 UNL     1       2.915   2.481   1.302  1.00  0.00     0.194 C 
BRANCH  39  40
HETATM   40  O3  UNL     1       3.268   3.632   1.994  1.00  0.00    -0.394 OA
HETATM   41  C24 UNL     1       3.944   4.561   1.219  1.00  0.00     0.201 C 
ENDBRANCH  39  40
ENDBRANCH  38  39
ENDBRANCH  35  38
ENDBRANCH  34  35
ENDBRANCH  17  34
TORSDOF 9
