REMARK  16 active torsions:
REMARK  status: ('A' for Active; 'I' for Inactive)
REMARK    1  A    between atoms: C2_2  and  C3_3 
REMARK    2  A    between atoms: C3_3  and  C4_4 
REMARK    3  A    between atoms: C3_3  and  O8_39 
REMARK    4  A    between atoms: C4_4  and  C5_5 
REMARK    5  A    between atoms: C5_5  and  C6_6 
REMARK    6  A    between atoms: C6_6  and  C7_7 
REMARK    7  A    between atoms: C7_7  and  O1_8 
REMARK    8  A    between atoms: O1_8  and  C8_9 
REMARK    9  A    between atoms: C10_12  and  O3_13 
REMARK   10  A    between atoms: C15_19  and  C16_20 
REMARK   11  A    between atoms: C16_20  and  C18_22 
REMARK   12  A    between atoms: C19_23  and  C21_25 
REMARK   13  A    between atoms: C21_25  and  O4_26 
REMARK   14  A    between atoms: C24_30  and  O5_31 
REMARK   15  A    between atoms: C27_36  and  O7_37 
REMARK   16  A    between atoms: O8_39  and  C28_40 
ROOT
HETATM    1  C6  UNL     1       2.014  -0.093  -0.294  1.00  0.00     0.035 C 
HETATM    2  C10 UNL     1       1.519   1.319  -0.498  1.00  0.00     0.135 C 
HETATM    3  C11 UNL     1       0.247   1.656   0.184  1.00  0.00     0.016 C 
HETATM    4  C12 UNL     1      -0.276   2.916  -0.523  1.00  0.00     0.013 C 
HETATM    5  C13 UNL     1      -0.759   0.539  -0.080  1.00  0.00     0.011 C 
HETATM    6  C14 UNL     1      -2.084   1.042   0.371  1.00  0.00     0.011 C 
HETATM    7  C15 UNL     1      -3.278   0.480  -0.359  1.00  0.00    -0.007 C 
HETATM    8  C22 UNL     1      -2.965  -0.768  -1.125  1.00  0.00     0.010 C 
HETATM    9  C23 UNL     1      -2.467  -1.891  -0.275  1.00  0.00     0.069 C 
HETATM   10  C24 UNL     1      -0.996  -1.949  -0.081  1.00  0.00     0.174 C 
HETATM   11  O6  UNL     1      -0.770  -2.589   1.165  1.00  0.00    -0.353 OA
HETATM   12  C25 UNL     1      -0.922  -1.298   1.727  1.00  0.00     0.189 C 
HETATM   13  C26 UNL     1      -0.315  -0.770   0.466  1.00  0.00     0.068 C 
HETATM   14  C27 UNL     1       1.184  -0.880   0.631  1.00  0.00     0.147 C 
ENDROOT
BRANCH   1  15
HETATM   15  C5  UNL     1       3.446   0.014   0.202  1.00  0.00     0.020 C 
BRANCH  15  16
HETATM   16  C4  UNL     1       3.618   0.553   1.563  1.00  0.00     0.037 C 
BRANCH  16  17
HETATM   17  C3  UNL     1       5.134   0.570   1.824  1.00  0.00     0.154 C 
BRANCH  17  18
HETATM   18  C2  UNL     1       5.707  -0.782   1.734  1.00  0.00    -0.005 C 
HETATM   19  C1  UNL     1       7.010  -0.938   1.674  1.00  0.00     0.009 C 
ENDBRANCH  17  18
BRANCH  17  20
HETATM   20  O8  UNL     1       5.788   1.507   1.009  1.00  0.00    -0.312 OA
BRANCH  20  21
HETATM   21  C28 UNL     1       6.437   2.614   1.534  1.00  0.00     0.255 C 
HETATM   22  C29 UNL     1       7.142   3.632   0.715  1.00  0.00     0.126 C 
HETATM   23  O9  UNL     1       6.430   2.769   2.781  1.00  0.00    -0.266 OA
ENDBRANCH  20  21
ENDBRANCH  17  20
ENDBRANCH  16  17
ENDBRANCH  15  16
ENDBRANCH   1  15
BRANCH   1  24
HETATM   24  C7  UNL     1       2.196  -0.668  -1.690  1.00  0.00     0.193 C 
BRANCH  24  25
HETATM   25  O1  UNL     1       2.847  -1.922  -1.680  1.00  0.00    -0.321 OA
BRANCH  25  26
HETATM   26  C8  UNL     1       3.091  -2.582  -2.857  1.00  0.00     0.254 C 
HETATM   27  C9  UNL     1       3.781  -3.920  -2.893  1.00  0.00     0.126 C 
HETATM   28  O2  UNL     1       2.715  -2.026  -3.920  1.00  0.00    -0.266 OA
ENDBRANCH  25  26
ENDBRANCH  24  25
ENDBRANCH   1  24
BRANCH   2  29
HETATM   29  O3  UNL     1       1.415   1.669  -1.843  1.00  0.00    -0.394 OA
ATOM     30  H3  UNL     1       1.104   2.557  -1.971  1.00  0.00     0.210 HD
ENDBRANCH   2  29
BRANCH  14  31
HETATM   31  O7  UNL     1       1.552  -2.174   0.884  1.00  0.00    -0.394 OA
ATOM     32  H7  UNL     1       1.016  -2.682   1.481  1.00  0.00     0.210 HD
ENDBRANCH  14  31
BRANCH  10  33
HETATM   33  O5  UNL     1      -0.427  -2.610  -1.174  1.00  0.00    -0.364 OA
ATOM     34  H5  UNL     1       0.514  -2.647  -1.050  1.00  0.00     0.213 HD
ENDBRANCH  10  33
BRANCH   7  35
HETATM   35  C16 UNL     1      -4.466   0.317   0.590  1.00  0.00     0.008 C 
HETATM   36  C17 UNL     1      -4.864   1.619   1.171  1.00  0.00     0.014 C 
BRANCH  35  37
HETATM   37  C18 UNL     1      -5.575  -0.463   0.053  1.00  0.00    -0.018 C 
HETATM   38  C19 UNL     1      -6.844  -0.318  -0.079  1.00  0.00    -0.064 C 
HETATM   39  C20 UNL     1      -7.591  -1.496  -0.746  1.00  0.00     0.045 C 
BRANCH  38  40
HETATM   40  C21 UNL     1      -7.738   0.767   0.302  1.00  0.00     0.197 C 
BRANCH  40  41
HETATM   41  O4  UNL     1      -8.404   1.312  -0.825  1.00  0.00    -0.397 OA
ATOM     42  H4  UNL     1      -8.987   2.020  -0.577  1.00  0.00     0.209 HD
ENDBRANCH  40  41
ENDBRANCH  38  40
ENDBRANCH  35  37
ENDBRANCH   7  35
TORSDOF 16
