REMARK  9 active torsions:
REMARK  status: ('A' for Active; 'I' for Inactive)
REMARK    1  A    between atoms: C2_2  and  C3_3 
REMARK    2  A    between atoms: C6_6  and  C7_7 
REMARK    3  A    between atoms: C7_7  and  N1_8 
REMARK    4  A    between atoms: C7_7  and  C12_19 
REMARK    5  A    between atoms: N1_8  and  S1_10 
REMARK    6  A    between atoms: S1_10  and  C8_13 
REMARK    7  A    between atoms: C10_15  and  C11_16 
REMARK       I    between atoms: C12_19  and  N2_21 
REMARK    8  A    between atoms: C14_23  and  C15_24 
REMARK    9  A    between atoms: C15_24  and  N3_26 
ROOT
HETATM    1  C7  UNL     1       0.997   0.595  -0.432  1.00  0.00     0.189 C 
ENDROOT
BRANCH   1   2
HETATM    2  C6  UNL     1       0.944  -0.939  -0.399  1.00  0.00     0.018 C 
HETATM    3  C5  UNL     1       1.432  -1.579  -1.654  1.00  0.00     0.007 C 
HETATM    4  C4  UNL     1       2.879  -2.025  -1.607  1.00  0.00     0.005 C 
HETATM    5  C3  UNL     1       3.077  -3.082  -0.536  1.00  0.00    -0.015 C 
HETATM    6  C22 UNL     1       2.059  -2.896   0.577  1.00  0.00     0.005 C 
HETATM    7  C21 UNL     1       1.897  -1.395   0.724  1.00  0.00     0.007 C 
BRANCH   5   8
HETATM    8  C2  UNL     1       2.915  -4.471  -1.081  1.00  0.00     0.000 C 
HETATM    9  C1  UNL     1       3.923  -4.725  -2.172  1.00  0.00     0.005 C 
ENDBRANCH   5   8
ENDBRANCH   1   2
BRANCH   1  10
HETATM   10  N1  UNL     1       2.376   0.920  -0.612  1.00  0.00    -0.305 N 
ATOM     11  H1  UNL     1       3.101   0.506  -0.027  1.00  0.00     0.173 HD
BRANCH  10  12
HETATM   12  S1  UNL     1       2.753   2.022  -1.838  1.00  0.00     0.232 S 
HETATM   13  O1  UNL     1       4.262   2.222  -1.850  1.00  0.00    -0.206 OA
HETATM   14  O2  UNL     1       2.366   1.656  -3.208  1.00  0.00    -0.206 OA
BRANCH  12  15
HETATM   15  C8  UNL     1       1.946   3.573  -1.442  1.00  0.00     0.144 A 
HETATM   16  C9  UNL     1       0.531   3.676  -1.794  1.00  0.00     0.039 A 
HETATM   17  C10 UNL     1       1.581   4.509  -2.534  1.00  0.00     0.108 A 
BRANCH  17  18
HETATM   18  C11 UNL     1       1.565   5.942  -2.183  1.00  0.00     0.178 C 
HETATM   19  O3  UNL     1       1.296   6.282  -1.014  1.00  0.00    -0.648 OA
HETATM   20  O4  UNL     1       1.842   6.886  -3.135  1.00  0.00    -0.648 OA
ENDBRANCH  17  18
ENDBRANCH  12  15
ENDBRANCH  10  12
ENDBRANCH   1  10
BRANCH   1  21
HETATM   21  C12 UNL     1       0.602   1.003   0.975  1.00  0.00     0.244 C 
HETATM   22  O5  UNL     1       1.512   1.380   1.762  1.00  0.00    -0.271 OA
HETATM   23  N2  UNL     1      -0.723   0.982   1.439  1.00  0.00    -0.342 N 
HETATM   24  C13 UNL     1      -1.895   0.626   0.675  1.00  0.00     0.161 C 
HETATM   25  C19 UNL     1      -0.980   1.350   2.832  1.00  0.00     0.108 C 
HETATM   26  C14 UNL     1      -2.729  -0.416   1.368  1.00  0.00     0.233 C 
HETATM   27  N4  UNL     1      -2.769  -0.231   2.797  1.00  0.00    -0.065 N 
HETATM   28  C18 UNL     1      -2.479   1.160   3.084  1.00  0.00     0.257 C 
ATOM     29  H42 UNL     1      -3.649  -0.542   3.209  1.00  0.00     0.277 HD
ATOM     30  H41 UNL     1      -2.150  -0.872   3.293  1.00  0.00     0.277 HD
HETATM   31  C20 UNL     1      -0.286   0.381   3.747  1.00  0.00     0.034 C 
BRANCH  26  32
HETATM   32  C15 UNL     1      -4.155  -0.420   0.858  1.00  0.00     0.213 C 
HETATM   33  C16 UNL     1      -4.962  -1.467   1.567  1.00  0.00     0.042 C 
BRANCH  32  34
HETATM   34  N3  UNL     1      -4.159  -0.632  -0.583  1.00  0.00    -0.073 N 
HETATM   35  C17 UNL     1      -5.507  -0.671  -1.060  1.00  0.00     0.267 C 
ATOM     36  H32 UNL     1      -3.597   0.062  -1.075  1.00  0.00     0.277 HD
ATOM     37  H31 UNL     1      -3.632  -1.464  -0.851  1.00  0.00     0.277 HD
ENDBRANCH  32  34
ENDBRANCH  26  32
ENDBRANCH   1  21
TORSDOF 9
