REMARK  2 active torsions:
REMARK  status: ('A' for Active; 'I' for Inactive)
REMARK    1  A    between atoms: C3_5  and  N3_6 
REMARK    2  A    between atoms: N3_6  and  N4_7 
ROOT
HETATM    1  C1  UNL     1      -0.988   1.477  -0.591  1.00  0.00     0.134 C 
HETATM    2  N1  UNL     1      -0.625   0.294   0.130  1.00  0.00    -0.216 NA
HETATM    3  N2  UNL     1      -1.649  -0.685   0.193  1.00  0.00    -0.161 NA
HETATM    4  C2  UNL     1      -0.555  -1.658   0.331  1.00  0.00     0.168 C 
HETATM    5  C3  UNL     1       0.160  -0.675  -0.585  1.00  0.00     0.203 C 
ENDROOT
BRANCH   5   6
HETATM    6  N3  UNL     1       1.563  -0.580  -0.289  1.00  0.00    -0.126 NA
BRANCH   6   7
HETATM    7  N4  UNL     1       2.091   0.664  -0.615  1.00  0.00    -0.347 N 
ATOM      8  H42 UNL     1       1.532   1.415  -1.019  1.00  0.00     0.172 HD
ATOM      9  H41 UNL     1       3.087   0.731  -0.405  1.00  0.00     0.172 HD
ENDBRANCH   6   7
ENDBRANCH   5   6
TORSDOF 2
