REMARK  12 active torsions:
REMARK  status: ('A' for Active; 'I' for Inactive)
REMARK    1  A    between atoms: C2_2  and  C4_4 
REMARK    2  A    between atoms: C4_4  and  N1_5 
REMARK    3  A    between atoms: C4_4  and  C16_28 
REMARK       I    between atoms: N1_5  and  C5_7 
REMARK    4  A    between atoms: C5_7  and  O2_9 
REMARK    5  A    between atoms: O2_9  and  C6_10 
REMARK    6  A    between atoms: C6_10  and  C7_11 
REMARK    7  A    between atoms: C6_10  and  C8_15 
REMARK    8  A    between atoms: C8_15  and  C9_18 
REMARK    9  A    between atoms: C9_18  and  C10_19 
REMARK       I    between atoms: C10_19  and  N2_21 
REMARK   10  A    between atoms: C13_24  and  C14_25 
REMARK   11  A    between atoms: C16_28  and  C17_30 
REMARK       I    between atoms: C17_30  and  N3_32 
REMARK   12  A    between atoms: N3_32  and  C18_33 
ROOT
HETATM    1  N1  UNL     1      -1.040  -0.749  -0.018  1.00  0.00    -0.325 N 
ATOM      2  H1  UNL     1      -1.246  -0.870  -1.010  1.00  0.00     0.165 HD
HETATM    3  C5  UNL     1       0.274  -0.478   0.430  1.00  0.00     0.362 C 
HETATM    4  O1  UNL     1       0.454  -0.349   1.683  1.00  0.00    -0.238 OA
ENDROOT
BRANCH   3   5
HETATM    5  O2  UNL     1       1.382  -0.342  -0.357  1.00  0.00    -0.283 OA
BRANCH   5   6
HETATM    6  C6  UNL     1       2.706  -0.064   0.294  1.00  0.00     0.317 C 
BRANCH   6   7
HETATM    7  C7  UNL     1       2.993   1.320  -0.199  1.00  0.00     0.420 C 
HETATM    8  F1  UNL     1       4.114   1.949   0.172  1.00  0.00    -0.168 F 
HETATM    9  F2  UNL     1       2.871   1.446  -1.572  1.00  0.00    -0.168 F 
HETATM   10  F3  UNL     1       1.931   2.110   0.300  1.00  0.00    -0.168 F 
ENDBRANCH   6   7
BRANCH   6  11
HETATM   11  C8  UNL     1       3.589  -1.173  -0.093  1.00  0.00     0.301 C 
HETATM   12  F4  UNL     1       2.764  -2.335   0.334  1.00  0.00    -0.198 F 
HETATM   13  F5  UNL     1       3.744  -1.419  -1.410  1.00  0.00    -0.198 F 
BRANCH  11  14
HETATM   14  C9  UNL     1       4.808  -1.467   0.720  1.00  0.00     0.128 C 
BRANCH  14  15
HETATM   15  C10 UNL     1       5.862  -0.519   0.928  1.00  0.00     0.245 C 
HETATM   16  O3  UNL     1       5.873   0.116   2.041  1.00  0.00    -0.269 OA
HETATM   17  N2  UNL     1       6.915  -0.203   0.021  1.00  0.00    -0.348 N 
HETATM   18  C11 UNL     1       7.140  -0.802  -1.267  1.00  0.00     0.126 C 
HETATM   19  C15 UNL     1       7.940   0.783   0.252  1.00  0.00     0.131 C 
HETATM   20  C12 UNL     1       8.553  -0.510  -1.655  1.00  0.00     0.027 C 
HETATM   21  C13 UNL     1       8.993   0.613  -0.777  1.00  0.00     0.015 C 
BRANCH  21  22
HETATM   22  C14 UNL     1       9.242   1.881  -1.579  1.00  0.00     0.091 C 
HETATM   23 BR1  UNL     1       7.673   2.485  -2.505  1.00  0.00    -0.096 Br
ENDBRANCH  21  22
ENDBRANCH  14  15
ENDBRANCH  11  14
ENDBRANCH   6  11
ENDBRANCH   5   6
ENDBRANCH   3   5
BRANCH   1  24
HETATM   24  C4  UNL     1      -2.097  -0.850   0.997  1.00  0.00     0.171 C 
BRANCH  24  25
HETATM   25  C2  UNL     1      -2.276  -2.360   1.180  1.00  0.00     0.008 C 
HETATM   26  C1  UNL     1      -2.681  -3.043  -0.081  1.00  0.00     0.012 C 
HETATM   27  C3  UNL     1      -3.145  -2.705   2.355  1.00  0.00     0.012 C 
ENDBRANCH  24  25
BRANCH  24  28
HETATM   28  C16 UNL     1      -3.305  -0.202   0.550  1.00  0.00     0.253 C 
HETATM   29  O4  UNL     1      -3.637  -0.150  -0.639  1.00  0.00    -0.284 OA
BRANCH  28  30
HETATM   30  C17 UNL     1      -4.217   0.444   1.542  1.00  0.00     0.359 C 
HETATM   31  O5  UNL     1      -3.758   0.398   2.721  1.00  0.00    -0.248 OA
HETATM   32  N3  UNL     1      -5.407   1.003   1.129  1.00  0.00    -0.403 NA
BRANCH  32  33
HETATM   33  C18 UNL     1      -6.563   1.547   0.737  1.00  0.00     0.167 C 
HETATM   34  C19 UNL     1      -7.627   0.475   0.381  1.00  0.00     0.039 C 
HETATM   35  C20 UNL     1      -7.953   0.483  -1.076  1.00  0.00     0.003 C 
HETATM   36  C21 UNL     1      -8.546   1.793  -1.544  1.00  0.00     0.000 C 
HETATM   37  C22 UNL     1      -7.799   2.925  -0.885  1.00  0.00     0.003 C 
HETATM   38  C23 UNL     1      -6.421   2.452  -0.522  1.00  0.00     0.039 C 
ENDBRANCH  32  33
ENDBRANCH  28  30
ENDBRANCH  24  28
ENDBRANCH   1  24
TORSDOF 12
