REMARK  11 active torsions:
REMARK  status: ('A' for Active; 'I' for Inactive)
REMARK       I    between atoms: C1_2  and  N1_3 
REMARK    1  A    between atoms: C1_2  and  C17_30 
REMARK    2  A    between atoms: N1_3  and  C2_5 
REMARK    3  A    between atoms: C2_5  and  C3_6 
REMARK    4  A    between atoms: C2_5  and  C11_24 
REMARK       I    between atoms: C3_6  and  N2_8 
REMARK    5  A    between atoms: N2_8  and  C4_10 
REMARK    6  A    between atoms: N3_14  and  S1_15 
REMARK    7  A    between atoms: S1_15  and  C8_18 
REMARK    8  A    between atoms: C8_18  and  C9_19 
REMARK    9  A    between atoms: C20_33  and  O5_34 
REMARK   10  A    between atoms: O5_34  and  C21_35 
REMARK   11  A    between atoms: C21_35  and  C22_36 
ROOT
HETATM    1  C2  UNL     1       0.465  -1.019  -0.748  1.00  0.00     0.181 C 
ENDROOT
BRANCH   1   2
HETATM    2  N1  UNL     1       1.753  -0.442  -0.509  1.00  0.00    -0.343 N 
HETATM    3  C1  UNL     1       2.529   0.304  -1.378  1.00  0.00     0.252 C 
HETATM    4  O1  UNL     1       2.108   0.541  -2.531  1.00  0.00    -0.268 OA
ATOM      5  H1  UNL     1       2.148  -0.601   0.418  1.00  0.00     0.163 HD
BRANCH   3   6
HETATM    6  C17 UNL     1       3.823   0.829  -1.003  1.00  0.00     0.033 A 
HETATM    7  C18 UNL     1       4.487   1.776  -1.800  1.00  0.00     0.020 A 
HETATM    8  C19 UNL     1       5.718   2.292  -1.481  1.00  0.00     0.039 A 
HETATM    9  C20 UNL     1       6.361   1.886  -0.334  1.00  0.00     0.090 A 
HETATM   10  C23 UNL     1       5.742   0.960   0.471  1.00  0.00     0.068 A 
HETATM   11 CL1  UNL     1       6.568   0.446   1.925  1.00  0.00    -0.081 Cl
HETATM   12  C24 UNL     1       4.506   0.449   0.141  1.00  0.00     0.043 A 
BRANCH   9  13
HETATM   13  O5  UNL     1       7.616   2.415  -0.012  1.00  0.00    -0.344 OA
BRANCH  13  14
HETATM   14  C21 UNL     1       8.210   3.367  -0.873  1.00  0.00     0.246 C 
BRANCH  14  15
HETATM   15  C22 UNL     1       9.547   3.797  -0.339  1.00  0.00     0.377 C 
HETATM   16  F4  UNL     1      10.448   2.784  -0.205  1.00  0.00    -0.212 F 
HETATM   17  F5  UNL     1       9.399   4.383   0.926  1.00  0.00    -0.212 F 
ENDBRANCH  14  15
ENDBRANCH  13  14
ENDBRANCH   9  13
ENDBRANCH   3   6
ENDBRANCH   1   2
BRANCH   1  18
HETATM   18  C3  UNL     1      -0.517  -0.288   0.081  1.00  0.00     0.241 C 
HETATM   19  O2  UNL     1      -0.173   0.626   0.844  1.00  0.00    -0.271 OA
HETATM   20  N2  UNL     1      -1.887  -0.617   0.019  1.00  0.00    -0.353 N 
ATOM     21  H2  UNL     1      -2.179  -1.368  -0.606  1.00  0.00     0.163 HD
BRANCH  20  22
HETATM   22  C4  UNL     1      -2.895   0.060   0.799  1.00  0.00     0.103 C 
HETATM   23  C5  UNL     1      -3.734  -0.871   1.628  1.00  0.00     0.028 C 
HETATM   24  C6  UNL     1      -4.627  -0.013   2.498  1.00  0.00     0.023 C 
HETATM   25  C7  UNL     1      -5.270   1.130   1.708  1.00  0.00     0.135 C 
HETATM   26  N3  UNL     1      -5.110   0.996   0.325  1.00  0.00    -0.309 N 
HETATM   27  C10 UNL     1      -3.811   0.782  -0.199  1.00  0.00     0.160 C 
BRANCH  26  28
HETATM   28  S1  UNL     1      -6.377   1.161  -0.738  1.00  0.00     0.236 S 
HETATM   29  O3  UNL     1      -7.401   0.034  -0.576  1.00  0.00    -0.205 OA
HETATM   30  O4  UNL     1      -5.817   0.896  -2.152  1.00  0.00    -0.205 OA
BRANCH  28  31
HETATM   31  C8  UNL     1      -7.193   2.691  -0.830  1.00  0.00     0.280 C 
BRANCH  31  32
HETATM   32  C9  UNL     1      -7.847   3.234   0.376  1.00  0.00     0.402 C 
HETATM   33  F1  UNL     1      -8.810   2.435   0.935  1.00  0.00    -0.170 F 
HETATM   34  F2  UNL     1      -8.613   4.367  -0.091  1.00  0.00    -0.170 F 
HETATM   35  F3  UNL     1      -7.002   3.787   1.288  1.00  0.00    -0.170 F 
ENDBRANCH  31  32
ENDBRANCH  28  31
ENDBRANCH  26  28
ENDBRANCH  20  22
ENDBRANCH   1  18
BRANCH   1  36
HETATM   36  C11 UNL     1       0.326  -2.466  -0.519  1.00  0.00     0.018 C 
HETATM   37  C12 UNL     1       0.609  -2.942   0.867  1.00  0.00     0.007 C 
HETATM   38  C13 UNL     1       0.765  -4.428   0.874  1.00  0.00     0.000 C 
HETATM   39  C14 UNL     1       0.063  -5.132  -0.248  1.00  0.00     0.000 C 
HETATM   40  C15 UNL     1       0.435  -4.647  -1.610  1.00  0.00     0.000 C 
HETATM   41  C16 UNL     1       1.164  -3.325  -1.446  1.00  0.00     0.007 C 
ENDBRANCH   1  36
TORSDOF 11
