REMARK  11 active torsions:
REMARK  status: ('A' for Active; 'I' for Inactive)
REMARK    1  A    between atoms: N1_1  and  C1_5 
REMARK    2  A    between atoms: C1_5  and  C2_6 
REMARK    3  A    between atoms: C2_6  and  C3_7 
REMARK    4  A    between atoms: C3_7  and  N2_8 
REMARK    5  A    between atoms: N2_8  and  C4_11 
REMARK    6  A    between atoms: C4_11  and  C5_12 
REMARK    7  A    between atoms: C5_12  and  C6_13 
REMARK    8  A    between atoms: C6_13  and  N3_14 
REMARK    9  A    between atoms: N3_14  and  C7_16 
REMARK   10  A    between atoms: N5_20  and  C9_21 
REMARK   11  A    between atoms: C9_21  and  C10_22 
ROOT
HETATM    1  C7  UNL     1      -1.474   0.160  -1.019  1.00  0.00     0.133 A 
HETATM    2  N4  UNL     1      -1.482  -1.147  -0.744  1.00  0.00    -0.337 N 
ATOM      3  H4  UNL     1      -0.674  -1.733  -0.955  1.00  0.00     0.168 HD
HETATM    4  C8  UNL     1      -2.588  -1.667  -0.180  1.00  0.00     0.186 A 
HETATM    5  N5  UNL     1      -3.666  -0.955   0.118  1.00  0.00    -0.319 N 
HETATM    6  C11 UNL     1      -3.669   0.359  -0.153  1.00  0.00     0.140 A 
HETATM    7  N7  UNL     1      -4.596   1.318   0.033  1.00  0.00    -0.336 N 
ATOM      8  H7  UNL     1      -5.519   1.177   0.445  1.00  0.00     0.168 HD
HETATM    9  C12 UNL     1      -4.105   2.505  -0.416  1.00  0.00     0.182 A 
HETATM   10  N8  UNL     1      -2.866   2.255  -0.877  1.00  0.00    -0.346 N 
ATOM     11  H8  UNL     1      -2.238   2.950  -1.280  1.00  0.00     0.167 HD
HETATM   12  C13 UNL     1      -2.584   0.962  -0.727  1.00  0.00     0.122 A 
ENDROOT
BRANCH   1  13
HETATM   13  N3  UNL     1      -0.483   0.751  -1.552  1.00  0.00    -0.374 N 
ATOM     14  H3  UNL     1      -0.556   1.752  -1.731  1.00  0.00     0.161 HD
BRANCH  13  15
HETATM   15  C6  UNL     1       0.719   0.088  -1.910  1.00  0.00     0.123 C 
BRANCH  15  16
HETATM   16  C5  UNL     1       1.693  -0.126  -0.763  1.00  0.00     0.047 C 
BRANCH  16  17
HETATM   17  C4  UNL     1       2.063   1.207  -0.194  1.00  0.00     0.234 C 
BRANCH  17  18
HETATM   18  N2  UNL     1       2.988   1.104   0.901  1.00  0.00    -0.075 N 
ATOM     19  H22 UNL     1       2.641   0.500   1.646  1.00  0.00     0.277 HD
ATOM     20  H21 UNL     1       3.052   1.970   1.436  1.00  0.00     0.277 HD
BRANCH  18  21
HETATM   21  C3  UNL     1       4.268   0.674   0.401  1.00  0.00     0.233 C 
BRANCH  21  22
HETATM   22  C2  UNL     1       5.286   0.564   1.544  1.00  0.00     0.055 C 
BRANCH  22  23
HETATM   23  C1  UNL     1       6.626   0.115   0.986  1.00  0.00     0.231 C 
BRANCH  23  24
HETATM   24  N1  UNL     1       7.055   1.111   0.026  1.00  0.00    -0.079 N 
ATOM     25  H13 UNL     1       6.361   1.288  -0.700  1.00  0.00     0.274 HD
ATOM     26  H12 UNL     1       7.083   2.053   0.416  1.00  0.00     0.274 HD
ATOM     27  H11 UNL     1       7.955   0.810  -0.349  1.00  0.00     0.274 HD
ENDBRANCH  23  24
ENDBRANCH  22  23
ENDBRANCH  21  22
ENDBRANCH  18  21
ENDBRANCH  17  18
ENDBRANCH  16  17
ENDBRANCH  15  16
ENDBRANCH  13  15
ENDBRANCH   1  13
BRANCH   5  28
HETATM   28  C9  UNL     1      -4.864  -1.504   0.723  1.00  0.00     0.230 C 
BRANCH  28  29
HETATM   29  C10 UNL     1      -5.807  -1.953  -0.327  1.00  0.00     0.249 C 
HETATM   30  N6  UNL     1      -7.058  -2.528   0.025  1.00  0.00    -0.061 NA
HETATM   31  O1  UNL     1      -5.491  -1.821  -1.522  1.00  0.00    -0.275 OA
ENDBRANCH  28  29
ENDBRANCH   5  28
TORSDOF 11
