REMARK  6 active torsions:
REMARK  status: ('A' for Active; 'I' for Inactive)
REMARK    1  A    between atoms: C2_2  and  C3_3 
REMARK    2  A    between atoms: C3_3  and  C4_4 
REMARK    3  A    between atoms: C4_4  and  N1_5 
REMARK    4  A    between atoms: C5_6  and  O1_7 
REMARK    5  A    between atoms: C8_11  and  S1_12 
REMARK    6  A    between atoms: S1_12  and  S2_13 
ROOT
HETATM    1  N1  UNL     1       0.776   0.220  -0.410  1.00  0.00    -0.319 N 
HETATM    2  C5  UNL     1       0.203  -0.900  -0.869  1.00  0.00     0.153 A 
HETATM    3  C6  UNL     1      -1.079  -1.029  -0.286  1.00  0.00     0.049 A 
HETATM    4  C7  UNL     1      -1.251   0.046   0.532  1.00  0.00     0.124 A 
HETATM    5  C8  UNL     1      -0.087   0.806   0.439  1.00  0.00     0.119 A 
HETATM    6  O2  UNL     1      -2.416   0.231   1.270  1.00  0.00    -0.293 OA
HETATM    7  C10 UNL     1      -3.422  -0.731   1.148  1.00  0.00     0.137 C 
HETATM    8  N2  UNL     1      -4.637  -0.488   1.459  1.00  0.00    -0.382 N 
ATOM      9  H21 UNL     1      -5.371  -1.190   1.370  1.00  0.00     0.158 HD
ATOM     10  H22 UNL     1      -4.872   0.442   1.806  1.00  0.00     0.158 HD
HETATM   11  C11 UNL     1      -3.079  -2.089   0.641  1.00  0.00     0.189 C 
HETATM   12  C12 UNL     1      -4.309  -2.772   0.183  1.00  0.00     0.074 C 
HETATM   13  N3  UNL     1      -5.269  -3.312  -0.173  1.00  0.00    -0.196 NA
HETATM   14  C13 UNL     1      -2.105  -2.066  -0.470  1.00  0.00     0.158 C 
HETATM   15  C14 UNL     1      -2.780  -1.822  -1.759  1.00  0.00     0.070 C 
HETATM   16  N4  UNL     1      -3.311  -1.632  -2.774  1.00  0.00    -0.197 NA
ENDROOT
BRANCH   2  17
HETATM   17  O1  UNL     1       0.710  -1.831  -1.766  1.00  0.00    -0.345 OA
ATOM     18  H1  UNL     1       0.304  -2.626  -2.092  1.00  0.00     0.219 HD
ENDBRANCH   2  17
BRANCH   5  19
HETATM   19  S1  UNL     1       0.217   2.321   1.306  1.00  0.00    -0.037 SA
BRANCH  19  20
HETATM   20  S2  UNL     1      -1.475   2.786   2.506  1.00  0.00    -0.095 SA
HETATM   21  C9  UNL     1      -2.599   3.787   1.525  1.00  0.00     0.103 C 
ENDBRANCH  19  20
ENDBRANCH   5  19
BRANCH   1  22
HETATM   22  C4  UNL     1       2.108   0.678  -0.796  1.00  0.00     0.132 C 
BRANCH  22  23
HETATM   23  C3  UNL     1       3.158   0.104   0.156  1.00  0.00     0.020 C 
BRANCH  23  24
HETATM   24  C2  UNL     1       4.503   0.626  -0.315  1.00  0.00    -0.003 C 
HETATM   25  C1  UNL     1       5.561   0.071   0.613  1.00  0.00     0.005 C 
ENDBRANCH  23  24
ENDBRANCH  22  23
ENDBRANCH   1  22
TORSDOF 6
