REMARK  6 active torsions:
REMARK  status: ('A' for Active; 'I' for Inactive)
REMARK    1  A    between atoms: C2_3  and  O1_4 
REMARK    2  A    between atoms: N2_10  and  C7_11 
REMARK    3  A    between atoms: C11_20  and  C12_21 
REMARK    4  A    between atoms: C15_24  and  O2_25 
REMARK    5  A    between atoms: O2_25  and  C16_26 
REMARK    6  A    between atoms: C16_26  and  C17_29 
ROOT
HETATM    1  N1  UNL     1      -2.272   3.088  -0.396  1.00  0.00    -0.192 NA
HETATM    2  C1  UNL     1      -2.284   1.975  -0.680  1.00  0.00     0.121 C 
HETATM    3  C2  UNL     1      -2.276   0.575  -1.031  1.00  0.00     0.230 C 
HETATM    4  C3  UNL     1      -3.618   0.195  -1.682  1.00  0.00     0.063 A 
HETATM    5  C4  UNL     1      -4.771  -0.213  -0.887  1.00  0.00     0.017 A 
HETATM    6  C5  UNL     1      -3.811  -1.253  -1.319  1.00  0.00     0.014 A 
HETATM    7  C6  UNL     1      -2.729  -1.624  -0.319  1.00  0.00     0.132 C 
HETATM    8  N2  UNL     1      -2.152  -0.318   0.072  1.00  0.00    -0.336 N 
ENDROOT
BRANCH   3   9
HETATM    9  O1  UNL     1      -1.339   0.353  -2.043  1.00  0.00    -0.359 OA
ATOM     10  H1  UNL     1      -1.334  -0.568  -2.274  1.00  0.00     0.213 HD
ENDBRANCH   3   9
BRANCH   8  11
HETATM   11  C7  UNL     1      -1.611  -0.086   1.355  1.00  0.00     0.049 A 
HETATM   12  C8  UNL     1      -2.513   0.038   2.433  1.00  0.00     0.047 A 
HETATM   13  C9  UNL     1      -2.064   0.265   3.701  1.00  0.00     0.092 A 
HETATM   14  N3  UNL     1      -0.748   0.373   3.937  1.00  0.00    -0.352 N 
HETATM   15  C10 UNL     1       0.126   0.261   2.953  1.00  0.00     0.112 A 
ATOM     16  H3  UNL     1      -0.418   0.544   4.887  1.00  0.00     0.166 HD
HETATM   17  N4  UNL     1       1.390   0.366   3.183  1.00  0.00    -0.385 N 
HETATM   18  C11 UNL     1      -0.282   0.030   1.645  1.00  0.00     0.044 A 
ATOM     19  H42 UNL     1       1.690   0.536   4.143  1.00  0.00     0.157 HD
ATOM     20  H41 UNL     1       2.065   0.280   2.423  1.00  0.00     0.157 HD
BRANCH  18  21
HETATM   21  C12 UNL     1       0.740  -0.085   0.601  1.00  0.00    -0.020 A 
HETATM   22  C13 UNL     1       1.370   1.027   0.141  1.00  0.00     0.015 A 
HETATM   23  C14 UNL     1       2.349   0.963  -0.830  1.00  0.00     0.038 A 
HETATM   24  C15 UNL     1       2.697  -0.263  -1.349  1.00  0.00     0.075 A 
HETATM   25  C18 UNL     1       2.067  -1.406  -0.894  1.00  0.00     0.038 A 
HETATM   26  C19 UNL     1       1.074  -1.313   0.095  1.00  0.00     0.015 A 
BRANCH  24  27
HETATM   27  O2  UNL     1       3.666  -0.362  -2.314  1.00  0.00    -0.279 OA
BRANCH  27  28
HETATM   28  C16 UNL     1       5.030  -0.541  -2.151  1.00  0.00     0.418 C 
HETATM   29  F1  UNL     1       5.298  -1.738  -1.468  1.00  0.00    -0.169 F 
HETATM   30  F2  UNL     1       5.591  -0.704  -3.418  1.00  0.00    -0.169 F 
BRANCH  28  31
HETATM   31  C17 UNL     1       5.761   0.588  -1.489  1.00  0.00     0.455 C 
HETATM   32  F3  UNL     1       7.126   0.270  -1.400  1.00  0.00    -0.205 F 
HETATM   33  F4  UNL     1       5.370   0.780  -0.168  1.00  0.00    -0.205 F 
ENDBRANCH  28  31
ENDBRANCH  27  28
ENDBRANCH  24  27
ENDBRANCH  18  21
ENDBRANCH   8  11
TORSDOF 6
