REMARK  2 active torsions:
REMARK  status: ('A' for Active; 'I' for Inactive)
REMARK    1  A    between atoms: N1_2  and  C2_3 
REMARK    2  A    between atoms: N1_2  and  C6_10 
ROOT
HETATM    1  C2  UNL     1       1.101  -0.430   0.028  1.00  0.00     0.012 C 
HETATM    2  C3  UNL     1       1.714   0.450  -1.031  1.00  0.00     0.081 C 
HETATM    3  C4  UNL     1       3.048   0.797  -0.360  1.00  0.00     0.238 C 
HETATM    4  N2  UNL     1       2.609   1.124   0.984  1.00  0.00    -0.070 N 
ATOM      5  H21 UNL     1       2.192   2.049   1.091  1.00  0.00     0.277 HD
ATOM      6  H22 UNL     1       3.358   1.279   1.659  1.00  0.00     0.277 HD
HETATM    7  C5  UNL     1       1.714  -0.006   1.290  1.00  0.00     0.284 C 
ENDROOT
BRANCH   1   8
HETATM    8  N1  UNL     1      -0.215  -0.821  -0.084  1.00  0.00    -0.382 N 
HETATM    9  C1  UNL     1      -0.444  -1.723  -1.203  1.00  0.00     0.150 C 
BRANCH   8  10
HETATM   10  C6  UNL     1      -1.311  -0.020   0.245  1.00  0.00     0.021 C 
HETATM   11  C7  UNL     1      -1.709   0.037   1.704  1.00  0.00     0.037 C 
HETATM   12  C8  UNL     1      -1.410   1.360  -0.304  1.00  0.00     0.037 C 
HETATM   13  C9  UNL     1      -2.546  -0.744  -0.377  1.00  0.00     0.037 C 
ENDBRANCH   8  10
ENDBRANCH   1   8
TORSDOF 2
