REMARK  0 active torsions:
REMARK  status: ('A' for Active; 'I' for Inactive)
ROOT
HETATM    1  C1  UNL     1       0.264  -2.356   0.135  1.00  0.00     0.032 C 
HETATM    2  C2  UNL     1      -1.056  -1.673   0.005  1.00  0.00     0.027 C 
HETATM    3  C3  UNL     1      -1.161  -0.365   0.702  1.00  0.00     0.086 C 
HETATM    4  C4  UNL     1      -2.651   0.014   0.719  1.00  0.00     0.030 C 
HETATM    5  C5  UNL     1      -2.727   0.811  -0.591  1.00  0.00     0.046 C 
HETATM    6  C6  UNL     1      -1.438   1.611  -0.499  1.00  0.00     0.061 C 
HETATM    7  N1  UNL     1      -0.547   0.738   0.144  1.00  0.00    -0.358 N 
HETATM    8  C7  UNL     1       0.777   0.695  -0.296  1.00  0.00     0.351 C 
HETATM    9  C8  UNL     1       1.566   1.932   0.127  1.00  0.00     0.291 C 
HETATM   10  N2  UNL     1       2.914   1.493   0.360  1.00  0.00    -0.045 N 
ATOM     11  H21 UNL     1       3.293   1.827   1.246  1.00  0.00     0.279 HD
ATOM     12  H22 UNL     1       3.591   1.946  -0.254  1.00  0.00     0.279 HD
HETATM   13  C9  UNL     1       2.929   0.050   0.249  1.00  0.00     0.505 C 
HETATM   14  N3  UNL     1       1.544  -0.361   0.267  1.00  0.00     0.138 N 
HETATM   15  C10 UNL     1       1.326  -1.550  -0.574  1.00  0.00     0.277 C 
ENDROOT
TORSDOF 0
