REMARK  5 active torsions:
REMARK  status: ('A' for Active; 'I' for Inactive)
REMARK    1  A    between atoms: C1_2  and  C2_3 
REMARK       I    between atoms: C1_2  and  N4_21 
REMARK    2  A    between atoms: C2_3  and  S1_4 
REMARK    3  A    between atoms: S1_4  and  C3_5 
REMARK       I    between atoms: N3_11  and  C5_13 
REMARK    4  A    between atoms: C5_13  and  C6_15 
REMARK    5  A    between atoms: N4_21  and  C11_23 
ROOT
HETATM    1  C3  UNL     1       0.488   1.117  -0.059  1.00  0.00     0.130 A 
HETATM    2  N1  UNL     1       0.775   0.887   1.213  1.00  0.00    -0.286 N 
ATOM      3  H1  UNL     1       0.059   1.022   1.927  1.00  0.00     0.188 HD
HETATM    4  N2  UNL     1       1.936   0.500   1.550  1.00  0.00    -0.278 N 
ATOM      5  H2  UNL     1       2.163   0.321   2.528  1.00  0.00     0.189 HD
HETATM    6  C4  UNL     1       2.856   0.332   0.591  1.00  0.00     0.168 A 
HETATM    7  N3  UNL     1       4.101  -0.058   0.745  1.00  0.00    -0.306 N 
ATOM      8  H3  UNL     1       4.485  -0.275   1.665  1.00  0.00     0.171 HD
HETATM    9  C5  UNL     1       4.883  -0.161  -0.432  1.00  0.00     0.227 C 
HETATM   10  O2  UNL     1       5.205  -1.308  -0.813  1.00  0.00    -0.273 OA
HETATM   11  S2  UNL     1       1.978   0.754  -0.812  1.00  0.00    -0.026 SA
ENDROOT
BRANCH   1  12
HETATM   12  S1  UNL     1      -1.078   1.668  -0.776  1.00  0.00    -0.094 SA
BRANCH  12  13
HETATM   13  C2  UNL     1      -2.258   1.862   0.561  1.00  0.00     0.184 C 
BRANCH  13  14
HETATM   14  C1  UNL     1      -2.608   0.568   1.190  1.00  0.00     0.227 C 
HETATM   15  O1  UNL     1      -1.966   0.085   2.155  1.00  0.00    -0.273 OA
HETATM   16  N4  UNL     1      -3.710  -0.187   0.710  1.00  0.00    -0.356 N 
ATOM     17  H4  UNL     1      -4.252   0.182  -0.072  1.00  0.00     0.162 HD
BRANCH  16  18
HETATM   18  C11 UNL     1      -4.098  -1.461   1.285  1.00  0.00     0.084 C 
HETATM   19  C12 UNL     1      -4.108  -2.545   0.254  1.00  0.00     0.025 C 
HETATM   20  C13 UNL     1      -5.469  -3.188   0.120  1.00  0.00     0.002 C 
HETATM   21  C14 UNL     1      -6.562  -2.149  -0.072  1.00  0.00     0.000 C 
HETATM   22  C15 UNL     1      -6.596  -1.206   1.094  1.00  0.00     0.002 C 
HETATM   23  C16 UNL     1      -5.426  -1.348   2.015  1.00  0.00     0.025 C 
ENDBRANCH  16  18
ENDBRANCH  13  14
ENDBRANCH  12  13
ENDBRANCH   1  12
BRANCH   9  24
HETATM   24  C6  UNL     1       5.322   1.007  -1.210  1.00  0.00     0.078 C 
HETATM   25  C7  UNL     1       6.141   0.552  -2.397  1.00  0.00     0.014 C 
HETATM   26  C8  UNL     1       6.868   1.816  -2.794  1.00  0.00     0.001 C 
HETATM   27  C9  UNL     1       6.856   2.733  -1.586  1.00  0.00     0.001 C 
HETATM   28  C10 UNL     1       6.325   1.857  -0.443  1.00  0.00     0.014 C 
ENDBRANCH   9  24
TORSDOF 5
