REMARK  7 active torsions:
REMARK  status: ('A' for Active; 'I' for Inactive)
REMARK    1  A    between atoms: C5_6  and  O1_7 
REMARK    2  A    between atoms: C6_9  and  C7_10 
REMARK    3  A    between atoms: C8_13  and  S1_14 
REMARK    4  A    between atoms: S1_14  and  O2_15 
REMARK    5  A    between atoms: C9_17  and  O3_18 
REMARK    6  A    between atoms: C12_25  and  O4_26 
REMARK    7  A    between atoms: C13_28  and  O5_29 
ROOT
HETATM    1  C1  UNL     1      -4.358   0.369  -1.084  1.00  0.00     0.028 C 
HETATM    2  C2  UNL     1      -3.075   0.353  -0.757  1.00  0.00     0.014 A 
HETATM    3  C3  UNL     1      -2.091   0.574  -1.697  1.00  0.00     0.091 A 
HETATM    4  C4  UNL     1      -2.564   0.825  -3.054  1.00  0.00     0.103 C 
HETATM    5  N1  UNL     1      -2.913   1.024  -4.119  1.00  0.00    -0.191 NA
HETATM    6  C5  UNL     1      -0.758   0.568  -1.414  1.00  0.00     0.104 A 
HETATM    7  C6  UNL     1      -0.318   0.328  -0.105  1.00  0.00     0.078 A 
HETATM    8  C12 UNL     1      -1.262   0.106   0.842  1.00  0.00     0.116 A 
HETATM    9  C13 UNL     1      -2.633   0.118   0.520  1.00  0.00     0.113 A 
ENDROOT
BRANCH   6  10
HETATM   10  O1  UNL     1       0.181   0.798  -2.406  1.00  0.00    -0.358 OA
ATOM     11  H1  UNL     1       1.110   0.794  -2.209  1.00  0.00     0.217 HD
ENDBRANCH   6  10
BRANCH   9  12
HETATM   12  O5  UNL     1      -3.575  -0.114   1.522  1.00  0.00    -0.352 OA
HETATM   13  C14 UNL     1      -4.038  -1.416   1.830  1.00  0.00     0.210 C 
ENDBRANCH   9  12
BRANCH   7  14
HETATM   14  C7  UNL     1       0.990   0.309   0.116  1.00  0.00     0.119 C 
HETATM   15  N2  UNL     1       1.888   0.526  -0.983  1.00  0.00    -0.336 N 
HETATM   16  C8  UNL     1       3.147   0.524  -0.818  1.00  0.00     0.107 C 
ATOM     17  H2  UNL     1       1.507   0.685  -1.916  1.00  0.00     0.168 HD
HETATM   18  C9  UNL     1       3.793   0.262   0.503  1.00  0.00     0.213 C 
HETATM   19  C10 UNL     1       2.875  -0.551   1.399  1.00  0.00     0.226 C 
HETATM   20  C11 UNL     1       2.713  -1.922   0.992  1.00  0.00     0.087 C 
HETATM   21  N4  UNL     1       1.541   0.098   1.391  1.00  0.00    -0.356 N 
HETATM   22  N3  UNL     1       2.602  -3.015   0.676  1.00  0.00    -0.195 NA
ATOM     23  H4  UNL     1       1.059   0.371   2.248  1.00  0.00     0.162 HD
BRANCH  16  24
HETATM   24  S1  UNL     1       4.252   0.808  -2.234  1.00  0.00     0.042 SA
BRANCH  24  25
HETATM   25  O2  UNL     1       5.862   0.701  -1.688  1.00  0.00    -0.324 OA
ATOM     26  H2  UNL     1       6.439   0.849  -2.428  1.00  0.00     0.228 HD
ENDBRANCH  24  25
ENDBRANCH  16  24
BRANCH  18  27
HETATM   27  O3  UNL     1       4.060   1.490   1.096  1.00  0.00    -0.386 OA
ATOM     28  H3  UNL     1       4.471   1.323   1.936  1.00  0.00     0.210 HD
ENDBRANCH  18  27
ENDBRANCH   7  14
BRANCH   8  29
HETATM   29  O4  UNL     1      -0.945  -0.150   2.180  1.00  0.00    -0.357 OA
ATOM     30  H4  UNL     1      -1.607  -0.306   2.844  1.00  0.00     0.217 HD
ENDBRANCH   8  29
TORSDOF 7
