REMARK  6 active torsions:
REMARK  status: ('A' for Active; 'I' for Inactive)
REMARK    1  A    between atoms: C2_2  and  N1_4 
REMARK       I    between atoms: N1_4  and  C4_6 
REMARK    2  A    between atoms: C4_6  and  O2_8 
REMARK    3  A    between atoms: O2_8  and  C5_9 
REMARK    4  A    between atoms: C9_17  and  O3_18 
REMARK    5  A    between atoms: O3_18  and  C10_19 
REMARK    6  A    between atoms: C10_19  and  C11_21 
ROOT
HETATM    1  C5  UNL     1       1.216   0.284   0.557  1.00  0.00     0.202 C 
HETATM    2  C6  UNL     1       0.626   1.057   1.716  1.00  0.00     0.018 A 
HETATM    3  C7  UNL     1       1.141   1.814   2.736  1.00  0.00     0.119 A 
HETATM    4  N2  UNL     1       0.071   2.234   3.444  1.00  0.00    -0.311 N 
ATOM      5  H2  UNL     1       0.124   2.823   4.275  1.00  0.00     0.186 HD
HETATM    6  N3  UNL     1      -1.052   1.783   2.919  1.00  0.00    -0.302 N 
ATOM      7  H3  UNL     1      -1.991   1.965   3.274  1.00  0.00     0.186 HD
HETATM    8  C8  UNL     1      -0.753   1.044   1.839  1.00  0.00     0.068 A 
HETATM    9  C9  UNL     1      -1.451   0.282   0.830  1.00  0.00     0.215 C 
HETATM   10  C15 UNL     1      -0.868  -1.126   0.858  1.00  0.00     0.192 C 
HETATM   11  O5  UNL     1      -1.483  -1.910  -0.133  1.00  0.00    -0.345 OA
HETATM   12  C16 UNL     1      -0.430  -2.542  -0.790  1.00  0.00     0.158 C 
HETATM   13  C17 UNL     1      -0.820  -3.016  -2.164  1.00  0.00     0.078 C 
HETATM   14  C18 UNL     1       0.060  -3.710   0.064  1.00  0.00     0.078 C 
HETATM   15  O6  UNL     1       0.537  -1.545  -0.853  1.00  0.00    -0.345 OA
HETATM   16  C19 UNL     1       0.579  -1.077   0.466  1.00  0.00     0.191 C 
ENDROOT
BRANCH   1  17
HETATM   17  O2  UNL     1       2.604   0.146   0.786  1.00  0.00    -0.291 OA
BRANCH  17  18
HETATM   18  C4  UNL     1       3.539   0.674  -0.088  1.00  0.00     0.361 C 
HETATM   19  N1  UNL     1       4.938   0.555   0.109  1.00  0.00    -0.333 N 
ATOM     20  H1  UNL     1       5.259   0.055   0.938  1.00  0.00     0.165 HD
HETATM   21  O1  UNL     1       3.144   1.291  -1.110  1.00  0.00    -0.238 OA
BRANCH  19  22
HETATM   22  C2  UNL     1       5.928   1.086  -0.771  1.00  0.00     0.078 C 
HETATM   23  C1  UNL     1       6.793  -0.076  -1.251  1.00  0.00     0.032 C 
HETATM   24  C3  UNL     1       6.856   2.041  -0.049  1.00  0.00     0.032 C 
ENDBRANCH  19  22
ENDBRANCH  17  18
ENDBRANCH   1  17
BRANCH   9  25
HETATM   25  O3  UNL     1      -2.802   0.353   0.692  1.00  0.00    -0.306 OA
BRANCH  25  26
HETATM   26  C10 UNL     1      -3.576   0.749  -0.336  1.00  0.00     0.267 C 
HETATM   27  O4  UNL     1      -2.912   1.107  -1.313  1.00  0.00    -0.264 OA
BRANCH  26  28
HETATM   28  C11 UNL     1      -5.048   0.795  -0.405  1.00  0.00     0.037 C 
HETATM   29  C12 UNL     1      -5.528   1.728   0.688  1.00  0.00     0.025 C 
HETATM   30  C13 UNL     1      -5.655  -0.572  -0.094  1.00  0.00     0.025 C 
HETATM   31  C14 UNL     1      -5.575   1.248  -1.721  1.00  0.00     0.025 C 
ENDBRANCH  26  28
ENDBRANCH  25  26
ENDBRANCH   9  25
TORSDOF 6
