REMARK  4 active torsions:
REMARK  status: ('A' for Active; 'I' for Inactive)
REMARK    1  A    between atoms: C2_2  and  O1_3 
REMARK    2  A    between atoms: O1_3  and  C3_4 
REMARK       I    between atoms: C3_4  and  N1_6 
REMARK    3  A    between atoms: C4_7  and  C5_8 
REMARK    4  A    between atoms: C5_8  and  O3_9 
ROOT
HETATM    1  C3  UNL     1       2.262  -0.315   0.268  1.00  0.00     0.367 C 
HETATM    2  O2  UNL     1       2.976   0.032   1.217  1.00  0.00    -0.238 OA
HETATM    3  N1  UNL     1       1.177   0.337  -0.326  1.00  0.00    -0.293 N 
HETATM    4  C4  UNL     1       0.882   1.643   0.137  1.00  0.00     0.022 C 
HETATM    5  C6  UNL     1      -0.464   1.889   0.726  1.00  0.00     0.040 C 
HETATM    6  C7  UNL     1      -0.943   3.260   0.234  1.00  0.00     0.011 C 
HETATM    7  C8  UNL     1      -1.120   3.313  -1.229  1.00  0.00     0.001 C 
HETATM    8  C9  UNL     1      -1.376   2.044  -1.952  1.00  0.00     0.005 C 
HETATM    9  C10 UNL     1      -1.643   0.833  -1.162  1.00  0.00    -0.000 C 
HETATM   10  C11 UNL     1      -1.558   0.943   0.330  1.00  0.00     0.026 C 
HETATM   11  C12 UNL     1      -1.567  -0.357   1.035  1.00  0.00     0.242 C 
HETATM   12  N2  UNL     1      -1.971  -1.485   0.233  1.00  0.00    -0.070 N 
HETATM   13  C13 UNL     1      -1.603  -2.674   1.027  1.00  0.00     0.272 C 
HETATM   14  C14 UNL     1      -3.390  -1.590   0.024  1.00  0.00     0.272 C 
HETATM   15  C15 UNL     1      -1.265  -1.624  -1.011  1.00  0.00     0.198 C 
HETATM   16  C16 UNL     1       0.235  -1.892  -0.802  1.00  0.00     0.060 C 
HETATM   17  C17 UNL     1       0.530  -0.501  -1.318  1.00  0.00     0.103 C 
HETATM   18  C18 UNL     1      -0.852  -0.324  -1.654  1.00  0.00     0.045 C 
ENDROOT
BRANCH   1  19
HETATM   19  O1  UNL     1       2.655  -1.571  -0.262  1.00  0.00    -0.304 OA
BRANCH  19  20
HETATM   20  C2  UNL     1       3.736  -2.240   0.307  1.00  0.00     0.176 C 
HETATM   21  C1  UNL     1       3.575  -2.576   1.748  1.00  0.00     0.034 C 
ENDBRANCH  19  20
ENDBRANCH   1  19
BRANCH   4  22
HETATM   22  C5  UNL     1       1.910   2.340   0.970  1.00  0.00     0.217 C 
BRANCH  22  23
HETATM   23  O3  UNL     1       3.134   2.548   0.307  1.00  0.00    -0.395 OA
ATOM     24  H3  UNL     1       3.787   2.991   0.836  1.00  0.00     0.209 HD
ENDBRANCH  22  23
ENDBRANCH   4  22
TORSDOF 4
