REMARK  2 active torsions:
REMARK  status: ('A' for Active; 'I' for Inactive)
REMARK    1  A    between atoms: C10_12  and  C11_13 
REMARK    2  A    between atoms: C11_13  and  C12_14 
ROOT
HETATM    1  C1  UNL     1       5.720  -0.485  -2.376  1.00  0.00     0.143 C 
HETATM    2  N1  UNL     1       5.209   0.198  -1.240  1.00  0.00    -0.412 N 
HETATM    3  C2  UNL     1       5.533  -0.354   0.023  1.00  0.00     0.117 C 
HETATM    4  C3  UNL     1       4.391  -0.462   0.989  1.00  0.00     0.029 C 
HETATM    5  C4  UNL     1       3.176   0.268   0.513  1.00  0.00    -0.028 C 
HETATM    6  C5  UNL     1       3.622   1.570  -0.112  1.00  0.00     0.035 C 
HETATM    7  C6  UNL     1       3.907   0.734  -1.369  1.00  0.00     0.085 C 
HETATM    8  C7  UNL     1       2.819  -0.214  -0.848  1.00  0.00     0.034 C 
HETATM    9  C8  UNL     1       1.457   0.295  -1.325  1.00  0.00     0.125 C 
HETATM   10  N2  UNL     1       0.533   0.135  -0.294  1.00  0.00    -0.404 N 
HETATM   11  C9  UNL     1      -0.868   0.121  -0.667  1.00  0.00     0.151 C 
HETATM   12  C10 UNL     1      -1.502  -0.822   0.322  1.00  0.00    -0.065 C 
HETATM   13  C17 UNL     1      -1.232  -0.391   1.756  1.00  0.00     0.037 C 
HETATM   14  C18 UNL     1      -0.350   0.817   1.857  1.00  0.00     0.029 C 
HETATM   15  C19 UNL     1       0.788   0.854   0.913  1.00  0.00     0.080 C 
HETATM   16  C20 UNL     1       2.074   0.344   1.494  1.00  0.00     0.035 C 
ENDROOT
BRANCH  12  17
HETATM   17  C11 UNL     1      -2.859  -1.290   0.063  1.00  0.00    -0.011 C 
BRANCH  17  18
HETATM   18  C12 UNL     1      -4.020  -0.439  -0.056  1.00  0.00    -0.001 C 
HETATM   19  C13 UNL     1      -3.918   0.572  -1.180  1.00  0.00     0.021 C 
HETATM   20  C14 UNL     1      -4.549   0.271   1.126  1.00  0.00     0.042 C 
HETATM   21  C15 UNL     1      -6.018   0.524   0.752  1.00  0.00     0.233 C 
HETATM   22  N3  UNL     1      -6.389  -0.626  -0.038  1.00  0.00    -0.074 N 
HETATM   23  C16 UNL     1      -5.224  -1.320  -0.445  1.00  0.00     0.245 C 
ATOM     24  H32 UNL     1      -7.047  -1.233   0.452  1.00  0.00     0.277 HD
ATOM     25  H31 UNL     1      -6.982  -0.374  -0.829  1.00  0.00     0.277 HD
ENDBRANCH  17  18
ENDBRANCH  12  17
TORSDOF 2
