REMARK  5 active torsions:
REMARK  status: ('A' for Active; 'I' for Inactive)
REMARK    1  A    between atoms: C2_2  and  C4_4 
REMARK       I    between atoms: C4_4  and  N1_6 
REMARK    2  A    between atoms: N1_6  and  C5_8 
REMARK    3  A    between atoms: C6_13  and  C7_14 
REMARK       I    between atoms: C7_14  and  N4_16 
REMARK    4  A    between atoms: N4_16  and  C8_18 
REMARK    5  A    between atoms: C9_23  and  C10_24 
ROOT
HETATM    1  C7  UNL     1      -0.212  -2.266   0.166  1.00  0.00     0.295 C 
HETATM    2  O2  UNL     1      -0.173  -3.219  -0.586  1.00  0.00    -0.265 OA
HETATM    3  N4  UNL     1      -1.334  -1.725   0.849  1.00  0.00    -0.152 N 
ATOM      4  H4  UNL     1      -1.282  -1.614   1.862  1.00  0.00     0.187 HD
ENDROOT
BRANCH   1   5
HETATM    5  C6  UNL     1       1.035  -1.503   0.442  1.00  0.00     0.161 A 
HETATM    6  N3  UNL     1       1.155  -0.569   1.399  1.00  0.00    -0.287 N 
HETATM    7  N2  UNL     1       2.189   0.143   1.495  1.00  0.00    -0.278 N 
ATOM      8  H3  UNL     1       0.392  -0.433   2.062  1.00  0.00     0.188 HD
HETATM    9  C5  UNL     1       3.197  -0.074   0.580  1.00  0.00     0.168 A 
ATOM     10  H2  UNL     1       2.277   0.853   2.222  1.00  0.00     0.189 HD
HETATM   11  S1  UNL     1       2.529  -1.330  -0.346  1.00  0.00    -0.028 SA
BRANCH   9  12
HETATM   12  N1  UNL     1       4.254   0.636   0.581  1.00  0.00    -0.306 N 
HETATM   13  C4  UNL     1       5.300   0.482  -0.310  1.00  0.00     0.227 C 
HETATM   14  O1  UNL     1       5.179   0.773  -1.550  1.00  0.00    -0.273 OA
ATOM     15  H1  UNL     1       4.335   1.368   1.287  1.00  0.00     0.171 HD
BRANCH  13  16
HETATM   16  C2  UNL     1       6.590  -0.003   0.211  1.00  0.00     0.070 C 
HETATM   17  C1  UNL     1       7.299   1.109   0.896  1.00  0.00     0.019 C 
HETATM   18  C3  UNL     1       7.435  -0.609  -0.891  1.00  0.00     0.019 C 
ENDBRANCH  13  16
ENDBRANCH   9  12
ENDBRANCH   1   5
BRANCH   3  19
HETATM   19  C8  UNL     1      -2.410  -1.370   0.247  1.00  0.00     0.701 A 
HETATM   20  N5  UNL     1      -2.669  -1.448  -1.077  1.00  0.00    -0.130 N 
HETATM   21  N6  UNL     1      -3.772  -0.752  -1.267  1.00  0.00    -0.274 N 
ATOM     22  H5  UNL     1      -2.124  -1.943  -1.783  1.00  0.00     0.205 HD
HETATM   23  C9  UNL     1      -4.247  -0.213  -0.101  1.00  0.00     0.120 A 
ATOM     24  H6  UNL     1      -4.219  -0.629  -2.175  1.00  0.00     0.189 HD
HETATM   25  N7  UNL     1      -3.393  -0.604   0.840  1.00  0.00    -0.177 N 
ATOM     26  H7  UNL     1      -3.454  -0.376   1.832  1.00  0.00     0.185 HD
BRANCH  23  27
HETATM   27  C10 UNL     1      -5.451   0.643  -0.080  1.00  0.00     0.009 C 
HETATM   28  C11 UNL     1      -6.654  -0.191  -0.355  1.00  0.00     0.023 C 
HETATM   29  C12 UNL     1      -5.526   1.420   1.182  1.00  0.00     0.023 C 
HETATM   30  C13 UNL     1      -5.300   1.587  -1.302  1.00  0.00     0.023 C 
ENDBRANCH  23  27
ENDBRANCH   3  19
TORSDOF 5
