REMARK  7 active torsions:
REMARK  status: ('A' for Active; 'I' for Inactive)
REMARK    1  A    between atoms: O1_2  and  C2_3 
REMARK    2  A    between atoms: C5_7  and  C6_8 
REMARK    3  A    between atoms: C6_8  and  O2_9 
REMARK    4  A    between atoms: C6_8  and  N1_11 
REMARK    5  A    between atoms: C9_14  and  N2_15 
REMARK    6  A    between atoms: N2_15  and  C10_17 
REMARK    7  A    between atoms: C10_17  and  N3_19 
REMARK       I    between atoms: C11_21  and  N4_22 
REMARK       I    between atoms: C11_21  and  N6_26 
ROOT
HETATM    1  N3  UNL     1       2.066  -1.013   0.300  1.00  0.00    -0.165 N 
ATOM      2  H3  UNL     1       2.750  -1.702   0.613  1.00  0.00     0.186 HD
HETATM    3  C11 UNL     1       2.600  -0.003  -0.170  1.00  0.00     0.691 C 
HETATM    4  N4  UNL     1       2.026   1.175  -0.710  1.00  0.00    -0.126 N 
ATOM      5  H4  UNL     1       1.574   1.140  -1.623  1.00  0.00     0.197 HD
HETATM    6  C12 UNL     1       2.070   2.384  -0.011  1.00  0.00     0.196 C 
HETATM    7  N5  UNL     1       2.112   3.381   0.588  1.00  0.00    -0.171 NA
HETATM    8  N6  UNL     1       4.050   0.006  -0.186  1.00  0.00    -0.213 N 
HETATM    9  C13 UNL     1       4.831  -0.041  -1.389  1.00  0.00     0.167 C 
HETATM   10  C14 UNL     1       6.039   0.891  -1.302  1.00  0.00     0.188 C 
HETATM   11  O3  UNL     1       6.670   0.703  -0.066  1.00  0.00    -0.388 OA
HETATM   12  C15 UNL     1       5.829   1.108   0.950  1.00  0.00     0.188 C 
HETATM   13  C16 UNL     1       4.711   0.067   1.089  1.00  0.00     0.167 C 
ENDROOT
BRANCH   1  14
HETATM   14  C10 UNL     1       0.748  -1.442   0.508  1.00  0.00     0.191 C 
HETATM   15  S1  UNL     1       0.649  -2.793   1.472  1.00  0.00    -0.040 SA
BRANCH  14  16
HETATM   16  N2  UNL     1      -0.395  -0.810   0.040  1.00  0.00    -0.332 N 
ATOM     17  H2  UNL     1      -0.262   0.058  -0.478  1.00  0.00     0.168 HD
BRANCH  16  18
HETATM   18  C9  UNL     1      -1.721  -1.251   0.211  1.00  0.00     0.054 A 
HETATM   19  C5  UNL     1      -2.802  -0.306   0.240  1.00  0.00     0.080 A 
HETATM   20  C4  UNL     1      -4.107  -0.739   0.225  1.00  0.00     0.135 A 
HETATM   21  C3  UNL     1      -4.369  -2.110   0.184  1.00  0.00     0.080 A 
HETATM   22  F1  UNL     1      -5.196   0.085   0.308  1.00  0.00    -0.205 F 
HETATM   23  C2  UNL     1      -3.375  -3.039   0.159  1.00  0.00     0.073 A 
HETATM   24  C17 UNL     1      -2.061  -2.580   0.173  1.00  0.00     0.067 A 
BRANCH  19  25
HETATM   25  C6  UNL     1      -2.446   1.054   0.478  1.00  0.00     0.153 C 
BRANCH  25  26
HETATM   26  O2  UNL     1      -1.213   1.182   0.977  1.00  0.00    -0.345 OA
ATOM     27  H2  UNL     1      -0.976   2.088   1.136  1.00  0.00     0.219 HD
ENDBRANCH  25  26
BRANCH  25  28
HETATM   28  N1  UNL     1      -3.041   2.301   0.323  1.00  0.00    -0.370 N 
HETATM   29  C7  UNL     1      -2.245   3.508   0.821  1.00  0.00     0.151 C 
HETATM   30  C8  UNL     1      -4.253   2.732  -0.303  1.00  0.00     0.151 C 
ENDBRANCH  25  28
ENDBRANCH  19  25
BRANCH  23  31
HETATM   31  O1  UNL     1      -3.656  -4.382   0.121  1.00  0.00    -0.356 OA
HETATM   32  C1  UNL     1      -4.973  -4.887   0.106  1.00  0.00     0.210 C 
ENDBRANCH  23  31
ENDBRANCH  16  18
ENDBRANCH  14  16
ENDBRANCH   1  14
TORSDOF 7
