REMARK  5 active torsions:
REMARK  status: ('A' for Active; 'I' for Inactive)
REMARK    1  A    between atoms: C8_8  and  C9_9 
REMARK       I    between atoms: C9_9  and  N1_11 
REMARK    2  A    between atoms: N1_11  and  C10_13 
REMARK    3  A    between atoms: N3_16  and  C11_17 
REMARK    4  A    between atoms: C11_17  and  C12_18 
REMARK    5  A    between atoms: C18_25  and  C19_26 
ROOT
HETATM    1  C10 UNL     1      -1.027   0.250  -0.839  1.00  0.00     0.163 A 
HETATM    2  N2  UNL     1       0.010  -0.253  -0.164  1.00  0.00    -0.281 N 
ATOM      3  H2  UNL     1       0.016  -0.442   0.838  1.00  0.00     0.189 HD
HETATM    4  N3  UNL     1       1.016  -0.469  -0.970  1.00  0.00    -0.298 N 
HETATM    5  C20 UNL     1       0.643  -0.104  -2.200  1.00  0.00     0.156 A 
HETATM    6  C21 UNL     1      -0.651   0.356  -2.142  1.00  0.00     0.178 A 
HETATM    7  F1  UNL     1      -1.376   0.819  -3.215  1.00  0.00    -0.201 F 
ENDROOT
BRANCH   1   8
HETATM    8  N1  UNL     1      -2.197   0.596  -0.415  1.00  0.00    -0.309 N 
HETATM    9  C9  UNL     1      -2.501   0.449   0.966  1.00  0.00     0.228 C 
HETATM   10  O1  UNL     1      -1.755   1.056   1.776  1.00  0.00    -0.273 OA
ATOM     11  H1  UNL     1      -2.892   0.969  -1.061  1.00  0.00     0.170 HD
BRANCH   9  12
HETATM   12  C8  UNL     1      -3.618  -0.361   1.451  1.00  0.00     0.087 C 
HETATM   13  C4  UNL     1      -4.953   0.116   0.932  1.00  0.00    -0.025 A 
HETATM   14  C2  UNL     1      -5.251   1.565   0.839  1.00  0.00    -0.009 A 
HETATM   15  C3  UNL     1      -5.908   0.725   1.903  1.00  0.00     0.015 A 
HETATM   16  C5  UNL     1      -5.418  -0.858  -0.099  1.00  0.00     0.011 C 
HETATM   17  C1  UNL     1      -6.159   2.013  -0.274  1.00  0.00     0.011 C 
HETATM   18  C6  UNL     1      -4.303  -1.838  -0.251  1.00  0.00     0.002 C 
HETATM   19  C7  UNL     1      -3.536  -1.809   1.030  1.00  0.00     0.015 C 
ENDBRANCH   9  12
ENDBRANCH   1   8
BRANCH   4  20
HETATM   20  C11 UNL     1       2.318  -1.009  -0.654  1.00  0.00     0.160 C 
BRANCH  20  21
HETATM   21  C12 UNL     1       3.323   0.019  -0.265  1.00  0.00     0.012 C 
HETATM   22  C13 UNL     1       2.776   0.733   0.983  1.00  0.00     0.020 C 
HETATM   23  C14 UNL     1       3.651   1.051  -1.277  1.00  0.00     0.180 C 
HETATM   24  O2  UNL     1       4.957   0.831  -1.736  1.00  0.00    -0.378 OA
HETATM   25  C15 UNL     1       5.600   0.460  -0.548  1.00  0.00     0.075 A 
HETATM   26  C16 UNL     1       7.054   0.348  -0.439  1.00  0.00     0.042 A 
HETATM   27  C17 UNL     1       6.310   1.467   0.283  1.00  0.00     0.042 A 
HETATM   28  C18 UNL     1       4.657  -0.529   0.115  1.00  0.00     0.133 C 
BRANCH  28  29
HETATM   29  C19 UNL     1       4.965  -1.878  -0.349  1.00  0.00     0.180 C 
HETATM   30  O3  UNL     1       5.938  -2.134  -1.124  1.00  0.00    -0.648 OA
HETATM   31  O4  UNL     1       4.199  -2.963   0.039  1.00  0.00    -0.648 OA
ENDBRANCH  28  29
ENDBRANCH  20  21
ENDBRANCH   4  20
TORSDOF 5
