REMARK  4 active torsions:
REMARK  status: ('A' for Active; 'I' for Inactive)
REMARK    1  A    between atoms: C2_2  and  N1_3 
REMARK       I    between atoms: N1_3  and  C3_5 
REMARK       I    between atoms: C3_5  and  N3_9 
REMARK    2  A    between atoms: N3_9  and  C5_11 
REMARK    3  A    between atoms: C8_14  and  C9_15 
REMARK    4  A    between atoms: C9_15  and  C10_17 
ROOT
HETATM    1  C5  UNL     1      -3.303  -0.241   0.837  1.00  0.00     0.049 A 
HETATM    2  C6  UNL     1      -2.189  -0.686   0.159  1.00  0.00     0.031 A 
HETATM    3  C7  UNL     1      -0.916  -0.235   0.413  1.00  0.00     0.018 A 
HETATM    4  C8  UNL     1      -0.727   0.712   1.392  1.00  0.00     0.015 A 
HETATM    5  C22 UNL     1      -1.838   1.188   2.105  1.00  0.00     0.018 A 
HETATM    6  C23 UNL     1      -3.082   0.702   1.809  1.00  0.00     0.031 A 
ENDROOT
BRANCH   4   7
HETATM    7  C9  UNL     1       0.553   1.298   1.739  1.00  0.00     0.192 C 
HETATM    8  O1  UNL     1       0.705   1.728   2.925  1.00  0.00    -0.287 OA
BRANCH   7   9
HETATM    9  C10 UNL     1       1.662   1.421   0.818  1.00  0.00     0.016 A 
HETATM   10  C11 UNL     1       1.504   1.485  -0.544  1.00  0.00     0.017 A 
HETATM   11  C12 UNL     1       2.579   1.589  -1.428  1.00  0.00     0.021 A 
HETATM   12  C13 UNL     1       3.858   1.632  -0.936  1.00  0.00     0.022 A 
HETATM   13  C14 UNL     1       4.056   1.571   0.428  1.00  0.00     0.023 A 
HETATM   14  S2  UNL     1       5.239   1.757  -2.079  1.00  0.00    -0.088 SA
HETATM   15  C15 UNL     1       2.974   1.468   1.272  1.00  0.00     0.035 A 
HETATM   16  S1  UNL     1       5.731   1.644   1.063  1.00  0.00    -0.088 SA
HETATM   17  C16 UNL     1       6.761   0.683  -0.073  1.00  0.00     0.022 A 
HETATM   18  C17 UNL     1       7.776  -0.104   0.454  1.00  0.00     0.020 A 
HETATM   19  C21 UNL     1       6.560   0.722  -1.425  1.00  0.00     0.022 A 
HETATM   20  C18 UNL     1       8.601  -0.858  -0.347  1.00  0.00     0.001 A 
HETATM   21  C19 UNL     1       8.365  -0.791  -1.714  1.00  0.00     0.001 A 
HETATM   22  C20 UNL     1       7.366  -0.019  -2.250  1.00  0.00     0.020 A 
ENDBRANCH   7   9
ENDBRANCH   4   7
BRANCH   1  23
HETATM   23  N3  UNL     1      -4.607  -0.694   0.584  1.00  0.00    -0.192 N 
HETATM   24  C3  UNL     1      -4.960  -1.654  -0.374  1.00  0.00     0.673 C 
HETATM   25  N1  UNL     1      -5.446  -1.226  -1.663  1.00  0.00    -0.227 N 
HETATM   26  N2  UNL     1      -4.859  -2.890  -0.127  1.00  0.00    -0.231 N 
ATOM     27  H1  UNL     1      -5.551  -1.912  -2.410  1.00  0.00     0.177 HD
HETATM   28  C4  UNL     1      -4.394  -3.466   1.103  1.00  0.00     0.165 C 
ATOM     29  H2  UNL     1      -5.132  -3.535  -0.868  1.00  0.00     0.177 HD
ATOM     30  H3  UNL     1      -5.359  -0.292   1.143  1.00  0.00     0.184 HD
BRANCH  25  31
HETATM   31  C2  UNL     1      -5.786   0.149  -1.917  1.00  0.00     0.133 C 
HETATM   32  C1  UNL     1      -7.015   0.554  -1.132  1.00  0.00     0.027 C 
ENDBRANCH  25  31
ENDBRANCH   1  23
TORSDOF 4
