REMARK  5 active torsions:
REMARK  status: ('A' for Active; 'I' for Inactive)
REMARK    1  A    between atoms: C9_9  and  N1_10 
REMARK       I    between atoms: N1_10  and  C10_12 
REMARK       I    between atoms: C10_12  and  N2_14 
REMARK    2  A    between atoms: N2_14  and  C11_16 
REMARK    3  A    between atoms: C18_23  and  C19_24 
REMARK    4  A    between atoms: N3_29  and  N4_30 
REMARK    5  A    between atoms: N4_30  and  O2_32 
ROOT
HETATM    1  C1  UNL     1      -4.839   1.322  -1.419  1.00  0.00     0.040 C 
HETATM    2  C2  UNL     1      -3.645   1.380  -0.464  1.00  0.00     0.048 C 
HETATM    3  C3  UNL     1      -3.749   2.755   0.205  1.00  0.00     0.040 C 
HETATM    4  C4  UNL     1      -3.856   0.352   0.591  1.00  0.00     0.071 C 
HETATM    5  C5  UNL     1      -2.576   0.096   1.349  1.00  0.00    -0.045 A 
HETATM    6  C6  UNL     1      -2.625  -0.160   2.703  1.00  0.00     0.008 A 
HETATM    7  C7  UNL     1      -1.496  -0.408   3.425  1.00  0.00     0.003 A 
HETATM    8  C8  UNL     1      -0.273  -0.397   2.747  1.00  0.00     0.030 A 
HETATM    9  C9  UNL     1      -0.207  -0.145   1.402  1.00  0.00     0.045 A 
HETATM   10  C17 UNL     1      -1.391   0.111   0.676  1.00  0.00     0.004 A 
HETATM   11  C18 UNL     1      -1.310   0.400  -0.751  1.00  0.00     0.180 C 
HETATM   12  N3  UNL     1      -2.404   1.239  -1.170  1.00  0.00    -0.285 N 
ENDROOT
BRANCH   9  13
HETATM   13  N1  UNL     1       1.006  -0.183   0.692  1.00  0.00    -0.308 N 
HETATM   14  C10 UNL     1       2.296  -0.239   1.262  1.00  0.00     0.325 C 
HETATM   15  O1  UNL     1       2.461  -0.253   2.482  1.00  0.00    -0.247 OA
HETATM   16  N2  UNL     1       3.406  -0.279   0.351  1.00  0.00    -0.309 N 
ATOM     17  H2  UNL     1       3.194  -0.270  -0.647  1.00  0.00     0.170 HD
ATOM     18  H1  UNL     1       0.949  -0.169  -0.326  1.00  0.00     0.170 HD
BRANCH  16  19
HETATM   19  C11 UNL     1       4.761  -0.329   0.724  1.00  0.00     0.036 A 
HETATM   20  C12 UNL     1       5.246  -0.017   1.966  1.00  0.00     0.029 A 
HETATM   21  C13 UNL     1       6.615  -0.112   2.273  1.00  0.00     0.002 A 
HETATM   22  C14 UNL     1       7.501  -0.523   1.328  1.00  0.00     0.000 A 
HETATM   23  C15 UNL     1       7.013  -0.836   0.082  1.00  0.00     0.002 A 
HETATM   24  C16 UNL     1       5.698  -0.751  -0.235  1.00  0.00     0.029 A 
ENDBRANCH  16  19
ENDBRANCH   9  13
BRANCH  11  25
HETATM   25  C19 UNL     1      -1.325  -0.897  -1.493  1.00  0.00     0.011 A 
HETATM   26  C20 UNL     1      -1.462  -1.152  -2.812  1.00  0.00     0.017 A 
HETATM   27  C21 UNL     1      -1.448  -2.441  -3.216  1.00  0.00     0.008 A 
HETATM   28  C22 UNL     1      -1.294  -3.388  -2.235  1.00  0.00     0.050 A 
HETATM   29  S1  UNL     1      -1.176  -2.454  -0.813  1.00  0.00    -0.104 SA
ENDBRANCH  11  25
BRANCH  12  30
HETATM   30  N4  UNL     1      -2.246   1.971  -2.350  1.00  0.00    -0.211 N 
ATOM     31  H4  UNL     1      -2.814   1.782  -3.176  1.00  0.00     0.215 HD
BRANCH  30  32
HETATM   32  O2  UNL     1      -1.365   2.879  -2.345  1.00  0.00    -0.275 OA
ATOM     33  H2  UNL     1      -1.258   3.377  -3.147  1.00  0.00     0.246 HD
ENDBRANCH  30  32
ENDBRANCH  12  30
TORSDOF 5
