REMARK  7 active torsions:
REMARK  status: ('A' for Active; 'I' for Inactive)
REMARK    1  A    between atoms: C2_2  and  C3_3 
REMARK    2  A    between atoms: C3_3  and  C4_4 
REMARK    3  A    between atoms: C4_4  and  C5_5 
REMARK    4  A    between atoms: C5_5  and  C6_6 
REMARK    5  A    between atoms: C6_6  and  C7_7 
REMARK    6  A    between atoms: C22_23  and  O2_24 
REMARK    7  A    between atoms: C23_26  and  C24_27 
ROOT
HETATM    1  C7  UNL     1       1.597   0.304  -0.832  1.00  0.00    -0.014 C 
HETATM    2  C8  UNL     1       1.180   1.701  -0.617  1.00  0.00     0.005 C 
HETATM    3  C9  UNL     1      -0.283   1.997  -0.995  1.00  0.00     0.011 C 
HETATM    4  C10 UNL     1      -1.081   1.057  -0.122  1.00  0.00    -0.027 C 
HETATM    5  C11 UNL     1      -0.577   1.305   1.280  1.00  0.00     0.016 C 
HETATM    6  C12 UNL     1      -0.723  -0.325  -0.631  1.00  0.00     0.002 C 
HETATM    7  C13 UNL     1       0.646  -0.740  -0.285  1.00  0.00     0.010 C 
HETATM    8  C14 UNL     1      -1.841  -1.227  -0.312  1.00  0.00     0.026 C 
HETATM    9  C15 UNL     1      -1.891  -1.851   1.025  1.00  0.00     0.009 C 
HETATM   10  C16 UNL     1      -3.121  -2.760   1.025  1.00  0.00     0.018 C 
HETATM   11  C17 UNL     1      -4.367  -2.104   0.599  1.00  0.00     0.024 C 
HETATM   12  C18 UNL     1      -5.258  -3.066  -0.197  1.00  0.00     0.024 C 
HETATM   13  C19 UNL     1      -5.142  -1.611   1.770  1.00  0.00     0.136 C 
HETATM   14  O1  UNL     1      -5.811  -2.089   2.647  1.00  0.00    -0.297 OA
HETATM   15  C20 UNL     1      -4.705  -0.230   1.353  1.00  0.00     0.088 C 
HETATM   16  C21 UNL     1      -4.285  -0.738   0.012  1.00  0.00     0.044 C 
HETATM   17  C22 UNL     1      -3.032  -0.327  -0.605  1.00  0.00     0.078 C 
HETATM   18  C23 UNL     1      -2.548   1.082  -0.249  1.00  0.00     0.098 C 
ENDROOT
BRANCH   1  19
HETATM   19  C6  UNL     1       2.922   0.098  -0.114  1.00  0.00     0.005 C 
BRANCH  19  20
HETATM   20  C5  UNL     1       3.991   0.999  -0.617  1.00  0.00     0.000 C 
BRANCH  20  21
HETATM   21  C4  UNL     1       5.271   0.773   0.134  1.00  0.00     0.000 C 
BRANCH  21  22
HETATM   22  C3  UNL     1       5.754  -0.626  -0.022  1.00  0.00    -0.000 C 
BRANCH  22  23
HETATM   23  C2  UNL     1       7.066  -0.835   0.730  1.00  0.00    -0.005 C 
HETATM   24  C1  UNL     1       8.150   0.075   0.230  1.00  0.00     0.005 C 
ENDBRANCH  22  23
ENDBRANCH  21  22
ENDBRANCH  20  21
ENDBRANCH  19  20
ENDBRANCH   1  19
BRANCH  18  25
HETATM   25  C24 UNL     1      -3.127   2.126  -1.118  1.00  0.00     0.131 C 
HETATM   26  C25 UNL     1      -2.984   3.586  -0.849  1.00  0.00     0.091 C 
HETATM   27  O3  UNL     1      -3.782   1.885  -2.145  1.00  0.00    -0.298 OA
ENDBRANCH  18  25
BRANCH  17  28
HETATM   28  O2  UNL     1      -3.144  -0.357  -1.998  1.00  0.00    -0.388 OA
ATOM     29  H2  UNL     1      -3.888   0.205  -2.181  1.00  0.00     0.210 HD
ENDBRANCH  17  28
TORSDOF 7
