REMARK  15 active torsions:
REMARK  status: ('A' for Active; 'I' for Inactive)
REMARK    1  A    between atoms: C2_2  and  N1_3 
REMARK    2  A    between atoms: C2_2  and  C13_28 
REMARK       I    between atoms: N1_3  and  C3_5 
REMARK    3  A    between atoms: C3_5  and  C4_7 
REMARK    4  A    between atoms: C4_7  and  O2_8 
REMARK    5  A    between atoms: C4_7  and  C5_10 
REMARK    6  A    between atoms: C7_12  and  C8_13 
REMARK    7  A    between atoms: N2_14  and  N3_16 
REMARK    8  A    between atoms: C11_22  and  O3_23 
REMARK    9  A    between atoms: C12_25  and  O4_26 
REMARK       I    between atoms: C13_28  and  N6_30 
REMARK   10  A    between atoms: C14_32  and  C15_33 
REMARK   11  A    between atoms: C14_32  and  C18_44 
REMARK   12  A    between atoms: C15_33  and  C16_34 
REMARK   13  A    between atoms: C16_34  and  C17_35 
REMARK   14  A    between atoms: C18_44  and  N11_45 
REMARK   15  A    between atoms: C18_44  and  O6_49 
ROOT
HETATM    1  C1  UNL     1      -2.179   0.899  -2.132  1.00  0.00     0.042 C 
HETATM    2  C2  UNL     1      -1.380  -0.033  -1.256  1.00  0.00     0.173 C 
ENDROOT
BRANCH   2   3
HETATM    3  N1  UNL     1      -0.128   0.618  -0.979  1.00  0.00    -0.346 N 
HETATM    4  C3  UNL     1       1.079   0.298  -1.670  1.00  0.00     0.251 C 
HETATM    5  O1  UNL     1       0.989  -0.594  -2.555  1.00  0.00    -0.270 OA
ATOM      6  H1  UNL     1      -0.102   1.339  -0.258  1.00  0.00     0.163 HD
BRANCH   4   7
HETATM    7  C4  UNL     1       2.352   0.974  -1.365  1.00  0.00     0.245 C 
BRANCH   7   8
HETATM    8  O2  UNL     1       2.463   1.303  -0.015  1.00  0.00    -0.381 OA
ATOM      9  H2  UNL     1       3.284   1.739   0.182  1.00  0.00     0.211 HD
ENDBRANCH   7   8
BRANCH   7  10
HETATM   10  C5  UNL     1       3.573   0.360  -1.896  1.00  0.00     0.016 A 
HETATM   11  C6  UNL     1       4.574  -0.028  -0.992  1.00  0.00     0.026 A 
HETATM   12  C7  UNL     1       5.735  -0.659  -1.381  1.00  0.00    -0.016 A 
HETATM   13  C10 UNL     1       5.909  -0.921  -2.737  1.00  0.00     0.052 A 
HETATM   14  C11 UNL     1       4.946  -0.547  -3.625  1.00  0.00     0.100 A 
HETATM   15  C12 UNL     1       3.783   0.087  -3.233  1.00  0.00     0.108 A 
BRANCH  12  16
HETATM   16  C8  UNL     1       6.741  -1.051  -0.414  1.00  0.00     0.118 C 
HETATM   17  N2  UNL     1       6.742  -0.924   0.802  1.00  0.00    -0.309 N 
ATOM     18  H2  UNL     1       7.610  -1.311   1.171  1.00  0.00     0.186 HD
BRANCH  17  19
HETATM   19  N3  UNL     1       6.010  -0.458   1.823  1.00  0.00    -0.276 N 
HETATM   20  C9  UNL     1       6.436   0.217   2.832  1.00  0.00     0.215 C 
HETATM   21  N4  UNL     1       7.803   0.531   2.924  1.00  0.00    -0.065 NA
HETATM   22  N5  UNL     1       5.533   0.614   3.832  1.00  0.00    -0.065 NA
ATOM     23  H3  UNL     1       5.010  -0.660   1.798  1.00  0.00     0.189 HD
ENDBRANCH  17  19
ENDBRANCH  12  16
BRANCH  14  24
HETATM   24  O3  UNL     1       5.198  -0.848  -4.969  1.00  0.00    -0.358 OA
ATOM     25  H3  UNL     1       4.526  -0.587  -5.588  1.00  0.00     0.217 HD
ENDBRANCH  14  24
BRANCH  15  26
HETATM   26  O4  UNL     1       2.845   0.447  -4.191  1.00  0.00    -0.357 OA
ATOM     27  H4  UNL     1       2.989   0.259  -5.111  1.00  0.00     0.217 HD
ENDBRANCH  15  26
ENDBRANCH   7  10
ENDBRANCH   4   7
ENDBRANCH   2   3
BRANCH   2  28
HETATM   28  C13 UNL     1      -2.085  -0.412   0.001  1.00  0.00     0.244 C 
HETATM   29  O5  UNL     1      -1.595  -0.074   1.127  1.00  0.00    -0.271 OA
HETATM   30  N6  UNL     1      -3.275  -1.140  -0.032  1.00  0.00    -0.325 N 
HETATM   31  C14 UNL     1      -4.441  -0.729   0.451  1.00  0.00     0.064 C 
ATOM     32  H6  UNL     1      -3.246  -2.064  -0.463  1.00  0.00     0.168 HD
BRANCH  31  33
HETATM   33  C15 UNL     1      -5.519  -1.685   0.284  1.00  0.00     0.010 C 
BRANCH  33  34
HETATM   34  C16 UNL     1      -6.332  -2.243   1.365  1.00  0.00     0.108 C 
BRANCH  34  35
HETATM   35  C17 UNL     1      -7.210  -1.373   2.165  1.00  0.00     0.116 A 
HETATM   36  N7  UNL     1      -7.059  -0.811   3.369  1.00  0.00    -0.272 N 
HETATM   37  N8  UNL     1      -8.131  -0.100   3.639  1.00  0.00    -0.227 N 
ATOM     38  H7  UNL     1      -6.247  -0.917   3.977  1.00  0.00     0.190 HD
HETATM   39  N9  UNL     1      -9.003  -0.158   2.669  1.00  0.00    -0.227 N 
ATOM     40  H8  UNL     1      -8.265   0.431   4.499  1.00  0.00     0.210 HD
HETATM   41  N10 UNL     1      -8.456  -0.936   1.753  1.00  0.00    -0.272 N 
ATOM     42  H9  UNL     1      -9.913   0.300   2.628  1.00  0.00     0.210 HD
ATOM     43  H10 UNL     1      -8.892  -1.181   0.864  1.00  0.00     0.190 HD
ENDBRANCH  34  35
ENDBRANCH  33  34
ENDBRANCH  31  33
BRANCH  31  44
HETATM   44  C18 UNL     1      -4.439   0.606   1.039  1.00  0.00     0.367 C 
BRANCH  44  45
HETATM   45  N11 UNL     1      -4.127   0.703   2.434  1.00  0.00    -0.047 N 
ATOM     46 3H11 UNL     1      -4.754   0.098   2.965  1.00  0.00     0.277 HD
ATOM     47 2H11 UNL     1      -3.231   0.251   2.614  1.00  0.00     0.277 HD
ATOM     48 1H11 UNL     1      -4.126   1.636   2.845  1.00  0.00     0.277 HD
ENDBRANCH  44  45
BRANCH  44  49
HETATM   49  O6  UNL     1      -5.699   1.217   0.865  1.00  0.00    -0.365 OA
ATOM     50  H6  UNL     1      -5.698   2.086   1.248  1.00  0.00     0.212 HD
ENDBRANCH  44  49
ENDBRANCH  31  44
ENDBRANCH   2  28
TORSDOF 15
