REMARK  7 active torsions:
REMARK  status: ('A' for Active; 'I' for Inactive)
REMARK    1  A    between atoms: C9_9  and  O1_10 
REMARK    2  A    between atoms: O1_10  and  C10_11 
REMARK    3  A    between atoms: C10_11  and  C11_12 
REMARK    4  A    between atoms: C11_12  and  C12_13 
REMARK    5  A    between atoms: C13_14  and  C14_15 
REMARK    6  A    between atoms: C24_29  and  C25_30 
REMARK    7  A    between atoms: C29_37  and  O2_38 
ROOT
HETATM    1  C12 UNL     1      -2.108   0.163  -2.111  1.00  0.00     0.002 A 
HETATM    2  C13 UNL     1      -3.274   0.345  -1.412  1.00  0.00     0.043 A 
HETATM    3  N1  UNL     1      -4.173   0.857  -2.330  1.00  0.00    -0.303 N 
ATOM      4  H1  UNL     1      -5.137   1.101  -2.104  1.00  0.00     0.186 HD
HETATM    5  N2  UNL     1      -3.658   0.991  -3.498  1.00  0.00    -0.296 N 
ATOM      6  H2  UNL     1      -4.134   1.348  -4.327  1.00  0.00     0.187 HD
HETATM    7  C24 UNL     1      -2.365   0.573  -3.434  1.00  0.00     0.140 A 
ENDROOT
BRANCH   1   8
HETATM    8  C11 UNL     1      -0.797  -0.286  -1.677  1.00  0.00     0.070 C 
BRANCH   8   9
HETATM    9  C10 UNL     1       0.116   0.759  -1.082  1.00  0.00     0.180 C 
BRANCH   9  10
HETATM   10  O1  UNL     1       1.314   0.341  -0.633  1.00  0.00    -0.350 OA
BRANCH  10  11
HETATM   11  C9  UNL     1       2.442  -0.201  -1.105  1.00  0.00     0.076 A 
HETATM   12  C4  UNL     1       3.535  -0.546  -0.294  1.00  0.00    -0.008 A 
HETATM   13  C2  UNL     1       3.350  -0.238   1.115  1.00  0.00     0.009 C 
HETATM   14  C5  UNL     1       4.676  -1.117  -0.880  1.00  0.00    -0.048 A 
HETATM   15  C1  UNL     1       3.144  -1.485   1.960  1.00  0.00     0.023 C 
HETATM   16  C3  UNL     1       2.291   0.741   1.511  1.00  0.00     0.023 C 
HETATM   17  C29 UNL     1       4.656   0.452   1.589  1.00  0.00     0.130 C 
HETATM   18  C28 UNL     1       5.771  -0.482   1.845  1.00  0.00     0.033 C 
HETATM   19  C27 UNL     1       6.593  -0.543   0.544  1.00  0.00     0.007 C 
HETATM   20  C26 UNL     1       5.934  -1.607  -0.279  1.00  0.00     0.039 C 
HETATM   21  C6  UNL     1       4.716  -1.330  -2.238  1.00  0.00     0.008 A 
HETATM   22  C7  UNL     1       3.673  -1.006  -3.067  1.00  0.00     0.003 A 
HETATM   23  C8  UNL     1       2.564  -0.450  -2.477  1.00  0.00     0.037 A 
BRANCH  17  24
HETATM   24  O2  UNL     1       4.931   1.480   0.722  1.00  0.00    -0.394 OA
ATOM     25  H2  UNL     1       5.731   1.903   1.012  1.00  0.00     0.210 HD
ENDBRANCH  17  24
ENDBRANCH  10  11
ENDBRANCH   9  10
ENDBRANCH   8   9
ENDBRANCH   1   8
BRANCH   2  26
HETATM   26  C14 UNL     1      -3.596  -0.016  -0.025  1.00  0.00     0.005 C 
HETATM   27  C15 UNL     1      -3.499  -1.501   0.264  1.00  0.00     0.020 C 
HETATM   28  C16 UNL     1      -3.900  -1.787   1.672  1.00  0.00    -0.013 C 
HETATM   29  C17 UNL     1      -5.403  -1.639   1.749  1.00  0.00     0.009 C 
HETATM   30  C21 UNL     1      -3.276  -0.923   2.712  1.00  0.00     0.009 C 
HETATM   31  C18 UNL     1      -5.719  -0.230   1.345  1.00  0.00    -0.013 C 
HETATM   32  C19 UNL     1      -5.168   0.713   2.423  1.00  0.00     0.009 C 
HETATM   33  C23 UNL     1      -5.134   0.225   0.064  1.00  0.00     0.020 C 
HETATM   34  C20 UNL     1      -3.686   0.519   2.391  1.00  0.00    -0.013 C 
HETATM   35  C22 UNL     1      -3.047   0.834   1.055  1.00  0.00     0.020 C 
ENDBRANCH   2  26
BRANCH   7  36
HETATM   36  C25 UNL     1      -1.463   0.542  -4.604  1.00  0.00     0.434 C 
HETATM   37  F1  UNL     1      -2.164   1.008  -5.725  1.00  0.00    -0.165 F 
HETATM   38  F2  UNL     1      -1.097  -0.759  -4.949  1.00  0.00    -0.165 F 
HETATM   39  F3  UNL     1      -0.348   1.300  -4.533  1.00  0.00    -0.165 F 
ENDBRANCH   7  36
TORSDOF 7
