REMARK  9 active torsions:
REMARK  status: ('A' for Active; 'I' for Inactive)
REMARK    1  A    between atoms: C2_2  and  C3_3 
REMARK    2  A    between atoms: C3_3  and  C4_4 
REMARK    3  A    between atoms: C4_4  and  N1_5 
REMARK    4  A    between atoms: C6_10  and  N3_11 
REMARK    5  A    between atoms: C8_17  and  C9_18 
REMARK    6  A    between atoms: C9_18  and  N5_19 
REMARK    7  A    between atoms: N5_19  and  C10_22 
REMARK    8  A    between atoms: C10_22  and  C11_23 
REMARK    9  A    between atoms: C11_23  and  N6_24 
ROOT
HETATM    1  N1  UNL     1       2.898   0.896   0.210  1.00  0.00    -0.375 N 
ATOM      2  H1  UNL     1       3.913   0.957   0.284  1.00  0.00     0.161 HD
HETATM    3  C5  UNL     1       2.375   1.922   0.683  1.00  0.00     0.126 A 
HETATM    4  N2  UNL     1       3.219   2.886   1.188  1.00  0.00    -0.177 N 
ATOM      5  H2  UNL     1       4.226   2.731   1.150  1.00  0.00     0.186 HD
HETATM    6  C6  UNL     1       2.755   4.021   1.727  1.00  0.00     0.677 A 
HETATM    7  N4  UNL     1       1.442   4.292   1.808  1.00  0.00    -0.201 N 
ATOM      8  H4  UNL     1       1.111   5.164   2.222  1.00  0.00     0.183 HD
HETATM    9  C7  UNL     1       0.578   3.383   1.329  1.00  0.00     0.118 A 
HETATM   10  C8  UNL     1       1.032   2.207   0.770  1.00  0.00     0.028 A 
ENDROOT
BRANCH  10  11
HETATM   11  C9  UNL     1       0.037   1.256   0.228  1.00  0.00     0.276 C 
BRANCH  11  12
HETATM   12  N5  UNL     1      -1.303   1.769   0.479  1.00  0.00    -0.070 N 
ATOM     13  H52 UNL     1      -1.460   1.932   1.474  1.00  0.00     0.277 HD
ATOM     14  H51 UNL     1      -1.404   2.727   0.144  1.00  0.00     0.277 HD
BRANCH  12  15
HETATM   15  C10 UNL     1      -2.319   0.901  -0.083  1.00  0.00     0.252 C 
BRANCH  15  16
HETATM   16  C11 UNL     1      -2.382  -0.396   0.644  1.00  0.00     0.153 C 
BRANCH  16  17
HETATM   17  N6  UNL     1      -3.404  -1.281   0.099  1.00  0.00    -0.351 N 
HETATM   18  C12 UNL     1      -4.803  -1.336   0.537  1.00  0.00     0.126 C 
HETATM   19  C13 UNL     1      -5.470  -1.810  -0.743  1.00  0.00     0.029 C 
HETATM   20  C14 UNL     1      -4.500  -2.887  -1.188  1.00  0.00     0.104 C 
HETATM   21  C15 UNL     1      -3.198  -2.224  -0.941  1.00  0.00     0.219 C 
HETATM   22  O1  UNL     1      -2.135  -2.474  -1.555  1.00  0.00    -0.273 OA
ENDBRANCH  16  17
ENDBRANCH  15  16
ENDBRANCH  12  15
ENDBRANCH  11  12
ENDBRANCH  10  11
BRANCH   1  23
HETATM   23  C4  UNL     1       2.540  -0.302  -0.385  1.00  0.00     0.121 C 
BRANCH  23  24
HETATM   24  C3  UNL     1       3.763  -1.057  -0.957  1.00  0.00     0.019 C 
BRANCH  24  25
HETATM   25  C2  UNL     1       3.199  -2.336  -1.567  1.00  0.00    -0.003 C 
HETATM   26  C1  UNL     1       4.308  -3.172  -2.170  1.00  0.00     0.005 C 
ENDBRANCH  24  25
ENDBRANCH  23  24
ENDBRANCH   1  23
BRANCH   6  27
HETATM   27  N3  UNL     1       3.613   4.889   2.185  1.00  0.00    -0.234 N 
ATOM     28  H32 UNL     1       4.610   4.683   2.123  1.00  0.00     0.174 HD
ATOM     29  H31 UNL     1       3.260   5.753   2.595  1.00  0.00     0.174 HD
ENDBRANCH   6  27
TORSDOF 9
