REMARK  3 active torsions:
REMARK  status: ('A' for Active; 'I' for Inactive)
REMARK    1  A    between atoms: C2_5  and  C3_6 
REMARK    2  A    between atoms: N6_16  and  C5_17 
REMARK    3  A    between atoms: C7_22  and  N8_23 
ROOT
HETATM    1  C1  UNL     1      -0.615   3.772   0.627  1.00  0.00     0.183 C 
HETATM    2  N1  UNL     1      -0.433   2.370   0.344  1.00  0.00    -0.245 N 
HETATM    3  N2  UNL     1      -1.337   1.405   0.384  1.00  0.00    -0.277 N 
ATOM      4  H2  UNL     1      -2.320   1.521   0.629  1.00  0.00     0.189 HD
HETATM    5  C2  UNL     1      -0.753   0.266   0.054  1.00  0.00     0.164 A 
HETATM    6  N6  UNL     1       0.550   0.525  -0.200  1.00  0.00    -0.239 N 
HETATM    7  C8  UNL     1       0.740   1.825  -0.019  1.00  0.00     0.349 A 
HETATM    8  O3  UNL     1       1.841   2.436  -0.166  1.00  0.00    -0.244 OA
ENDROOT
BRANCH   5   9
HETATM    9  C3  UNL     1      -1.327  -1.076  -0.046  1.00  0.00     0.147 A 
HETATM   10  N3  UNL     1      -0.652  -2.206  -0.395  1.00  0.00    -0.234 N 
HETATM   11  O1  UNL     1      -1.471  -3.208  -0.380  1.00  0.00    -0.155 OA
ATOM     12  H3  UNL     1       0.339  -2.255  -0.630  1.00  0.00     0.197 HD
HETATM   13  N4  UNL     1      -2.665  -2.858  -0.046  1.00  0.00    -0.224 N 
HETATM   14  C4  UNL     1      -2.617  -1.504   0.176  1.00  0.00     0.154 A 
ATOM     15  H4  UNL     1      -3.481  -3.464   0.037  1.00  0.00     0.198 HD
HETATM   16  N5  UNL     1      -3.617  -0.801   0.526  1.00  0.00    -0.382 N 
ATOM     17  H52 UNL     1      -3.581   0.205   0.691  1.00  0.00     0.157 HD
ATOM     18  H51 UNL     1      -4.572  -1.118   0.690  1.00  0.00     0.157 HD
ENDBRANCH   5   9
BRANCH   6  19
HETATM   19  C5  UNL     1       1.563  -0.390  -0.589  1.00  0.00     0.115 A 
HETATM   20  C6  UNL     1       1.979  -0.760  -1.849  1.00  0.00     0.201 A 
HETATM   21  O2  UNL     1       2.950  -1.640  -1.751  1.00  0.00    -0.246 OA
HETATM   22  N7  UNL     1       3.182  -1.856  -0.475  1.00  0.00    -0.244 N 
HETATM   23  C7  UNL     1       2.355  -1.111   0.275  1.00  0.00     0.149 A 
ATOM     24  H7  UNL     1       3.887  -2.496  -0.109  1.00  0.00     0.196 HD
BRANCH  23  25
HETATM   25  N8  UNL     1       2.281  -1.051   1.560  1.00  0.00    -0.382 N 
ATOM     26  H82 UNL     1       1.653  -0.485   2.130  1.00  0.00     0.157 HD
ATOM     27  H81 UNL     1       2.868  -1.585   2.200  1.00  0.00     0.157 HD
ENDBRANCH  23  25
ENDBRANCH   6  19
TORSDOF 3
