REMARK  4 active torsions:
REMARK  status: ('A' for Active; 'I' for Inactive)
REMARK    1  A    between atoms: N1_1  and  C1_4 
REMARK    2  A    between atoms: C4_9  and  N3_10 
REMARK    3  A    between atoms: N3_10  and  N4_12 
REMARK    4  A    between atoms: N4_12  and  C5_14 
ROOT
HETATM    1  C1  UNL     1      -1.742  -0.191   0.812  1.00  0.00     0.677 A 
HETATM    2  N2  UNL     1      -2.524   0.159  -0.216  1.00  0.00    -0.202 N 
ATOM      3  H2  UNL     1      -3.531   0.217  -0.064  1.00  0.00     0.183 HD
HETATM    4  C2  UNL     1      -2.044   0.438  -1.440  1.00  0.00     0.110 A 
HETATM    5  C3  UNL     1      -0.674   0.350  -1.607  1.00  0.00     0.068 A 
HETATM    6  C4  UNL     1       0.164  -0.007  -0.571  1.00  0.00     0.136 A 
HETATM    7  N5  UNL     1      -0.417  -0.267   0.617  1.00  0.00    -0.176 N 
ATOM      8  H5  UNL     1       0.177  -0.533   1.402  1.00  0.00     0.186 HD
ENDROOT
BRANCH   6   9
HETATM    9  N3  UNL     1       1.435  -0.076  -0.773  1.00  0.00    -0.283 N 
ATOM     10  H3  UNL     1       1.798   0.137  -1.702  1.00  0.00     0.188 HD
BRANCH   9  11
HETATM   11  N4  UNL     1       2.334  -0.432   0.236  1.00  0.00    -0.276 N 
ATOM     12  H4  UNL     1       2.109  -1.161   0.913  1.00  0.00     0.189 HD
BRANCH  11  13
HETATM   13  C5  UNL     1       3.563   0.254   0.282  1.00  0.00     0.368 C 
HETATM   14  O1  UNL     1       3.845   1.143  -0.540  1.00  0.00    -0.282 OA
ENDBRANCH  11  13
ENDBRANCH   9  11
ENDBRANCH   6   9
BRANCH   1  15
HETATM   15  N1  UNL     1      -2.254  -0.450   1.973  1.00  0.00    -0.234 N 
ATOM     16  H12 UNL     1      -3.262  -0.392   2.121  1.00  0.00     0.174 HD
ATOM     17  H11 UNL     1      -1.658  -0.717   2.757  1.00  0.00     0.174 HD
ENDBRANCH   1  15
TORSDOF 4
