REMARK  7 active torsions:
REMARK  status: ('A' for Active; 'I' for Inactive)
REMARK    1  A    between atoms: S1_2  and  C2_3 
REMARK    2  A    between atoms: C3_6  and  C4_7 
REMARK    3  A    between atoms: C4_7  and  C5_8 
REMARK    4  A    between atoms: C7_12  and  C8_13 
REMARK    5  A    between atoms: C8_13  and  C9_14 
REMARK    6  A    between atoms: C9_14  and  C10_15 
REMARK    7  A    between atoms: C12_21  and  N4_22 
ROOT
HETATM    1  C2  UNL     1      -4.192  -0.432  -0.651  1.00  0.00     0.160 A 
HETATM    2  N1  UNL     1      -3.061  -0.290  -1.362  1.00  0.00    -0.325 N 
ATOM      3  H1  UNL     1      -3.004   0.467  -2.044  1.00  0.00     0.169 HD
HETATM    4  C3  UNL     1      -1.998  -1.106  -1.212  1.00  0.00     0.105 A 
HETATM    5  N3  UNL     1      -2.090  -2.094  -0.314  1.00  0.00    -0.180 N 
ATOM      6  H3  UNL     1      -1.306  -2.731  -0.175  1.00  0.00     0.185 HD
HETATM    7  C12 UNL     1      -3.230  -2.248   0.413  1.00  0.00     0.679 A 
HETATM    8  N5  UNL     1      -4.270  -1.418   0.239  1.00  0.00    -0.171 N 
ATOM      9  H5  UNL     1      -5.120  -1.543   0.789  1.00  0.00     0.186 HD
ENDROOT
BRANCH   4  10
HETATM   10  C4  UNL     1      -0.751  -0.955  -1.994  1.00  0.00     0.139 C 
BRANCH  10  11
HETATM   11  C5  UNL     1       0.180  -0.029  -1.302  1.00  0.00     0.084 A 
HETATM   12  C6  UNL     1       0.032   1.348  -1.276  1.00  0.00     0.255 A 
HETATM   13  F1  UNL     1      -0.945   2.086  -1.847  1.00  0.00    -0.176 F 
HETATM   14  O1  UNL     1       1.018   1.815  -0.591  1.00  0.00    -0.269 OA
HETATM   15  C7  UNL     1       1.791   0.843  -0.174  1.00  0.00     0.129 A 
HETATM   16  N2  UNL     1       1.285  -0.317  -0.606  1.00  0.00    -0.334 N 
HETATM   17  C11 UNL     1       1.811  -1.668  -0.386  1.00  0.00     0.158 C 
BRANCH  15  18
HETATM   18  C8  UNL     1       3.000   1.055   0.633  1.00  0.00     0.087 C 
BRANCH  18  19
HETATM   19  C9  UNL     1       4.241   1.241  -0.201  1.00  0.00     0.039 C 
BRANCH  19  20
HETATM   20  C10 UNL     1       5.395   1.447   0.782  1.00  0.00     0.222 C 
HETATM   21  F2  UNL     1       6.586   1.628   0.132  1.00  0.00    -0.255 F 
ENDBRANCH  19  20
ENDBRANCH  18  19
ENDBRANCH  15  18
ENDBRANCH  10  11
ENDBRANCH   4  10
BRANCH   1  22
HETATM   22  S1  UNL     1      -5.601   0.652  -0.851  1.00  0.00    -0.098 SA
HETATM   23  C1  UNL     1      -5.479   2.063   0.256  1.00  0.00     0.099 C 
ENDBRANCH   1  22
BRANCH   7  24
HETATM   24  N4  UNL     1      -3.289  -3.197   1.261  1.00  0.00    -0.234 N 
ATOM     25  H42 UNL     1      -2.498  -3.828   1.393  1.00  0.00     0.174 HD
ATOM     26  H41 UNL     1      -4.143  -3.312   1.806  1.00  0.00     0.174 HD
ENDBRANCH   7  24
TORSDOF 7
