REMARK  11 active torsions:
REMARK  status: ('A' for Active; 'I' for Inactive)
REMARK    1  A    between atoms: S1_2  and  C2_3 
REMARK    2  A    between atoms: C2_3  and  N1_4 
REMARK    3  A    between atoms: C2_3  and  C3_8 
REMARK       I    between atoms: C3_8  and  N2_10 
REMARK    4  A    between atoms: N2_10  and  C4_12 
REMARK    5  A    between atoms: C7_15  and  N3_16 
REMARK    6  A    between atoms: C8_19  and  C9_20 
REMARK       I    between atoms: C9_20  and  N4_22 
REMARK    7  A    between atoms: N4_22  and  N5_24 
REMARK    8  A    between atoms: C10_25  and  O5_26 
REMARK    9  A    between atoms: C13_30  and  C14_31 
REMARK   10  A    between atoms: C15_32  and  O6_33 
REMARK       I    between atoms: N6_35  and  C16_36 
REMARK   11  A    between atoms: N8_41  and  N9_42 
ROOT
HETATM    1  C9  UNL     1       0.001  -0.066   1.598  1.00  0.00     0.273 C 
HETATM    2  O4  UNL     1       0.635   0.408   2.553  1.00  0.00    -0.266 OA
HETATM    3  N4  UNL     1      -1.329   0.219   1.310  1.00  0.00    -0.257 N 
ATOM      4  H4  UNL     1      -1.688  -0.243   0.475  1.00  0.00     0.191 HD
ENDROOT
BRANCH   3   5
HETATM    5  N5  UNL     1      -2.237   1.011   1.953  1.00  0.00    -0.229 N 
HETATM    6  C10 UNL     1      -2.023   1.566   3.176  1.00  0.00     0.162 A 
HETATM    7  C11 UNL     1      -3.142   2.261   3.564  1.00  0.00     0.060 A 
HETATM    8  C12 UNL     1      -4.030   2.114   2.551  1.00  0.00     0.038 A 
HETATM    9  C13 UNL     1      -3.500   1.332   1.510  1.00  0.00     0.092 A 
BRANCH   6  10
HETATM   10  O5  UNL     1      -0.925   1.528   4.009  1.00  0.00    -0.345 OA
ATOM     11  H5  UNL     1      -0.776   1.916   4.863  1.00  0.00     0.219 HD
ENDBRANCH   6  10
BRANCH   9  12
HETATM   12  C14 UNL     1      -4.258   0.933   0.342  1.00  0.00     0.141 A 
HETATM   13  C15 UNL     1      -4.000   0.333  -0.848  1.00  0.00     0.186 A 
HETATM   14  N6  UNL     1      -5.148  -0.003  -1.521  1.00  0.00    -0.193 N 
HETATM   15  C16 UNL     1      -5.262  -0.633  -2.808  1.00  0.00     0.345 C 
HETATM   16  C17 UNL     1      -6.148   0.392  -0.747  1.00  0.00     0.358 A 
HETATM   17  N7  UNL     1      -4.085  -0.951  -3.519  1.00  0.00    -0.039 NA
HETATM   18  O7  UNL     1      -6.410  -0.880  -3.262  1.00  0.00    -0.250 OA
HETATM   19  O8  UNL     1      -7.397   0.258  -1.025  1.00  0.00    -0.244 OA
HETATM   20  N8  UNL     1      -5.641   0.950   0.361  1.00  0.00    -0.205 N 
BRANCH  13  21
HETATM   21  O6  UNL     1      -2.769   0.060  -1.409  1.00  0.00    -0.344 OA
ATOM     22  H6  UNL     1      -2.588  -0.360  -2.242  1.00  0.00     0.219 HD
ENDBRANCH  13  21
BRANCH  20  23
HETATM   23  N9  UNL     1      -6.495   1.417   1.351  1.00  0.00    -0.334 N 
ATOM     24  H92 UNL     1      -6.109   1.842   2.194  1.00  0.00     0.177 HD
ATOM     25  H91 UNL     1      -7.515   1.430   1.365  1.00  0.00     0.177 HD
ENDBRANCH  20  23
ENDBRANCH   9  12
ENDBRANCH   3   5
BRANCH   1  26
HETATM   26  C8  UNL     1       0.809  -0.997   0.740  1.00  0.00     0.068 A 
HETATM   27  C7  UNL     1       0.351  -2.138   0.223  1.00  0.00     0.118 A 
HETATM   28  C6  UNL     1       1.168  -2.838  -0.705  1.00  0.00     0.039 A 
HETATM   29  C5  UNL     1       2.376  -2.337  -1.030  1.00  0.00     0.032 A 
HETATM   30  C4  UNL     1       2.898  -1.146  -0.505  1.00  0.00     0.035 A 
HETATM   31  C18 UNL     1       2.069  -0.514   0.377  1.00  0.00     0.049 A 
BRANCH  27  32
HETATM   32  N3  UNL     1      -0.879  -2.751   0.564  1.00  0.00    -0.115 N 
HETATM   33  O2  UNL     1      -1.503  -3.439  -0.281  1.00  0.00    -0.532 OA
HETATM   34  O3  UNL     1      -1.419  -2.608   1.800  1.00  0.00    -0.532 OA
ENDBRANCH  27  32
BRANCH  30  35
HETATM   35  N2  UNL     1       4.181  -0.741  -0.923  1.00  0.00    -0.325 N 
HETATM   36  C3  UNL     1       4.962   0.314  -0.432  1.00  0.00     0.263 C 
HETATM   37  O1  UNL     1       4.550   1.050   0.494  1.00  0.00    -0.270 OA
ATOM     38  H2  UNL     1       4.594  -1.285  -1.680  1.00  0.00     0.169 HD
BRANCH  36  39
HETATM   39  C2  UNL     1       6.333   0.604  -0.998  1.00  0.00     0.336 C 
BRANCH  39  40
HETATM   40  S1  UNL     1       7.532   0.584   0.336  1.00  0.00    -0.132 SA
HETATM   41  C1  UNL     1       9.168   1.159  -0.125  1.00  0.00     0.092 C 
ENDBRANCH  39  40
BRANCH  39  42
HETATM   42  N1  UNL     1       6.712  -0.362  -1.994  1.00  0.00    -0.058 N 
ATOM     43  H13 UNL     1       7.665  -0.218  -2.329  1.00  0.00     0.276 HD
ATOM     44  H12 UNL     1       6.836  -1.295  -1.600  1.00  0.00     0.276 HD
ATOM     45  H11 UNL     1       6.030  -0.351  -2.753  1.00  0.00     0.276 HD
ENDBRANCH  39  42
ENDBRANCH  36  39
ENDBRANCH  30  35
ENDBRANCH   1  26
TORSDOF 11
