REMARK  2 active torsions:
REMARK  status: ('A' for Active; 'I' for Inactive)
REMARK    1  A    between atoms: C4_4  and  C5_5 
REMARK    2  A    between atoms: C6_9  and  O1_10 
ROOT
HETATM    1  C1  UNL     1       4.343  -0.041  -0.199  1.00  0.00     0.027 C 
HETATM    2  C2  UNL     1       3.136  -0.071  -0.267  1.00  0.00    -0.026 C 
HETATM    3  C3  UNL     1       1.711  -0.116  -0.325  1.00  0.00    -0.014 C 
HETATM    4  C4  UNL     1       0.505  -0.159  -0.355  1.00  0.00    -0.055 C 
ENDROOT
BRANCH   4   5
HETATM    5  C5  UNL     1      -0.958  -0.225  -0.370  1.00  0.00     0.324 A 
HETATM    6  N1  UNL     1      -1.700   1.044  -0.385  1.00  0.00    -0.027 N 
HETATM    7  C6  UNL     1      -1.661   0.310   0.861  1.00  0.00     0.363 A 
ATOM      8  H12 UNL     1      -1.454   1.999  -0.646  1.00  0.00     0.282 HD
ATOM      9  H11 UNL     1      -2.458   1.408  -0.963  1.00  0.00     0.282 HD
BRANCH   7  10
HETATM   10  O1  UNL     1      -2.783  -0.320   1.341  1.00  0.00    -0.367 OA
ATOM     11  H1  UNL     1      -3.224   0.015   2.113  1.00  0.00     0.212 HD
ENDBRANCH   7  10
ENDBRANCH   4   5
TORSDOF 2
