REMARK  6 active torsions:
REMARK  status: ('A' for Active; 'I' for Inactive)
REMARK    1  A    between atoms: C4_4  and  C5_5 
REMARK    2  A    between atoms: C7_8  and  C8_9 
REMARK    3  A    between atoms: C8_9  and  C9_10 
REMARK    4  A    between atoms: C9_10  and  N1_12 
REMARK       I    between atoms: N1_12  and  C11_14 
REMARK       I    between atoms: C11_14  and  N2_16 
REMARK    5  A    between atoms: N2_16  and  C12_18 
REMARK    6  A    between atoms: C15_25  and  C16_26 
ROOT
HETATM    1  C1  UNL     1       6.508   2.808  -3.642  1.00  0.00     0.017 C 
HETATM    2  C2  UNL     1       6.771   2.028  -2.767  1.00  0.00    -0.090 C 
HETATM    3  C3  UNL     1       7.069   1.105  -1.706  1.00  0.00     0.060 C 
HETATM    4  C4  UNL     1       6.586  -0.117  -1.708  1.00  0.00    -0.011 C 
ENDROOT
BRANCH   4   5
HETATM    5  C5  UNL     1       6.928  -1.033  -0.582  1.00  0.00     0.033 A 
HETATM    6  C6  UNL     1       6.609  -2.465  -0.606  1.00  0.00     0.095 A 
HETATM    7 CL1  UNL     1       7.623  -3.572   0.360  1.00  0.00    -0.124 Cl
HETATM    8  C7  UNL     1       5.715  -1.517   0.178  1.00  0.00     0.016 A 
BRANCH   8   9
HETATM    9  C8  UNL     1       4.351  -1.305  -0.445  1.00  0.00     0.031 C 
BRANCH   9  10
HETATM   10  C9  UNL     1       3.262  -1.842   0.452  1.00  0.00     0.082 C 
HETATM   11  C10 UNL     1       3.346  -1.086   1.766  1.00  0.00     0.032 C 
BRANCH  10  12
HETATM   12  N1  UNL     1       1.966  -1.637  -0.116  1.00  0.00    -0.339 N 
HETATM   13  C11 UNL     1       1.063  -2.721  -0.235  1.00  0.00     0.322 C 
HETATM   14  O1  UNL     1       1.427  -3.853   0.167  1.00  0.00    -0.247 OA
HETATM   15  N2  UNL     1      -0.225  -2.603  -0.782  1.00  0.00    -0.295 N 
ATOM     16  H2  UNL     1      -0.443  -3.168  -1.603  1.00  0.00     0.172 HD
ATOM     17  H1  UNL     1       1.691  -0.708  -0.436  1.00  0.00     0.164 HD
BRANCH  15  18
HETATM   18  C12 UNL     1      -1.141  -1.842  -0.329  1.00  0.00     0.111 A 
HETATM   19  C13 UNL     1      -0.948  -1.046   0.769  1.00  0.00     0.080 A 
HETATM   20  C14 UNL     1      -1.986  -0.239   1.182  1.00  0.00     0.065 A 
HETATM   21  N3  UNL     1      -2.124   0.652   2.208  1.00  0.00    -0.299 N 
HETATM   22  C21 UNL     1      -3.196  -0.224   0.516  1.00  0.00     0.035 A 
HETATM   23  N4  UNL     1      -3.337   1.174   2.166  1.00  0.00    -0.300 N 
ATOM     24  H3  UNL     1      -1.406   0.878   2.896  1.00  0.00     0.187 HD
HETATM   25  C15 UNL     1      -4.036   0.664   1.140  1.00  0.00     0.079 A 
ATOM     26  H4  UNL     1      -3.693   1.869   2.823  1.00  0.00     0.186 HD
HETATM   27  C22 UNL     1      -3.342  -1.041  -0.580  1.00  0.00     0.105 A 
HETATM   28  N6  UNL     1      -2.333  -1.824  -0.981  1.00  0.00    -0.351 N 
ATOM     29  H6  UNL     1      -2.462  -2.422  -1.797  1.00  0.00     0.166 HD
BRANCH  25  30
HETATM   30  C16 UNL     1      -5.413   0.975   0.742  1.00  0.00     0.150 C 
HETATM   31  F1  UNL     1      -6.237  -0.146   0.787  1.00  0.00    -0.236 F 
HETATM   32  C17 UNL     1      -5.433   1.516  -0.645  1.00  0.00     0.077 C 
HETATM   33  C18 UNL     1      -6.281   2.768  -0.752  1.00  0.00     0.236 C 
HETATM   34  N5  UNL     1      -7.553   2.453  -0.082  1.00  0.00    -0.075 N 
HETATM   35  C19 UNL     1      -7.284   2.552   1.339  1.00  0.00     0.236 C 
ATOM     36  H52 UNL     1      -8.333   3.033  -0.392  1.00  0.00     0.277 HD
ATOM     37  H51 UNL     1      -7.951   1.556  -0.361  1.00  0.00     0.277 HD
HETATM   38  C20 UNL     1      -5.996   1.936   1.757  1.00  0.00     0.077 C 
ENDBRANCH  25  30
ENDBRANCH  15  18
ENDBRANCH  10  12
ENDBRANCH   9  10
ENDBRANCH   8   9
ENDBRANCH   4   5
TORSDOF 6
