REMARK  5 active torsions:
REMARK  status: ('A' for Active; 'I' for Inactive)
REMARK    1  A    between atoms: N1_1  and  C1_4 
REMARK    2  A    between atoms: C2_9  and  S1_10 
REMARK    3  A    between atoms: S1_10  and  C3_11 
REMARK    4  A    between atoms: C3_11  and  C4_12 
REMARK    5  A    between atoms: C15_25  and  C16_26 
ROOT
HETATM    1  S1  UNL     1       1.969  -0.013  -0.377  1.00  0.00    -0.106 SA
ENDROOT
BRANCH   1   2
HETATM    2  C2  UNL     1       3.196  -0.824   0.595  1.00  0.00     0.095 A 
HETATM    3  N3  UNL     1       3.024  -1.780   1.529  1.00  0.00    -0.292 N 
HETATM    4  N2  UNL     1       4.192  -2.142   2.023  1.00  0.00    -0.284 N 
ATOM      5  H3  UNL     1       2.124  -2.167   1.812  1.00  0.00     0.187 HD
HETATM    6  C1  UNL     1       5.160  -1.444   1.438  1.00  0.00     0.123 A 
ATOM      7  H2  UNL     1       4.331  -2.850   2.744  1.00  0.00     0.188 HD
HETATM    8  C15 UNL     1       4.548  -0.585   0.512  1.00  0.00     0.026 A 
BRANCH   6   9
HETATM    9  N1  UNL     1       6.447  -1.458   1.616  1.00  0.00    -0.384 N 
ATOM     10  H12 UNL     1       6.892  -2.082   2.289  1.00  0.00     0.157 HD
ATOM     11  H11 UNL     1       7.190  -0.922   1.167  1.00  0.00     0.157 HD
ENDBRANCH   6   9
BRANCH   8  12
HETATM   12  C16 UNL     1       5.282   0.343  -0.386  1.00  0.00     0.025 A 
HETATM   13  C17 UNL     1       4.628   1.503  -0.992  1.00  0.00     0.010 A 
HETATM   14  C18 UNL     1       5.756   1.660   0.097  1.00  0.00     0.010 A 
ENDBRANCH   8  12
ENDBRANCH   1   2
BRANCH   1  15
HETATM   15  C3  UNL     1       0.292  -0.607   0.093  1.00  0.00     0.120 C 
BRANCH  15  16
HETATM   16  C4  UNL     1      -0.731   0.133  -0.680  1.00  0.00    -0.034 A 
HETATM   17  C5  UNL     1      -0.260   1.073  -1.582  1.00  0.00     0.091 A 
HETATM   18  C6  UNL     1      -1.091   1.821  -2.349  1.00  0.00     0.288 A 
HETATM   19  O1  UNL     1      -0.612   2.660  -3.150  1.00  0.00    -0.260 OA
HETATM   20  O2  UNL     1      -2.364   1.609  -2.193  1.00  0.00    -0.279 OA
HETATM   21  C7  UNL     1      -2.873   0.749  -1.371  1.00  0.00     0.064 A 
HETATM   22  C8  UNL     1      -2.116  -0.077  -0.531  1.00  0.00    -0.021 A 
HETATM   23  C14 UNL     1      -4.333   0.883  -1.561  1.00  0.00     0.066 C 
HETATM   24  C9  UNL     1      -2.128  -1.120   0.489  1.00  0.00     0.042 C 
HETATM   25  C10 UNL     1      -3.479  -1.484   1.133  1.00  0.00     0.005 C 
HETATM   26  C11 UNL     1      -4.366  -0.523   0.656  1.00  0.00     0.000 C 
HETATM   27  C12 UNL     1      -5.589   0.181   0.566  1.00  0.00     0.000 C 
HETATM   28  C13 UNL     1      -5.216   1.316  -0.450  1.00  0.00     0.006 C 
ENDBRANCH  15  16
ENDBRANCH   1  15
TORSDOF 5
