REMARK  5 active torsions:
REMARK  status: ('A' for Active; 'I' for Inactive)
REMARK    1  A    between atoms: C2_2  and  C3_3 
REMARK    2  A    between atoms: C3_3  and  C5_5 
REMARK    3  A    between atoms: C5_5  and  C6_6 
REMARK    4  A    between atoms: C6_6  and  N1_8 
REMARK    5  A    between atoms: N1_8  and  C8_10 
ROOT
HETATM    1  C8  UNL     1      -0.238  -0.977   1.006  1.00  0.00     0.148 A 
HETATM    2  N2  UNL     1      -1.286  -1.578   1.592  1.00  0.00    -0.303 N 
ATOM      3  H2  UNL     1      -1.069  -2.376   2.190  1.00  0.00     0.171 HD
HETATM    4  C9  UNL     1      -2.563  -1.261   1.488  1.00  0.00     0.255 A 
HETATM    5  O1  UNL     1      -3.376  -1.998   2.154  1.00  0.00    -0.268 OA
HETATM    6  C10 UNL     1      -3.149  -0.257   0.772  1.00  0.00     0.037 A 
HETATM    7  C11 UNL     1      -2.371   0.601   0.016  1.00  0.00     0.026 A 
HETATM    8  S1  UNL     1      -0.663   0.346   0.023  1.00  0.00    -0.055 SA
HETATM    9  C12 UNL     1      -2.983   1.714  -0.778  1.00  0.00     0.058 C 
HETATM   10  C13 UNL     1      -2.029   2.168  -1.873  1.00  0.00     0.044 C 
HETATM   11  C14 UNL     1      -3.432   2.854   0.083  1.00  0.00     0.044 C 
HETATM   12  N3  UNL     1      -4.141   1.153  -1.449  1.00  0.00    -0.366 N 
ATOM     13  H3  UNL     1      -4.343   1.360  -2.427  1.00  0.00     0.162 HD
HETATM   14  C15 UNL     1      -4.973   0.310  -0.688  1.00  0.00     0.080 C 
HETATM   15  N4  UNL     1      -6.030  -0.181  -1.243  1.00  0.00    -0.389 N 
ATOM     16  H41 UNL     1      -6.633  -0.792  -0.692  1.00  0.00     0.157 HD
ATOM     17  H42 UNL     1      -6.283   0.020  -2.210  1.00  0.00     0.157 HD
HETATM   18  C16 UNL     1      -4.604   0.017   0.722  1.00  0.00     0.088 C 
HETATM   19  C17 UNL     1      -5.500  -1.061   1.204  1.00  0.00     0.023 C 
ENDROOT
BRANCH   1  20
HETATM   20  N1  UNL     1       0.978  -1.347   1.162  1.00  0.00    -0.366 N 
ATOM     21  H1  UNL     1       1.164  -2.146   1.768  1.00  0.00     0.162 HD
BRANCH  20  22
HETATM   22  C6  UNL     1       2.104  -0.693   0.526  1.00  0.00     0.080 C 
HETATM   23  C7  UNL     1       2.069  -0.879  -0.949  1.00  0.00     0.032 C 
BRANCH  22  24
HETATM   24  C5  UNL     1       3.346  -1.069   1.228  1.00  0.00     0.029 C 
BRANCH  24  25
HETATM   25  C3  UNL     1       4.607  -0.382   0.886  1.00  0.00    -0.017 C 
HETATM   26  C4  UNL     1       5.695  -1.023   1.775  1.00  0.00     0.010 C 
BRANCH  25  27
HETATM   27  C2  UNL     1       5.107  -0.471  -0.505  1.00  0.00    -0.000 C 
HETATM   28  C1  UNL     1       6.443   0.298  -0.530  1.00  0.00     0.005 C 
ENDBRANCH  25  27
ENDBRANCH  24  25
ENDBRANCH  22  24
ENDBRANCH  20  22
ENDBRANCH   1  20
TORSDOF 5
