REMARK  7 active torsions:
REMARK  status: ('A' for Active; 'I' for Inactive)
REMARK    1  A    between atoms: C3_4  and  C4_5 
REMARK    2  A    between atoms: C4_5  and  C5_6 
REMARK    3  A    between atoms: C5_6  and  C6_7 
REMARK    4  A    between atoms: C15_17  and  O3_18 
REMARK    5  A    between atoms: C15_17  and  C16_20 
REMARK    6  A    between atoms: C16_20  and  O4_21 
REMARK    7  A    between atoms: C18_24  and  O5_25 
ROOT
HETATM    1  O1  UNL     1      -1.737   3.553  -1.089  1.00  0.00    -0.288 OA
HETATM    2  C1  UNL     1      -1.717   2.404  -0.619  1.00  0.00     0.173 C 
HETATM    3  C2  UNL     1      -0.480   1.851  -0.271  1.00  0.00     0.061 C 
HETATM    4  C3  UNL     1      -0.142   0.538  -0.017  1.00  0.00    -0.054 C 
HETATM    5  C11 UNL     1      -0.970  -0.572  -0.178  1.00  0.00     0.017 C 
HETATM    6  C12 UNL     1      -2.351  -0.660  -0.179  1.00  0.00    -0.019 C 
HETATM    7  C13 UNL     1      -3.202   0.426  -0.191  1.00  0.00    -0.009 C 
HETATM    8  C14 UNL     1      -2.932   1.765  -0.478  1.00  0.00     0.065 C 
HETATM    9  C15 UNL     1      -4.541  -0.097   0.177  1.00  0.00     0.109 C 
HETATM   10  C17 UNL     1      -4.540  -1.447  -0.502  1.00  0.00     0.081 C 
HETATM   11  C18 UNL     1      -3.122  -1.931  -0.168  1.00  0.00     0.155 C 
ENDROOT
BRANCH   4  12
HETATM   12  C4  UNL     1       1.231   0.264   0.475  1.00  0.00     0.041 C 
BRANCH  12  13
HETATM   13  C5  UNL     1       2.209   0.018  -0.652  1.00  0.00     0.036 C 
BRANCH  13  14
HETATM   14  C6  UNL     1       3.557  -0.246  -0.026  1.00  0.00     0.121 C 
HETATM   15  C7  UNL     1       4.573  -0.499  -1.105  1.00  0.00     0.032 C 
HETATM   16  C8  UNL     1       5.888  -0.835  -0.395  1.00  0.00     0.004 C 
HETATM   17  C9  UNL     1       6.259   0.355   0.451  1.00  0.00     0.026 C 
HETATM   18  C10 UNL     1       5.129   0.671   1.386  1.00  0.00     0.168 C 
HETATM   19  O2  UNL     1       3.915   0.843   0.751  1.00  0.00    -0.386 OA
ENDBRANCH  13  14
ENDBRANCH  12  13
ENDBRANCH   4  12
BRANCH  11  20
HETATM   20  O5  UNL     1      -3.160  -2.507   1.091  1.00  0.00    -0.391 OA
ATOM     21  H5  UNL     1      -3.653  -3.319   1.098  1.00  0.00     0.210 HD
ENDBRANCH  11  20
BRANCH   9  22
HETATM   22  O3  UNL     1      -4.591  -0.270   1.546  1.00  0.00    -0.383 OA
ATOM     23  H3  UNL     1      -5.448  -0.605   1.782  1.00  0.00     0.211 HD
ENDBRANCH   9  22
BRANCH   9  24
HETATM   24  C16 UNL     1      -5.654   0.794  -0.321  1.00  0.00     0.207 C 
BRANCH  24  25
HETATM   25  O4  UNL     1      -6.859   0.161   0.036  1.00  0.00    -0.398 OA
ATOM     26  H4  UNL     1      -7.559   0.721  -0.277  1.00  0.00     0.209 HD
ENDBRANCH  24  25
ENDBRANCH   9  24
TORSDOF 7
