REMARK  10 active torsions:
REMARK  status: ('A' for Active; 'I' for Inactive)
REMARK    1  A    between atoms: O1_1  and  C1_3 
REMARK    2  A    between atoms: C1_3  and  C2_4 
REMARK    3  A    between atoms: C3_6  and  O3_7 
REMARK    4  A    between atoms: O3_7  and  C4_8 
REMARK    5  A    between atoms: C6_11  and  O5_12 
REMARK    6  A    between atoms: O5_12  and  C7_13 
REMARK    7  A    between atoms: C13_19  and  O6_20 
REMARK    8  A    between atoms: C15_23  and  O7_24 
REMARK    9  A    between atoms: C16_26  and  O8_27 
REMARK   10  A    between atoms: C17_29  and  O9_30 
ROOT
HETATM    1  O3  UNL     1       1.921   0.121  -0.201  1.00  0.00    -0.351 OA
ENDROOT
BRANCH   1   2
HETATM    2  C3  UNL     1       3.131   0.764   0.014  1.00  0.00     0.292 C 
HETATM    3  O2  UNL     1       3.894   0.197   0.994  1.00  0.00    -0.348 OA
HETATM    4  C2  UNL     1       4.598  -0.879   0.551  1.00  0.00     0.179 C 
HETATM    5  C17 UNL     1       5.687  -0.474  -0.429  1.00  0.00     0.180 C 
HETATM    6  C16 UNL     1       5.360   0.889  -1.011  1.00  0.00     0.183 C 
HETATM    7  C15 UNL     1       3.893   1.080  -1.202  1.00  0.00     0.204 C 
BRANCH   4   8
HETATM    8  C1  UNL     1       3.793  -1.986  -0.072  1.00  0.00     0.198 C 
BRANCH   8   9
HETATM    9  O1  UNL     1       2.854  -2.489   0.832  1.00  0.00    -0.398 OA
ATOM     10  H1  UNL     1       2.345  -3.188   0.438  1.00  0.00     0.209 HD
ENDBRANCH   8   9
ENDBRANCH   4   8
BRANCH   5  11
HETATM   11  O9  UNL     1       6.871  -0.357   0.275  1.00  0.00    -0.390 OA
ATOM     12  H9  UNL     1       7.552  -0.104  -0.338  1.00  0.00     0.210 HD
ENDBRANCH   5  11
BRANCH   6  13
HETATM   13  O8  UNL     1       5.859   1.924  -0.244  1.00  0.00    -0.390 OA
ATOM     14  H8  UNL     1       6.793   1.802  -0.122  1.00  0.00     0.210 HD
ENDBRANCH   6  13
BRANCH   7  15
HETATM   15  O7  UNL     1       3.732   2.428  -1.617  1.00  0.00    -0.388 OA
ATOM     16  H7  UNL     1       4.225   2.632  -2.403  1.00  0.00     0.210 HD
ENDBRANCH   7  15
ENDBRANCH   1   2
BRANCH   1  17
HETATM   17  C4  UNL     1       0.800   0.828   0.124  1.00  0.00     0.151 C 
HETATM   18  C5  UNL     1      -0.067   0.995  -1.092  1.00  0.00     0.203 C 
HETATM   19  O4  UNL     1      -1.370   1.340  -0.807  1.00  0.00    -0.356 OA
HETATM   20  C6  UNL     1      -1.941   0.338  -0.064  1.00  0.00     0.288 C 
HETATM   21  C13 UNL     1      -1.361   0.456   1.352  1.00  0.00     0.175 C 
HETATM   22  C14 UNL     1       0.093   0.073   1.241  1.00  0.00     0.071 C 
BRANCH  20  23
HETATM   23  O5  UNL     1      -3.308   0.356  -0.006  1.00  0.00    -0.353 OA
BRANCH  23  24
HETATM   24  C7  UNL     1      -3.898  -0.809  -0.490  1.00  0.00     0.124 C 
HETATM   25  C8  UNL     1      -4.737  -1.505   0.542  1.00  0.00     0.032 C 
HETATM   26  C9  UNL     1      -5.981  -0.769   0.915  1.00  0.00     0.002 C 
HETATM   27  C10 UNL     1      -6.233   0.449   0.064  1.00  0.00     0.000 C 
HETATM   28  C11 UNL     1      -6.086   0.052  -1.373  1.00  0.00     0.002 C 
HETATM   29  C12 UNL     1      -4.707  -0.428  -1.712  1.00  0.00     0.032 C 
ENDBRANCH  23  24
ENDBRANCH  20  23
BRANCH  21  30
HETATM   30  O6  UNL     1      -1.433   1.755   1.811  1.00  0.00    -0.391 OA
ATOM     31  H6  UNL     1      -1.074   1.828   2.688  1.00  0.00     0.210 HD
ENDBRANCH  21  30
ENDBRANCH   1  17
TORSDOF 10
