REMARK  10 active torsions:
REMARK  status: ('A' for Active; 'I' for Inactive)
REMARK    1  A    between atoms: O1_2  and  C2_3 
REMARK    2  A    between atoms: C3_4  and  O2_5 
REMARK    3  A    between atoms: C4_7  and  O3_8 
REMARK    4  A    between atoms: O3_8  and  C5_9 
REMARK    5  A    between atoms: C5_9  and  C6_10 
REMARK    6  A    between atoms: C7_12  and  S1_13 
REMARK    7  A    between atoms: C9_15  and  O5_16 
REMARK    8  A    between atoms: C10_18  and  O6_19 
REMARK    9  A    between atoms: C11_21  and  O7_22 
REMARK   10  A    between atoms: C12_24  and  O8_25 
ROOT
HETATM    1  O3  UNL     1      -0.036  -0.323  -0.266  1.00  0.00    -0.376 OA
ENDROOT
BRANCH   1   2
HETATM    2  C4  UNL     1      -1.342   0.068  -0.155  1.00  0.00     0.207 C 
HETATM    3  C3  UNL     1      -2.264  -1.018   0.374  1.00  0.00     0.183 C 
HETATM    4  C2  UNL     1      -3.572  -0.355   0.674  1.00  0.00     0.186 C 
HETATM    5  C13 UNL     1      -4.060   0.461  -0.476  1.00  0.00     0.085 C 
HETATM    6  O9  UNL     1      -3.121   1.192  -1.146  1.00  0.00    -0.346 OA
HETATM    7  C14 UNL     1      -4.877  -0.439  -1.384  1.00  0.00     0.048 C 
HETATM    8  C15 UNL     1      -5.060   1.473   0.106  1.00  0.00     0.048 C 
HETATM    9  C12 UNL     1      -1.959   0.529  -1.460  1.00  0.00     0.289 C 
BRANCH   3  10
HETATM   10  O2  UNL     1      -1.718  -1.629   1.482  1.00  0.00    -0.390 OA
ATOM     11  H2  UNL     1      -0.888  -2.050   1.292  1.00  0.00     0.210 HD
ENDBRANCH   3  10
BRANCH   4  12
HETATM   12  O1  UNL     1      -4.570  -1.210   1.062  1.00  0.00    -0.385 OA
HETATM   13  C1  UNL     1      -5.054  -1.018   2.330  1.00  0.00     0.202 C 
ENDBRANCH   4  12
BRANCH   9  14
HETATM   14  O8  UNL     1      -1.126   1.407  -2.152  1.00  0.00    -0.368 OA
ATOM     15  H8  UNL     1      -1.513   1.696  -2.970  1.00  0.00     0.212 HD
ENDBRANCH   9  14
ENDBRANCH   1   2
BRANCH   1  16
HETATM   16  C5  UNL     1       0.845   0.449   0.476  1.00  0.00     0.203 C 
BRANCH  16  17
HETATM   17  C6  UNL     1       2.241  -0.107   0.250  1.00  0.00     0.178 C 
HETATM   18  O4  UNL     1       3.197   0.622   0.967  1.00  0.00    -0.363 OA
HETATM   19  C7  UNL     1       4.352  -0.121   1.010  1.00  0.00     0.214 C 
HETATM   20  C9  UNL     1       4.956  -0.367  -0.362  1.00  0.00     0.188 C 
HETATM   21  C10 UNL     1       3.917  -0.945  -1.297  1.00  0.00     0.181 C 
HETATM   22  C11 UNL     1       2.645  -0.092  -1.199  1.00  0.00     0.180 C 
BRANCH  19  23
HETATM   23  S1  UNL     1       5.603   0.631   2.084  1.00  0.00    -0.139 SA
HETATM   24  C8  UNL     1       6.179   2.220   1.391  1.00  0.00     0.092 C 
ENDBRANCH  19  23
BRANCH  20  25
HETATM   25  O5  UNL     1       5.984  -1.307  -0.175  1.00  0.00    -0.389 OA
ATOM     26  H5  UNL     1       6.362  -1.461  -1.033  1.00  0.00     0.210 HD
ENDBRANCH  20  25
BRANCH  21  27
HETATM   27  O6  UNL     1       3.594  -2.214  -0.869  1.00  0.00    -0.390 OA
ATOM     28  H6  UNL     1       2.941  -2.577  -1.456  1.00  0.00     0.210 HD
ENDBRANCH  21  27
BRANCH  22  29
HETATM   29  O7  UNL     1       1.664  -0.673  -1.999  1.00  0.00    -0.390 OA
ATOM     30  H7  UNL     1       1.919  -0.664  -2.914  1.00  0.00     0.210 HD
ENDBRANCH  22  29
ENDBRANCH  16  17
ENDBRANCH   1  16
TORSDOF 10
