REMARK  6 active torsions:
REMARK  status: ('A' for Active; 'I' for Inactive)
REMARK    1  A    between atoms: N1_2  and  C2_3 
REMARK    2  A    between atoms: N1_2  and  C6_7 
REMARK    3  A    between atoms: C2_3  and  C3_4 
REMARK    4  A    between atoms: C6_7  and  C7_8 
REMARK    5  A    between atoms: C7_8  and  O1_9 
REMARK    6  A    between atoms: C7_8  and  C8_11 
ROOT
HETATM    1  C7  UNL     1      -0.248  -0.197   0.485  1.00  0.00     0.140 C 
ENDROOT
BRANCH   1   2
HETATM    2  C6  UNL     1       0.841   0.206  -0.475  1.00  0.00     0.148 C 
BRANCH   2   3
HETATM    3  N1  UNL     1       1.989   0.752   0.151  1.00  0.00    -0.414 N 
HETATM    4  C1  UNL     1       1.850   2.019   0.765  1.00  0.00     0.143 C 
BRANCH   3   5
HETATM    5  C2  UNL     1       2.930  -0.134   0.722  1.00  0.00     0.121 C 
BRANCH   5   6
HETATM    6  C3  UNL     1       4.331   0.389   0.495  1.00  0.00     0.003 A 
HETATM    7  C4  UNL     1       5.423  -0.503   1.092  1.00  0.00     0.007 A 
HETATM    8  C5  UNL     1       5.270  -0.382  -0.362  1.00  0.00     0.007 A 
ENDBRANCH   5   6
ENDBRANCH   3   5
ENDBRANCH   2   3
ENDBRANCH   1   2
BRANCH   1   9
HETATM    9  O1  UNL     1       0.264  -1.156   1.353  1.00  0.00    -0.394 OA
ATOM     10  H1  UNL     1      -0.423  -1.410   1.958  1.00  0.00     0.210 HD
ENDBRANCH   1   9
BRANCH   1  11
HETATM   11  C8  UNL     1      -1.430  -0.780  -0.254  1.00  0.00     0.023 C 
HETATM   12  C9  UNL     1      -2.491  -1.191   0.748  1.00  0.00     0.038 C 
HETATM   13  C10 UNL     1      -3.806  -1.514   0.146  1.00  0.00     0.273 C 
HETATM   14  N2  UNL     1      -4.195  -0.616  -0.925  1.00  0.00     0.088 N 
HETATM   15  C11 UNL     1      -4.305   0.703  -0.380  1.00  0.00     0.273 C 
HETATM   16  C14 UNL     1      -3.170  -0.514  -1.933  1.00  0.00     0.277 C 
HETATM   17  C12 UNL     1      -2.905   1.234  -0.407  1.00  0.00     0.037 C 
HETATM   18  C13 UNL     1      -2.069   0.215  -1.186  1.00  0.00     0.022 C 
ENDBRANCH   1  11
TORSDOF 6
