REMARK  6 active torsions:
REMARK  status: ('A' for Active; 'I' for Inactive)
REMARK    1  A    between atoms: C2_2  and  C3_3 
REMARK    2  A    between atoms: C3_3  and  N1_4 
REMARK    3  A    between atoms: N1_4  and  C4_5 
REMARK    4  A    between atoms: N1_4  and  C5_7 
REMARK    5  A    between atoms: N2_9  and  C7_10 
REMARK    6  A    between atoms: C13_16  and  O2_17 
ROOT
HETATM    1  C5  UNL     1       0.690  -0.033  -0.327  1.00  0.00     0.153 C 
HETATM    2  C6  UNL     1      -0.542   0.637   0.219  1.00  0.00     0.087 C 
HETATM    3  N2  UNL     1      -1.628  -0.189   0.499  1.00  0.00    -0.383 N 
HETATM    4  C10 UNL     1      -1.400  -1.534   0.867  1.00  0.00     0.082 C 
HETATM    5  C11 UNL     1      -1.731  -2.436  -0.289  1.00  0.00     0.032 C 
HETATM    6  C12 UNL     1       0.011  -1.773   1.378  1.00  0.00     0.059 C 
HETATM    7  C13 UNL     1       0.952  -1.358   0.281  1.00  0.00     0.148 C 
ENDROOT
BRANCH   1   8
HETATM    8  N1  UNL     1       1.820   0.869  -0.291  1.00  0.00    -0.344 N 
BRANCH   8   9
HETATM    9  C3  UNL     1       2.384   1.328  -1.541  1.00  0.00     0.152 C 
BRANCH   9  10
HETATM   10  C2  UNL     1       3.459   0.436  -2.049  1.00  0.00    -0.017 C 
HETATM   11  C1  UNL     1       4.695   0.819  -2.259  1.00  0.00     0.008 C 
ENDBRANCH   9  10
ENDBRANCH   8   9
BRANCH   8  12
HETATM   12  C4  UNL     1       2.406   1.324   0.914  1.00  0.00     0.351 C 
HETATM   13  O1  UNL     1       2.025   1.009   2.069  1.00  0.00    -0.283 OA
ENDBRANCH   8  12
ENDBRANCH   1   8
BRANCH   7  14
HETATM   14  O2  UNL     1       2.250  -1.537   0.744  1.00  0.00    -0.393 OA
ATOM     15  H2  UNL     1       2.418  -2.387   1.134  1.00  0.00     0.210 HD
ENDBRANCH   7  14
BRANCH   3  16
HETATM   16  C7  UNL     1      -2.901   0.369   0.667  1.00  0.00     0.075 C 
HETATM   17  C8  UNL     1      -3.501   1.073  -0.507  1.00  0.00     0.032 C 
HETATM   18  C9  UNL     1      -2.795   1.417   1.788  1.00  0.00     0.032 C 
ENDBRANCH   3  16
TORSDOF 6
