REMARK  5 active torsions:
REMARK  status: ('A' for Active; 'I' for Inactive)
REMARK    1  A    between atoms: S1_2  and  C1_4 
REMARK    2  A    between atoms: S1_2  and  N2_12 
REMARK    3  A    between atoms: C1_4  and  C2_5 
REMARK    4  A    between atoms: N2_12  and  C8_14 
REMARK    5  A    between atoms: C8_14  and  C9_15 
ROOT
HETATM    1  O1  UNL     1      -0.558  -1.946   0.957  1.00  0.00    -0.206 OA
HETATM    2  S1  UNL     1      -0.865  -0.525   0.522  1.00  0.00     0.226 S 
HETATM    3  O2  UNL     1      -0.904   0.247   1.894  1.00  0.00    -0.206 OA
ENDROOT
BRANCH   2   4
HETATM    4  C1  UNL     1       0.442   0.038  -0.466  1.00  0.00     0.169 C 
BRANCH   4   5
HETATM    5  C2  UNL     1       1.692  -0.623   0.015  1.00  0.00     0.035 C 
HETATM    6  C3  UNL     1       2.579  -1.032  -1.174  1.00  0.00     0.278 C 
HETATM    7  N1  UNL     1       3.951  -0.877  -0.719  1.00  0.00     0.089 N 
HETATM    8  C4  UNL     1       4.278   0.515  -1.057  1.00  0.00     0.273 C 
HETATM    9  C7  UNL     1       3.856  -0.699   0.738  1.00  0.00     0.277 C 
HETATM   10  C5  UNL     1       3.253   1.316  -0.256  1.00  0.00     0.037 C 
HETATM   11  C6  UNL     1       2.685   0.292   0.693  1.00  0.00     0.022 C 
ENDBRANCH   4   5
ENDBRANCH   2   4
BRANCH   2  12
HETATM   12  N2  UNL     1      -2.448  -0.481  -0.047  1.00  0.00    -0.319 N 
ATOM     13  H2  UNL     1      -3.014  -1.319  -0.178  1.00  0.00     0.172 HD
BRANCH  12  14
HETATM   14  C8  UNL     1      -2.931   0.838  -0.331  1.00  0.00     0.136 C 
BRANCH  14  15
HETATM   15  C9  UNL     1      -4.336   0.932   0.181  1.00  0.00     0.004 A 
HETATM   16  C10 UNL     1      -5.275  -0.195  -0.032  1.00  0.00     0.007 A 
HETATM   17  C11 UNL     1      -4.775   0.142   1.353  1.00  0.00     0.007 A 
ENDBRANCH  14  15
ENDBRANCH  12  14
ENDBRANCH   2  12
TORSDOF 5
