REMARK  7 active torsions:
REMARK  status: ('A' for Active; 'I' for Inactive)
REMARK    1  A    between atoms: C2_2  and  O1_3 
REMARK    2  A    between atoms: O1_3  and  C3_4 
REMARK    3  A    between atoms: C3_4  and  C12_29 
REMARK    4  A    between atoms: N1_5  and  N2_7 
REMARK    5  A    between atoms: N2_7  and  C4_9 
REMARK    6  A    between atoms: C5_12  and  N4_13 
REMARK    7  A    between atoms: C10_23  and  N7_24 
ROOT
HETATM    1  C4  UNL     1       0.431  -0.394   0.469  1.00  0.00     0.726 A 
HETATM    2  N3  UNL     1       1.649  -0.758   0.063  1.00  0.00    -0.020 N 
ATOM      3  H3  UNL     1       1.732  -1.560  -0.562  1.00  0.00     0.203 HD
HETATM    4  C5  UNL     1       2.767  -0.124   0.435  1.00  0.00     0.709 A 
HETATM    5  N6  UNL     1       2.594   0.924   1.260  1.00  0.00    -0.021 N 
ATOM      6  H6  UNL     1       3.416   1.441   1.572  1.00  0.00     0.203 HD
HETATM    7  C10 UNL     1       1.381   1.319   1.691  1.00  0.00     0.706 A 
HETATM    8  N8  UNL     1       0.300   0.651   1.288  1.00  0.00    -0.020 N 
ATOM      9  H8  UNL     1      -0.626   0.938   1.605  1.00  0.00     0.203 HD
ENDROOT
BRANCH   1  10
HETATM   10  N2  UNL     1      -0.583  -1.069   0.024  1.00  0.00    -0.129 N 
ATOM     11  H2  UNL     1      -0.375  -1.839  -0.612  1.00  0.00     0.205 HD
BRANCH  10  12
HETATM   12  N1  UNL     1      -1.860  -0.864   0.308  1.00  0.00    -0.267 N 
HETATM   13  C3  UNL     1      -2.868  -0.249  -0.041  1.00  0.00     0.164 C 
ATOM     14  H1  UNL     1      -2.099  -1.428   1.123  1.00  0.00     0.189 HD
BRANCH  13  15
HETATM   15  O1  UNL     1      -2.889   0.604  -1.114  1.00  0.00    -0.337 OA
BRANCH  15  16
HETATM   16  C2  UNL     1      -1.796   1.000  -1.876  1.00  0.00     0.172 C 
HETATM   17  C1  UNL     1      -2.393   1.942  -2.949  1.00  0.00     0.034 C 
ENDBRANCH  15  16
ENDBRANCH  13  15
BRANCH  13  18
HETATM   18  C12 UNL     1      -4.178  -0.390   0.698  1.00  0.00     0.261 C 
HETATM   19  C13 UNL     1      -5.223  -0.957  -0.237  1.00  0.00     0.043 C 
HETATM   20  C14 UNL     1      -5.951  -2.022   0.554  1.00  0.00     0.030 C 
HETATM   21  C15 UNL     1      -5.474  -1.720   1.961  1.00  0.00     0.233 C 
HETATM   22  N9  UNL     1      -4.084  -1.324   1.772  1.00  0.00    -0.064 N 
ATOM     23  H92 UNL     1      -3.434  -2.095   1.616  1.00  0.00     0.278 HD
ATOM     24  H91 UNL     1      -3.619  -0.972   2.609  1.00  0.00     0.278 HD
ENDBRANCH  13  18
ENDBRANCH  10  12
ENDBRANCH   1  10
BRANCH   4  25
HETATM   25  N4  UNL     1       4.027  -0.578  -0.034  1.00  0.00    -0.213 N 
HETATM   26  C6  UNL     1       4.087  -1.757  -0.890  1.00  0.00     0.168 C 
HETATM   27  C7  UNL     1       4.812  -1.371  -2.154  1.00  0.00     0.252 C 
HETATM   28  N5  UNL     1       6.115  -0.839  -1.757  1.00  0.00    -0.072 N 
HETATM   29  C8  UNL     1       5.950   0.421  -1.039  1.00  0.00     0.252 C 
ATOM     30  H52 UNL     1       6.654  -1.516  -1.218  1.00  0.00     0.277 HD
ATOM     31  H51 UNL     1       6.746  -0.744  -2.553  1.00  0.00     0.277 HD
HETATM   32  C9  UNL     1       5.278   0.058   0.288  1.00  0.00     0.168 C 
ENDBRANCH   4  25
BRANCH   7  33
HETATM   33  N7  UNL     1       1.305   2.317   2.472  1.00  0.00    -0.229 N 
HETATM   34  C11 UNL     1       0.175   2.931   3.063  1.00  0.00     0.165 C 
ATOM     35  H7  UNL     1       2.200   2.744   2.711  1.00  0.00     0.177 HD
ENDBRANCH   7  33
TORSDOF 7
