REMARK  8 active torsions:
REMARK  status: ('A' for Active; 'I' for Inactive)
REMARK    1  A    between atoms: C2_2  and  C3_3 
REMARK    2  A    between atoms: C4_8  and  C5_9 
REMARK    3  A    between atoms: C5_9  and  N3_10 
REMARK    4  A    between atoms: C8_16  and  O1_17 
REMARK    5  A    between atoms: O1_17  and  C9_18 
REMARK    6  A    between atoms: C9_18  and  N5_19 
REMARK    7  A    between atoms: C9_18  and  N6_23 
REMARK    8  A    between atoms: N8_30  and  C11_32 
ROOT
HETATM    1  N3  UNL     1       1.172  -0.333   0.046  1.00  0.00    -0.219 N 
ATOM      2  H3  UNL     1       1.564  -1.275   0.054  1.00  0.00     0.178 HD
HETATM    3  C6  UNL     1      -0.104  -0.159   0.015  1.00  0.00     0.694 A 
HETATM    4  N4  UNL     1      -0.667   1.124   0.004  1.00  0.00    -0.174 N 
ATOM      5  H4  UNL     1      -0.059   1.943   0.021  1.00  0.00     0.186 HD
HETATM    6  C7  UNL     1      -2.076   1.293  -0.030  1.00  0.00     0.158 A 
HETATM    7  C8  UNL     1      -2.587   2.526  -0.040  1.00  0.00     0.188 C 
HETATM    8  N7  UNL     1      -2.917   0.157  -0.053  1.00  0.00    -0.174 N 
ATOM      9  H7  UNL     1      -3.928   0.289  -0.077  1.00  0.00     0.186 HD
HETATM   10  C10 UNL     1      -2.385  -1.186  -0.043  1.00  0.00     0.695 A 
HETATM   11  N8  UNL     1      -3.206  -2.157  -0.065  1.00  0.00    -0.217 N 
ATOM     12  H8  UNL     1      -4.197  -1.916  -0.089  1.00  0.00     0.178 HD
HETATM   13  N9  UNL     1      -0.977  -1.294  -0.008  1.00  0.00    -0.022 N 
ATOM     14  H9  UNL     1      -0.562  -2.226   0.001  1.00  0.00     0.203 HD
ENDROOT
BRANCH   1  15
HETATM   15  C5  UNL     1       2.044   0.823   0.070  1.00  0.00     0.204 C 
BRANCH  15  16
HETATM   16  C4  UNL     1       3.471   0.358  -0.073  1.00  0.00     0.086 A 
HETATM   17  N2  UNL     1       3.891  -0.895  -0.205  1.00  0.00    -0.296 N 
HETATM   18  N1  UNL     1       5.125  -1.137  -0.316  1.00  0.00    -0.297 N 
ATOM     19  H2  UNL     1       3.217  -1.661  -0.217  1.00  0.00     0.187 HD
HETATM   20  C3  UNL     1       6.001  -0.138  -0.301  1.00  0.00     0.067 A 
ATOM     21  H1  UNL     1       5.449  -2.099  -0.417  1.00  0.00     0.187 HD
HETATM   22  S1  UNL     1       4.947   1.211  -0.115  1.00  0.00    -0.059 SA
BRANCH  20  23
HETATM   23  C2  UNL     1       7.497  -0.187  -0.416  1.00  0.00     0.062 C 
HETATM   24  C1  UNL     1       7.965   1.259  -0.336  1.00  0.00     0.012 C 
ENDBRANCH  20  23
ENDBRANCH  15  16
ENDBRANCH   1  15
BRANCH   7  25
HETATM   25  O1  UNL     1      -1.747   3.628  -0.017  1.00  0.00    -0.305 OA
BRANCH  25  26
HETATM   26  C9  UNL     1      -2.317   4.898   0.209  1.00  0.00     0.523 C 
BRANCH  26  27
HETATM   27  N5  UNL     1      -3.271   5.133  -0.858  1.00  0.00    -0.027 N 
ATOM     28  H53 UNL     1      -2.863   5.037  -1.788  1.00  0.00     0.279 HD
ATOM     29  H52 UNL     1      -3.966   4.392  -0.943  1.00  0.00     0.279 HD
ATOM     30  H51 UNL     1      -3.683   6.052  -0.695  1.00  0.00     0.279 HD
ENDBRANCH  26  27
BRANCH  26  31
HETATM   31  N6  UNL     1      -2.929   4.963   1.511  1.00  0.00    -0.027 N 
ATOM     32  H63 UNL     1      -3.610   4.215   1.645  1.00  0.00     0.279 HD
ATOM     33  H62 UNL     1      -2.272   4.708   2.249  1.00  0.00     0.279 HD
ATOM     34  H61 UNL     1      -3.341   5.882   1.674  1.00  0.00     0.279 HD
ENDBRANCH  26  31
ENDBRANCH  25  26
ENDBRANCH   7  25
BRANCH  11  35
HETATM   35  C11 UNL     1      -2.888  -3.545  -0.060  1.00  0.00     0.036 C 
HETATM   36  C12 UNL     1      -2.107  -3.916  -1.300  1.00  0.00     0.038 C 
HETATM   37  C13 UNL     1      -4.179  -4.392  -0.135  1.00  0.00     0.038 C 
HETATM   38  C14 UNL     1      -2.134  -3.991   1.153  1.00  0.00     0.038 C 
ENDBRANCH  11  35
TORSDOF 8
