REMARK  7 active torsions:
REMARK  status: ('A' for Active; 'I' for Inactive)
REMARK    1  A    between atoms: C2_2  and  N1_4 
REMARK    2  A    between atoms: N1_4  and  C4_5 
REMARK    3  A    between atoms: N1_4  and  S1_14 
REMARK    4  A    between atoms: C4_5  and  O1_6 
REMARK    5  A    between atoms: C4_5  and  C5_8 
REMARK    6  A    between atoms: S1_14  and  C11_17 
REMARK    7  A    between atoms: C14_20  and  N2_21 
REMARK       I    between atoms: N2_21  and  C15_23 
ROOT
HETATM    1  S1  UNL     1      -0.228  -1.563   1.446  1.00  0.00     0.267 S 
HETATM    2  O2  UNL     1      -0.314  -1.134   2.851  1.00  0.00    -0.200 OA
HETATM    3  O3  UNL     1      -0.496  -3.031   1.321  1.00  0.00    -0.200 OA
ENDROOT
BRANCH   1   4
HETATM    4  N1  UNL     1      -1.434  -0.731   0.413  1.00  0.00    -0.246 N 
BRANCH   4   5
HETATM    5  C2  UNL     1      -1.164  -0.923  -0.986  1.00  0.00     0.096 C 
HETATM    6  C1  UNL     1      -0.730   0.326  -1.717  1.00  0.00     0.033 C 
HETATM    7  C3  UNL     1      -2.181  -1.762  -1.719  1.00  0.00     0.033 C 
ENDBRANCH   4   5
BRANCH   4   8
HETATM    8  C4  UNL     1      -2.410  -0.056   1.105  1.00  0.00     0.162 C 
BRANCH   8   9
HETATM    9  O1  UNL     1      -2.250  -0.169   2.428  1.00  0.00    -0.345 OA
ATOM     10  H1  UNL     1      -2.925   0.298   2.907  1.00  0.00     0.219 HD
ENDBRANCH   8   9
BRANCH   8  11
HETATM   11  C5  UNL     1      -3.566   0.744   0.776  1.00  0.00     0.015 A 
HETATM   12  C6  UNL     1      -4.352   1.286   1.821  1.00  0.00     0.016 A 
HETATM   13  C7  UNL     1      -5.462   2.054   1.631  1.00  0.00     0.001 A 
HETATM   14  C8  UNL     1      -5.875   2.341   0.360  1.00  0.00     0.000 A 
HETATM   15  C9  UNL     1      -5.156   1.846  -0.696  1.00  0.00     0.001 A 
HETATM   16  C10 UNL     1      -4.016   1.057  -0.469  1.00  0.00     0.016 A 
ENDBRANCH   8  11
ENDBRANCH   4   8
ENDBRANCH   1   4
BRANCH   1  17
HETATM   17  C11 UNL     1       1.386  -1.284   0.811  1.00  0.00     0.080 A 
HETATM   18  C12 UNL     1       2.049  -2.187   0.021  1.00  0.00     0.027 A 
HETATM   19  C13 UNL     1       3.307  -1.924  -0.451  1.00  0.00     0.031 A 
HETATM   20  C14 UNL     1       3.981  -0.751  -0.166  1.00  0.00     0.034 A 
HETATM   21  C16 UNL     1       3.320   0.161   0.627  1.00  0.00     0.031 A 
HETATM   22  C17 UNL     1       2.051  -0.096   1.107  1.00  0.00     0.027 A 
BRANCH  20  23
HETATM   23  N2  UNL     1       5.279  -0.532  -0.679  1.00  0.00    -0.331 N 
HETATM   24  C15 UNL     1       5.952   0.667  -0.387  1.00  0.00     0.186 C 
HETATM   25  N3  UNL     1       6.665   0.771   0.691  1.00  0.00    -0.373 N 
HETATM   26  N4  UNL     1       5.894   1.809  -1.233  1.00  0.00    -0.064 NA
ATOM     27  H32 UNL     1       6.707  -0.048   1.298  1.00  0.00     0.158 HD
ATOM     28  H31 UNL     1       7.153   1.641   0.903  1.00  0.00     0.158 HD
ATOM     29  H2  UNL     1       5.726  -1.242  -1.259  1.00  0.00     0.168 HD
ENDBRANCH  20  23
ENDBRANCH   1  17
TORSDOF 7
