REMARK  1 active torsions:
REMARK  status: ('A' for Active; 'I' for Inactive)
REMARK    1  A    between atoms: C12_15  and  O4_16 
ROOT
HETATM    1  C1  UNL     1       5.881   1.381  -1.055  1.00  0.00     0.049 C 
HETATM    2  C2  UNL     1       4.889   0.688  -0.157  1.00  0.00     0.086 A 
HETATM    3  C3  UNL     1       5.232   0.632   1.283  1.00  0.00     0.075 A 
HETATM    4  C4  UNL     1       5.279  -0.599   0.464  1.00  0.00     0.162 A 
HETATM    5  O1  UNL     1       4.228  -1.485   0.389  1.00  0.00    -0.350 OA
HETATM    6  C5  UNL     1       3.064  -0.989   1.018  1.00  0.00     0.293 C 
HETATM    7  O2  UNL     1       2.089  -1.929   0.847  1.00  0.00    -0.328 OA
HETATM    8  C6  UNL     1       0.891  -1.242   0.532  1.00  0.00     0.274 C 
HETATM    9  O3  UNL     1       0.086  -2.202  -0.052  1.00  0.00    -0.352 OA
HETATM   10  C7  UNL     1      -1.054  -1.761  -0.623  1.00  0.00     0.164 C 
HETATM   11  C8  UNL     1      -2.164  -2.819  -0.477  1.00  0.00     0.045 C 
HETATM   12  C9  UNL     1      -3.105  -1.650  -0.322  1.00  0.00     0.061 C 
HETATM   13  C10 UNL     1      -3.954  -1.643   0.910  1.00  0.00     0.170 C 
HETATM   14  C11 UNL     1      -4.828  -0.455   0.956  1.00  0.00     0.070 C 
HETATM   15  C12 UNL     1      -4.402   0.706   0.114  1.00  0.00     0.160 C 
HETATM   16  C13 UNL     1      -3.069   1.281   0.489  1.00  0.00     0.132 C 
HETATM   17  C14 UNL     1      -3.058   2.753   0.079  1.00  0.00     0.055 C 
HETATM   18  F1  UNL     1      -2.866   1.257   1.849  1.00  0.00    -0.240 F 
HETATM   19  C15 UNL     1      -1.936   0.563  -0.250  1.00  0.00     0.068 C 
HETATM   20  C16 UNL     1      -0.622   1.184   0.247  1.00  0.00     0.012 C 
HETATM   21  C17 UNL     1       0.459   0.902  -0.719  1.00  0.00     0.017 C 
HETATM   22  C18 UNL     1       1.384  -0.194  -0.401  1.00  0.00     0.037 C 
HETATM   23  C19 UNL     1       1.839  -0.866  -1.676  1.00  0.00     0.023 C 
HETATM   24  C20 UNL     1       2.663   0.271   0.311  1.00  0.00     0.190 C 
HETATM   25  O5  UNL     1       3.580   0.741  -0.588  1.00  0.00    -0.367 OA
HETATM   26  C21 UNL     1      -1.913  -0.866   0.183  1.00  0.00     0.135 C 
HETATM   27  O6  UNL     1      -1.961  -1.009   1.528  1.00  0.00    -0.226 OA
HETATM   28  O7  UNL     1      -2.993  -1.654   1.914  1.00  0.00    -0.234 OA
ENDROOT
BRANCH  15  29
HETATM   29  O4  UNL     1      -5.422   1.680   0.251  1.00  0.00    -0.392 OA
ATOM     30  H4  UNL     1      -5.151   2.417  -0.284  1.00  0.00     0.210 HD
ENDBRANCH  15  29
TORSDOF 1
