REMARK  4 active torsions:
REMARK  status: ('A' for Active; 'I' for Inactive)
REMARK    1  A    between atoms: C2_2  and  C3_3 
REMARK    2  A    between atoms: C3_3  and  N1_4 
REMARK    3  A    between atoms: N1_4  and  C4_6 
REMARK    4  A    between atoms: C11_17  and  N4_18 
REMARK       I    between atoms: N4_18  and  C12_20 
ROOT
HETATM    1  C4  UNL     1       2.408   0.318   0.167  1.00  0.00     0.146 A 
HETATM    2  N2  UNL     1       1.249   0.865   0.582  1.00  0.00    -0.338 N 
ATOM      3  H2  UNL     1       1.286   1.697   1.171  1.00  0.00     0.167 HD
HETATM    4  C5  UNL     1       0.041   0.361   0.253  1.00  0.00     0.061 A 
HETATM    5  C6  UNL     1      -1.143   0.929   0.683  1.00  0.00     0.042 A 
HETATM    6  C7  UNL     1      -2.384   0.434   0.361  1.00  0.00    -0.013 A 
HETATM    7  C8  UNL     1      -2.448  -0.690  -0.435  1.00  0.00    -0.013 A 
HETATM    8  C9  UNL     1      -1.278  -1.269  -0.874  1.00  0.00     0.042 A 
HETATM    9  C10 UNL     1      -0.028  -0.764  -0.545  1.00  0.00     0.061 A 
HETATM   10  N3  UNL     1       1.110  -1.339  -0.979  1.00  0.00    -0.337 N 
ATOM     11  H3  UNL     1       1.070  -2.171  -1.568  1.00  0.00     0.167 HD
HETATM   12  C11 UNL     1       2.301  -0.812  -0.633  1.00  0.00     0.153 A 
HETATM   13  C14 UNL     1      -3.890  -0.973  -0.602  1.00  0.00     0.083 C 
HETATM   14  C15 UNL     1      -4.412  -0.660  -1.967  1.00  0.00     0.051 C 
HETATM   15  C16 UNL     1      -4.098  -2.447  -0.323  1.00  0.00     0.051 C 
HETATM   16  O2  UNL     1      -4.567  -0.226   0.330  1.00  0.00    -0.361 OA
HETATM   17  C17 UNL     1      -3.787   0.849   0.689  1.00  0.00     0.083 C 
HETATM   18  C18 UNL     1      -4.059   2.096  -0.108  1.00  0.00     0.051 C 
HETATM   19  C19 UNL     1      -3.957   1.134   2.160  1.00  0.00     0.051 C 
ENDROOT
BRANCH   1  20
HETATM   20  N1  UNL     1       3.563   0.802   0.483  1.00  0.00    -0.373 N 
ATOM     21  H1  UNL     1       4.423   0.365   0.151  1.00  0.00     0.161 HD
BRANCH  20  22
HETATM   22  C3  UNL     1       3.604   1.978   1.318  1.00  0.00     0.121 C 
BRANCH  22  23
HETATM   23  C2  UNL     1       5.025   2.242   1.788  1.00  0.00     0.015 C 
HETATM   24  C1  UNL     1       5.979   2.465   0.655  1.00  0.00     0.006 C 
ENDBRANCH  22  23
ENDBRANCH  20  22
ENDBRANCH   1  20
BRANCH  12  25
HETATM   25  N4  UNL     1       3.399  -1.342  -1.035  1.00  0.00    -0.310 N 
HETATM   26  C12 UNL     1       3.472  -2.490  -1.852  1.00  0.00     0.219 C 
HETATM   27  C13 UNL     1       3.896  -3.766  -1.209  1.00  0.00     0.117 C 
HETATM   28  O1  UNL     1       3.184  -2.403  -3.061  1.00  0.00    -0.274 OA
ATOM     29  H4  UNL     1       4.274  -0.905  -0.745  1.00  0.00     0.170 HD
ENDBRANCH  12  25
TORSDOF 4
