REMARK  6 active torsions:
REMARK  status: ('A' for Active; 'I' for Inactive)
REMARK    1  A    between atoms: C2_2  and  N1_3 
REMARK       I    between atoms: N1_3  and  C3_5 
REMARK       I    between atoms: C3_5  and  N3_9 
REMARK    2  A    between atoms: C9_15  and  C10_16 
REMARK       I    between atoms: C10_16  and  N4_18 
REMARK    3  A    between atoms: N4_18  and  C11_20 
REMARK    4  A    between atoms: C11_20  and  C12_21 
REMARK    5  A    between atoms: N5_24  and  C15_25 
REMARK    6  A    between atoms: C15_25  and  C16_26 
ROOT
HETATM    1  N1  UNL     1      -9.032  -0.490   0.709  1.00  0.00    -0.227 N 
ATOM      2  H1  UNL     1      -9.111  -0.131   1.660  1.00  0.00     0.177 HD
HETATM    3  C3  UNL     1      -7.810  -1.064   0.301  1.00  0.00     0.669 C 
HETATM    4  N2  UNL     1      -7.603  -2.318   0.460  1.00  0.00    -0.235 N 
ATOM      5  H21 UNL     1      -6.719  -2.733   0.165  1.00  0.00     0.174 HD
ATOM      6  H22 UNL     1      -8.323  -2.903   0.884  1.00  0.00     0.174 HD
HETATM    7  N3  UNL     1      -6.816  -0.256  -0.285  1.00  0.00    -0.218 N 
HETATM    8  C4  UNL     1      -6.259  -0.474  -1.605  1.00  0.00     0.142 C 
HETATM    9  C5  UNL     1      -5.107   0.496  -1.790  1.00  0.00     0.030 C 
HETATM   10  C6  UNL     1      -4.112   0.425  -0.633  1.00  0.00    -0.037 C 
HETATM   11  C7  UNL     1      -3.068   1.465  -0.895  1.00  0.00     0.010 C 
HETATM   12  C8  UNL     1      -1.784   1.240  -0.193  1.00  0.00     0.015 C 
HETATM   13  C9  UNL     1      -1.756   0.165   0.834  1.00  0.00     0.078 C 
HETATM   14  C24 UNL     1      -2.523  -1.063   0.497  1.00  0.00     0.015 C 
HETATM   15  C25 UNL     1      -3.427  -0.935  -0.677  1.00  0.00     0.010 C 
HETATM   16  C26 UNL     1      -4.825   0.632   0.670  1.00  0.00     0.030 C 
HETATM   17  C27 UNL     1      -6.299   0.870   0.457  1.00  0.00     0.142 C 
ENDROOT
BRANCH  13  18
HETATM   18  C10 UNL     1      -0.312  -0.170   1.172  1.00  0.00     0.221 C 
HETATM   19  O1  UNL     1       0.089  -1.306   0.909  1.00  0.00    -0.273 OA
HETATM   20  N4  UNL     1       0.500   0.799   1.759  1.00  0.00    -0.360 N 
ATOM     21  H4  UNL     1       0.030   1.688   1.932  1.00  0.00     0.162 HD
BRANCH  20  22
HETATM   22  C11 UNL     1       1.860   0.775   2.160  1.00  0.00     0.127 C 
BRANCH  22  23
HETATM   23  C12 UNL     1       2.932   0.628   1.172  1.00  0.00     0.007 C 
HETATM   24  C13 UNL     1       2.984   1.716   0.103  1.00  0.00     0.036 C 
HETATM   25  C14 UNL     1       3.981   1.234  -0.915  1.00  0.00     0.273 C 
HETATM   26  N5  UNL     1       5.105   0.500  -0.276  1.00  0.00     0.088 N 
HETATM   27  C22 UNL     1       4.565  -0.803   0.039  1.00  0.00     0.273 C 
HETATM   28  C23 UNL     1       3.090  -0.686   0.510  1.00  0.00     0.036 C 
BRANCH  26  29
HETATM   29  C15 UNL     1       6.127   0.395  -1.258  1.00  0.00     0.277 C 
BRANCH  29  30
HETATM   30  C16 UNL     1       7.436  -0.170  -0.873  1.00  0.00     0.014 C 
HETATM   31  C17 UNL     1       7.476  -1.568  -0.368  1.00  0.00     0.006 C 
HETATM   32  C18 UNL     1       8.879  -2.118  -0.711  1.00  0.00     0.000 C 
HETATM   33  C19 UNL     1       9.882  -1.028  -0.489  1.00  0.00     0.000 C 
HETATM   34  C20 UNL     1       9.400  -0.042   0.583  1.00  0.00     0.000 C 
HETATM   35  C21 UNL     1       8.165   0.693   0.149  1.00  0.00     0.006 C 
ENDBRANCH  29  30
ENDBRANCH  26  29
ENDBRANCH  22  23
ENDBRANCH  20  22
ENDBRANCH  13  18
BRANCH   1  36
HETATM   36  C2  UNL     1     -10.180  -0.390  -0.171  1.00  0.00     0.133 C 
HETATM   37  C1  UNL     1      -9.872   0.593  -1.263  1.00  0.00     0.027 C 
ENDBRANCH   1  36
TORSDOF 6
