REMARK  4 active torsions:
REMARK  status: ('A' for Active; 'I' for Inactive)
REMARK    1  A    between atoms: S1_2  and  C2_3 
REMARK    2  A    between atoms: C3_6  and  N2_7 
REMARK    3  A    between atoms: N2_7  and  C4_9 
REMARK    4  A    between atoms: N8_24  and  O1_25 
ROOT
HETATM    1  C4  UNL     1      -1.238   0.150  -0.180  1.00  0.00     0.388 C 
HETATM    2  C5  UNL     1      -1.914   1.416   0.079  1.00  0.00     0.142 C 
HETATM    3  N3  UNL     1      -2.430   2.424   0.290  1.00  0.00    -0.191 NA
HETATM    4  N4  UNL     1      -1.350  -0.787   0.928  1.00  0.00    -0.013 N 
ATOM      5  H41 UNL     1      -0.636  -0.601   1.632  1.00  0.00     0.283 HD
ATOM      6  H42 UNL     1      -1.064  -1.723   0.640  1.00  0.00     0.283 HD
HETATM    7  C6  UNL     1      -2.650  -0.814   1.520  1.00  0.00     0.300 C 
HETATM    8  C7  UNL     1      -3.656  -0.997   0.460  1.00  0.00     0.095 A 
HETATM    9  N5  UNL     1      -4.947  -1.324   0.492  1.00  0.00    -0.285 N 
ATOM     10  H5  UNL     1      -5.493  -1.516   1.332  1.00  0.00     0.188 HD
HETATM   11  N6  UNL     1      -5.401  -1.357  -0.749  1.00  0.00    -0.241 N 
ATOM     12  H6  UNL     1      -6.357  -1.579  -1.025  1.00  0.00     0.208 HD
HETATM   13  N7  UNL     1      -4.417  -1.056  -1.571  1.00  0.00    -0.272 N 
ATOM     14  H7  UNL     1      -4.492  -1.008  -2.587  1.00  0.00     0.189 HD
HETATM   15  C8  UNL     1      -3.298  -0.822  -0.863  1.00  0.00     0.153 A 
HETATM   16  N8  UNL     1      -1.998  -0.467  -1.289  1.00  0.00    -0.076 NA
ENDROOT
BRANCH   1  17
HETATM   17  N2  UNL     1       0.096   0.227  -0.587  1.00  0.00    -0.163 N 
ATOM     18  H2  UNL     1       0.250  -0.118  -1.534  1.00  0.00     0.183 HD
BRANCH  17  19
HETATM   19  C3  UNL     1       1.161   0.639  -0.021  1.00  0.00     0.685 A 
HETATM   20  N1  UNL     1       2.264   0.533  -0.789  1.00  0.00    -0.179 N 
HETATM   21  C2  UNL     1       3.499   0.871  -0.488  1.00  0.00     0.130 A 
ATOM     22  H1  UNL     1       2.123   0.142  -1.720  1.00  0.00     0.185 HD
HETATM   23  S2  UNL     1       3.661   1.516   1.083  1.00  0.00    -0.028 SA
HETATM   24  C9  UNL     1       2.183   1.580   1.915  1.00  0.00     0.160 A 
HETATM   25  N9  UNL     1       1.126   1.123   1.227  1.00  0.00    -0.170 N 
HETATM   26  N10 UNL     1       2.022   2.027   3.126  1.00  0.00    -0.379 N 
ATOM     27  H9  UNL     1       0.219   1.146   1.694  1.00  0.00     0.186 HD
ATOM     28 2H10 UNL     1       1.134   2.065   3.626  1.00  0.00     0.158 HD
ATOM     29 1H10 UNL     1       2.826   2.374   3.649  1.00  0.00     0.158 HD
BRANCH  21  30
HETATM   30  S1  UNL     1       4.879   0.668  -1.627  1.00  0.00    -0.109 SA
HETATM   31  C1  UNL     1       5.557  -0.997  -1.335  1.00  0.00     0.097 C 
ENDBRANCH  21  30
ENDBRANCH  17  19
ENDBRANCH   1  17
BRANCH  16  32
HETATM   32  O1  UNL     1      -2.051   0.406  -2.343  1.00  0.00    -0.302 OA
ATOM     33  H1  UNL     1      -2.539   0.010  -3.055  1.00  0.00     0.237 HD
ENDBRANCH  16  32
TORSDOF 4
