REMARK  3 active torsions:
REMARK  status: ('A' for Active; 'I' for Inactive)
REMARK    1  A    between atoms: C3_3  and  C4_4 
REMARK    2  A    between atoms: C4_4  and  N1_6 
REMARK    3  A    between atoms: N1_6  and  C6_8 
ROOT
HETATM    1  C6  UNL     1      -1.048  -0.112  -0.394  1.00  0.00     0.280 C 
HETATM    2  C7  UNL     1      -2.409  -0.266  -1.035  1.00  0.00     0.055 C 
HETATM    3  C8  UNL     1      -2.986   1.114  -0.796  1.00  0.00     0.031 C 
HETATM    4  C9  UNL     1      -2.334   1.539   0.472  1.00  0.00     0.235 C 
HETATM    5  N2  UNL     1      -1.364   0.514   0.841  1.00  0.00    -0.055 N 
ATOM      6  H21 UNL     1      -0.555   0.865   1.354  1.00  0.00     0.279 HD
ATOM      7  H22 UNL     1      -1.684  -0.126   1.568  1.00  0.00     0.279 HD
ENDROOT
BRANCH   1   8
HETATM    8  N1  UNL     1      -0.329  -1.340  -0.302  1.00  0.00    -0.389 N 
ATOM      9  H1  UNL     1      -0.627  -2.188  -0.784  1.00  0.00     0.155 HD
BRANCH   8  10
HETATM   10  C4  UNL     1       0.841  -1.290   0.517  1.00  0.00     0.097 C 
HETATM   11  C5  UNL     1       1.467  -2.692   0.462  1.00  0.00     0.036 C 
BRANCH  10  12
HETATM   12  C3  UNL     1       1.853  -0.333  -0.011  1.00  0.00    -0.007 C 
HETATM   13  C2  UNL     1       2.225   0.752   0.647  1.00  0.00    -0.033 C 
HETATM   14  C1  UNL     1       3.226   1.721   0.152  1.00  0.00     0.036 C 
ENDBRANCH  10  12
ENDBRANCH   8  10
ENDBRANCH   1   8
TORSDOF 3
