REMARK  13 active torsions:
REMARK  status: ('A' for Active; 'I' for Inactive)
REMARK    1  A    between atoms: C2_2  and  O1_3 
REMARK    2  A    between atoms: O1_3  and  C3_4 
REMARK    3  A    between atoms: C3_4  and  C4_6 
REMARK    4  A    between atoms: C6_10  and  C7_11 
REMARK    5  A    between atoms: N2_13  and  O3_15 
REMARK    6  A    between atoms: O3_15  and  C8_16 
REMARK    7  A    between atoms: C8_16  and  N3_17 
REMARK    8  A    between atoms: C8_16  and  C9_21 
REMARK    9  A    between atoms: C9_21  and  C10_22 
REMARK   10  A    between atoms: C10_22  and  C11_23 
REMARK   11  A    between atoms: C11_23  and  N4_24 
REMARK   12  A    between atoms: C12_26  and  C13_27 
REMARK   13  A    between atoms: C13_27  and  N5_28 
ROOT
HETATM    1  C8  UNL     1       0.309   3.001  -0.073  1.00  0.00     0.348 C 
ENDROOT
BRANCH   1   2
HETATM    2  O3  UNL     1       1.113   2.481  -1.097  1.00  0.00    -0.246 OA
BRANCH   2   3
HETATM    3  N2  UNL     1       2.022   1.490  -0.923  1.00  0.00    -0.252 N 
HETATM    4  C7  UNL     1       1.826   0.301  -1.318  1.00  0.00     0.142 C 
HETATM    5 CL1  UNL     1       0.346  -0.157  -2.133  1.00  0.00    -0.061 Cl
ATOM      6  H2  UNL     1       2.901   1.710  -0.454  1.00  0.00     0.195 HD
BRANCH   4   7
HETATM    7  C6  UNL     1       2.857  -0.732  -1.098  1.00  0.00     0.069 A 
HETATM    8  S1  UNL     1       2.795  -2.371  -1.544  1.00  0.00    -0.069 SA
HETATM    9  C5  UNL     1       4.312  -2.878  -0.960  1.00  0.00     0.105 A 
HETATM   10  C4  UNL     1       4.833  -1.725  -0.421  1.00  0.00     0.093 A 
HETATM   11  N1  UNL     1       4.910  -4.177  -1.009  1.00  0.00    -0.093 NA
HETATM   12  C17 UNL     1       4.081  -0.621  -0.494  1.00  0.00     0.073 A 
HETATM   13 CL2  UNL     1       4.578   0.978   0.146  1.00  0.00    -0.082 Cl
BRANCH  10  14
HETATM   14  C3  UNL     1       6.185  -1.744   0.209  1.00  0.00     0.297 C 
HETATM   15  O2  UNL     1       6.871  -2.785   0.266  1.00  0.00    -0.259 OA
BRANCH  14  16
HETATM   16  O1  UNL     1       6.757  -0.610   0.766  1.00  0.00    -0.318 OA
BRANCH  16  17
HETATM   17  C2  UNL     1       8.034  -0.624   1.363  1.00  0.00     0.174 C 
HETATM   18  C1  UNL     1       9.108  -1.046   0.361  1.00  0.00     0.034 C 
ENDBRANCH  16  17
ENDBRANCH  14  16
ENDBRANCH  10  14
ENDBRANCH   4   7
ENDBRANCH   2   3
ENDBRANCH   1   2
BRANCH   1  19
HETATM   19  N3  UNL     1       0.602   4.439  -0.007  1.00  0.00    -0.051 N 
ATOM     20  H33 UNL     1       1.594   4.645   0.113  1.00  0.00     0.277 HD
ATOM     21  H32 UNL     1       0.481   4.918  -0.899  1.00  0.00     0.277 HD
ATOM     22  H31 UNL     1       0.017   4.817   0.738  1.00  0.00     0.277 HD
ENDBRANCH   1  19
BRANCH   1  23
HETATM   23  C9  UNL     1      -1.170   2.870  -0.371  1.00  0.00     0.065 C 
BRANCH  23  24
HETATM   24  C10 UNL     1      -1.936   3.461   0.796  1.00  0.00     0.024 C 
BRANCH  24  25
HETATM   25  C11 UNL     1      -3.431   3.372   0.580  1.00  0.00     0.119 C 
BRANCH  25  26
HETATM   26  N4  UNL     1      -3.885   2.038   0.429  1.00  0.00    -0.401 N 
HETATM   27  C12 UNL     1      -3.793   1.141   1.322  1.00  0.00     0.075 C 
ATOM     28  H4  UNL     1      -4.316   1.781  -0.459  1.00  0.00     0.158 HD
BRANCH  27  29
HETATM   29  C13 UNL     1      -4.339  -0.217   0.956  1.00  0.00     0.182 C 
BRANCH  29  30
HETATM   30  N5  UNL     1      -5.564   0.025   0.236  1.00  0.00    -0.222 N 
HETATM   31  C14 UNL     1      -6.281  -1.003  -0.123  1.00  0.00     0.678 C 
HETATM   32  N6  UNL     1      -5.878  -2.303   0.180  1.00  0.00    -0.217 N 
HETATM   33  N7  UNL     1      -7.487  -0.726  -0.841  1.00  0.00    -0.151 N 
HETATM   34  C15 UNL     1      -6.695  -3.455   0.456  1.00  0.00     0.222 C 
ATOM     35  H6  UNL     1      -4.870  -2.458   0.210  1.00  0.00     0.178 HD
HETATM   36  S2  UNL     1      -8.365  -3.292  -0.246  1.00  0.00    -0.048 SA
HETATM   37  C16 UNL     1      -8.288  -1.813  -1.253  1.00  0.00     0.299 C 
HETATM   38  O4  UNL     1      -8.957  -1.789  -2.307  1.00  0.00    -0.259 OA
ATOM     39  H7  UNL     1      -7.762   0.234  -1.050  1.00  0.00     0.188 HD
ATOM     40  H5  UNL     1      -5.862   0.975   0.013  1.00  0.00     0.178 HD
ENDBRANCH  29  30
ENDBRANCH  27  29
ENDBRANCH  25  26
ENDBRANCH  24  25
ENDBRANCH  23  24
ENDBRANCH   1  23
TORSDOF 13
