REMARK  5 active torsions:
REMARK  status: ('A' for Active; 'I' for Inactive)
REMARK    1  A    between atoms: C4_6  and  N2_7 
REMARK       I    between atoms: N2_7  and  C5_9 
REMARK       I    between atoms: C5_9  and  N3_11 
REMARK    2  A    between atoms: N3_11  and  C6_13 
REMARK    3  A    between atoms: C6_13  and  N4_15 
REMARK    4  A    between atoms: N4_15  and  N5_17 
REMARK       I    between atoms: N5_17  and  C7_19 
REMARK    5  A    between atoms: C7_19  and  C8_21 
ROOT
HETATM    1  C6  UNL     1       1.265   2.802   0.553  1.00  0.00     0.194 C 
HETATM    2  S1  UNL     1       0.576   4.199   1.051  1.00  0.00    -0.039 SA
ENDROOT
BRANCH   1   3
HETATM    3  N3  UNL     1       0.485   1.628   0.317  1.00  0.00    -0.284 N 
HETATM    4  C5  UNL     1      -0.911   1.631   0.504  1.00  0.00     0.324 C 
HETATM    5  N2  UNL     1      -1.633   0.435   0.277  1.00  0.00    -0.308 N 
HETATM    6  O2  UNL     1      -1.488   2.670   0.863  1.00  0.00    -0.247 OA
ATOM      7  H2  UNL     1      -1.100  -0.385  -0.013  1.00  0.00     0.166 HD
ATOM      8  H3  UNL     1       0.947   0.773   0.008  1.00  0.00     0.173 HD
BRANCH   5   9
HETATM    9  C4  UNL     1      -3.061   0.279   0.422  1.00  0.00     0.359 C 
HETATM   10  N1  UNL     1      -3.632  -0.508  -0.649  1.00  0.00     0.031 N 
HETATM   11  C1  UNL     1      -4.436   0.226  -1.604  1.00  0.00     0.359 C 
HETATM   12  O1  UNL     1      -2.735  -1.332  -1.277  1.00  0.00    -0.063 OA
HETATM   13  C2  UNL     1      -4.422  -1.202   0.357  1.00  0.00     0.318 C 
HETATM   14  C3  UNL     1      -3.458  -0.798   1.424  1.00  0.00     0.100 C 
ENDBRANCH   5   9
ENDBRANCH   1   3
BRANCH   1  15
HETATM   15  N4  UNL     1       2.674   2.775   0.360  1.00  0.00    -0.273 N 
ATOM     16  H4  UNL     1       3.240   3.606   0.529  1.00  0.00     0.189 HD
BRANCH  15  17
HETATM   17  N5  UNL     1       3.267   1.577  -0.069  1.00  0.00    -0.263 N 
HETATM   18  C7  UNL     1       3.434   0.484   0.811  1.00  0.00     0.277 C 
HETATM   19  O3  UNL     1       3.060   0.579   1.988  1.00  0.00    -0.265 OA
ATOM     20  H5  UNL     1       3.584   1.494  -1.035  1.00  0.00     0.190 HD
BRANCH  18  21
HETATM   21  C8  UNL     1       4.039  -0.745   0.333  1.00  0.00     0.075 A 
HETATM   22  C9  UNL     1       4.509  -1.031  -0.925  1.00  0.00     0.026 A 
HETATM   23  C10 UNL     1       5.021  -2.244  -1.134  1.00  0.00     0.028 A 
HETATM   24  C11 UNL     1       5.041  -3.118  -0.077  1.00  0.00     0.052 A 
HETATM   25 BR1  UNL     1       5.691  -4.917  -0.032  1.00  0.00    -0.043 Br
HETATM   26  S2  UNL     1       4.338  -2.202   1.179  1.00  0.00    -0.077 SA
ENDBRANCH  18  21
ENDBRANCH  15  17
ENDBRANCH   1  15
TORSDOF 5
