REMARK  7 active torsions:
REMARK  status: ('A' for Active; 'I' for Inactive)
REMARK       I    between atoms: C2_2  and  N1_4 
REMARK    1  A    between atoms: N1_4  and  N2_6 
REMARK    2  A    between atoms: N2_6  and  C3_8 
REMARK    3  A    between atoms: C3_8  and  O2_9 
REMARK    4  A    between atoms: C3_8  and  N3_11 
REMARK    5  A    between atoms: C4_13  and  O3_14 
REMARK    6  A    between atoms: C4_13  and  C5_16 
REMARK    7  A    between atoms: N5_25  and  C11_27 
ROOT
HETATM    1  C5  UNL     1      -0.378  -1.906   0.492  1.00  0.00     0.060 A 
HETATM    2  C6  UNL     1      -0.533  -3.028  -0.335  1.00  0.00     0.040 A 
HETATM    3  C7  UNL     1      -1.499  -2.988  -1.309  1.00  0.00     0.034 A 
HETATM    4 BR1  UNL     1      -1.790  -4.477  -2.491  1.00  0.00    -0.049 Br
HETATM    5  C8  UNL     1      -2.272  -1.856  -1.435  1.00  0.00     0.024 A 
HETATM    6  C9  UNL     1      -3.320  -1.814  -2.497  1.00  0.00     0.069 C 
HETATM    7  N4  UNL     1      -2.106  -0.786  -0.626  1.00  0.00    -0.344 N 
ATOM      8  H4  UNL     1      -2.701   0.032  -0.753  1.00  0.00     0.167 HD
HETATM    9  C10 UNL     1      -1.176  -0.777   0.339  1.00  0.00     0.116 A 
HETATM   10  N5  UNL     1      -1.006   0.196   1.124  1.00  0.00    -0.367 N 
ATOM     11  H5  UNL     1      -0.275   0.065   1.823  1.00  0.00     0.162 HD
ENDROOT
BRANCH   1  12
HETATM   12  C4  UNL     1       0.684  -2.033   1.478  1.00  0.00     0.157 C 
HETATM   13  N3  UNL     1       1.875  -1.401   1.651  1.00  0.00    -0.301 N 
ATOM     14  H3  UNL     1       2.334  -1.629   2.533  1.00  0.00     0.171 HD
BRANCH  13  15
HETATM   15  C3  UNL     1       2.588  -0.511   0.870  1.00  0.00     0.238 C 
BRANCH  15  16
HETATM   16  N2  UNL     1       2.259   0.029  -0.376  1.00  0.00    -0.263 N 
ATOM     17  H2  UNL     1       1.391  -0.231  -0.844  1.00  0.00     0.190 HD
BRANCH  16  18
HETATM   18  N1  UNL     1       3.161   0.949  -0.976  1.00  0.00    -0.267 N 
HETATM   19  C2  UNL     1       4.427   0.521  -1.428  1.00  0.00     0.232 C 
HETATM   20  C1  UNL     1       5.351   1.510  -2.054  1.00  0.00     0.119 C 
HETATM   21  O1  UNL     1       4.779  -0.671  -1.309  1.00  0.00    -0.272 OA
ATOM     22  H1  UNL     1       2.891   1.927  -1.081  1.00  0.00     0.190 HD
ENDBRANCH  16  18
ENDBRANCH  15  16
BRANCH  15  23
HETATM   23  O2  UNL     1       3.736  -0.103   1.333  1.00  0.00    -0.331 OA
ATOM     24  H2  UNL     1       3.960  -0.470   2.180  1.00  0.00     0.221 HD
ENDBRANCH  15  23
ENDBRANCH  13  15
BRANCH  12  25
HETATM   25  O3  UNL     1       0.387  -2.965   2.368  1.00  0.00    -0.345 OA
ATOM     26  H3  UNL     1      -0.445  -3.407   2.247  1.00  0.00     0.219 HD
ENDBRANCH  12  25
ENDBRANCH   1  12
BRANCH  10  27
HETATM   27  C11 UNL     1      -1.680   1.450   1.182  1.00  0.00     0.021 C 
HETATM   28  C12 UNL     1      -1.555   2.290  -0.047  1.00  0.00     0.037 C 
HETATM   29  C13 UNL     1      -1.037   2.228   2.342  1.00  0.00     0.037 C 
HETATM   30  C14 UNL     1      -3.147   1.323   1.511  1.00  0.00     0.037 C 
ENDBRANCH  10  27
TORSDOF 7
