REMARK  4 active torsions:
REMARK  status: ('A' for Active; 'I' for Inactive)
REMARK    1  A    between atoms: C2_2  and  O2_4 
REMARK    2  A    between atoms: O2_4  and  C3_5 
REMARK    3  A    between atoms: C6_8  and  O3_9 
REMARK    4  A    between atoms: C7_11  and  O4_12 
ROOT
HETATM    1  C3  UNL     1      -1.784   0.296   0.136  1.00  0.00     0.168 C 
HETATM    2  C4  UNL     1      -2.326   0.353  -1.282  1.00  0.00     0.045 C 
HETATM    3  C5  UNL     1      -3.078   1.645  -1.472  1.00  0.00     0.015 C 
HETATM    4  C6  UNL     1      -1.148   0.227  -2.199  1.00  0.00     0.154 C 
HETATM    5  C7  UNL     1      -0.463  -1.066  -2.017  1.00  0.00     0.161 C 
HETATM    6  C8  UNL     1      -0.122  -1.450  -0.617  1.00  0.00     0.049 C 
HETATM    7  C9  UNL     1      -0.212  -2.994  -0.604  1.00  0.00     0.024 C 
HETATM    8  C10 UNL     1       1.302  -1.136  -0.363  1.00  0.00     0.233 C 
HETATM    9  O5  UNL     1       1.876  -0.326  -1.377  1.00  0.00    -0.225 OA
HETATM   10  O6  UNL     1       3.159  -0.424  -1.299  1.00  0.00    -0.200 OA
HETATM   11  C11 UNL     1       3.746   0.083  -0.183  1.00  0.00     0.195 C 
HETATM   12  C12 UNL     1       4.049   1.549  -0.423  1.00  0.00     0.082 C 
HETATM   13  C13 UNL     1       5.074  -0.598   0.111  1.00  0.00     0.082 C 
HETATM   14  O7  UNL     1       2.906   0.039   0.976  1.00  0.00    -0.311 OA
HETATM   15  C14 UNL     1       1.622  -0.463   0.887  1.00  0.00     0.112 C 
HETATM   16  C15 UNL     1       0.779  -0.323   1.880  1.00  0.00     0.075 C 
HETATM   17  C16 UNL     1       1.152   0.381   3.157  1.00  0.00     0.079 C 
HETATM   18  O8  UNL     1      -0.486  -0.856   1.707  1.00  0.00    -0.344 OA
HETATM   19  C17 UNL     1      -1.087  -0.998   0.425  1.00  0.00     0.172 C 
ENDROOT
BRANCH   1  20
HETATM   20  O2  UNL     1      -2.961   0.362   0.960  1.00  0.00    -0.313 OA
BRANCH  20  21
HETATM   21  C2  UNL     1      -3.167   1.413   1.831  1.00  0.00     0.255 C 
HETATM   22  C1  UNL     1      -4.403   1.415   2.649  1.00  0.00     0.126 C 
HETATM   23  O1  UNL     1      -2.279   2.298   1.864  1.00  0.00    -0.266 OA
ENDBRANCH  20  21
ENDBRANCH   1  20
BRANCH   4  24
HETATM   24  O3  UNL     1      -0.362   1.351  -2.088  1.00  0.00    -0.393 OA
ATOM     25  H3  UNL     1       0.385   1.271  -2.669  1.00  0.00     0.210 HD
ENDBRANCH   4  24
BRANCH   5  26
HETATM   26  O4  UNL     1      -1.256  -2.054  -2.653  1.00  0.00    -0.392 OA
ATOM     27  H4  UNL     1      -0.815  -2.887  -2.536  1.00  0.00     0.210 HD
ENDBRANCH   5  26
TORSDOF 4
