REMARK  8 active torsions:
REMARK  status: ('A' for Active; 'I' for Inactive)
REMARK    1  A    between atoms: O1_2  and  C2_3 
REMARK    2  A    between atoms: C4_5  and  O2_6 
REMARK    3  A    between atoms: C7_11  and  C8_12 
REMARK    4  A    between atoms: C9_15  and  C10_16 
REMARK    5  A    between atoms: C12_21  and  O7_22 
REMARK    6  A    between atoms: C14_24  and  O8_25 
REMARK    7  A    between atoms: C16_27  and  O9_28 
REMARK    8  A    between atoms: C18_32  and  O11_33 
ROOT
HETATM    1  C2  UNL     1       4.206   1.113   0.965  1.00  0.00     0.106 A 
HETATM    2  C3  UNL     1       4.727  -0.162   1.033  1.00  0.00     0.077 A 
HETATM    3  C4  UNL     1       3.981  -1.256   0.684  1.00  0.00     0.085 A 
HETATM    4  C5  UNL     1       2.673  -1.057   0.255  1.00  0.00     0.085 A 
HETATM    5  C6  UNL     1       1.931  -2.155  -0.098  1.00  0.00     0.207 A 
HETATM    6  O3  UNL     1       2.406  -3.314  -0.037  1.00  0.00    -0.286 OA
HETATM    7  C7  UNL     1       0.609  -1.950  -0.535  1.00  0.00     0.128 A 
HETATM    8  C9  UNL     1       0.176  -0.656  -0.564  1.00  0.00     0.127 A 
HETATM    9  O10 UNL     1       0.957   0.378  -0.207  1.00  0.00    -0.303 OA
HETATM   10  C17 UNL     1       2.166   0.224   0.192  1.00  0.00     0.129 A 
HETATM   11  C18 UNL     1       2.919   1.350   0.546  1.00  0.00     0.134 A 
ENDROOT
BRANCH   8  12
HETATM   12  C10 UNL     1      -1.176  -0.333  -0.969  1.00  0.00     0.107 A 
HETATM   13  N1  UNL     1      -1.414   0.369  -2.085  1.00  0.00    -0.316 N 
HETATM   14  C11 UNL     1      -2.636   0.784  -2.467  1.00  0.00     0.282 A 
ATOM     15  H1  UNL     1      -0.621   0.603  -2.682  1.00  0.00     0.169 HD
HETATM   16  O6  UNL     1      -2.810   1.445  -3.529  1.00  0.00    -0.265 OA
HETATM   17  C12 UNL     1      -3.727   0.472  -1.665  1.00  0.00     0.173 A 
HETATM   18  C14 UNL     1      -3.561  -0.246  -0.503  1.00  0.00     0.143 A 
HETATM   19  C16 UNL     1      -2.273  -0.641  -0.169  1.00  0.00     0.132 A 
BRANCH  17  20
HETATM   20  O7  UNL     1      -5.014   0.872  -2.008  1.00  0.00    -0.349 OA
HETATM   21  C13 UNL     1      -5.525   2.105  -1.574  1.00  0.00     0.210 C 
ENDBRANCH  17  20
BRANCH  18  22
HETATM   22  O8  UNL     1      -4.630  -0.579   0.327  1.00  0.00    -0.350 OA
HETATM   23  C15 UNL     1      -5.088   0.209   1.381  1.00  0.00     0.210 C 
ENDBRANCH  18  22
BRANCH  19  24
HETATM   24  O9  UNL     1      -2.142  -1.364   1.030  1.00  0.00    -0.356 OA
ATOM     25  H9  UNL     1      -2.891  -1.574   1.576  1.00  0.00     0.218 HD
ENDBRANCH  19  24
ENDBRANCH   8  12
BRANCH   7  26
HETATM   26  C8  UNL     1      -0.143  -3.103  -0.988  1.00  0.00     0.216 C 
HETATM   27  O4  UNL     1       0.453  -4.248  -0.896  1.00  0.00    -0.644 OA
HETATM   28  O5  UNL     1      -1.401  -3.138  -1.508  1.00  0.00    -0.644 OA
ENDBRANCH   7  26
BRANCH  11  29
HETATM   29  O11 UNL     1       2.354   2.618   0.462  1.00  0.00    -0.356 OA
ATOM     30  H11 UNL     1       1.464   2.782   0.172  1.00  0.00     0.218 HD
ENDBRANCH  11  29
BRANCH   3  31
HETATM   31  O2  UNL     1       4.447  -2.553   0.731  1.00  0.00    -0.360 OA
ATOM     32  H2  UNL     1       3.929  -3.312   0.489  1.00  0.00     0.217 HD
ENDBRANCH   3  31
BRANCH   1  33
HETATM   33  O1  UNL     1       4.966   2.222   1.319  1.00  0.00    -0.353 OA
HETATM   34  C1  UNL     1       6.305   2.089   1.765  1.00  0.00     0.210 C 
ENDBRANCH   1  33
TORSDOF 8
