REMARK  1 active torsions:
REMARK  status: ('A' for Active; 'I' for Inactive)
REMARK    1  A    between atoms: C1_4  and  C2_6 
ROOT
HETATM    1  C2  UNL     1       0.339   0.058   0.138  1.00  0.00     0.148 A 
HETATM    2  N3  UNL     1      -0.722  -0.050   0.935  1.00  0.00    -0.327 N 
ATOM      3  H3  UNL     1      -0.686   0.001   1.953  1.00  0.00     0.168 HD
HETATM    4  C3  UNL     1      -1.850  -0.235   0.219  1.00  0.00     0.133 A 
HETATM    5  N4  UNL     1      -3.182  -0.395   0.679  1.00  0.00    -0.081 NA
HETATM    6  C4  UNL     1      -1.436  -0.239  -1.115  1.00  0.00     0.135 A 
HETATM    7  N5  UNL     1      -0.095  -0.058  -1.131  1.00  0.00    -0.346 N 
ATOM      8  H5  UNL     1       0.490  -0.016  -1.966  1.00  0.00     0.167 HD
ENDROOT
BRANCH   1   9
HETATM    9  C1  UNL     1       1.730   0.266   0.546  1.00  0.00     0.154 C 
HETATM   10  N1  UNL     1       2.007   0.360   1.794  1.00  0.00    -0.385 N 
ATOM     11  H12 UNL     1       2.976   0.505   2.078  1.00  0.00     0.157 HD
ATOM     12  H11 UNL     1       1.254   0.289   2.479  1.00  0.00     0.157 HD
HETATM   13  N2  UNL     1       2.774   0.365  -0.404  1.00  0.00    -0.079 NA
ENDBRANCH   1   9
TORSDOF 1
