REMARK  7 active torsions:
REMARK  status: ('A' for Active; 'I' for Inactive)
REMARK    1  A    between atoms: C2_2  and  O1_3 
REMARK    2  A    between atoms: C2_2  and  C10_18 
REMARK    3  A    between atoms: O1_3  and  C3_4 
REMARK    4  A    between atoms: C3_4  and  C4_6 
REMARK    5  A    between atoms: C7_9  and  N1_10 
REMARK    6  A    between atoms: C9_14  and  N2_15 
REMARK    7  A    between atoms: C10_18  and  C12_20 
ROOT
HETATM    1  C1  UNL     1       0.222  -2.114  -0.677  1.00  0.00     0.040 C 
HETATM    2  C2  UNL     1       0.649  -1.043   0.276  1.00  0.00     0.134 C 
ENDROOT
BRANCH   2   3
HETATM    3  O1  UNL     1       1.895  -0.537  -0.122  1.00  0.00    -0.312 OA
BRANCH   3   4
HETATM    4  C3  UNL     1       3.042  -0.700   0.703  1.00  0.00     0.296 C 
HETATM    5  O2  UNL     1       2.823  -1.307   1.754  1.00  0.00    -0.259 OA
BRANCH   4   6
HETATM    6  C4  UNL     1       4.313  -0.160   0.254  1.00  0.00     0.072 A 
HETATM    7  C5  UNL     1       4.361   0.386  -1.051  1.00  0.00     0.022 A 
HETATM    8  C6  UNL     1       5.511   0.860  -1.611  1.00  0.00     0.037 A 
HETATM    9  C7  UNL     1       6.702   0.826  -0.911  1.00  0.00     0.105 A 
HETATM   10  C8  UNL     1       6.684   0.309   0.346  1.00  0.00     0.073 A 
HETATM   11  C9  UNL     1       5.482  -0.184   0.928  1.00  0.00     0.121 A 
BRANCH   9  12
HETATM   12  N1  UNL     1       7.897   1.324  -1.510  1.00  0.00    -0.116 N 
HETATM   13  O3  UNL     1       7.871   1.790  -2.665  1.00  0.00    -0.532 OA
HETATM   14  O4  UNL     1       9.070   1.297  -0.833  1.00  0.00    -0.532 OA
ENDBRANCH   9  12
BRANCH  11  15
HETATM   15  N2  UNL     1       5.599  -0.692   2.243  1.00  0.00    -0.115 N 
HETATM   16  O5  UNL     1       4.785  -0.540   3.122  1.00  0.00    -0.532 OA
HETATM   17  O6  UNL     1       6.776  -1.357   2.581  1.00  0.00    -0.532 OA
ENDBRANCH  11  15
ENDBRANCH   4   6
ENDBRANCH   3   4
ENDBRANCH   2   3
BRANCH   2  18
HETATM   18  C10 UNL     1      -0.370   0.050   0.505  1.00  0.00     0.042 C 
HETATM   19  C11 UNL     1       0.357   0.998   1.488  1.00  0.00     0.015 C 
BRANCH  18  20
HETATM   20  C12 UNL     1      -1.578  -0.526   1.152  1.00  0.00     0.197 C 
HETATM   21  N3  UNL     1      -2.280  -1.556   0.438  1.00  0.00    -0.066 N 
HETATM   22  C13 UNL     1      -3.713  -1.418   0.757  1.00  0.00     0.191 C 
ATOM     23  H32 UNL     1      -2.093  -1.543  -0.565  1.00  0.00     0.278 HD
ATOM     24  H31 UNL     1      -1.918  -2.490   0.629  1.00  0.00     0.278 HD
HETATM   25  C14 UNL     1      -3.660  -0.488   1.993  1.00  0.00     0.040 C 
HETATM   26  C21 UNL     1      -4.318  -0.444  -0.149  1.00  0.00     0.021 C 
HETATM   27  C15 UNL     1      -2.713   0.510   1.285  1.00  0.00     0.023 C 
HETATM   28  C16 UNL     1      -3.271   0.685  -0.059  1.00  0.00    -0.002 C 
HETATM   29  C17 UNL     1      -4.002   1.913  -0.400  1.00  0.00     0.005 C 
HETATM   30  C18 UNL     1      -4.501   1.784  -1.822  1.00  0.00     0.000 C 
HETATM   31  C19 UNL     1      -5.190   0.516  -2.153  1.00  0.00     0.000 C 
HETATM   32  C20 UNL     1      -4.521  -0.735  -1.562  1.00  0.00     0.007 C 
ENDBRANCH  18  20
ENDBRANCH   2  18
TORSDOF 7
