REMARK  4 active torsions:
REMARK  status: ('A' for Active; 'I' for Inactive)
REMARK    1  A    between atoms: C3_7  and  N3_8 
REMARK    2  A    between atoms: N3_8  and  C4_10 
REMARK    3  A    between atoms: C13_21  and  C14_22 
REMARK    4  A    between atoms: C15_23  and  C16_24 
ROOT
HETATM    1  C1  UNL     1      -2.037  -5.650   0.160  1.00  0.00     0.165 C 
HETATM    2  N1  UNL     1      -2.651  -4.449  -0.217  1.00  0.00    -0.230 N 
ATOM      3  H1  UNL     1      -3.643  -4.553  -0.430  1.00  0.00     0.177 HD
HETATM    4  C2  UNL     1      -2.234  -3.268  -0.348  1.00  0.00     0.686 A 
HETATM    5  N2  UNL     1      -3.049  -2.228  -0.741  1.00  0.00    -0.174 N 
ATOM      6  H2  UNL     1      -4.042  -2.306  -0.959  1.00  0.00     0.186 HD
HETATM    7  C3  UNL     1      -2.337  -1.108  -0.791  1.00  0.00     0.151 A 
HETATM    8  C10 UNL     1      -1.021  -1.407  -0.424  1.00  0.00     0.108 A 
HETATM    9  C11 UNL     1       0.103  -0.633  -0.311  1.00  0.00    -0.011 A 
HETATM   10  C12 UNL     1       0.050   0.801  -0.603  1.00  0.00     0.052 C 
HETATM   11  C13 UNL     1       1.291  -1.194   0.076  1.00  0.00     0.033 A 
HETATM   12  C21 UNL     1       1.287  -2.542   0.337  1.00  0.00    -0.026 A 
HETATM   13  C22 UNL     1       2.553  -3.200   0.762  1.00  0.00     0.051 C 
HETATM   14  C23 UNL     1       0.161  -3.336   0.227  1.00  0.00     0.124 A 
HETATM   15  N7  UNL     1      -0.995  -2.741  -0.159  1.00  0.00    -0.153 N 
ENDROOT
BRANCH   7  16
HETATM   16  N3  UNL     1      -2.815   0.194  -1.157  1.00  0.00    -0.326 N 
ATOM     17  H3  UNL     1      -2.523   0.616  -2.038  1.00  0.00     0.169 HD
BRANCH  16  18
HETATM   18  C4  UNL     1      -3.603   0.821  -0.382  1.00  0.00     0.106 A 
HETATM   19  C5  UNL     1      -4.049   0.336   0.820  1.00  0.00     0.048 A 
HETATM   20  C6  UNL     1      -4.908   1.035   1.646  1.00  0.00     0.006 A 
HETATM   21  C7  UNL     1      -5.327   2.279   1.228  1.00  0.00     0.025 A 
HETATM   22  C8  UNL     1      -4.880   2.773   0.017  1.00  0.00     0.007 A 
HETATM   23  C9  UNL     1      -5.370   4.124  -0.379  1.00  0.00     0.068 C 
HETATM   24  N4  UNL     1      -4.046   2.057  -0.752  1.00  0.00    -0.346 N 
ATOM     25  H4  UNL     1      -3.734   2.449  -1.640  1.00  0.00     0.167 HD
ENDBRANCH  16  18
ENDBRANCH   7  16
BRANCH  11  26
HETATM   26  C14 UNL     1       2.447  -0.356   0.185  1.00  0.00    -0.059 C 
HETATM   27  C15 UNL     1       3.433   0.333   0.283  1.00  0.00    -0.043 C 
BRANCH  27  28
HETATM   28  C16 UNL     1       4.627   1.147   0.385  1.00  0.00     0.088 A 
HETATM   29  C17 UNL     1       5.013   1.940  -0.678  1.00  0.00     0.065 A 
HETATM   30  C18 UNL     1       6.155   2.722  -0.588  1.00  0.00     0.050 A 
HETATM   31  N5  UNL     1       6.547   3.527  -1.667  1.00  0.00    -0.102 NA
HETATM   32  C19 UNL     1       6.934   2.731   0.559  1.00  0.00     0.043 A 
HETATM   33  C20 UNL     1       6.504   1.921   1.591  1.00  0.00     0.091 A 
HETATM   34  N6  UNL     1       5.392   1.168   1.487  1.00  0.00    -0.359 N 
ATOM     35  H6  UNL     1       5.120   0.588   2.281  1.00  0.00     0.166 HD
ENDBRANCH  27  28
ENDBRANCH  11  26
TORSDOF 4
