REMARK  3 active torsions:
REMARK  status: ('A' for Active; 'I' for Inactive)
REMARK    1  A    between atoms: N1_1  and  C1_4 
REMARK    2  A    between atoms: C2_7  and  N3_8 
REMARK    3  A    between atoms: N3_8  and  N4_10 
ROOT
HETATM    1  C1  UNL     1       2.358   0.363   0.442  1.00  0.00     0.256 A 
HETATM    2  N2  UNL     1       1.087  -0.093   0.371  1.00  0.00    -0.150 N 
ATOM      3  H2  UNL     1       0.355   0.033   1.070  1.00  0.00     0.188 HD
HETATM    4  C2  UNL     1       0.977  -0.743  -0.797  1.00  0.00     0.720 A 
HETATM    5  N7  UNL     1       2.145  -0.686  -1.419  1.00  0.00    -0.086 N 
ATOM      6  H7  UNL     1       2.365  -1.092  -2.329  1.00  0.00     0.214 HD
HETATM    7  O1  UNL     1       2.957  -0.019  -0.658  1.00  0.00    -0.186 OA
ENDROOT
BRANCH   4   8
HETATM    8  N3  UNL     1      -0.118  -1.306  -1.183  1.00  0.00    -0.128 N 
ATOM      9  H3  UNL     1      -0.119  -1.781  -2.086  1.00  0.00     0.205 HD
BRANCH   8  10
HETATM   10  N4  UNL     1      -1.283  -1.306  -0.454  1.00  0.00    -0.262 N 
HETATM   11  C3  UNL     1      -2.065  -0.290  -0.321  1.00  0.00     0.216 C 
HETATM   12  N5  UNL     1      -1.720   0.930  -0.965  1.00  0.00    -0.065 NA
HETATM   13  N6  UNL     1      -3.259  -0.320   0.436  1.00  0.00    -0.065 NA
ATOM     14  H4  UNL     1      -1.548  -2.172   0.015  1.00  0.00     0.190 HD
ENDBRANCH   8  10
ENDBRANCH   4   8
BRANCH   1  15
HETATM   15  N1  UNL     1       2.884   1.044   1.408  1.00  0.00    -0.363 N 
ATOM     16  H12 UNL     1       2.417   1.342   2.265  1.00  0.00     0.159 HD
ATOM     17  H11 UNL     1       3.843   1.388   1.462  1.00  0.00     0.159 HD
ENDBRANCH   1  15
TORSDOF 3
