REMARK  5 active torsions:
REMARK  status: ('A' for Active; 'I' for Inactive)
REMARK    1  A    between atoms: C2_2  and  O1_3 
REMARK    2  A    between atoms: O1_3  and  C3_4 
REMARK    3  A    between atoms: C3_4  and  C4_5 
REMARK    4  A    between atoms: C4_5  and  C5_6 
REMARK    5  A    between atoms: C11_18  and  N4_19 
ROOT
HETATM    1  C5  UNL     1      -0.014  -0.060   0.305  1.00  0.00    -0.028 A 
HETATM    2  C6  UNL     1       0.252  -1.430   0.202  1.00  0.00    -0.005 A 
HETATM    3  C7  UNL     1      -0.678  -2.427   0.298  1.00  0.00     0.109 A 
HETATM    4  N1  UNL     1      -1.953  -2.102   0.507  1.00  0.00    -0.328 N 
ATOM      5  H1  UNL     1      -2.661  -2.833   0.581  1.00  0.00     0.169 HD
HETATM    6  C8  UNL     1      -2.302  -0.819   0.620  1.00  0.00     0.122 A 
HETATM    7  N2  UNL     1      -3.598  -0.520   0.838  1.00  0.00    -0.332 N 
ATOM      8  H2  UNL     1      -4.288  -1.268   0.909  1.00  0.00     0.168 HD
HETATM    9  C9  UNL     1      -3.984   0.760   0.962  1.00  0.00     0.080 A 
HETATM   10  C10 UNL     1      -5.433   1.033   1.201  1.00  0.00     0.089 C 
HETATM   11  N3  UNL     1      -3.145   1.782   0.883  1.00  0.00    -0.332 N 
ATOM     12  H3  UNL     1      -3.475   2.742   0.984  1.00  0.00     0.168 HD
HETATM   13  C11 UNL     1      -1.815   1.510   0.661  1.00  0.00     0.114 A 
HETATM   14  C12 UNL     1      -1.370   0.230   0.527  1.00  0.00     0.059 A 
HETATM   15  N5  UNL     1      -0.040  -3.724   0.149  1.00  0.00    -0.376 N 
ATOM     16  H5  UNL     1      -0.472  -4.602  -0.140  1.00  0.00     0.161 HD
HETATM   17  C13 UNL     1       1.336  -3.494   0.500  1.00  0.00     0.126 C 
HETATM   18  C14 UNL     1       1.562  -2.092   0.002  1.00  0.00     0.062 C 
ENDROOT
BRANCH   1  19
HETATM   19  C4  UNL     1       0.960   1.021   0.174  1.00  0.00     0.066 C 
BRANCH  19  20
HETATM   20  C3  UNL     1       1.386   1.471  -1.164  1.00  0.00     0.172 C 
BRANCH  20  21
HETATM   21  O1  UNL     1       2.142   0.702  -1.996  1.00  0.00    -0.391 OA
BRANCH  21  22
HETATM   22  C2  UNL     1       3.450   0.630  -1.533  1.00  0.00     0.163 C 
HETATM   23  C1  UNL     1       4.079   2.017  -1.467  1.00  0.00     0.033 C 
ENDBRANCH  21  22
ENDBRANCH  20  21
ENDBRANCH  19  20
ENDBRANCH   1  19
BRANCH  13  24
HETATM   24  N4  UNL     1      -1.030   2.512   0.601  1.00  0.00    -0.385 N 
ATOM     25  H42 UNL     1      -1.363   3.471   0.701  1.00  0.00     0.157 HD
ATOM     26  H41 UNL     1      -0.044   2.310   0.436  1.00  0.00     0.157 HD
ENDBRANCH  13  24
TORSDOF 5
