REMARK  1 active torsions:
REMARK  status: ('A' for Active; 'I' for Inactive)
REMARK    1  A    between atoms: N1_6  and  C4_7 
ROOT
HETATM    1  F1  UNL     1       3.585   1.236   0.788  1.00  0.00    -0.206 F 
HETATM    2  C1  UNL     1       2.728   0.479  -0.027  1.00  0.00     0.246 C 
HETATM    3  F2  UNL     1       3.602  -0.233  -0.867  1.00  0.00    -0.206 F 
HETATM    4  C2  UNL     1       2.083  -0.528   0.867  1.00  0.00     0.099 C 
HETATM    5  C3  UNL     1       0.869  -1.185   0.228  1.00  0.00     0.129 C 
HETATM    6  N1  UNL     1      -0.029  -0.106  -0.100  1.00  0.00    -0.375 N 
HETATM    7  C8  UNL     1       0.386   1.106  -0.742  1.00  0.00     0.129 C 
HETATM    8  C9  UNL     1       1.834   1.355  -0.798  1.00  0.00     0.099 C 
ENDROOT
BRANCH   6   9
HETATM    9  C4  UNL     1      -1.438  -0.202   0.220  1.00  0.00     0.071 A 
HETATM   10  C5  UNL     1      -2.428  -0.740  -0.550  1.00  0.00     0.037 A 
HETATM   11  C6  UNL     1      -3.679  -0.720  -0.053  1.00  0.00     0.010 A 
HETATM   12  C7  UNL     1      -3.850  -0.161   1.181  1.00  0.00     0.052 A 
HETATM   13  S1  UNL     1      -2.277   0.318   1.616  1.00  0.00    -0.084 SA
ENDBRANCH   6   9
TORSDOF 1
