REMARK  7 active torsions:
REMARK  status: ('A' for Active; 'I' for Inactive)
REMARK    1  A    between atoms: C2_2  and  C3_3 
REMARK    2  A    between atoms: C3_3  and  N1_4 
REMARK    3  A    between atoms: N1_4  and  C4_6 
REMARK    4  A    between atoms: C4_6  and  N2_8 
REMARK    5  A    between atoms: C7_13  and  N4_14 
REMARK    6  A    between atoms: N4_14  and  N5_16 
REMARK    7  A    between atoms: N5_16  and  C8_18 
ROOT
HETATM    1  N2  UNL     1      -1.022  -1.989   0.696  1.00  0.00    -0.130 N 
HETATM    2  C5  UNL     1      -1.526  -2.958   1.488  1.00  0.00     0.135 A 
HETATM    3  C6  UNL     1      -0.564  -3.355   2.395  1.00  0.00     0.124 A 
HETATM    4  N3  UNL     1       0.522  -2.598   2.120  1.00  0.00    -0.199 N 
ATOM      5  H3  UNL     1       1.416  -2.639   2.609  1.00  0.00     0.183 HD
HETATM    6  C7  UNL     1       0.226  -1.783   1.096  1.00  0.00     0.705 A 
ENDROOT
BRANCH   6   7
HETATM    7  N4  UNL     1       1.134  -0.843   0.536  1.00  0.00    -0.131 N 
ATOM      8  H4  UNL     1       0.826   0.080   0.231  1.00  0.00     0.205 HD
BRANCH   7   9
HETATM    9  N5  UNL     1       2.347  -1.207   0.434  1.00  0.00    -0.287 N 
ATOM     10  H5  UNL     1       2.651  -2.131   0.741  1.00  0.00     0.187 HD
BRANCH   9  11
HETATM   11  C8  UNL     1       3.263  -0.274  -0.125  1.00  0.00     0.048 A 
HETATM   12  C9  UNL     1       4.223  -0.695  -1.021  1.00  0.00     0.031 A 
HETATM   13  C10 UNL     1       5.091   0.262  -1.534  1.00  0.00     0.002 A 
HETATM   14  C11 UNL     1       5.001   1.582  -1.166  1.00  0.00     0.000 A 
HETATM   15  C12 UNL     1       4.049   2.004  -0.276  1.00  0.00     0.002 A 
HETATM   16  C13 UNL     1       3.166   1.057   0.252  1.00  0.00     0.031 A 
ENDBRANCH   9  11
ENDBRANCH   7   9
ENDBRANCH   6   7
BRANCH   1  17
HETATM   17  C4  UNL     1      -1.690  -1.303  -0.374  1.00  0.00     0.193 C 
HETATM   18  S1  UNL     1      -1.428  -1.717  -1.916  1.00  0.00    -0.040 SA
BRANCH  17  19
HETATM   19  N1  UNL     1      -2.583  -0.256  -0.030  1.00  0.00    -0.366 N 
ATOM     20  H1  UNL     1      -2.743  -0.001   0.945  1.00  0.00     0.161 HD
BRANCH  19  21
HETATM   21  C3  UNL     1      -3.261   0.441  -1.106  1.00  0.00     0.121 C 
BRANCH  21  22
HETATM   22  C2  UNL     1      -4.174   1.525  -0.582  1.00  0.00     0.015 C 
HETATM   23  C1  UNL     1      -3.452   2.565   0.204  1.00  0.00     0.006 C 
ENDBRANCH  21  22
ENDBRANCH  19  21
ENDBRANCH  17  19
ENDBRANCH   1  17
TORSDOF 7
