REMARK  10 active torsions:
REMARK  status: ('A' for Active; 'I' for Inactive)
REMARK    1  A    between atoms: C2_2  and  C3_3 
REMARK    2  A    between atoms: C3_3  and  S1_4 
REMARK    3  A    between atoms: S1_4  and  C4_5 
REMARK    4  A    between atoms: C5_6  and  C6_7 
REMARK    5  A    between atoms: C9_11  and  C10_12 
REMARK    6  A    between atoms: C10_12  and  O1_14 
REMARK    7  A    between atoms: C14_21  and  N2_22 
REMARK    8  A    between atoms: C19_27  and  C20_28 
REMARK    9  A    between atoms: C20_28  and  O3_30 
REMARK   10  A    between atoms: O3_30  and  C21_31 
ROOT
HETATM    1  C4  UNL     1      -0.018  -0.088   0.568  1.00  0.00     0.056 A 
HETATM    2  C5  UNL     1      -1.179  -0.796   0.624  1.00  0.00     0.003 A 
HETATM    3  C12 UNL     1      -1.265  -1.890   1.508  1.00  0.00     0.031 A 
HETATM    4  C13 UNL     1      -0.225  -2.276   2.311  1.00  0.00     0.090 A 
HETATM    5  N1  UNL     1       0.896  -1.575   2.235  1.00  0.00    -0.351 N 
ATOM      6  H1  UNL     1       1.691  -1.835   2.818  1.00  0.00     0.166 HD
HETATM    7  C14 UNL     1       1.004  -0.504   1.383  1.00  0.00     0.121 A 
ENDROOT
BRANCH   7   8
HETATM    8  N2  UNL     1       2.262   0.103   1.404  1.00  0.00    -0.352 N 
HETATM    9  C15 UNL     1       2.455   1.448   1.857  1.00  0.00     0.125 C 
HETATM   10  C16 UNL     1       3.705   1.449   2.735  1.00  0.00     0.020 C 
HETATM   11  C17 UNL     1       4.887   1.203   1.839  1.00  0.00     0.004 C 
HETATM   12  C18 UNL     1       4.474   0.439   0.613  1.00  0.00     0.035 C 
HETATM   13  C19 UNL     1       3.431  -0.618   0.987  1.00  0.00     0.185 C 
BRANCH  13  14
HETATM   14  C20 UNL     1       3.265  -1.573  -0.096  1.00  0.00     0.281 C 
HETATM   15  O2  UNL     1       2.162  -1.778  -0.641  1.00  0.00    -0.263 OA
BRANCH  14  16
HETATM   16  O3  UNL     1       4.331  -2.335  -0.609  1.00  0.00    -0.320 OA
BRANCH  16  17
HETATM   17  C21 UNL     1       4.120  -3.257  -1.669  1.00  0.00     0.174 C 
HETATM   18  C22 UNL     1       3.594  -2.579  -2.903  1.00  0.00     0.034 C 
ENDBRANCH  16  17
ENDBRANCH  14  16
ENDBRANCH  13  14
ENDBRANCH   7   8
BRANCH   1  19
HETATM   19  S1  UNL     1       0.139   1.309  -0.451  1.00  0.00    -0.125 SA
BRANCH  19  20
HETATM   20  C3  UNL     1      -0.305   2.894   0.194  1.00  0.00     0.079 C 
BRANCH  20  21
HETATM   21  C2  UNL     1      -1.771   3.076   0.549  1.00  0.00     0.006 C 
HETATM   22  C1  UNL     1      -1.912   4.500   1.076  1.00  0.00     0.006 C 
ENDBRANCH  20  21
ENDBRANCH  19  20
ENDBRANCH   1  19
BRANCH   2  23
HETATM   23  C6  UNL     1      -2.337  -0.598  -0.259  1.00  0.00     0.020 A 
HETATM   24  C7  UNL     1      -2.533  -0.002  -1.454  1.00  0.00     0.063 A 
HETATM   25  C8  UNL     1      -3.746  -0.067  -2.027  1.00  0.00     0.133 A 
HETATM   26  F1  UNL     1      -4.049   0.513  -3.252  1.00  0.00    -0.205 F 
HETATM   27  C9  UNL     1      -4.723  -0.742  -1.359  1.00  0.00     0.050 A 
HETATM   28  S2  UNL     1      -3.924  -1.264   0.042  1.00  0.00    -0.088 SA
BRANCH  27  29
HETATM   29  C10 UNL     1      -6.153  -0.982  -1.740  1.00  0.00     0.157 C 
HETATM   30  C11 UNL     1      -6.822  -1.774  -0.624  1.00  0.00     0.045 C 
BRANCH  29  31
HETATM   31  O1  UNL     1      -6.155  -1.761  -2.893  1.00  0.00    -0.391 OA
ATOM     32  H1  UNL     1      -7.061  -1.913  -3.134  1.00  0.00     0.210 HD
ENDBRANCH  29  31
ENDBRANCH  27  29
ENDBRANCH   2  23
TORSDOF 10
