REMARK  1 active torsions:
REMARK  status: ('A' for Active; 'I' for Inactive)
REMARK       I    between atoms: N2_3  and  C2_5 
REMARK       I    between atoms: C2_5  and  N4_10 
REMARK    1  A    between atoms: N3_6  and  C3_8 
ROOT
HETATM    1  N1  UNL     1       3.445   0.459   0.983  1.00  0.00    -0.171 NA
HETATM    2  C1  UNL     1       2.613   0.195   0.215  1.00  0.00     0.196 C 
HETATM    3  N2  UNL     1       1.605  -0.129  -0.687  1.00  0.00    -0.125 N 
ATOM      4  H2  UNL     1       1.869  -0.324  -1.653  1.00  0.00     0.197 HD
HETATM    5  C2  UNL     1       0.235  -0.203  -0.342  1.00  0.00     0.702 C 
HETATM    6  N3  UNL     1      -0.136  -1.184   0.388  1.00  0.00    -0.166 N 
ATOM      7  H3  UNL     1       0.587  -1.846   0.671  1.00  0.00     0.186 HD
HETATM    8  N4  UNL     1      -0.677   0.801  -0.811  1.00  0.00    -0.125 N 
ATOM      9  H4  UNL     1      -0.993   0.797  -1.781  1.00  0.00     0.197 HD
HETATM   10  C4  UNL     1      -1.127   1.784   0.075  1.00  0.00     0.196 C 
HETATM   11  N5  UNL     1      -1.493   2.614   0.803  1.00  0.00    -0.171 NA
ENDROOT
BRANCH   6  12
HETATM   12  C3  UNL     1      -1.437  -1.439   0.838  1.00  0.00     0.368 C 
HETATM   13  O1  UNL     1      -1.853  -2.632   0.809  1.00  0.00    -0.283 OA
ENDBRANCH   6  12
TORSDOF 1
