REMARK  16 active torsions:
REMARK  status: ('A' for Active; 'I' for Inactive)
REMARK    1  A    between atoms: C3_3  and  C4_4 
REMARK    2  A    between atoms: C4_4  and  C5_5 
REMARK    3  A    between atoms: C5_5  and  O1_6 
REMARK    4  A    between atoms: O1_6  and  C6_7 
REMARK    5  A    between atoms: C6_7  and  O2_8 
REMARK    6  A    between atoms: O2_8  and  C7_9 
REMARK    7  A    between atoms: C9_13  and  C10_14 
REMARK    8  A    between atoms: C10_14  and  O5_15 
REMARK    9  A    between atoms: C11_18  and  O7_19 
REMARK   10  A    between atoms: C13_21  and  O8_23 
REMARK   11  A    between atoms: C15_25  and  O9_26 
REMARK   12  A    between atoms: C16_28  and  O10_29 
REMARK   13  A    between atoms: O10_29  and  C17_30 
REMARK   14  A    between atoms: C20_35  and  C21_36 
REMARK   15  A    between atoms: C23_38  and  O13_39 
REMARK   16  A    between atoms: C24_41  and  O14_42 
ROOT
HETATM    1  C6  UNL     1      -0.953  -0.366   0.094  1.00  0.00     0.223 C 
HETATM    2  C16 UNL     1      -1.705  -1.281  -0.892  1.00  0.00     0.220 C 
HETATM    3  C19 UNL     1      -3.015  -1.743  -0.416  1.00  0.00     0.206 C 
HETATM    4  O12 UNL     1      -2.947  -2.951   0.249  1.00  0.00    -0.381 OA
HETATM    5  C20 UNL     1      -2.854  -2.613   1.621  1.00  0.00     0.152 C 
HETATM    6  C23 UNL     1      -1.397  -2.147   1.765  1.00  0.00     0.181 C 
HETATM    7  C24 UNL     1      -1.259  -0.676   1.498  1.00  0.00     0.214 C 
ENDROOT
BRANCH   1   8
HETATM    8  O1  UNL     1      -1.131   0.889  -0.372  1.00  0.00    -0.350 OA
BRANCH   8   9
HETATM    9  C5  UNL     1      -2.278   1.553  -0.341  1.00  0.00     0.175 C 
BRANCH   9  10
HETATM   10  C4  UNL     1      -2.029   2.915  -1.038  1.00  0.00     0.053 C 
BRANCH  10  11
HETATM   11  C3  UNL     1      -3.286   3.714  -1.037  1.00  0.00    -0.029 C 
HETATM   12  C2  UNL     1      -3.405   4.890  -0.469  1.00  0.00    -0.035 C 
HETATM   13  C1  UNL     1      -2.259   5.498   0.221  1.00  0.00     0.036 C 
ENDBRANCH  10  11
ENDBRANCH   9  10
ENDBRANCH   8   9
ENDBRANCH   1   8
BRANCH   1  14
HETATM   14  O2  UNL     1       0.399  -0.701  -0.133  1.00  0.00    -0.339 OA
BRANCH  14  15
HETATM   15  C7  UNL     1       1.362   0.067   0.432  1.00  0.00     0.199 C 
HETATM   16  C8  UNL     1       2.233  -0.705   1.337  1.00  0.00     0.226 C 
HETATM   17  O3  UNL     1       2.922   0.075   2.266  1.00  0.00    -0.227 OA
HETATM   18  C15 UNL     1       3.338  -1.507   0.756  1.00  0.00     0.220 C 
HETATM   19  O4  UNL     1       4.132   0.245   1.906  1.00  0.00    -0.195 OA
HETATM   20  C9  UNL     1       4.450  -0.496   0.807  1.00  0.00     0.249 C 
HETATM   21  O6  UNL     1       4.417   0.190  -0.380  1.00  0.00    -0.315 OA
HETATM   22  C11 UNL     1       3.524   1.244  -0.240  1.00  0.00     0.299 C 
HETATM   23  C13 UNL     1       2.108   0.905  -0.592  1.00  0.00     0.132 C 
HETATM   24  C14 UNL     1       2.091   0.322  -1.972  1.00  0.00     0.054 C 
BRANCH  20  25
HETATM   25  C10 UNL     1       5.808  -1.132   1.033  1.00  0.00     0.238 C 
BRANCH  25  26
HETATM   26  O5  UNL     1       5.799  -1.958   2.150  1.00  0.00    -0.395 OA
ATOM     27  H5  UNL     1       6.650  -2.356   2.292  1.00  0.00     0.209 HD
ENDBRANCH  25  26
ENDBRANCH  20  25
BRANCH  22  28
HETATM   28  O7  UNL     1       3.922   2.162  -1.248  1.00  0.00    -0.363 OA
HETATM   29  C12 UNL     1       4.279   3.373  -0.676  1.00  0.00     0.204 C 
ENDBRANCH  22  28
BRANCH  23  30
HETATM   30  O8  UNL     1       1.494   2.181  -0.712  1.00  0.00    -0.382 OA
ATOM     31  H8  UNL     1       1.961   2.705  -1.352  1.00  0.00     0.210 HD
ENDBRANCH  23  30
BRANCH  18  32
HETATM   32  O9  UNL     1       3.138  -2.144  -0.409  1.00  0.00    -0.387 OA
ATOM     33  H9  UNL     1       3.845  -2.657  -0.781  1.00  0.00     0.210 HD
ENDBRANCH  18  32
ENDBRANCH  14  15
ENDBRANCH   1  14
BRANCH   2  34
HETATM   34  O10 UNL     1      -1.926  -0.560  -2.110  1.00  0.00    -0.308 OA
BRANCH  34  35
HETATM   35  C17 UNL     1      -1.433  -1.014  -3.303  1.00  0.00     0.255 C 
HETATM   36  C18 UNL     1      -1.620  -0.326  -4.600  1.00  0.00     0.126 C 
HETATM   37  O11 UNL     1      -0.775  -2.088  -3.307  1.00  0.00    -0.266 OA
ENDBRANCH  34  35
ENDBRANCH   2  34
BRANCH   7  38
HETATM   38  O14 UNL     1      -2.353   0.010   2.054  1.00  0.00    -0.387 OA
ATOM     39  H14 UNL     1      -2.551  -0.190   2.961  1.00  0.00     0.210 HD
ENDBRANCH   7  38
BRANCH   6  40
HETATM   40  O13 UNL     1      -0.582  -2.943   1.020  1.00  0.00    -0.390 OA
ATOM     41  H13 UNL     1       0.319  -2.655   1.109  1.00  0.00     0.210 HD
ENDBRANCH   6  40
BRANCH   5  42
HETATM   42  C21 UNL     1      -3.087  -3.884   2.385  1.00  0.00     0.030 C 
HETATM   43  C22 UNL     1      -4.468  -4.389   2.019  1.00  0.00     0.007 C 
ENDBRANCH   5  42
TORSDOF 16
