REMARK  14 active torsions:
REMARK  status: ('A' for Active; 'I' for Inactive)
REMARK    1  A    between atoms: N1_1  and  C1_4 
REMARK    2  A    between atoms: C2_7  and  N3_8 
REMARK    3  A    between atoms: C4_14  and  C5_15 
REMARK    4  A    between atoms: C5_15  and  N5_16 
REMARK    5  A    between atoms: N5_16  and  C6_17 
REMARK    6  A    between atoms: N5_16  and  C12_25 
REMARK    7  A    between atoms: C6_17  and  C7_18 
REMARK    8  A    between atoms: C7_18  and  N6_19 
REMARK    9  A    between atoms: C12_25  and  C13_26 
REMARK   10  A    between atoms: N7_28  and  C15_29 
REMARK   11  A    between atoms: C16_31  and  C17_32 
REMARK   12  A    between atoms: C17_32  and  O3_33 
REMARK   13  A    between atoms: N8_36  and  N9_37 
REMARK   14  A    between atoms: N9_37  and  O4_39 
ROOT
HETATM    1  N5  UNL     1      -0.667  -0.468   0.587  1.00  0.00    -0.379 N 
ENDROOT
BRANCH   1   2
HETATM    2  C5  UNL     1      -0.868   0.584  -0.274  1.00  0.00     0.117 C 
BRANCH   2   3
HETATM    3  C4  UNL     1      -1.844   1.625   0.045  1.00  0.00     0.063 A 
HETATM    4  N4  UNL     1      -2.480   2.261  -0.953  1.00  0.00    -0.348 N 
HETATM    5  C3  UNL     1      -3.394   3.224  -0.731  1.00  0.00     0.122 A 
ATOM      6  H4  UNL     1      -2.262   2.004  -1.916  1.00  0.00     0.166 HD
HETATM    7  C2  UNL     1      -4.070   3.885  -1.740  1.00  0.00     0.145 A 
HETATM    8  C23 UNL     1      -3.699   3.585   0.577  1.00  0.00     0.151 A 
HETATM    9  N2  UNL     1      -4.983   4.837  -1.481  1.00  0.00    -0.175 N 
HETATM   10  C1  UNL     1      -5.276   5.183  -0.217  1.00  0.00     0.679 A 
ATOM     11  H2  UNL     1      -5.459   5.302  -2.254  1.00  0.00     0.186 HD
HETATM   12  N11 UNL     1      -4.621   4.544   0.775  1.00  0.00    -0.174 N 
ATOM     13  H11 UNL     1      -4.839   4.805   1.737  1.00  0.00     0.186 HD
HETATM   14  N10 UNL     1      -3.071   2.959   1.587  1.00  0.00    -0.348 N 
HETATM   15  C22 UNL     1      -2.149   1.984   1.333  1.00  0.00     0.120 A 
ATOM     16  H10 UNL     1      -3.285   3.214   2.551  1.00  0.00     0.167 HD
BRANCH   7  17
HETATM   17  N3  UNL     1      -3.835   3.603  -2.978  1.00  0.00    -0.383 N 
ATOM     18  H32 UNL     1      -4.334   4.091  -3.722  1.00  0.00     0.157 HD
ATOM     19  H31 UNL     1      -3.142   2.881  -3.175  1.00  0.00     0.157 HD
ENDBRANCH   7  17
BRANCH  10  20
HETATM   20  N1  UNL     1      -6.155   6.084   0.051  1.00  0.00    -0.234 N 
ATOM     21  H12 UNL     1      -6.650   6.567  -0.699  1.00  0.00     0.174 HD
ATOM     22  H11 UNL     1      -6.378   6.347   1.011  1.00  0.00     0.174 HD
ENDBRANCH  10  20
ENDBRANCH   2   3
ENDBRANCH   1   2
BRANCH   1  23
HETATM   23  C6  UNL     1      -1.706  -1.347   0.965  1.00  0.00     0.167 C 
BRANCH  23  24
HETATM   24  C7  UNL     1      -2.118  -2.181  -0.249  1.00  0.00     0.078 C 
BRANCH  24  25
HETATM   25  N6  UNL     1      -3.092  -3.150  -0.018  1.00  0.00    -0.388 N 
HETATM   26  C8  UNL     1      -4.411  -2.808   0.311  1.00  0.00     0.148 C 
HETATM   27  C9  UNL     1      -4.849  -3.746   1.457  1.00  0.00     0.187 C 
HETATM   28  O1  UNL     1      -4.965  -5.060   1.000  1.00  0.00    -0.388 OA
HETATM   29  C10 UNL     1      -3.780  -5.484   0.439  1.00  0.00     0.187 C 
HETATM   30  C11 UNL     1      -2.691  -4.432   0.425  1.00  0.00     0.148 C 
ENDBRANCH  24  25
ENDBRANCH  23  24
ENDBRANCH   1  23
BRANCH   1  31
HETATM   31  C12 UNL     1       0.544  -0.622   1.327  1.00  0.00     0.165 C 
BRANCH  31  32
HETATM   32  C13 UNL     1       1.711  -0.536   0.408  1.00  0.00     0.013 A 
HETATM   33  C14 UNL     1       2.841   0.263   0.621  1.00  0.00     0.109 A 
HETATM   34  N7  UNL     1       3.738   0.058  -0.355  1.00  0.00    -0.289 N 
HETATM   35  C19 UNL     1       3.208  -0.857  -1.200  1.00  0.00     0.185 A 
HETATM   36  C20 UNL     1       1.960  -1.229  -0.736  1.00  0.00     0.132 A 
HETATM   37  O6  UNL     1       3.452  -1.581  -2.392  1.00  0.00    -0.307 OA
HETATM   38  O5  UNL     1       1.475  -2.157  -1.632  1.00  0.00    -0.321 OA
HETATM   39  C21 UNL     1       2.226  -2.106  -2.849  1.00  0.00     0.353 C 
BRANCH  34  40
HETATM   40  C15 UNL     1       5.068   0.625  -0.543  1.00  0.00     0.356 C 
HETATM   41  O2  UNL     1       5.355   1.530   0.459  1.00  0.00    -0.338 OA
HETATM   42  C16 UNL     1       6.640   1.378   0.906  1.00  0.00     0.169 C 
HETATM   43  C18 UNL     1       7.241   0.194   0.165  1.00  0.00     0.183 C 
HETATM   44  N8  UNL     1       6.080  -0.384  -0.440  1.00  0.00    -0.259 N 
BRANCH  42  45
HETATM   45  C17 UNL     1       7.468   2.584   0.494  1.00  0.00     0.197 C 
BRANCH  45  46
HETATM   46  O3  UNL     1       6.983   3.771   1.013  1.00  0.00    -0.398 OA
ATOM     47  H3  UNL     1       7.501   4.525   0.755  1.00  0.00     0.209 HD
ENDBRANCH  45  46
ENDBRANCH  42  45
BRANCH  44  48
HETATM   48  N9  UNL     1       5.973  -1.701  -0.851  1.00  0.00    -0.209 N 
ATOM     49  H9  UNL     1       6.127  -1.937  -1.831  1.00  0.00     0.215 HD
BRANCH  48  50
HETATM   50  O4  UNL     1       5.686  -2.616  -0.026  1.00  0.00    -0.274 OA
ATOM     51  H4  UNL     1       5.613  -3.520  -0.308  1.00  0.00     0.246 HD
ENDBRANCH  48  50
ENDBRANCH  44  48
ENDBRANCH  34  40
ENDBRANCH  31  32
ENDBRANCH   1  31
TORSDOF 14
