REMARK  4 active torsions:
REMARK  status: ('A' for Active; 'I' for Inactive)
REMARK    1  A    between atoms: C2_2  and  C3_3 
REMARK    2  A    between atoms: C3_3  and  N1_4 
REMARK    3  A    between atoms: N1_4  and  C4_7 
REMARK    4  A    between atoms: C4_7  and  C5_8 
ROOT
HETATM    1  C5  UNL     1      -1.449   0.675   0.099  1.00  0.00     0.237 C 
HETATM    2  C6  UNL     1      -1.835   0.319  -1.288  1.00  0.00     0.204 C 
HETATM    3  O1  UNL     1      -2.915  -0.529  -1.196  1.00  0.00    -0.362 OA
HETATM    4  C7  UNL     1      -3.639   0.084  -0.154  1.00  0.00     0.399 C 
HETATM    5  N2  UNL     1      -2.623   0.189   0.881  1.00  0.00    -0.046 N 
ATOM      6  H21 UNL     1      -2.878   0.763   1.684  1.00  0.00     0.280 HD
ATOM      7  H22 UNL     1      -2.464  -0.661   1.422  1.00  0.00     0.280 HD
ENDROOT
BRANCH   1   8
HETATM    8  C4  UNL     1      -0.241  -0.034   0.648  1.00  0.00     0.267 C 
BRANCH   8   9
HETATM    9  N1  UNL     1       0.954   0.151  -0.137  1.00  0.00    -0.070 N 
ATOM     10  H12 UNL     1       1.101   1.124  -0.406  1.00  0.00     0.277 HD
ATOM     11  H11 UNL     1       0.873  -0.241  -1.075  1.00  0.00     0.277 HD
BRANCH   9  12
HETATM   12  C3  UNL     1       2.065  -0.396   0.600  1.00  0.00     0.259 C 
BRANCH  12  13
HETATM   13  C2  UNL     1       3.303  -0.555  -0.210  1.00  0.00    -0.010 C 
HETATM   14  C1  UNL     1       4.393   0.085   0.138  1.00  0.00     0.008 C 
ENDBRANCH  12  13
ENDBRANCH   9  12
ENDBRANCH   8   9
ENDBRANCH   1   8
TORSDOF 4
