REMARK  6 active torsions:
REMARK  status: ('A' for Active; 'I' for Inactive)
REMARK    1  A    between atoms: C4_4  and  C5_5 
REMARK    2  A    between atoms: C5_5  and  S1_6 
REMARK    3  A    between atoms: S1_6  and  N1_9 
REMARK    4  A    between atoms: C15_20  and  N2_21 
REMARK    5  A    between atoms: N2_21  and  S2_23 
REMARK    6  A    between atoms: S2_23  and  C16_26 
ROOT
HETATM    1  C1  UNL     1       1.841  -3.539  -2.440  1.00  0.00     0.010 C 
HETATM    2  C2  UNL     1       1.292  -3.104  -1.087  1.00  0.00    -0.014 C 
HETATM    3  C3  UNL     1       0.255  -2.011  -1.247  1.00  0.00     0.017 C 
HETATM    4  C4  UNL     1       0.290  -1.135  -0.025  1.00  0.00    -0.004 C 
HETATM    5  C11 UNL     1       0.467  -2.217   1.126  1.00  0.00     0.013 C 
HETATM    6  C12 UNL     1       1.879  -2.652   1.203  1.00  0.00     0.006 C 
HETATM    7  C13 UNL     1       2.445  -2.618  -0.213  1.00  0.00    -0.009 C 
HETATM    8  C14 UNL     1       2.740  -1.162  -0.509  1.00  0.00     0.031 C 
HETATM    9  C15 UNL     1       1.553  -0.356   0.030  1.00  0.00     0.102 C 
ENDROOT
BRANCH   4  10
HETATM   10  C5  UNL     1      -0.953  -0.471   0.333  1.00  0.00     0.175 C 
BRANCH  10  11
HETATM   11  S1  UNL     1      -1.819   0.579  -0.708  1.00  0.00     0.235 S 
HETATM   12  O1  UNL     1      -1.095   1.810  -1.139  1.00  0.00    -0.205 OA
HETATM   13  O2  UNL     1      -2.339  -0.041  -1.975  1.00  0.00    -0.205 OA
BRANCH  11  14
HETATM   14  N1  UNL     1      -3.266   1.167   0.080  1.00  0.00    -0.245 N 
HETATM   15  C6  UNL     1      -4.252   0.208   0.504  1.00  0.00     0.144 C 
HETATM   16  C7  UNL     1      -5.595   0.644   0.004  1.00  0.00     0.022 C 
HETATM   17  C8  UNL     1      -5.917   2.077   0.243  1.00  0.00     0.011 C 
HETATM   18  C9  UNL     1      -4.847   2.881   0.899  1.00  0.00     0.104 C 
HETATM   19  C10 UNL     1      -3.513   2.537   0.319  1.00  0.00     0.233 C 
HETATM   20  O3  UNL     1      -2.636   3.394   0.048  1.00  0.00    -0.272 OA
ENDBRANCH  11  14
ENDBRANCH  10  11
ENDBRANCH   4  10
BRANCH   9  21
HETATM   21  N2  UNL     1       1.625   0.906  -0.589  1.00  0.00    -0.314 N 
ATOM     22  H2  UNL     1       1.402   1.054  -1.573  1.00  0.00     0.172 HD
BRANCH  21  23
HETATM   23  S2  UNL     1       2.123   2.178   0.460  1.00  0.00     0.231 S 
HETATM   24  O4  UNL     1       1.161   2.431   1.566  1.00  0.00    -0.206 OA
HETATM   25  O5  UNL     1       2.222   3.445  -0.361  1.00  0.00    -0.206 OA
BRANCH  23  26
HETATM   26  C16 UNL     1       3.755   1.808   1.047  1.00  0.00     0.129 A 
HETATM   27  C17 UNL     1       4.624   3.008   1.315  1.00  0.00     0.023 A 
HETATM   28  C18 UNL     1       4.925   2.179   0.109  1.00  0.00     0.023 A 
ENDBRANCH  23  26
ENDBRANCH  21  23
ENDBRANCH   9  21
TORSDOF 6
