REMARK  9 active torsions:
REMARK  status: ('A' for Active; 'I' for Inactive)
REMARK    1  A    between atoms: C4_4  and  N1_5 
REMARK    2  A    between atoms: C5_7  and  O1_8 
REMARK    3  A    between atoms: C5_7  and  C6_10 
REMARK    4  A    between atoms: C6_10  and  S1_11 
REMARK    5  A    between atoms: S1_11  and  C7_12 
REMARK    6  A    between atoms: C8_17  and  S2_18 
REMARK    7  A    between atoms: S2_18  and  C9_19 
REMARK    8  A    between atoms: C9_19  and  C10_20 
REMARK    9  A    between atoms: C11_23  and  C12_24 
ROOT
HETATM    1  C10 UNL     1       4.762   0.529  -0.606  1.00  0.00     0.042 A 
HETATM    2  N4  UNL     1       5.400   1.682  -0.662  1.00  0.00    -0.352 N 
ATOM      3  H4  UNL     1       5.025   2.540  -1.067  1.00  0.00     0.166 HD
HETATM    4  C11 UNL     1       6.628   1.557  -0.101  1.00  0.00     0.140 A 
HETATM    5  C13 UNL     1       6.788   0.220   0.302  1.00  0.00     0.088 A 
HETATM    6 CL1  UNL     1       8.206  -0.480   1.000  1.00  0.00    -0.080 Cl
HETATM    7  C14 UNL     1       5.629  -0.368  -0.057  1.00  0.00     0.091 A 
HETATM    8  C15 UNL     1       5.328  -1.780   0.109  1.00  0.00     0.103 C 
HETATM    9  N5  UNL     1       5.157  -2.920   0.140  1.00  0.00    -0.191 NA
ENDROOT
BRANCH   1  10
HETATM   10  C9  UNL     1       3.263   0.478  -0.744  1.00  0.00     0.141 C 
BRANCH  10  11
HETATM   11  S2  UNL     1       2.580  -1.129  -0.677  1.00  0.00    -0.079 SA
BRANCH  11  12
HETATM   12  C8  UNL     1       0.963  -1.084   0.141  1.00  0.00     0.204 A 
HETATM   13  N3  UNL     1       0.257   0.019   0.519  1.00  0.00    -0.272 N 
HETATM   14  N2  UNL     1      -0.849  -0.308   1.135  1.00  0.00    -0.272 N 
ATOM     15  H3  UNL     1       0.554   0.979   0.343  1.00  0.00     0.189 HD
HETATM   16  C7  UNL     1      -0.886  -1.669   1.135  1.00  0.00     0.204 A 
ATOM     17  H2  UNL     1      -1.542   0.326   1.534  1.00  0.00     0.189 HD
HETATM   18  O2  UNL     1       0.222  -2.053   0.530  1.00  0.00    -0.262 OA
BRANCH  16  19
HETATM   19  S1  UNL     1      -2.139  -2.743   1.783  1.00  0.00    -0.077 SA
BRANCH  19  20
HETATM   20  C6  UNL     1      -3.277  -3.210   0.420  1.00  0.00     0.167 C 
BRANCH  20  21
HETATM   21  C5  UNL     1      -4.629  -2.895   0.801  1.00  0.00     0.126 C 
HETATM   22  N1  UNL     1      -5.089  -1.657   1.074  1.00  0.00    -0.325 N 
ATOM     23  H1  UNL     1      -5.145  -1.447   2.071  1.00  0.00     0.169 HD
BRANCH  22  24
HETATM   24  C4  UNL     1      -5.467  -0.701   0.322  1.00  0.00     0.129 A 
HETATM   25  C3  UNL     1      -5.969   0.533   0.858  1.00  0.00     0.084 A 
HETATM   26  C2  UNL     1      -6.290   1.314  -0.245  1.00  0.00     0.076 A 
HETATM   27  C1  UNL     1      -6.803   2.690  -0.068  1.00  0.00     0.079 C 
HETATM   28  O3  UNL     1      -5.995   0.607  -1.292  1.00  0.00    -0.241 OA
HETATM   29  N6  UNL     1      -5.510  -0.515  -1.023  1.00  0.00    -0.245 N 
ATOM     30  H6  UNL     1      -5.192  -1.193  -1.715  1.00  0.00     0.196 HD
ENDBRANCH  22  24
BRANCH  21  31
HETATM   31  O1  UNL     1      -5.454  -3.935   0.891  1.00  0.00    -0.349 OA
ATOM     32  H1  UNL     1      -5.130  -4.807   0.699  1.00  0.00     0.219 HD
ENDBRANCH  21  31
ENDBRANCH  20  21
ENDBRANCH  19  20
ENDBRANCH  16  19
ENDBRANCH  11  12
ENDBRANCH  10  11
ENDBRANCH   1  10
BRANCH   4  33
HETATM   33  C12 UNL     1       7.549   2.645   0.361  1.00  0.00     0.434 C 
HETATM   34  F1  UNL     1       8.869   2.322   0.262  1.00  0.00    -0.165 F 
HETATM   35  F2  UNL     1       7.075   2.844   1.690  1.00  0.00    -0.165 F 
HETATM   36  F3  UNL     1       7.212   3.840  -0.310  1.00  0.00    -0.165 F 
ENDBRANCH   4  33
TORSDOF 9
