REMARK  1 active torsions:
REMARK  status: ('A' for Active; 'I' for Inactive)
REMARK    1  A    between atoms: S1_2  and  C2_3 
ROOT
HETATM    1  C2  UNL     1       1.260  -0.682   0.994  1.00  0.00     0.171 C 
HETATM    2  N1  UNL     1       0.791  -1.945   1.449  1.00  0.00    -0.124 NA
HETATM    3  N2  UNL     1      -0.594  -1.883   1.562  1.00  0.00    -0.292 N 
ATOM      4  H2  UNL     1      -1.168  -2.617   1.977  1.00  0.00     0.183 HD
HETATM    5  C3  UNL     1      -1.059  -0.792   1.082  1.00  0.00     0.095 C 
HETATM    6  N3  UNL     1      -2.366  -0.205   0.932  1.00  0.00    -0.379 N 
ATOM      7  H3  UNL     1      -3.161  -0.472   1.513  1.00  0.00     0.160 HD
HETATM    8  C4  UNL     1      -2.460   0.802  -0.119  1.00  0.00     0.121 C 
HETATM    9  C5  UNL     1      -1.635   0.240  -1.285  1.00  0.00     0.020 C 
HETATM   10  C6  UNL     1      -0.168   0.117  -0.935  1.00  0.00     0.016 C 
HETATM   11  C7  UNL     1       0.055   0.046   0.562  1.00  0.00     0.085 C 
ENDROOT
BRANCH   1  12
HETATM   12  S1  UNL     1       2.539  -0.801  -0.276  1.00  0.00    -0.149 SA
HETATM   13  C1  UNL     1       3.004   0.897  -0.722  1.00  0.00     0.091 C 
ENDBRANCH   1  12
TORSDOF 1
