REMARK  6 active torsions:
REMARK  status: ('A' for Active; 'I' for Inactive)
REMARK    1  A    between atoms: C3_3  and  C4_4 
REMARK    2  A    between atoms: C4_4  and  O1_5 
REMARK    3  A    between atoms: C8_11  and  C9_12 
REMARK    4  A    between atoms: C9_12  and  C10_13 
REMARK    5  A    between atoms: C10_13  and  O3_14 
REMARK    6  A    between atoms: N1_18  and  C12_19 
ROOT
HETATM    1  C10 UNL     1       0.044  -0.195  -0.663  1.00  0.00     0.145 C 
HETATM    2  C11 UNL     1       1.201  -1.079  -0.454  1.00  0.00     0.255 C 
HETATM    3  O4  UNL     1       1.168  -2.327  -0.428  1.00  0.00    -0.270 OA
HETATM    4  N1  UNL     1       2.335  -0.248  -0.291  1.00  0.00    -0.344 N 
HETATM    5  C18 UNL     1       1.970   1.135  -0.524  1.00  0.00     0.134 C 
HETATM    6  C19 UNL     1       0.450   1.190  -0.351  1.00  0.00     0.044 C 
HETATM    7  C20 UNL     1       0.101   1.727   0.980  1.00  0.00     0.015 C 
ENDROOT
BRANCH   1   8
HETATM    8  C9  UNL     1      -1.115  -0.745   0.134  1.00  0.00     0.085 C 
BRANCH   8   9
HETATM    9  C8  UNL     1      -2.392   0.021  -0.155  1.00  0.00     0.154 C 
HETATM   10  C2  UNL     1      -3.485  -0.611   0.685  1.00  0.00    -0.051 C 
HETATM   11  C1  UNL     1      -3.131  -1.276   1.940  1.00  0.00     0.046 C 
HETATM   12  C3  UNL     1      -4.715  -0.558   0.263  1.00  0.00    -0.050 C 
HETATM   13  C5  UNL     1      -5.002   0.158  -1.019  1.00  0.00     0.068 C 
HETATM   14  C6  UNL     1      -3.847   0.256  -1.944  1.00  0.00     0.122 C 
HETATM   15  C7  UNL     1      -3.699   1.698  -2.459  1.00  0.00     0.040 C 
HETATM   16  O2  UNL     1      -2.673  -0.248  -1.487  1.00  0.00    -0.376 OA
BRANCH  12  17
HETATM   17  C4  UNL     1      -5.844  -1.150   0.988  1.00  0.00     0.198 C 
BRANCH  17  18
HETATM   18  O1  UNL     1      -6.400  -2.103   0.089  1.00  0.00    -0.397 OA
ATOM     19  H1  UNL     1      -7.131  -2.486   0.559  1.00  0.00     0.209 HD
ENDBRANCH  17  18
ENDBRANCH  12  17
ENDBRANCH   8   9
ENDBRANCH   1   8
BRANCH   1  20
HETATM   20  O3  UNL     1      -0.321  -0.335  -2.021  1.00  0.00    -0.380 OA
ATOM     21  H3  UNL     1       0.408   0.011  -2.522  1.00  0.00     0.211 HD
ENDBRANCH   1  20
BRANCH   4  22
HETATM   22  C12 UNL     1       3.652  -0.735   0.058  1.00  0.00     0.087 C 
HETATM   23  C13 UNL     1       4.173  -0.062   1.317  1.00  0.00     0.025 C 
HETATM   24  C14 UNL     1       5.284   0.900   0.961  1.00  0.00     0.002 C 
HETATM   25  C15 UNL     1       6.459   0.081   0.471  1.00  0.00     0.000 C 
HETATM   26  C16 UNL     1       6.028  -0.744  -0.701  1.00  0.00     0.002 C 
HETATM   27  C17 UNL     1       4.594  -0.458  -1.120  1.00  0.00     0.025 C 
ENDBRANCH   4  22
TORSDOF 6
