REMARK  5 active torsions:
REMARK  status: ('A' for Active; 'I' for Inactive)
REMARK    1  A    between atoms: C2_2  and  O1_3 
REMARK    2  A    between atoms: O1_3  and  C3_4 
REMARK    3  A    between atoms: N1_10  and  C9_11 
REMARK    4  A    between atoms: C9_11  and  C10_12 
REMARK    5  A    between atoms: C16_19  and  N2_20 
ROOT
HETATM    1  C3  UNL     1       2.757   0.690   0.591  1.00  0.00     0.122 C 
HETATM    2  C4  UNL     1       1.702   1.391   1.350  1.00  0.00     0.033 C 
HETATM    3  C5  UNL     1       0.296   1.286   0.909  1.00  0.00     0.015 C 
HETATM    4  C6  UNL     1       0.073   0.097  -0.007  1.00  0.00     0.002 C 
HETATM    5  C7  UNL     1       0.108   0.641  -1.389  1.00  0.00     0.043 C 
HETATM    6  C8  UNL     1      -1.319   1.153  -1.551  1.00  0.00     0.273 C 
HETATM    7  N1  UNL     1      -1.989   0.858  -0.240  1.00  0.00     0.094 N 
HETATM    8  C13 UNL     1      -1.351  -0.381  -0.027  1.00  0.00     0.237 C 
HETATM    9  C14 UNL     1      -1.606  -1.352   1.000  1.00  0.00     0.085 C 
HETATM   10  C15 UNL     1      -0.750  -2.538   0.530  1.00  0.00     0.011 A 
HETATM   11  S1  UNL     1      -0.946  -4.197   0.223  1.00  0.00    -0.057 SA
HETATM   12  C16 UNL     1       0.641  -4.548  -0.297  1.00  0.00     0.142 A 
HETATM   13  N3  UNL     1       1.250  -3.370  -0.209  1.00  0.00    -0.339 N 
ATOM     14  H3  UNL     1       2.234  -3.277  -0.463  1.00  0.00     0.168 HD
HETATM   15  C17 UNL     1       0.577  -2.336   0.205  1.00  0.00     0.029 A 
HETATM   16  C18 UNL     1       1.006  -0.921   0.412  1.00  0.00     0.050 C 
HETATM   17  C19 UNL     1       2.349  -0.570  -0.128  1.00  0.00     0.043 C 
ENDROOT
BRANCH   7  18
HETATM   18  C9  UNL     1      -3.384   0.610  -0.597  1.00  0.00     0.277 C 
BRANCH  18  19
HETATM   19  C10 UNL     1      -4.302   0.544   0.594  1.00  0.00     0.014 A 
HETATM   20  C11 UNL     1      -5.763   0.262   0.271  1.00  0.00     0.007 A 
HETATM   21  C12 UNL     1      -5.348   1.648   0.692  1.00  0.00     0.007 A 
ENDBRANCH  18  19
ENDBRANCH   7  18
BRANCH   1  22
HETATM   22  O1  UNL     1       3.416   1.498  -0.331  1.00  0.00    -0.386 OA
BRANCH  22  23
HETATM   23  C2  UNL     1       4.773   1.632  -0.043  1.00  0.00     0.163 C 
HETATM   24  C1  UNL     1       5.483   2.500  -1.039  1.00  0.00     0.033 C 
ENDBRANCH  22  23
ENDBRANCH   1  22
BRANCH  12  25
HETATM   25  N2  UNL     1       1.136  -5.699  -0.692  1.00  0.00    -0.380 N 
ATOM     26  H22 UNL     1       0.669  -6.603  -0.760  1.00  0.00     0.158 HD
ATOM     27  H21 UNL     1       2.085  -5.909  -1.003  1.00  0.00     0.158 HD
ENDBRANCH  12  25
TORSDOF 5
