REMARK  5 active torsions:
REMARK  status: ('A' for Active; 'I' for Inactive)
REMARK    1  A    between atoms: C2_2  and  C3_6 
REMARK    2  A    between atoms: C4_7  and  C5_8 
REMARK    3  A    between atoms: C7_11  and  C8_12 
REMARK    4  A    between atoms: C8_12  and  N3_13 
REMARK    5  A    between atoms: N3_13  and  C9_16 
ROOT
HETATM    1  C5  UNL     1       2.982  -0.268  -0.078  1.00  0.00     0.480 C 
HETATM    2  N2  UNL     1       2.047   0.752   0.262  1.00  0.00     0.130 N 
HETATM    3  C6  UNL     1       2.583   2.083   0.244  1.00  0.00     0.314 C 
HETATM    4  C7  UNL     1       0.981   0.701  -0.735  1.00  0.00     0.284 C 
HETATM    5  C19 UNL     1       1.277  -0.539  -1.543  1.00  0.00     0.261 C 
HETATM    6  C20 UNL     1       0.812  -1.813  -0.917  1.00  0.00     0.040 C 
HETATM    7  C21 UNL     1       1.782  -2.831  -1.477  1.00  0.00     0.033 C 
HETATM    8  C22 UNL     1       3.051  -2.053  -1.668  1.00  0.00     0.276 C 
HETATM    9  N4  UNL     1       2.715  -0.647  -1.454  1.00  0.00     0.133 N 
ENDROOT
BRANCH   4  10
HETATM   10  C8  UNL     1      -0.325   0.604   0.029  1.00  0.00     0.271 C 
BRANCH  10  11
HETATM   11  N3  UNL     1      -1.393   0.561  -0.929  1.00  0.00    -0.064 N 
ATOM     12  H32 UNL     1      -1.378   1.396  -1.515  1.00  0.00     0.278 HD
ATOM     13  H31 UNL     1      -1.208  -0.152  -1.634  1.00  0.00     0.278 HD
BRANCH  11  14
HETATM   14  C9  UNL     1      -2.707   0.373  -0.357  1.00  0.00     0.127 C 
HETATM   15  C10 UNL     1      -2.768  -1.004   0.319  1.00  0.00     0.043 C 
HETATM   16  C11 UNL     1      -4.158  -1.236   0.824  1.00  0.00    -0.012 C 
HETATM   17  C12 UNL     1      -4.498  -0.200   1.879  1.00  0.00     0.009 C 
HETATM   18  C16 UNL     1      -5.141  -1.174  -0.294  1.00  0.00     0.009 C 
HETATM   19  C13 UNL     1      -4.393   1.161   1.248  1.00  0.00    -0.012 C 
HETATM   20  C14 UNL     1      -5.387   1.283   0.114  1.00  0.00     0.009 C 
HETATM   21  C18 UNL     1      -3.003   1.360   0.743  1.00  0.00     0.043 C 
HETATM   22  C15 UNL     1      -5.099   0.220  -0.902  1.00  0.00    -0.012 C 
HETATM   23  C17 UNL     1      -3.712   0.403  -1.457  1.00  0.00     0.043 C 
ENDBRANCH  11  14
ENDBRANCH  10  11
ENDBRANCH   4  10
BRANCH   1  24
HETATM   24  C4  UNL     1       4.387   0.025   0.193  1.00  0.00     0.042 C 
HETATM   25  C3  UNL     1       4.739   0.508   1.366  1.00  0.00     0.024 C 
BRANCH  25  26
HETATM   26  C2  UNL     1       6.149   0.800   1.635  1.00  0.00    -0.002 C 
HETATM   27  C1  UNL     1       7.151   0.504   0.585  1.00  0.00     0.067 C 
HETATM   28  N1  UNL     1       6.468   1.289   2.782  1.00  0.00    -0.403 N 
ATOM     29  H12 UNL     1       7.450   1.492   2.969  1.00  0.00     0.156 HD
ATOM     30  H11 UNL     1       5.778   1.493   3.505  1.00  0.00     0.156 HD
ENDBRANCH  25  26
ENDBRANCH   1  24
TORSDOF 5
