REMARK  4 active torsions:
REMARK  status: ('A' for Active; 'I' for Inactive)
REMARK    1  A    between atoms: C2_2  and  C4_4 
REMARK    2  A    between atoms: C4_4  and  C5_5 
REMARK    3  A    between atoms: C5_5  and  N1_6 
REMARK       I    between atoms: N2_11  and  C10_12 
REMARK    4  A    between atoms: C10_12  and  C11_14 
ROOT
HETATM    1  C5  UNL     1      -3.059  -0.379   0.583  1.00  0.00     0.030 C 
HETATM    2  C8  UNL     1      -2.230   0.065  -0.583  1.00  0.00     0.050 C 
HETATM    3  C9  UNL     1      -0.963   0.781  -0.241  1.00  0.00     0.128 C 
HETATM    4  N2  UNL     1      -0.244   0.291   0.871  1.00  0.00    -0.350 N 
HETATM    5  C10 UNL     1       1.168   0.173   0.977  1.00  0.00     0.251 C 
HETATM    6  O1  UNL     1       1.698  -0.277   2.055  1.00  0.00    -0.271 OA
HETATM    7  C21 UNL     1      -1.022  -0.138   2.022  1.00  0.00     0.128 C 
HETATM    8  C22 UNL     1      -2.022  -1.105   1.491  1.00  0.00     0.050 C 
ENDROOT
BRANCH   5   9
HETATM    9  C11 UNL     1       2.112   0.543  -0.103  1.00  0.00     0.282 C 
HETATM   10  N3  UNL     1       3.461   0.344   0.375  1.00  0.00    -0.053 N 
HETATM   11  C12 UNL     1       4.240  -0.280  -0.644  1.00  0.00     0.131 C 
ATOM     12  H32 UNL     1       3.884   1.211   0.707  1.00  0.00     0.279 HD
ATOM     13  H31 UNL     1       3.486  -0.176   1.252  1.00  0.00     0.279 HD
HETATM   14  C13 UNL     1       5.138  -1.385  -0.075  1.00  0.00     0.039 C 
HETATM   15  C17 UNL     1       5.109   0.761  -1.298  1.00  0.00     0.039 C 
HETATM   16  C18 UNL     1       3.318  -0.932  -1.618  1.00  0.00     0.029 A 
HETATM   17  C14 UNL     1       6.564  -0.927   0.083  1.00  0.00     0.002 C 
HETATM   18  C15 UNL     1       6.556   0.440   0.720  1.00  0.00     0.000 C 
HETATM   19  C16 UNL     1       6.022   1.411  -0.309  1.00  0.00     0.002 C 
HETATM   20  C19 UNL     1       2.472  -0.152  -2.551  1.00  0.00     0.015 A 
HETATM   21  C20 UNL     1       1.980  -0.531  -1.181  1.00  0.00     0.033 A 
ENDBRANCH   5   9
BRANCH   1  22
HETATM   22  C4  UNL     1      -3.908  -1.538   0.157  1.00  0.00     0.034 C 
BRANCH  22  23
HETATM   23  C2  UNL     1      -5.044  -1.339  -0.735  1.00  0.00    -0.020 C 
HETATM   24  C1  UNL     1      -4.816  -0.767  -2.083  1.00  0.00     0.009 C 
HETATM   25  C3  UNL     1      -6.252  -0.650  -0.127  1.00  0.00     0.009 C 
ENDBRANCH  22  23
ENDBRANCH   1  22
BRANCH   1  26
HETATM   26  N1  UNL     1      -3.753   0.611   1.264  1.00  0.00    -0.412 N 
HETATM   27  C6  UNL     1      -4.376   0.406   2.494  1.00  0.00     0.143 C 
HETATM   28  C7  UNL     1      -3.605   1.977   0.953  1.00  0.00     0.143 C 
ENDBRANCH   1  26
TORSDOF 4
