REMARK  4 active torsions:
REMARK  status: ('A' for Active; 'I' for Inactive)
REMARK    1  A    between atoms: C1_2  and  C2_3 
REMARK       I    between atoms: C1_2  and  N1_10 
REMARK    2  A    between atoms: C2_3  and  C3_4 
REMARK    3  A    between atoms: C3_4  and  C4_5 
REMARK    4  A    between atoms: N1_10  and  C9_12 
ROOT
HETATM    1  O1  UNL     1      -1.138  -1.119  -0.784  1.00  0.00    -0.274 OA
HETATM    2  C1  UNL     1      -1.164  -0.663   0.375  1.00  0.00     0.217 C 
HETATM    3  N1  UNL     1      -2.367  -0.004   0.811  1.00  0.00    -0.354 N 
ATOM      4  H1  UNL     1      -2.439   0.387   1.750  1.00  0.00     0.163 HD
ENDROOT
BRANCH   2   5
HETATM    5  C2  UNL     1      -0.004  -0.791   1.271  1.00  0.00     0.103 C 
BRANCH   5   6
HETATM    6  C3  UNL     1       1.177  -1.309   0.510  1.00  0.00     0.014 C 
BRANCH   6   7
HETATM    7  C4  UNL     1       1.574  -0.306  -0.538  1.00  0.00    -0.014 C 
HETATM    8  C5  UNL     1       2.770  -0.848  -1.302  1.00  0.00     0.004 C 
HETATM    9  C6  UNL     1       3.458   0.437  -1.718  1.00  0.00     0.000 C 
HETATM   10  C7  UNL     1       3.381   1.258  -0.455  1.00  0.00     0.000 C 
HETATM   11  C8  UNL     1       2.096   0.904   0.220  1.00  0.00     0.004 C 
ENDBRANCH   6   7
ENDBRANCH   5   6
ENDBRANCH   2   5
BRANCH   3  12
HETATM   12  C9  UNL     1      -3.465   0.088  -0.114  1.00  0.00     0.121 A 
HETATM   13  C10 UNL     1      -4.461   1.179   0.027  1.00  0.00     0.067 A 
HETATM   14  C11 UNL     1      -4.808  -0.190   0.528  1.00  0.00     0.195 A 
HETATM   15  F1  UNL     1      -4.870  -0.423   1.886  1.00  0.00    -0.247 F 
ENDBRANCH   3  12
TORSDOF 4
