REMARK  1 active torsions:
REMARK  status: ('A' for Active; 'I' for Inactive)
REMARK    1  A    between atoms: C3_3  and  C4_4 
ROOT
HETATM    1  C1  UNL     1       3.103   1.908  -0.943  1.00  0.00     0.012 C 
HETATM    2  C2  UNL     1       2.254   1.077  -1.164  1.00  0.00    -0.115 C 
HETATM    3  C3  UNL     1       1.202   0.069  -1.415  1.00  0.00     0.133 C 
ENDROOT
BRANCH   3   4
HETATM    4  C4  UNL     1       0.302   0.075  -0.198  1.00  0.00     0.160 C 
HETATM    5  C5  UNL     1       1.188  -0.293   0.991  1.00  0.00     0.049 C 
HETATM    6  N1  UNL     1      -0.197   1.431  -0.048  1.00  0.00    -0.062 N 
HETATM    7  C6  UNL     1      -1.557   1.482   0.396  1.00  0.00     0.260 C 
ATOM      8  H12 UNL     1       0.407   1.975   0.568  1.00  0.00     0.278 HD
ATOM      9  H11 UNL     1      -0.076   1.961  -0.911  1.00  0.00     0.278 HD
HETATM   10  C7  UNL     1      -1.744   0.426   1.462  1.00  0.00     0.260 C 
HETATM   11  N2  UNL     1      -1.529  -0.901   0.970  1.00  0.00    -0.067 N 
HETATM   12  C8  UNL     1      -0.828  -0.905  -0.317  1.00  0.00     0.218 C 
ATOM     13  H22 UNL     1      -1.042  -1.476   1.658  1.00  0.00     0.277 HD
ATOM     14  H21 UNL     1      -2.405  -1.421   0.915  1.00  0.00     0.277 HD
HETATM   15  C9  UNL     1      -0.302  -2.284  -0.534  1.00  0.00     0.043 C 
ENDBRANCH   3   4
TORSDOF 1
