REMARK  11 active torsions:
REMARK  status: ('A' for Active; 'I' for Inactive)
REMARK       I    between atoms: C2_4  and  N2_5 
REMARK       I    between atoms: C2_4  and  N3_15 
REMARK    1  A    between atoms: N2_5  and  C3_7 
REMARK    2  A    between atoms: C3_7  and  C4_8 
REMARK    3  A    between atoms: C4_8  and  C5_9 
REMARK    4  A    between atoms: C5_9  and  C6_10 
REMARK    5  A    between atoms: N3_15  and  C11_17 
REMARK    6  A    between atoms: C17_23  and  N4_24 
REMARK       I    between atoms: N4_24  and  C18_26 
REMARK    7  A    between atoms: C18_26  and  C19_28 
REMARK    8  A    between atoms: C19_28  and  C20_29 
REMARK    9  A    between atoms: C20_29  and  C21_30 
REMARK   10  A    between atoms: C21_30  and  C22_31 
REMARK   11  A    between atoms: C22_31  and  N5_32 
ROOT
HETATM    1  C11 UNL     1      -0.880   1.145   0.300  1.00  0.00     0.105 C 
HETATM    2  C12 UNL     1      -1.766   2.301   0.630  1.00  0.00     0.026 C 
HETATM    3  C13 UNL     1      -1.346   3.402  -0.316  1.00  0.00     0.007 C 
HETATM    4  C14 UNL     1       0.120   3.166  -0.573  1.00  0.00    -0.006 C 
HETATM    5  C15 UNL     1       0.897   4.094   0.318  1.00  0.00     0.007 C 
HETATM    6  C16 UNL     1       1.356   3.258   1.484  1.00  0.00     0.026 C 
HETATM    7  C17 UNL     1       1.436   1.843   0.963  1.00  0.00     0.090 C 
HETATM    8  C26 UNL     1       0.419   1.762  -0.157  1.00  0.00     0.036 C 
ENDROOT
BRANCH   1   9
HETATM    9  N3  UNL     1      -1.447   0.355  -0.771  1.00  0.00    -0.222 N 
HETATM   10  C2  UNL     1      -2.711  -0.281  -0.650  1.00  0.00     0.669 C 
HETATM   11  N1  UNL     1      -3.616   0.006  -1.494  1.00  0.00    -0.231 N 
HETATM   12  N2  UNL     1      -2.916  -1.202   0.399  1.00  0.00    -0.227 N 
HETATM   13  C1  UNL     1      -3.482   0.926  -2.582  1.00  0.00     0.165 C 
ATOM     14  H1  UNL     1      -4.517  -0.460  -1.387  1.00  0.00     0.177 HD
ATOM     15  H2  UNL     1      -2.113  -1.469   0.968  1.00  0.00     0.177 HD
ATOM     16  H3  UNL     1      -0.923   0.252  -1.640  1.00  0.00     0.178 HD
BRANCH  12  17
HETATM   17  C3  UNL     1      -4.196  -1.786   0.711  1.00  0.00     0.138 C 
BRANCH  17  18
HETATM   18  C4  UNL     1      -5.092  -0.697   1.248  1.00  0.00     0.020 C 
BRANCH  18  19
HETATM   19  C5  UNL     1      -6.456  -1.191   1.608  1.00  0.00     0.006 C 
BRANCH  19  20
HETATM   20  C6  UNL     1      -7.191  -1.792   0.430  1.00  0.00    -0.014 C 
HETATM   21  C7  UNL     1      -7.384  -0.808  -0.687  1.00  0.00     0.004 C 
HETATM   22  C8  UNL     1      -8.725  -0.155  -0.418  1.00  0.00     0.000 C 
HETATM   23  C9  UNL     1      -9.555  -1.238   0.247  1.00  0.00     0.000 C 
HETATM   24  C10 UNL     1      -8.576  -2.225   0.812  1.00  0.00     0.004 C 
ENDBRANCH  19  20
ENDBRANCH  18  19
ENDBRANCH  17  18
ENDBRANCH  12  17
ENDBRANCH   1   9
BRANCH   7  25
HETATM   25  N4  UNL     1       2.784   1.612   0.493  1.00  0.00    -0.356 N 
HETATM   26  C18 UNL     1       3.605   0.589   1.067  1.00  0.00     0.217 C 
HETATM   27  O1  UNL     1       3.119  -0.106   1.995  1.00  0.00    -0.274 OA
ATOM     28  H4  UNL     1       3.157   2.189  -0.261  1.00  0.00     0.162 HD
BRANCH  26  29
HETATM   29  C19 UNL     1       4.990   0.342   0.592  1.00  0.00     0.103 C 
BRANCH  29  30
HETATM   30  C20 UNL     1       5.566  -0.791   1.370  1.00  0.00     0.011 C 
BRANCH  30  31
HETATM   31  C21 UNL     1       6.983  -1.157   0.993  1.00  0.00     0.020 C 
BRANCH  31  32
HETATM   32  C22 UNL     1       7.052  -1.555  -0.444  1.00  0.00     0.127 C 
BRANCH  32  33
HETATM   33  N5  UNL     1       8.378  -1.926  -0.871  1.00  0.00    -0.333 N 
HETATM   34  C23 UNL     1       9.472  -1.187  -1.421  1.00  0.00     0.147 C 
HETATM   35  C24 UNL     1      10.675  -1.918  -0.834  1.00  0.00     0.144 C 
HETATM   36  N6  UNL     1      10.254  -3.300  -0.961  1.00  0.00    -0.341 N 
HETATM   37  C25 UNL     1       8.843  -3.289  -0.784  1.00  0.00     0.318 C 
ATOM     38  H6  UNL     1      10.846  -4.111  -1.140  1.00  0.00     0.164 HD
HETATM   39  O2  UNL     1       8.146  -4.327  -0.586  1.00  0.00    -0.247 OA
ENDBRANCH  32  33
ENDBRANCH  31  32
ENDBRANCH  30  31
ENDBRANCH  29  30
ENDBRANCH  26  29
ENDBRANCH   7  25
TORSDOF 11
