REMARK  13 active torsions:
REMARK  status: ('A' for Active; 'I' for Inactive)
REMARK       I    between atoms: C2_4  and  N2_5 
REMARK       I    between atoms: C2_4  and  N6_31 
REMARK    1  A    between atoms: C3_7  and  C4_8 
REMARK    2  A    between atoms: C3_7  and  N5_22 
REMARK    3  A    between atoms: C4_8  and  C5_9 
REMARK    4  A    between atoms: C5_9  and  C6_10 
REMARK    5  A    between atoms: C6_10  and  N3_11 
REMARK       I    between atoms: N3_11  and  C7_13 
REMARK    6  A    between atoms: C7_13  and  C8_15 
REMARK    7  A    between atoms: N5_22  and  C13_24 
REMARK    8  A    between atoms: C13_24  and  C14_25 
REMARK    9  A    between atoms: C14_25  and  C15_26 
REMARK   10  A    between atoms: C15_26  and  C16_27 
REMARK   11  A    between atoms: C16_27  and  C17_28 
REMARK   12  A    between atoms: C17_28  and  C18_29 
REMARK   13  A    between atoms: N6_31  and  C19_33 
ROOT
HETATM    1  C1  UNL     1      -2.644  -1.887   2.721  1.00  0.00     0.165 C 
HETATM    2  N1  UNL     1      -2.557  -2.884   1.703  1.00  0.00    -0.231 N 
ATOM      3  H1  UNL     1      -2.599  -3.866   1.975  1.00  0.00     0.177 HD
HETATM    4  C2  UNL     1      -2.425  -2.586   0.427  1.00  0.00     0.675 C 
HETATM    5  N2  UNL     1      -2.371  -1.226   0.149  1.00  0.00    -0.178 N 
ATOM      6  H2  UNL     1      -3.229  -0.674   0.154  1.00  0.00     0.185 HD
HETATM    7  C3  UNL     1      -1.200  -0.633  -0.126  1.00  0.00     0.113 C 
HETATM    8  N6  UNL     1      -2.400  -3.606  -0.541  1.00  0.00    -0.218 N 
ATOM      9  H6  UNL     1      -1.758  -3.524  -1.329  1.00  0.00     0.178 HD
ENDROOT
BRANCH   7  10
HETATM   10  C4  UNL     1      -0.033  -1.492  -0.113  1.00  0.00     0.024 C 
BRANCH  10  11
HETATM   11  C5  UNL     1       1.309  -1.067   0.295  1.00  0.00     0.050 C 
BRANCH  11  12
HETATM   12  C6  UNL     1       2.140  -0.353  -0.749  1.00  0.00     0.127 C 
BRANCH  12  13
HETATM   13  N3  UNL     1       3.470  -0.050  -0.127  1.00  0.00    -0.356 N 
HETATM   14  C7  UNL     1       4.576   0.192  -0.983  1.00  0.00     0.263 C 
HETATM   15  O1  UNL     1       4.293   0.092  -2.235  1.00  0.00    -0.266 OA
ATOM     16  H3  UNL     1       3.577  -0.019   0.887  1.00  0.00     0.162 HD
BRANCH  14  17
HETATM   17  C8  UNL     1       5.911   0.497  -0.562  1.00  0.00     0.073 C 
HETATM   18  C9  UNL     1       6.255   1.651   0.247  1.00  0.00     0.062 C 
HETATM   19  C10 UNL     1       7.757   1.974   0.141  1.00  0.00     0.008 C 
HETATM   20  C11 UNL     1       8.624   0.767   0.176  1.00  0.00     0.020 C 
HETATM   21  C12 UNL     1       8.051  -0.537  -0.225  1.00  0.00     0.119 C 
HETATM   22  N4  UNL     1       6.654  -0.708  -0.185  1.00  0.00    -0.389 N 
ATOM     23  H4  UNL     1       6.204  -1.584   0.080  1.00  0.00     0.159 HD
ENDBRANCH  14  17
ENDBRANCH  12  13
ENDBRANCH  11  12
ENDBRANCH  10  11
ENDBRANCH   7  10
BRANCH   7  24
HETATM   24  N5  UNL     1      -1.229   0.742  -0.309  1.00  0.00    -0.376 N 
ATOM     25  H5  UNL     1      -0.373   1.292  -0.234  1.00  0.00     0.161 HD
BRANCH  24  26
HETATM   26  C13 UNL     1      -2.518   1.400  -0.614  1.00  0.00     0.121 C 
BRANCH  26  27
HETATM   27  C14 UNL     1      -2.436   2.876  -0.259  1.00  0.00     0.020 C 
BRANCH  27  28
HETATM   28  C15 UNL     1      -3.752   3.520  -0.535  1.00  0.00     0.002 C 
BRANCH  28  29
HETATM   29  C16 UNL     1      -3.759   4.983  -0.099  1.00  0.00     0.001 C 
BRANCH  29  30
HETATM   30  C17 UNL     1      -5.106   5.591  -0.343  1.00  0.00     0.011 C 
BRANCH  30  31
HETATM   31  C18 UNL     1      -5.123   7.039   0.148  1.00  0.00     0.085 C 
HETATM   32 BR1  UNL     1      -3.844   8.158  -0.714  1.00  0.00    -0.097 Br
ENDBRANCH  30  31
ENDBRANCH  29  30
ENDBRANCH  28  29
ENDBRANCH  27  28
ENDBRANCH  26  27
ENDBRANCH  24  26
ENDBRANCH   7  24
BRANCH   8  33
HETATM   33  C19 UNL     1      -3.260  -4.770  -0.452  1.00  0.00     0.036 C 
HETATM   34  C20 UNL     1      -3.006  -5.722  -1.620  1.00  0.00     0.038 C 
HETATM   35  C21 UNL     1      -4.697  -4.326  -0.499  1.00  0.00     0.038 C 
HETATM   36  C22 UNL     1      -2.974  -5.516   0.820  1.00  0.00     0.038 C 
ENDBRANCH   8  33
TORSDOF 13
