REMARK  21 active torsions:
REMARK  status: ('A' for Active; 'I' for Inactive)
REMARK    1  A    between atoms: C2_2  and  C3_3 
REMARK    2  A    between atoms: C3_3  and  C4_4 
REMARK    3  A    between atoms: C4_4  and  C5_5 
REMARK    4  A    between atoms: C5_5  and  C6_6 
REMARK    5  A    between atoms: C6_6  and  C7_7 
REMARK    6  A    between atoms: C7_7  and  C8_8 
REMARK    7  A    between atoms: C8_8  and  C9_9 
REMARK       I    between atoms: C9_9  and  N1_11 
REMARK    8  A    between atoms: N1_11  and  C10_13 
REMARK    9  A    between atoms: C10_13  and  C11_14 
REMARK   10  A    between atoms: C10_13  and  C12_17 
REMARK   11  A    between atoms: C11_14  and  O2_15 
REMARK   12  A    between atoms: C13_18  and  O3_19 
REMARK   13  A    between atoms: C14_23  and  C15_24 
REMARK   14  A    between atoms: C15_24  and  C16_26 
REMARK   15  A    between atoms: C22_36  and  O6_37 
REMARK   16  A    between atoms: C23_39  and  O7_40 
REMARK   17  A    between atoms: C24_42  and  O8_43 
REMARK   18  A    between atoms: O8_43  and  C25_44 
REMARK   19  A    between atoms: C25_44  and  C27_46 
REMARK   20  A    between atoms: C27_46  and  C28_47 
REMARK   21  A    between atoms: C28_47  and  C29_48 
ROOT
HETATM    1  C12 UNL     1      -0.737  -1.117   0.424  1.00  0.00     0.053 C 
HETATM    2  C13 UNL     1      -0.597  -2.374   1.162  1.00  0.00     0.147 C 
HETATM    3  N2  UNL     1      -0.296  -3.688   0.848  1.00  0.00    -0.359 N 
ATOM      4  H2  UNL     1       0.642  -3.923   1.171  1.00  0.00     0.162 HD
HETATM    5  C14 UNL     1      -0.901  -4.825   0.205  1.00  0.00     0.155 C 
HETATM    6  C17 UNL     1      -2.163  -4.676  -0.520  1.00  0.00     0.042 C 
HETATM    7  C18 UNL     1      -3.321  -5.429   0.153  1.00  0.00     0.105 C 
HETATM    8  C19 UNL     1      -4.607  -5.130  -0.512  1.00  0.00     0.217 C 
HETATM    9  O5  UNL     1      -4.871  -5.771  -1.573  1.00  0.00    -0.274 OA
HETATM   10  N3  UNL     1      -5.569  -4.192  -0.070  1.00  0.00    -0.361 N 
ATOM     11  H3  UNL     1      -6.322  -3.960  -0.718  1.00  0.00     0.162 HD
HETATM   12  C20 UNL     1      -5.583  -3.535   1.211  1.00  0.00     0.125 C 
HETATM   13  C21 UNL     1      -5.298  -2.033   1.105  1.00  0.00     0.058 C 
HETATM   14  C22 UNL     1      -3.839  -1.727   1.484  1.00  0.00     0.179 C 
HETATM   15  C23 UNL     1      -3.322  -0.714   0.555  1.00  0.00     0.106 C 
HETATM   16  C24 UNL     1      -1.943  -0.284   0.492  1.00  0.00     0.113 C 
ENDROOT
BRANCH   1  17
HETATM   17  C10 UNL     1       0.126  -1.002  -0.807  1.00  0.00     0.148 C 
BRANCH  17  18
HETATM   18  N1  UNL     1       1.516  -1.151  -0.357  1.00  0.00    -0.350 N 
HETATM   19  C9  UNL     1       2.527  -0.182  -0.571  1.00  0.00     0.218 C 
HETATM   20  O1  UNL     1       2.326   0.907  -1.180  1.00  0.00    -0.274 OA
ATOM     21  H1  UNL     1       1.769  -2.005   0.140  1.00  0.00     0.163 HD
BRANCH  19  22
HETATM   22  C8  UNL     1       3.920  -0.397  -0.074  1.00  0.00     0.103 C 
BRANCH  22  23
HETATM   23  C7  UNL     1       4.830   0.786  -0.419  1.00  0.00     0.009 C 
BRANCH  23  24
HETATM   24  C6  UNL     1       6.176   0.449   0.120  1.00  0.00     0.000 C 
BRANCH  24  25
HETATM   25  C5  UNL     1       7.199   1.538  -0.179  1.00  0.00     0.000 C 
BRANCH  25  26
HETATM   26  C4  UNL     1       6.794   2.812   0.457  1.00  0.00     0.000 C 
BRANCH  26  27
HETATM   27  C3  UNL     1       7.695   3.951   0.190  1.00  0.00    -0.000 C 
BRANCH  27  28
HETATM   28  C2  UNL     1       9.108   3.915   0.594  1.00  0.00    -0.005 C 
HETATM   29  C1  UNL     1       9.982   2.893  -0.049  1.00  0.00     0.005 C 
ENDBRANCH  27  28
ENDBRANCH  26  27
ENDBRANCH  25  26
ENDBRANCH  24  25
ENDBRANCH  23  24
ENDBRANCH  22  23
ENDBRANCH  19  22
ENDBRANCH  17  18
BRANCH  17  30
HETATM   30  C11 UNL     1      -0.107  -1.789  -2.004  1.00  0.00     0.194 C 
BRANCH  30  31
HETATM   31  O2  UNL     1      -1.370  -1.738  -2.574  1.00  0.00    -0.398 OA
ATOM     32  H2  UNL     1      -1.523  -2.253  -3.358  1.00  0.00     0.209 HD
ENDBRANCH  30  31
ENDBRANCH  17  30
ENDBRANCH   1  17
BRANCH   2  33
HETATM   33  O3  UNL     1      -0.798  -2.229   2.454  1.00  0.00    -0.346 OA
ATOM     34  H3  UNL     1      -0.707  -3.044   2.933  1.00  0.00     0.219 HD
ENDBRANCH   2  33
BRANCH  16  35
HETATM   35  O8  UNL     1      -1.811   0.788   1.434  1.00  0.00    -0.343 OA
BRANCH  35  36
HETATM   36  C25 UNL     1      -1.708   2.039   0.827  1.00  0.00     0.125 C 
HETATM   37  C26 UNL     1      -0.344   2.663   1.107  1.00  0.00     0.040 C 
BRANCH  36  38
HETATM   38  C27 UNL     1      -2.701   2.935   1.487  1.00  0.00     0.032 C 
BRANCH  38  39
HETATM   39  C28 UNL     1      -2.834   4.325   1.055  1.00  0.00     0.007 C 
BRANCH  39  40
HETATM   40  C29 UNL     1      -3.240   4.696  -0.293  1.00  0.00    -0.014 C 
HETATM   41  C30 UNL     1      -4.618   4.153  -0.699  1.00  0.00     0.004 C 
HETATM   42  C31 UNL     1      -4.704   4.433  -2.178  1.00  0.00     0.000 C 
HETATM   43  C32 UNL     1      -3.346   4.933  -2.625  1.00  0.00     0.000 C 
HETATM   44  C33 UNL     1      -2.398   4.491  -1.470  1.00  0.00     0.004 C 
ENDBRANCH  39  40
ENDBRANCH  38  39
ENDBRANCH  36  38
ENDBRANCH  35  36
ENDBRANCH  16  35
BRANCH  15  45
HETATM   45  O7  UNL     1      -3.966  -0.937  -0.686  1.00  0.00    -0.359 OA
ATOM     46  H7  UNL     1      -3.632  -0.282  -1.287  1.00  0.00     0.217 HD
ENDBRANCH  15  45
BRANCH   5  47
HETATM   47  C15 UNL     1       0.131  -5.585  -0.601  1.00  0.00     0.163 C 
HETATM   48  O4  UNL     1       1.263  -5.149  -0.573  1.00  0.00    -0.294 OA
BRANCH  47  49
HETATM   49  C16 UNL     1      -0.228  -6.765  -1.356  1.00  0.00     0.195 C 
HETATM   50 CL1  UNL     1      -0.378  -6.378  -3.108  1.00  0.00    -0.122 Cl
ENDBRANCH  47  49
ENDBRANCH   5  47
BRANCH  14  51
HETATM   51  O6  UNL     1      -3.945  -1.277   2.811  1.00  0.00    -0.389 OA
ATOM     52  H6  UNL     1      -3.044  -1.088   3.045  1.00  0.00     0.210 HD
ENDBRANCH  14  51
TORSDOF 21
