REMARK  11 active torsions:
REMARK  status: ('A' for Active; 'I' for Inactive)
REMARK    1  A    between atoms: C2_2  and  C3_3 
REMARK    2  A    between atoms: C3_3  and  C4_4 
REMARK    3  A    between atoms: C4_4  and  N1_5 
REMARK    4  A    between atoms: N2_7  and  C5_9 
REMARK    5  A    between atoms: C5_9  and  C7_11 
REMARK    6  A    between atoms: C7_11  and  C8_12 
REMARK    7  A    between atoms: C9_13  and  C10_14 
REMARK    8  A    between atoms: C10_14  and  C11_15 
REMARK    9  A    between atoms: C11_15  and  C12_16 
REMARK   10  A    between atoms: C12_16  and  C13_17 
REMARK   11  A    between atoms: C14_18  and  O1_19 
ROOT
HETATM    1  C5  UNL     1      -1.324  -1.484  -0.612  1.00  0.00     0.098 C 
HETATM    2  C6  UNL     1      -2.268  -1.722  -1.771  1.00  0.00     0.034 C 
ENDROOT
BRANCH   1   3
HETATM    3  N2  UNL     1      -1.962  -0.502   0.240  1.00  0.00    -0.336 N 
HETATM    4  N1  UNL     1      -3.006  -0.761   0.865  1.00  0.00    -0.340 N 
ATOM      5  H1  UNL     1      -3.452  -1.676   0.800  1.00  0.00     0.179 HD
ATOM      6  H2  UNL     1      -1.545   0.425   0.330  1.00  0.00     0.180 HD
BRANCH   4   7
HETATM    7  C4  UNL     1      -3.556   0.285   1.682  1.00  0.00     0.142 C 
BRANCH   7   8
HETATM    8  C3  UNL     1      -4.479   1.161   0.859  1.00  0.00     0.047 C 
BRANCH   8   9
HETATM    9  C2  UNL     1      -5.051   2.241   1.685  1.00  0.00    -0.035 C 
HETATM   10  C1  UNL     1      -6.362   2.320   1.825  1.00  0.00     0.007 C 
ENDBRANCH   8   9
ENDBRANCH   7   8
ENDBRANCH   4   7
ENDBRANCH   1   3
BRANCH   1  11
HETATM   11  C7  UNL     1      -0.027  -0.849  -1.065  1.00  0.00     0.053 C 
BRANCH  11  12
HETATM   12  C8  UNL     1       0.764  -1.707  -1.946  1.00  0.00    -0.029 C 
HETATM   13  C9  UNL     1       1.971  -2.095  -1.634  1.00  0.00    -0.031 C 
BRANCH  13  14
HETATM   14  C10 UNL     1       2.709  -1.753  -0.400  1.00  0.00     0.027 C 
BRANCH  14  15
HETATM   15  C11 UNL     1       3.963  -1.026  -0.797  1.00  0.00     0.007 C 
BRANCH  15  16
HETATM   16  C12 UNL     1       3.773   0.238  -1.546  1.00  0.00     0.029 C 
BRANCH  16  17
HETATM   17  C13 UNL     1       3.155   1.381  -0.927  1.00  0.00    -0.003 C 
HETATM   18  C14 UNL     1       2.986   1.658   0.325  1.00  0.00     0.130 C 
BRANCH  18  19
HETATM   19  O1  UNL     1       3.386   0.886   1.356  1.00  0.00    -0.368 OA
HETATM   20  C15 UNL     1       4.208   1.288   2.432  1.00  0.00     0.208 C 
ENDBRANCH  18  19
ENDBRANCH  16  17
ENDBRANCH  15  16
ENDBRANCH  14  15
ENDBRANCH  13  14
ENDBRANCH  11  12
ENDBRANCH   1  11
TORSDOF 11
