REMARK  12 active torsions:
REMARK  status: ('A' for Active; 'I' for Inactive)
REMARK    1  A    between atoms: C2_2  and  C5_5 
REMARK    2  A    between atoms: C6_6  and  O1_7 
REMARK    3  A    between atoms: O1_7  and  N1_8 
REMARK    4  A    between atoms: C7_10  and  N2_11 
REMARK    5  A    between atoms: C7_10  and  C14_23 
REMARK    6  A    between atoms: N2_11  and  C8_13 
REMARK    7  A    between atoms: C8_13  and  C9_14 
REMARK    8  A    between atoms: C9_14  and  C10_15 
REMARK    9  A    between atoms: C10_15  and  C11_16 
REMARK   10  A    between atoms: C11_16  and  C12_17 
REMARK   11  A    between atoms: C12_17  and  C13_18 
REMARK   12  A    between atoms: C13_18  and  N3_19 
ROOT
HETATM    1  N1  UNL     1      -1.677   0.528   0.660  1.00  0.00    -0.237 N 
ATOM      2  H1  UNL     1      -2.330   1.192   0.245  1.00  0.00     0.197 HD
HETATM    3  C7  UNL     1      -0.415   0.790   0.609  1.00  0.00     0.132 C 
ENDROOT
BRANCH   3   4
HETATM    4  N2  UNL     1       0.494  -0.137   1.188  1.00  0.00    -0.377 N 
ATOM      5  H2  UNL     1       0.501  -0.219   2.205  1.00  0.00     0.160 HD
BRANCH   4   6
HETATM    6  C8  UNL     1       1.394  -0.958   0.457  1.00  0.00     0.121 C 
BRANCH   6   7
HETATM    7  C9  UNL     1       2.210  -1.823   1.389  1.00  0.00     0.020 C 
BRANCH   7   8
HETATM    8  C10 UNL     1       3.175  -2.704   0.636  1.00  0.00     0.002 C 
BRANCH   8   9
HETATM    9  C11 UNL     1       4.157  -1.934  -0.188  1.00  0.00     0.002 C 
BRANCH   9  10
HETATM   10  C12 UNL     1       5.018  -1.004   0.612  1.00  0.00     0.027 C 
BRANCH  10  11
HETATM   11  C13 UNL     1       5.954  -0.300  -0.356  1.00  0.00     0.229 C 
BRANCH  11  12
HETATM   12  N3  UNL     1       6.792  -1.257  -1.063  1.00  0.00    -0.079 N 
ATOM     13  H33 UNL     1       7.303  -1.859  -0.417  1.00  0.00     0.274 HD
ATOM     14  H32 UNL     1       6.234  -1.971  -1.532  1.00  0.00     0.274 HD
ATOM     15  H31 UNL     1       7.420  -0.784  -1.713  1.00  0.00     0.274 HD
ENDBRANCH  11  12
ENDBRANCH  10  11
ENDBRANCH   9  10
ENDBRANCH   8   9
ENDBRANCH   7   8
ENDBRANCH   6   7
ENDBRANCH   4   6
ENDBRANCH   3   4
BRANCH   3  16
HETATM   16  C14 UNL     1       0.004   2.032  -0.046  1.00  0.00     0.291 C 
HETATM   17  C15 UNL     1       0.765   2.951   0.914  1.00  0.00     0.048 C 
HETATM   18  C16 UNL     1       0.383   4.371   0.504  1.00  0.00    -0.009 C 
HETATM   19  C17 UNL     1      -1.066   4.552   0.936  1.00  0.00     0.035 C 
HETATM   20  C20 UNL     1       0.493   4.465  -1.008  1.00  0.00     0.035 C 
HETATM   21  C18 UNL     1      -1.876   3.520   0.174  1.00  0.00     0.273 C 
HETATM   22  N4  UNL     1      -1.085   2.699  -0.685  1.00  0.00     0.100 N 
HETATM   23  C19 UNL     1      -0.506   3.581  -1.710  1.00  0.00     0.273 C 
ENDBRANCH   3  16
BRANCH   1  24
HETATM   24  O1  UNL     1      -2.180  -0.606   1.249  1.00  0.00    -0.184 OA
BRANCH  24  25
HETATM   25  C6  UNL     1      -3.171  -1.339   0.669  1.00  0.00     0.085 C 
HETATM   26  C5  UNL     1      -4.046  -2.005   0.166  1.00  0.00    -0.065 C 
BRANCH  26  27
HETATM   27  C2  UNL     1      -5.113  -2.836  -0.430  1.00  0.00     0.015 C 
HETATM   28  C1  UNL     1      -5.160  -4.134   0.320  1.00  0.00     0.028 C 
HETATM   29  C3  UNL     1      -4.704  -3.151  -1.858  1.00  0.00     0.028 C 
HETATM   30  C4  UNL     1      -6.424  -2.116  -0.434  1.00  0.00     0.028 C 
ENDBRANCH  26  27
ENDBRANCH  24  25
ENDBRANCH   1  24
TORSDOF 12
