REMARK  11 active torsions:
REMARK  status: ('A' for Active; 'I' for Inactive)
REMARK    1  A    between atoms: C2_2  and  O1_3 
REMARK    2  A    between atoms: O1_3  and  C3_4 
REMARK    3  A    between atoms: C3_4  and  C4_6 
REMARK    4  A    between atoms: C4_6  and  C5_7 
REMARK    5  A    between atoms: C5_7  and  C6_8 
REMARK    6  A    between atoms: C7_9  and  C8_10 
REMARK    7  A    between atoms: C8_10  and  C9_11 
REMARK    8  A    between atoms: C11_13  and  C12_14 
REMARK    9  A    between atoms: C12_14  and  O3_15 
REMARK   10  A    between atoms: C15_19  and  O4_20 
REMARK   11  A    between atoms: C16_22  and  O5_23 
ROOT
HETATM    1  C9  UNL     1       0.310   0.577   1.224  1.00  0.00    -0.004 C 
HETATM    2  C10 UNL     1       0.436  -0.909   1.455  1.00  0.00     0.012 C 
HETATM    3  C11 UNL     1      -0.692  -1.572   0.632  1.00  0.00     0.014 C 
HETATM    4  C13 UNL     1      -1.643  -0.402   0.538  1.00  0.00     0.003 C 
HETATM    5  C14 UNL     1      -0.615   0.623   0.037  1.00  0.00     0.026 C 
HETATM    6  C15 UNL     1      -1.274   1.901  -0.215  1.00  0.00     0.152 C 
HETATM    7  C16 UNL     1      -2.326   1.706  -1.276  1.00  0.00     0.152 C 
HETATM    8  C17 UNL     1      -3.306   0.643  -1.032  1.00  0.00     0.026 C 
HETATM    9  C18 UNL     1      -4.354   0.946   0.007  1.00  0.00    -0.003 C 
HETATM   10  C19 UNL     1      -5.695   1.254  -0.554  1.00  0.00     0.005 C 
HETATM   11  C20 UNL     1      -6.786   0.387   0.050  1.00  0.00     0.000 C 
HETATM   12  C21 UNL     1      -6.416  -1.016  -0.382  1.00  0.00     0.000 C 
HETATM   13  C22 UNL     1      -5.183  -1.414   0.332  1.00  0.00     0.005 C 
HETATM   14  C23 UNL     1      -4.132  -0.414   0.559  1.00  0.00    -0.005 C 
HETATM   15  C24 UNL     1      -2.843  -0.547  -0.262  1.00  0.00     0.002 C 
ENDROOT
BRANCH   1  16
HETATM   16  C8  UNL     1       1.631   1.244   0.970  1.00  0.00     0.031 C 
BRANCH  16  17
HETATM   17  C7  UNL     1       2.344   0.744  -0.190  1.00  0.00    -0.030 C 
HETATM   18  C6  UNL     1       3.538   0.190  -0.174  1.00  0.00    -0.030 C 
BRANCH  18  19
HETATM   19  C5  UNL     1       4.368  -0.023   1.028  1.00  0.00     0.037 C 
BRANCH  19  20
HETATM   20  C4  UNL     1       5.663   0.739   0.850  1.00  0.00     0.115 C 
BRANCH  20  21
HETATM   21  C3  UNL     1       6.391   0.258  -0.337  1.00  0.00     0.259 C 
HETATM   22  O2  UNL     1       6.217   0.717  -1.490  1.00  0.00    -0.265 OA
BRANCH  21  23
HETATM   23  O1  UNL     1       7.329  -0.773  -0.153  1.00  0.00    -0.322 OA
BRANCH  23  24
HETATM   24  C2  UNL     1       8.034  -1.243  -1.289  1.00  0.00     0.174 C 
HETATM   25  C1  UNL     1       8.819  -0.128  -1.912  1.00  0.00     0.034 C 
ENDBRANCH  23  24
ENDBRANCH  21  23
ENDBRANCH  20  21
ENDBRANCH  19  20
ENDBRANCH  18  19
ENDBRANCH  16  17
ENDBRANCH   1  16
BRANCH   3  26
HETATM   26  C12 UNL     1      -1.214  -2.774   1.329  1.00  0.00     0.169 C 
BRANCH  26  27
HETATM   27  O3  UNL     1      -2.210  -3.385   0.590  1.00  0.00    -0.400 OA
ATOM     28  H3  UNL     1      -2.544  -4.154   1.036  1.00  0.00     0.209 HD
ENDBRANCH  26  27
ENDBRANCH   3  26
BRANCH   6  29
HETATM   29  O4  UNL     1      -1.763   2.562   0.891  1.00  0.00    -0.393 OA
ATOM     30  H4  UNL     1      -2.192   3.394   0.727  1.00  0.00     0.210 HD
ENDBRANCH   6  29
BRANCH   7  31
HETATM   31  O5  UNL     1      -1.764   1.553  -2.545  1.00  0.00    -0.393 OA
ATOM     32  H5  UNL     1      -2.427   1.430  -3.214  1.00  0.00     0.210 HD
ENDBRANCH   7  31
TORSDOF 11
