REMARK  11 active torsions:
REMARK  status: ('A' for Active; 'I' for Inactive)
REMARK    1  A    between atoms: O1_2  and  C2_3 
REMARK    2  A    between atoms: C2_3  and  C3_5 
REMARK    3  A    between atoms: C3_5  and  C5_7 
REMARK    4  A    between atoms: C5_7  and  N1_8 
REMARK    5  A    between atoms: C5_7  and  C16_25 
REMARK       I    between atoms: N1_8  and  C6_10 
REMARK    6  A    between atoms: C6_10  and  C7_12 
REMARK    7  A    between atoms: C7_12  and  N2_13 
REMARK    8  A    between atoms: C7_12  and  C13_22 
REMARK       I    between atoms: N2_13  and  C8_15 
REMARK    9  A    between atoms: C8_15  and  O5_17 
REMARK   10  A    between atoms: O5_17  and  C9_18 
REMARK       I    between atoms: C16_25  and  N3_27 
REMARK   11  A    between atoms: N3_27  and  C17_29 
ROOT
HETATM    1  N1  UNL     1      -0.560  -0.772  -0.717  1.00  0.00    -0.345 N 
ATOM      2  H1  UNL     1      -0.481  -1.781  -0.844  1.00  0.00     0.163 HD
HETATM    3  C6  UNL     1       0.617  -0.051  -0.490  1.00  0.00     0.241 C 
HETATM    4  O3  UNL     1       0.523   1.202  -0.337  1.00  0.00    -0.271 OA
ENDROOT
BRANCH   1   5
HETATM    5  C5  UNL     1      -1.906  -0.175  -0.785  1.00  0.00     0.190 C 
BRANCH   5   6
HETATM    6  C3  UNL     1      -2.551  -0.530  -2.086  1.00  0.00     0.113 C 
HETATM    7  C4  UNL     1      -3.868   0.200  -2.233  1.00  0.00     0.023 C 
BRANCH   6   8
HETATM    8  C2  UNL     1      -1.729  -0.025  -3.254  1.00  0.00     0.264 C 
HETATM    9  O2  UNL     1      -1.307  -0.874  -4.063  1.00  0.00    -0.265 OA
BRANCH   8  10
HETATM   10  O1  UNL     1      -1.455   1.298  -3.426  1.00  0.00    -0.326 OA
HETATM   11  C1  UNL     1      -0.701   1.801  -4.500  1.00  0.00     0.213 C 
ENDBRANCH   8  10
ENDBRANCH   6   8
ENDBRANCH   5   6
BRANCH   5  12
HETATM   12  C16 UNL     1      -2.718  -0.703   0.335  1.00  0.00     0.241 C 
HETATM   13  O6  UNL     1      -2.192  -1.668   1.016  1.00  0.00    -0.271 OA
HETATM   14  N3  UNL     1      -3.977  -0.301   0.766  1.00  0.00    -0.355 N 
ATOM     15  H3  UNL     1      -4.438   0.463   0.272  1.00  0.00     0.162 HD
BRANCH  14  16
HETATM   16  C17 UNL     1      -4.673  -0.920   1.893  1.00  0.00     0.084 C 
HETATM   17  C18 UNL     1      -5.973  -1.504   1.324  1.00  0.00     0.025 C 
HETATM   18  C19 UNL     1      -6.789  -0.276   1.081  1.00  0.00     0.002 C 
HETATM   19  C20 UNL     1      -6.276   0.799   1.985  1.00  0.00     0.002 C 
HETATM   20  C21 UNL     1      -5.218   0.113   2.854  1.00  0.00     0.025 C 
ENDBRANCH  14  16
ENDBRANCH   5  12
ENDBRANCH   1   5
BRANCH   3  21
HETATM   21  C7  UNL     1       1.962  -0.649  -0.414  1.00  0.00     0.182 C 
BRANCH  21  22
HETATM   22  N2  UNL     1       2.986   0.318  -0.160  1.00  0.00    -0.323 N 
HETATM   23  C8  UNL     1       3.822   0.295   0.987  1.00  0.00     0.362 C 
HETATM   24  O4  UNL     1       3.628  -0.640   1.809  1.00  0.00    -0.238 OA
ATOM     25  H2  UNL     1       3.123   1.065  -0.841  1.00  0.00     0.165 HD
BRANCH  23  26
HETATM   26  O5  UNL     1       4.806   1.202   1.257  1.00  0.00    -0.294 OA
BRANCH  26  27
HETATM   27  C9  UNL     1       5.635   1.175   2.399  1.00  0.00     0.061 C 
HETATM   28  C10 UNL     1       6.394  -0.139   2.391  1.00  0.00     0.046 C 
HETATM   29  C11 UNL     1       6.657   2.281   2.380  1.00  0.00     0.046 C 
HETATM   30  C12 UNL     1       4.871   1.250   3.697  1.00  0.00     0.046 C 
ENDBRANCH  26  27
ENDBRANCH  23  26
ENDBRANCH  21  22
BRANCH  21  31
HETATM   31  C13 UNL     1       2.207  -1.457  -1.655  1.00  0.00     0.009 C 
HETATM   32  C14 UNL     1       2.137  -0.649  -2.909  1.00  0.00     0.012 C 
HETATM   33  C15 UNL     1       3.601  -2.098  -1.569  1.00  0.00     0.012 C 
ENDBRANCH  21  31
ENDBRANCH   3  21
TORSDOF 11
