REMARK  12 active torsions:
REMARK  status: ('A' for Active; 'I' for Inactive)
REMARK    1  A    between atoms: N1_6  and  C6_8 
REMARK    2  A    between atoms: C6_8  and  C7_9 
REMARK    3  A    between atoms: C7_9  and  C8_10 
REMARK    4  A    between atoms: C8_10  and  C9_11 
REMARK    5  A    between atoms: C9_11  and  O2_12 
REMARK    6  A    between atoms: O2_12  and  C10_13 
REMARK       I    between atoms: C10_13  and  N2_15 
REMARK    7  A    between atoms: C13_18  and  O4_19 
REMARK    8  A    between atoms: C14_21  and  O5_22 
REMARK    9  A    between atoms: C14_21  and  C15_24 
REMARK   10  A    between atoms: C15_24  and  N3_25 
REMARK   11  A    between atoms: N3_25  and  C16_27 
REMARK   12  A    between atoms: C16_27  and  C17_31 
ROOT
HETATM    1  C10 UNL     1       0.207   0.674  -2.156  1.00  0.00     0.362 C 
HETATM    2  O3  UNL     1      -0.012   1.868  -1.838  1.00  0.00    -0.238 OA
HETATM    3  N2  UNL     1       1.511   0.086  -1.954  1.00  0.00    -0.325 N 
HETATM    4  C11 UNL     1       1.734  -1.276  -2.325  1.00  0.00     0.131 C 
HETATM    5  C12 UNL     1       2.647  -2.026  -1.416  1.00  0.00     0.055 C 
HETATM    6  C13 UNL     1       3.426  -1.164  -0.480  1.00  0.00     0.157 C 
HETATM    7  C14 UNL     1       3.806   0.114  -1.167  1.00  0.00     0.115 C 
HETATM    8  C20 UNL     1       2.545   0.921  -1.376  1.00  0.00     0.170 C 
ENDROOT
BRANCH   1   9
HETATM    9  O2  UNL     1      -0.830  -0.049  -2.699  1.00  0.00    -0.304 OA
BRANCH   9  10
HETATM   10  C9  UNL     1      -2.135   0.403  -2.941  1.00  0.00     0.180 C 
BRANCH  10  11
HETATM   11  C8  UNL     1      -2.883   0.847  -1.706  1.00  0.00     0.029 C 
BRANCH  11  12
HETATM   12  C7  UNL     1      -2.959  -0.333  -0.777  1.00  0.00     0.038 C 
BRANCH  12  13
HETATM   13  C6  UNL     1      -3.675  -0.052   0.503  1.00  0.00     0.312 C 
BRANCH  13  14
HETATM   14  N1  UNL     1      -5.032   0.360   0.367  1.00  0.00     0.014 N 
HETATM   15  C5  UNL     1      -5.846  -0.495  -0.444  1.00  0.00     0.312 C 
HETATM   16  C4  UNL     1      -7.169  -0.855   0.238  1.00  0.00     0.037 C 
HETATM   17  C3  UNL     1      -7.815   0.426   0.709  1.00  0.00     0.008 C 
HETATM   18  C2  UNL     1      -6.926   1.004   1.793  1.00  0.00     0.015 C 
HETATM   19  C1  UNL     1      -7.567   0.620   3.124  1.00  0.00     0.012 C 
HETATM   20  C21 UNL     1      -5.599   0.312   1.727  1.00  0.00     0.316 C 
HETATM   21  O1  UNL     1      -5.147   1.676  -0.001  1.00  0.00    -0.064 OA
ENDBRANCH  13  14
ENDBRANCH  12  13
ENDBRANCH  11  12
ENDBRANCH  10  11
ENDBRANCH   9  10
ENDBRANCH   1   9
BRANCH   7  22
HETATM   22  O5  UNL     1       4.341  -0.149  -2.426  1.00  0.00    -0.384 OA
ATOM     23  H5  UNL     1       4.582   0.660  -2.861  1.00  0.00     0.210 HD
ENDBRANCH   7  22
BRANCH   7  24
HETATM   24  C15 UNL     1       4.789   0.922  -0.357  1.00  0.00     0.163 C 
BRANCH  24  25
HETATM   25  N3  UNL     1       6.020   0.206  -0.195  1.00  0.00    -0.377 N 
ATOM     26  H3  UNL     1       6.111  -0.720  -0.614  1.00  0.00     0.160 HD
BRANCH  25  27
HETATM   27  C16 UNL     1       7.114   0.742   0.528  1.00  0.00     0.074 C 
HETATM   28  N4  UNL     1       7.724   1.761   0.014  1.00  0.00    -0.389 N 
ATOM     29  H42 UNL     1       7.405   2.140  -0.877  1.00  0.00     0.157 HD
ATOM     30  H41 UNL     1       8.512   2.147   0.535  1.00  0.00     0.157 HD
BRANCH  27  31
HETATM   31  C17 UNL     1       7.578   0.191   1.823  1.00  0.00     0.044 C 
HETATM   32  C18 UNL     1       8.007  -1.255   1.701  1.00  0.00     0.017 C 
HETATM   33  C19 UNL     1       6.444   0.352   2.832  1.00  0.00     0.017 C 
ENDBRANCH  27  31
ENDBRANCH  25  27
ENDBRANCH  24  25
ENDBRANCH   7  24
BRANCH   6  34
HETATM   34  O4  UNL     1       2.642  -0.812   0.635  1.00  0.00    -0.392 OA
ATOM     35  H4  UNL     1       3.138  -0.263   1.231  1.00  0.00     0.210 HD
ENDBRANCH   6  34
TORSDOF 12
