REMARK  16 active torsions:
REMARK  status: ('A' for Active; 'I' for Inactive)
REMARK    1  A    between atoms: N1_1  and  C1_5 
REMARK    2  A    between atoms: C1_5  and  C2_6 
REMARK    3  A    between atoms: C2_6  and  C3_7 
REMARK    4  A    between atoms: C3_7  and  C4_8 
REMARK    5  A    between atoms: C4_8  and  C5_9 
REMARK    6  A    between atoms: C5_9  and  C6_10 
REMARK    7  A    between atoms: C5_9  and  N3_16 
REMARK    8  A    between atoms: C6_10  and  C7_11 
REMARK    9  A    between atoms: C7_11  and  N2_12 
REMARK   10  A    between atoms: N3_16  and  C8_18 
REMARK   11  A    between atoms: C8_18  and  C9_19 
REMARK   12  A    between atoms: C9_19  and  C10_20 
REMARK   13  A    between atoms: C10_20  and  C11_21 
REMARK   14  A    between atoms: C13_25  and  C14_26 
REMARK   15  A    between atoms: C14_26  and  C15_27 
REMARK   16  A    between atoms: C15_27  and  C16_28 
ROOT
HETATM    1  C11 UNL     1       1.963  -0.978  -0.335  1.00  0.00     0.098 A 
HETATM    2  N4  UNL     1       3.183  -0.409   0.024  1.00  0.00    -0.348 N 
ATOM      3  H4  UNL     1       3.176   0.294   0.763  1.00  0.00     0.166 HD
HETATM    4  C12 UNL     1       4.347  -0.710  -0.519  1.00  0.00     0.098 A 
HETATM    5  C13 UNL     1       5.487  -0.127  -0.182  1.00  0.00     0.009 C 
HETATM    6  C19 UNL     1       4.354  -1.683  -1.532  1.00  0.00     0.274 A 
HETATM    7  O1  UNL     1       5.453  -1.970  -2.042  1.00  0.00    -0.266 OA
HETATM    8  N7  UNL     1       3.189  -2.238  -1.885  1.00  0.00    -0.287 N 
ATOM      9  H7  UNL     1       3.197  -2.944  -2.621  1.00  0.00     0.172 HD
HETATM   10  C20 UNL     1       2.000  -1.917  -1.322  1.00  0.00     0.274 A 
HETATM   11  O2  UNL     1       0.953  -2.516  -1.749  1.00  0.00    -0.266 OA
ENDROOT
BRANCH   1  12
HETATM   12  C10 UNL     1       0.891  -0.577   0.298  1.00  0.00     0.013 C 
BRANCH  12  13
HETATM   13  C9  UNL     1      -0.469  -1.042   0.079  1.00  0.00     0.073 C 
BRANCH  13  14
HETATM   14  C8  UNL     1      -1.162  -0.018  -0.796  1.00  0.00     0.059 C 
BRANCH  14  15
HETATM   15  N3  UNL     1      -2.481  -0.282  -1.180  1.00  0.00    -0.397 N 
ATOM     16  H3  UNL     1      -2.721  -0.465  -2.155  1.00  0.00     0.159 HD
BRANCH  15  17
HETATM   17  C5  UNL     1      -3.503  -0.287  -0.137  1.00  0.00     0.082 C 
BRANCH  17  18
HETATM   18  C4  UNL     1      -4.466  -1.370  -0.419  1.00  0.00     0.025 C 
BRANCH  18  19
HETATM   19  C3  UNL     1      -5.357  -1.830   0.655  1.00  0.00     0.004 C 
BRANCH  19  20
HETATM   20  C2  UNL     1      -6.401  -1.016   1.274  1.00  0.00     0.027 C 
BRANCH  20  21
HETATM   21  C1  UNL     1      -7.534  -0.616   0.383  1.00  0.00     0.229 C 
BRANCH  21  22
HETATM   22  N1  UNL     1      -8.479   0.203   1.145  1.00  0.00    -0.079 N 
ATOM     23  H13 UNL     1      -8.800  -0.264   1.993  1.00  0.00     0.274 HD
ATOM     24  H12 UNL     1      -8.029   1.006   1.584  1.00  0.00     0.274 HD
ATOM     25  H11 UNL     1      -9.252   0.476   0.537  1.00  0.00     0.274 HD
ENDBRANCH  21  22
ENDBRANCH  20  21
ENDBRANCH  19  20
ENDBRANCH  18  19
ENDBRANCH  17  18
BRANCH  17  26
HETATM   26  C6  UNL     1      -3.933   1.070   0.208  1.00  0.00     0.052 C 
BRANCH  26  27
HETATM   27  C7  UNL     1      -4.719   1.818  -0.843  1.00  0.00     0.231 C 
BRANCH  27  28
HETATM   28  N2  UNL     1      -5.067   3.107  -0.270  1.00  0.00    -0.079 N 
ATOM     29  H23 UNL     1      -5.558   3.031   0.621  1.00  0.00     0.274 HD
ATOM     30  H22 UNL     1      -4.258   3.626   0.072  1.00  0.00     0.274 HD
ATOM     31  H21 UNL     1      -5.598   3.612  -0.980  1.00  0.00     0.274 HD
ENDBRANCH  27  28
ENDBRANCH  26  27
ENDBRANCH  17  26
ENDBRANCH  15  17
ENDBRANCH  14  15
ENDBRANCH  13  14
ENDBRANCH  12  13
ENDBRANCH   1  12
BRANCH   5  32
HETATM   32  C14 UNL     1       5.560   0.923   0.836  1.00  0.00     0.034 C 
BRANCH  32  33
HETATM   33  C15 UNL     1       6.639   1.958   0.606  1.00  0.00     0.045 C 
BRANCH  33  34
HETATM   34  C16 UNL     1       7.954   1.322   0.607  1.00  0.00    -0.024 A 
HETATM   35  C17 UNL     1       8.723   1.088   1.718  1.00  0.00     0.115 A 
HETATM   36  N5  UNL     1       9.877   0.513   1.302  1.00  0.00    -0.312 N 
HETATM   37  N6  UNL     1       9.835   0.391  -0.020  1.00  0.00    -0.312 N 
ATOM     38  H5  UNL     1      10.648   0.223   1.903  1.00  0.00     0.186 HD
HETATM   39  C18 UNL     1       8.657   0.882  -0.481  1.00  0.00     0.115 A 
ATOM     40  H6  UNL     1      10.573  -0.009  -0.599  1.00  0.00     0.186 HD
ENDBRANCH  33  34
ENDBRANCH  32  33
ENDBRANCH   5  32
TORSDOF 16
