REMARK  7 active torsions:
REMARK  status: ('A' for Active; 'I' for Inactive)
REMARK    1  A    between atoms: C2_2  and  O1_3 
REMARK    2  A    between atoms: O1_3  and  C3_4 
REMARK    3  A    between atoms: C3_4  and  N1_5 
REMARK    4  A    between atoms: C3_4  and  C7_13 
REMARK    5  A    between atoms: N1_5  and  C4_8 
REMARK    6  A    between atoms: C4_8  and  C5_9 
REMARK    7  A    between atoms: C5_9  and  C6_10 
ROOT
HETATM    1  C7  UNL     1      -0.727  -1.139   0.978  1.00  0.00     0.050 C 
HETATM    2  C8  UNL     1      -0.422  -2.604   0.679  1.00  0.00     0.010 C 
HETATM    3  C9  UNL     1       0.272  -2.919  -0.567  1.00  0.00     0.001 C 
HETATM    4  C10 UNL     1       1.303  -1.841  -0.848  1.00  0.00     0.006 C 
HETATM    5  C11 UNL     1       1.643  -1.168   0.470  1.00  0.00    -0.000 C 
HETATM    6  C12 UNL     1       3.046  -0.752   0.451  1.00  0.00     0.009 C 
HETATM    7  C13 UNL     1       3.758  -0.922  -0.909  1.00  0.00     0.127 C 
HETATM    8  N2  UNL     1       4.841   0.025  -1.100  1.00  0.00    -0.361 N 
ATOM      9  H2  UNL     1       5.784  -0.360  -1.160  1.00  0.00     0.162 HD
HETATM   10  C14 UNL     1       4.714   1.462  -1.214  1.00  0.00     0.217 C 
HETATM   11  O4  UNL     1       5.687   2.041  -1.753  1.00  0.00    -0.274 OA
HETATM   12  C15 UNL     1       3.615   2.386  -0.800  1.00  0.00     0.107 C 
HETATM   13  C16 UNL     1       2.592   1.487  -0.174  1.00  0.00    -0.005 C 
HETATM   14  C17 UNL     1       1.465   2.039   0.530  1.00  0.00     0.006 C 
HETATM   15  C18 UNL     1       0.333   1.025   0.537  1.00  0.00     0.010 C 
HETATM   16  C19 UNL     1       0.544  -0.325   1.031  1.00  0.00    -0.032 C 
HETATM   17  C20 UNL     1       0.882  -0.252   2.558  1.00  0.00     0.016 C 
HETATM   18  C21 UNL     1       3.359   0.649   0.841  1.00  0.00     0.011 C 
ENDROOT
BRANCH   1  19
HETATM   19  C3  UNL     1      -1.925  -0.727   0.238  1.00  0.00     0.325 C 
BRANCH  19  20
HETATM   20  O1  UNL     1      -2.955  -1.602   0.634  1.00  0.00    -0.359 OA
BRANCH  20  21
HETATM   21  C2  UNL     1      -3.914  -1.955  -0.195  1.00  0.00     0.166 C 
HETATM   22  C1  UNL     1      -3.521  -2.601  -1.496  1.00  0.00     0.033 C 
ENDBRANCH  20  21
ENDBRANCH  19  20
BRANCH  19  23
HETATM   23  N1  UNL     1      -2.449   0.620   0.687  1.00  0.00    -0.048 N 
ATOM     24  H12 UNL     1      -3.106   0.517   1.461  1.00  0.00     0.280 HD
ATOM     25  H11 UNL     1      -1.721   1.156   1.158  1.00  0.00     0.280 HD
BRANCH  23  26
HETATM   26  C4  UNL     1      -3.026   1.369  -0.373  1.00  0.00     0.245 C 
BRANCH  26  27
HETATM   27  C5  UNL     1      -3.603   2.660   0.222  1.00  0.00     0.141 C 
BRANCH  27  28
HETATM   28  C6  UNL     1      -4.217   3.506  -0.789  1.00  0.00     0.174 C 
HETATM   29  O2  UNL     1      -4.209   3.153  -1.992  1.00  0.00    -0.648 OA
HETATM   30  O3  UNL     1      -4.813   4.696  -0.452  1.00  0.00    -0.648 OA
ENDBRANCH  27  28
ENDBRANCH  26  27
ENDBRANCH  23  26
ENDBRANCH  19  23
ENDBRANCH   1  19
TORSDOF 7
