REMARK  7 active torsions:
REMARK  status: ('A' for Active; 'I' for Inactive)
REMARK    1  A    between atoms: C2_2  and  N1_3 
REMARK    2  A    between atoms: C2_2  and  C3_7 
REMARK    3  A    between atoms: C2_2  and  C4_10 
REMARK    4  A    between atoms: C3_7  and  O1_8 
REMARK    5  A    between atoms: C4_10  and  C5_11 
REMARK    6  A    between atoms: C6_14  and  C7_15 
REMARK       I    between atoms: N3_19  and  C11_20 
REMARK    7  A    between atoms: C11_20  and  C12_22 
ROOT
HETATM    1  C5  UNL     1       3.381   0.466  -0.899  1.00  0.00     0.150 A 
HETATM    2  N2  UNL     1       2.800   0.331   0.306  1.00  0.00    -0.325 N 
ATOM      3  H2  UNL     1       3.125   0.768   1.169  1.00  0.00     0.169 HD
HETATM    4  C6  UNL     1       1.726  -0.468   0.198  1.00  0.00     0.127 A 
HETATM    5  N4  UNL     1       1.690  -0.798  -1.102  1.00  0.00    -0.245 N 
ATOM      6  H4  UNL     1       0.989  -1.402  -1.531  1.00  0.00     0.196 HD
HETATM    7  O3  UNL     1       2.670  -0.241  -1.733  1.00  0.00    -0.223 OA
ENDROOT
BRANCH   4   8
HETATM    8  C7  UNL     1       0.808  -0.870   1.294  1.00  0.00     0.157 C 
HETATM    9  C8  UNL     1       1.082  -2.288   1.655  1.00  0.00     0.035 C 
HETATM   10  C9  UNL     1      -0.291  -2.883   1.853  1.00  0.00     0.022 C 
HETATM   11  C10 UNL     1      -1.078  -2.117   0.801  1.00  0.00     0.127 C 
HETATM   12  N3  UNL     1      -0.584  -0.770   0.883  1.00  0.00    -0.340 N 
HETATM   13  C11 UNL     1      -1.298   0.405   0.616  1.00  0.00     0.229 C 
HETATM   14  O2  UNL     1      -0.610   1.493   0.744  1.00  0.00    -0.272 OA
BRANCH  13  15
HETATM   15  C12 UNL     1      -2.707   0.539   0.217  1.00  0.00     0.042 C 
HETATM   16  C13 UNL     1      -3.025  -0.225  -1.021  1.00  0.00     0.024 C 
HETATM   17  C14 UNL     1      -4.514  -0.178  -1.340  1.00  0.00    -0.013 C 
HETATM   18  C15 UNL     1      -4.824   1.264  -1.686  1.00  0.00     0.009 C 
HETATM   19  C19 UNL     1      -5.244  -0.668  -0.131  1.00  0.00     0.009 C 
HETATM   20  C16 UNL     1      -4.456   2.113  -0.488  1.00  0.00    -0.013 C 
HETATM   21  C17 UNL     1      -5.375   1.725   0.631  1.00  0.00     0.009 C 
HETATM   22  C21 UNL     1      -2.996   2.022  -0.153  1.00  0.00     0.024 C 
HETATM   23  C18 UNL     1      -5.063   0.289   1.005  1.00  0.00    -0.013 C 
HETATM   24  C20 UNL     1      -3.589   0.273   1.395  1.00  0.00     0.024 C 
ENDBRANCH  13  15
ENDBRANCH   4   8
BRANCH   1  25
HETATM   25  C4  UNL     1       4.590   1.279  -1.144  1.00  0.00     0.127 C 
BRANCH  25  26
HETATM   26  C2  UNL     1       5.888   0.571  -1.025  1.00  0.00     0.148 C 
HETATM   27  C1  UNL     1       6.047  -0.586  -1.974  1.00  0.00     0.049 C 
BRANCH  26  28
HETATM   28  N1  UNL     1       6.915   1.553  -1.452  1.00  0.00    -0.068 N 
ATOM     29  H13 UNL     1       7.861   1.174  -1.489  1.00  0.00     0.275 HD
ATOM     30  H12 UNL     1       6.856   1.813  -2.437  1.00  0.00     0.275 HD
ATOM     31  H11 UNL     1       6.807   2.337  -0.809  1.00  0.00     0.275 HD
ENDBRANCH  26  28
BRANCH  26  32
HETATM   32  C3  UNL     1       6.289   0.180   0.368  1.00  0.00     0.202 C 
BRANCH  32  33
HETATM   33  O1  UNL     1       5.488  -0.744   0.980  1.00  0.00    -0.398 OA
ATOM     34  H1  UNL     1       5.742  -0.991   1.861  1.00  0.00     0.209 HD
ENDBRANCH  32  33
ENDBRANCH  26  32
ENDBRANCH  25  26
ENDBRANCH   1  25
TORSDOF 7
