REMARK  7 active torsions:
REMARK  status: ('A' for Active; 'I' for Inactive)
REMARK    1  A    between atoms: C2_2  and  C3_3 
REMARK    2  A    between atoms: C2_2  and  C22_24 
REMARK    3  A    between atoms: C3_3  and  C4_4 
REMARK    4  A    between atoms: C4_4  and  C5_5 
REMARK    5  A    between atoms: C5_5  and  C6_6 
REMARK    6  A    between atoms: C6_6  and  N1_9 
REMARK    7  A    between atoms: N1_9  and  C9_11 
ROOT
HETATM    1  N1  UNL     1      -0.449   0.036  -0.503  1.00  0.00    -0.405 N 
ATOM      2  H1  UNL     1       0.020   0.941  -0.470  1.00  0.00     0.154 HD
ENDROOT
BRANCH   1   3
HETATM    3  C6  UNL     1       0.323  -1.056  -0.823  1.00  0.00     0.019 C 
HETATM    4  C7  UNL     1       0.391  -2.191   0.161  1.00  0.00     0.037 C 
HETATM    5  C8  UNL     1       0.045  -1.689  -2.194  1.00  0.00     0.037 C 
BRANCH   3   6
HETATM    6  C5  UNL     1       1.781  -0.558  -0.958  1.00  0.00     0.030 C 
BRANCH   6   7
HETATM    7  C4  UNL     1       2.293  -0.097   0.384  1.00  0.00     0.003 C 
BRANCH   7   8
HETATM    8  C3  UNL     1       3.684   0.396   0.351  1.00  0.00     0.007 C 
BRANCH   8   9
HETATM    9  C2  UNL     1       4.712  -0.574  -0.099  1.00  0.00     0.011 C 
HETATM   10  C1  UNL     1       4.703  -1.774   0.837  1.00  0.00     0.012 C 
BRANCH   9  11
HETATM   11  C22 UNL     1       6.093   0.049   0.080  1.00  0.00     0.136 A 
HETATM   12  C23 UNL     1       6.319   1.257  -0.756  1.00  0.00     0.043 A 
HETATM   13  C24 UNL     1       6.850   2.278   0.193  1.00  0.00     0.113 A 
HETATM   14  C25 UNL     1       6.778   1.666   1.551  1.00  0.00     0.259 A 
HETATM   15  O1  UNL     1       7.025   2.203   2.653  1.00  0.00    -0.265 OA
HETATM   16  O2  UNL     1       6.380   0.363   1.405  1.00  0.00    -0.316 OA
ENDBRANCH   9  11
ENDBRANCH   8   9
ENDBRANCH   7   8
ENDBRANCH   6   7
ENDBRANCH   3   6
ENDBRANCH   1   3
BRANCH   1  17
HETATM   17  C9  UNL     1      -1.804   0.021  -0.221  1.00  0.00     0.028 C 
HETATM   18  C10 UNL     1      -2.705  -0.441  -1.344  1.00  0.00     0.039 C 
HETATM   19  C11 UNL     1      -4.168  -0.194  -1.048  1.00  0.00    -0.040 C 
HETATM   20  C12 UNL     1      -4.958  -0.638  -2.263  1.00  0.00     0.015 C 
HETATM   21  C13 UNL     1      -4.404   1.285  -0.882  1.00  0.00     0.018 C 
HETATM   22  C19 UNL     1      -4.556  -0.974   0.168  1.00  0.00     0.018 C 
HETATM   23  C14 UNL     1      -3.599   1.711   0.326  1.00  0.00    -0.040 C 
HETATM   24  C15 UNL     1      -3.836   3.169   0.547  1.00  0.00     0.015 C 
HETATM   25  C16 UNL     1      -3.990   0.944   1.565  1.00  0.00     0.018 C 
HETATM   26  C21 UNL     1      -2.164   1.487   0.061  1.00  0.00     0.039 C 
HETATM   27  C17 UNL     1      -3.688  -0.494   1.326  1.00  0.00    -0.040 C 
HETATM   28  C18 UNL     1      -4.097  -1.297   2.532  1.00  0.00     0.015 C 
HETATM   29  C20 UNL     1      -2.215  -0.744   1.019  1.00  0.00     0.039 C 
ENDBRANCH   1  17
TORSDOF 7
