REMARK  9 active torsions:
REMARK  status: ('A' for Active; 'I' for Inactive)
REMARK    1  A    between atoms: C2_2  and  O2_4 
REMARK    2  A    between atoms: O2_4  and  C3_5 
REMARK    3  A    between atoms: C7_9  and  C8_10 
REMARK    4  A    between atoms: C8_10  and  C9_11 
REMARK    5  A    between atoms: C9_11  and  C10_12 
REMARK    6  A    between atoms: C11_13  and  C13_15 
REMARK    7  A    between atoms: C13_15  and  C14_16 
REMARK    8  A    between atoms: C14_16  and  C15_17 
REMARK    9  A    between atoms: C16_18  and  O3_20 
ROOT
HETATM    1  C3  UNL     1      -5.018  -1.213  -0.522  1.00  0.00     0.145 A 
HETATM    2  C4  UNL     1      -3.688  -1.186  -1.025  1.00  0.00     0.031 A 
HETATM    3  C5  UNL     1      -2.400  -1.604  -0.333  1.00  0.00    -0.004 C 
HETATM    4  C6  UNL     1      -1.183  -1.252  -1.145  1.00  0.00     0.010 C 
HETATM    5  C7  UNL     1      -0.005  -0.530  -0.702  1.00  0.00    -0.014 C 
HETATM    6  C18 UNL     1       0.122   0.571   0.202  1.00  0.00     0.007 C 
HETATM    7  C19 UNL     1      -0.679   1.887   0.017  1.00  0.00     0.041 C 
HETATM    8  C20 UNL     1      -2.099   1.586   0.506  1.00  0.00     0.087 A 
HETATM    9  C21 UNL     1      -3.365   2.257  -0.125  1.00  0.00     0.041 C 
HETATM   10  C22 UNL     1      -4.508   1.205  -0.272  1.00  0.00     0.015 C 
HETATM   11  C23 UNL     1      -4.320   0.050  -1.140  1.00  0.00    -0.010 A 
HETATM   12  C24 UNL     1      -4.821   0.396  -2.582  1.00  0.00     0.018 C 
HETATM   13  O4  UNL     1      -2.253   0.591  -0.182  1.00  0.00    -0.369 OA
HETATM   14  C25 UNL     1      -2.390   0.438   1.180  1.00  0.00     0.157 A 
HETATM   15  C26 UNL     1      -2.313  -1.024   1.095  1.00  0.00     0.040 C 
ENDROOT
BRANCH   5  16
HETATM   16  C8  UNL     1       0.992  -1.574  -0.268  1.00  0.00     0.008 C 
BRANCH  16  17
HETATM   17  C9  UNL     1       2.334  -1.225   0.208  1.00  0.00     0.028 C 
BRANCH  17  18
HETATM   18  C10 UNL     1       3.256  -0.545  -0.700  1.00  0.00    -0.024 C 
HETATM   19  C11 UNL     1       4.050   0.434  -0.320  1.00  0.00    -0.087 C 
HETATM   20  C12 UNL     1       4.073   0.924   1.072  1.00  0.00     0.043 C 
BRANCH  19  21
HETATM   21  C13 UNL     1       4.931   1.065  -1.328  1.00  0.00     0.037 C 
BRANCH  21  22
HETATM   22  C14 UNL     1       6.390   0.963  -1.083  1.00  0.00     0.034 C 
BRANCH  22  23
HETATM   23  C15 UNL     1       6.906   1.556   0.149  1.00  0.00     0.005 C 
HETATM   24  C16 UNL     1       7.535   0.767   1.014  1.00  0.00     0.035 C 
HETATM   25  C17 UNL     1       7.713  -0.691   0.741  1.00  0.00     0.075 C 
BRANCH  24  26
HETATM   26  O3  UNL     1       8.037   1.313   2.198  1.00  0.00    -0.366 OA
ATOM     27  H3  UNL     1       8.487   0.749   2.816  1.00  0.00     0.217 HD
ENDBRANCH  24  26
ENDBRANCH  22  23
ENDBRANCH  21  22
ENDBRANCH  19  21
ENDBRANCH  17  18
ENDBRANCH  16  17
ENDBRANCH   5  16
BRANCH   1  28
HETATM   28  O2  UNL     1      -5.400  -1.174   0.821  1.00  0.00    -0.315 OA
BRANCH  28  29
HETATM   29  C2  UNL     1      -6.612  -1.533   1.340  1.00  0.00     0.255 C 
HETATM   30  C1  UNL     1      -6.946  -1.464   2.786  1.00  0.00     0.126 C 
HETATM   31  O1  UNL     1      -7.492  -1.945   0.548  1.00  0.00    -0.266 OA
ENDBRANCH  28  29
ENDBRANCH   1  28
TORSDOF 9
