REMARK  8 active torsions:
REMARK  status: ('A' for Active; 'I' for Inactive)
REMARK    1  A    between atoms: C2_2  and  O1_3 
REMARK    2  A    between atoms: O1_3  and  C3_4 
REMARK       I    between atoms: C3_4  and  N1_6 
REMARK    3  A    between atoms: N1_6  and  C4_8 
REMARK    4  A    between atoms: C13_17  and  O3_18 
REMARK    5  A    between atoms: O3_18  and  C14_19 
REMARK    6  A    between atoms: C14_19  and  C15_20 
REMARK    7  A    between atoms: C14_19  and  C17_22 
REMARK    8  A    between atoms: C17_22  and  C18_23 
ROOT
HETATM    1  C4  UNL     1       2.852   0.969  -0.012  1.00  0.00     0.060 C 
HETATM    2  C5  UNL     1       3.356   2.223   0.733  1.00  0.00     0.041 C 
HETATM    3  C6  UNL     1       3.025  -0.165   0.933  1.00  0.00     0.037 C 
HETATM    4  C7  UNL     1       2.972  -1.539   0.341  1.00  0.00     0.030 C 
HETATM    5  C8  UNL     1       2.156  -2.444   1.209  1.00  0.00    -0.024 C 
HETATM    6  C9  UNL     1       0.884  -2.699   1.077  1.00  0.00    -0.087 C 
HETATM    7  C10 UNL     1       0.220  -3.645   2.051  1.00  0.00     0.043 C 
HETATM    8  C11 UNL     1      -0.011  -2.116   0.006  1.00  0.00     0.036 C 
HETATM    9  C12 UNL     1      -0.705  -0.974   0.627  1.00  0.00     0.037 C 
HETATM   10  C13 UNL     1      -1.375   0.025  -0.275  1.00  0.00     0.128 C 
HETATM   11  C21 UNL     1      -0.638   0.356  -1.508  1.00  0.00     0.042 C 
HETATM   12  C22 UNL     1      -0.900  -0.690  -2.604  1.00  0.00     0.015 C 
HETATM   13  C23 UNL     1       0.844   0.564  -1.337  1.00  0.00     0.159 A 
HETATM   14  O4  UNL     1       1.314   1.960  -1.596  1.00  0.00    -0.372 OA
HETATM   15  C24 UNL     1       1.395   1.259  -0.322  1.00  0.00     0.179 A 
ENDROOT
BRANCH   1  16
HETATM   16  N1  UNL     1       3.652   0.850  -1.193  1.00  0.00    -0.325 N 
HETATM   17  C3  UNL     1       5.047   0.711  -1.181  1.00  0.00     0.361 C 
HETATM   18  O2  UNL     1       5.671   0.686  -0.103  1.00  0.00    -0.238 OA
ATOM     19  H1  UNL     1       3.179   0.867  -2.097  1.00  0.00     0.165 HD
BRANCH  17  20
HETATM   20  O1  UNL     1       5.747   0.600  -2.364  1.00  0.00    -0.304 OA
BRANCH  20  21
HETATM   21  C2  UNL     1       7.154   0.462  -2.297  1.00  0.00     0.176 C 
HETATM   22  C1  UNL     1       7.691   1.693  -1.595  1.00  0.00     0.034 C 
ENDBRANCH  20  21
ENDBRANCH  17  20
ENDBRANCH   1  16
BRANCH  10  23
HETATM   23  O3  UNL     1      -2.674  -0.350  -0.456  1.00  0.00    -0.380 OA
BRANCH  23  24
HETATM   24  C14 UNL     1      -3.636   0.506   0.164  1.00  0.00     0.122 C 
BRANCH  24  25
HETATM   25  C15 UNL     1      -4.628   0.862  -0.880  1.00  0.00     0.027 C 
HETATM   26  C16 UNL     1      -4.038   1.541  -2.119  1.00  0.00     0.007 C 
ENDBRANCH  24  25
BRANCH  24  27
HETATM   27  C17 UNL     1      -4.260  -0.250   1.286  1.00  0.00     0.035 C 
BRANCH  27  28
HETATM   28  C18 UNL     1      -5.289   0.408   2.101  1.00  0.00    -0.020 C 
HETATM   29  C19 UNL     1      -6.586   0.825   1.491  1.00  0.00     0.009 C 
HETATM   30  C20 UNL     1      -5.697  -0.512   3.294  1.00  0.00     0.009 C 
ENDBRANCH  27  28
ENDBRANCH  24  27
ENDBRANCH  23  24
ENDBRANCH  10  23
TORSDOF 8
