REMARK  12 active torsions:
REMARK  status: ('A' for Active; 'I' for Inactive)
REMARK    1  A    between atoms: C4_4  and  C5_5 
REMARK    2  A    between atoms: C5_5  and  C6_6 
REMARK    3  A    between atoms: C9_9  and  O1_10 
REMARK    4  A    between atoms: C11_13  and  C13_15 
REMARK    5  A    between atoms: C13_15  and  O2_16 
REMARK    6  A    between atoms: C13_15  and  C14_18 
REMARK    7  A    between atoms: C14_18  and  C15_19 
REMARK    8  A    between atoms: C16_20  and  C18_22 
REMARK    9  A    between atoms: C18_22  and  C19_23 
REMARK   10  A    between atoms: C20_24  and  C21_25 
REMARK   11  A    between atoms: C21_25  and  O3_28 
REMARK   12  A    between atoms: O3_28  and  C24_29 
ROOT
HETATM    1  C14 UNL     1      -1.192   0.927  -0.884  1.00  0.00     0.059 C 
ENDROOT
BRANCH   1   2
HETATM    2  C13 UNL     1      -2.262  -0.069  -0.630  1.00  0.00     0.130 C 
BRANCH   2   3
HETATM    3  C11 UNL     1      -3.593   0.675  -0.271  1.00  0.00    -0.011 C 
HETATM    4  C6  UNL     1      -4.665  -0.362  -0.144  1.00  0.00     0.006 C 
HETATM    5  C7  UNL     1      -4.743  -0.585   1.308  1.00  0.00     0.015 C 
HETATM    6  C8  UNL     1      -5.866  -1.345   1.880  1.00  0.00     0.013 C 
HETATM    7  C9  UNL     1      -4.538   0.768   1.956  1.00  0.00     0.123 C 
HETATM    8  C10 UNL     1      -3.410   1.325   1.086  1.00  0.00     0.044 C 
HETATM    9  C12 UNL     1      -3.797   1.697  -1.331  1.00  0.00     0.018 C 
BRANCH   4  10
HETATM   10  C5  UNL     1      -5.882   0.045  -0.882  1.00  0.00     0.033 C 
BRANCH  10  11
HETATM   11  C4  UNL     1      -7.015  -0.887  -0.863  1.00  0.00    -0.024 C 
HETATM   12  C2  UNL     1      -8.213  -0.541  -0.458  1.00  0.00    -0.091 C 
HETATM   13  C1  UNL     1      -8.602   0.794   0.025  1.00  0.00     0.042 C 
HETATM   14  C3  UNL     1      -9.302  -1.586  -0.474  1.00  0.00     0.042 C 
ENDBRANCH  10  11
ENDBRANCH   4  10
BRANCH   7  15
HETATM   15  O1  UNL     1      -5.642   1.578   1.955  1.00  0.00    -0.395 OA
ATOM     16  H1  UNL     1      -5.513   2.427   2.362  1.00  0.00     0.210 HD
ENDBRANCH   7  15
ENDBRANCH   2   3
BRANCH   2  17
HETATM   17  O2  UNL     1      -2.575  -0.696  -1.864  1.00  0.00    -0.395 OA
ATOM     18  H2  UNL     1      -1.768  -1.147  -2.082  1.00  0.00     0.210 HD
ENDBRANCH   2  17
ENDBRANCH   1   2
BRANCH   1  19
HETATM   19  C15 UNL     1       0.153   0.487  -1.207  1.00  0.00    -0.022 C 
HETATM   20  C16 UNL     1       0.769  -0.652  -1.256  1.00  0.00    -0.084 C 
HETATM   21  C17 UNL     1       0.262  -2.001  -0.974  1.00  0.00     0.043 C 
BRANCH  20  22
HETATM   22  C18 UNL     1       2.246  -0.622  -1.676  1.00  0.00     0.060 C 
BRANCH  22  23
HETATM   23  C19 UNL     1       3.126  -1.165  -0.643  1.00  0.00    -0.024 C 
HETATM   24  C20 UNL     1       4.100  -0.566  -0.059  1.00  0.00     0.007 C 
BRANCH  24  25
HETATM   25  C21 UNL     1       4.566   0.801  -0.287  1.00  0.00     0.079 C 
HETATM   26  C22 UNL     1       5.017   1.013  -1.733  1.00  0.00     0.051 C 
HETATM   27  C23 UNL     1       3.535   1.868   0.012  1.00  0.00     0.051 C 
BRANCH  25  28
HETATM   28  O3  UNL     1       5.667   1.133   0.568  1.00  0.00    -0.325 OA
BRANCH  28  29
HETATM   29  C24 UNL     1       6.846   0.467   0.565  1.00  0.00     0.115 C 
HETATM   30  N1  UNL     1       6.939  -0.523  -0.232  1.00  0.00    -0.374 N 
HETATM   31  C25 UNL     1       8.080  -1.415  -0.444  1.00  0.00     0.121 C 
ATOM     32  H1  UNL     1       6.111  -0.719  -0.795  1.00  0.00     0.161 HD
HETATM   33  C26 UNL     1       9.371  -0.622  -0.437  1.00  0.00     0.020 C 
HETATM   34  C27 UNL     1       9.862  -0.308   0.940  1.00  0.00     0.002 C 
HETATM   35  C28 UNL     1       8.747  -0.134   1.942  1.00  0.00     0.008 C 
HETATM   36  C29 UNL     1       7.875   0.996   1.504  1.00  0.00     0.084 C 
ENDBRANCH  28  29
ENDBRANCH  25  28
ENDBRANCH  24  25
ENDBRANCH  22  23
ENDBRANCH  20  22
ENDBRANCH   1  19
TORSDOF 12
