REMARK  14 active torsions:
REMARK  status: ('A' for Active; 'I' for Inactive)
REMARK    1  A    between atoms: C2_2  and  C3_3 
REMARK    2  A    between atoms: C3_3  and  C4_4 
REMARK    3  A    between atoms: C4_4  and  C5_5 
REMARK    4  A    between atoms: C5_5  and  C6_6 
REMARK    5  A    between atoms: C6_6  and  O1_7 
REMARK    6  A    between atoms: O1_7  and  C7_8 
REMARK       I    between atoms: C7_8  and  N1_10 
REMARK    7  A    between atoms: N2_13  and  C10_14 
REMARK    8  A    between atoms: C10_14  and  C11_15 
REMARK    9  A    between atoms: C10_14  and  C21_27 
REMARK   10  A    between atoms: C11_15  and  N3_16 
REMARK   11  A    between atoms: C15_20  and  C16_21 
REMARK       I    between atoms: C21_27  and  N5_29 
REMARK   12  A    between atoms: N5_29  and  C22_31 
REMARK   13  A    between atoms: C23_32  and  C24_33 
REMARK   14  A    between atoms: N6_35  and  C26_36 
ROOT
HETATM    1  N3  UNL     1      -2.073  -1.762   0.354  1.00  0.00    -0.354 N 
HETATM    2  C12 UNL     1      -2.116  -2.160  -0.995  1.00  0.00     0.065 C 
HETATM    3  C13 UNL     1      -3.410  -2.836  -1.320  1.00  0.00     0.045 C 
HETATM    4  C14 UNL     1      -3.552  -4.243  -0.876  1.00  0.00     0.010 C 
HETATM    5  C15 UNL     1      -2.392  -4.842  -0.165  1.00  0.00    -0.012 C 
HETATM    6  C18 UNL     1      -2.018  -4.108   1.099  1.00  0.00     0.045 C 
HETATM    7  C19 UNL     1      -2.696  -2.758   1.183  1.00  0.00     0.195 C 
HETATM    8  C20 UNL     1      -2.756  -2.385   2.593  1.00  0.00     0.085 C 
HETATM    9  N4  UNL     1      -2.820  -2.075   3.706  1.00  0.00    -0.195 NA
ENDROOT
BRANCH   1  10
HETATM   10  C11 UNL     1      -0.909  -1.190   0.899  1.00  0.00     0.110 C 
BRANCH  10  11
HETATM   11  C10 UNL     1      -0.496   0.176   0.416  1.00  0.00     0.352 C 
BRANCH  11  12
HETATM   12  N2  UNL     1      -0.177   0.317  -0.944  1.00  0.00     0.110 N 
HETATM   13  C9  UNL     1       0.901  -0.481  -1.450  1.00  0.00     0.294 C 
HETATM   14  C8  UNL     1       2.291  -0.021  -1.296  1.00  0.00     0.158 C 
HETATM   15  N1  UNL     1       2.532   1.257  -0.736  1.00  0.00    -0.325 N 
HETATM   16  C7  UNL     1       3.845   1.665  -0.443  1.00  0.00     0.362 C 
HETATM   17  C31 UNL     1       1.439   2.139  -0.485  1.00  0.00     0.158 C 
HETATM   18  O2  UNL     1       4.118   2.789   0.072  1.00  0.00    -0.238 OA
HETATM   19  C30 UNL     1       0.187   1.691  -1.215  1.00  0.00     0.294 C 
BRANCH  16  20
HETATM   20  O1  UNL     1       4.956   0.847  -0.706  1.00  0.00    -0.304 OA
BRANCH  20  21
HETATM   21  C6  UNL     1       6.262   1.294  -0.400  1.00  0.00     0.180 C 
BRANCH  21  22
HETATM   22  C5  UNL     1       7.309   0.291  -0.779  1.00  0.00     0.027 C 
BRANCH  22  23
HETATM   23  C4  UNL     1       7.181  -1.031  -0.099  1.00  0.00     0.002 C 
BRANCH  23  24
HETATM   24  C3  UNL     1       7.280  -0.883   1.395  1.00  0.00    -0.000 C 
BRANCH  24  25
HETATM   25  C2  UNL     1       8.589  -0.292   1.837  1.00  0.00    -0.005 C 
HETATM   26  C1  UNL     1       9.718  -1.212   1.367  1.00  0.00     0.005 C 
ENDBRANCH  24  25
ENDBRANCH  23  24
ENDBRANCH  22  23
ENDBRANCH  21  22
ENDBRANCH  20  21
ENDBRANCH  16  20
ENDBRANCH  11  12
BRANCH  11  27
HETATM   27  C21 UNL     1      -1.723   0.996   0.715  1.00  0.00     0.261 C 
HETATM   28  O3  UNL     1      -1.918   1.240   1.948  1.00  0.00    -0.270 OA
HETATM   29  N5  UNL     1      -2.647   1.493  -0.220  1.00  0.00    -0.319 N 
ATOM     30  H5  UNL     1      -2.513   1.318  -1.216  1.00  0.00     0.169 HD
BRANCH  29  31
HETATM   31  C22 UNL     1      -3.768   2.241   0.229  1.00  0.00     0.127 A 
HETATM   32  C23 UNL     1      -3.815   3.593   0.413  1.00  0.00     0.048 A 
HETATM   33  N6  UNL     1      -4.947   4.198   0.871  1.00  0.00    -0.301 N 
HETATM   34  C28 UNL     1      -6.037   3.459   1.146  1.00  0.00     0.329 A 
HETATM   35  O4  UNL     1      -7.063   4.080   1.570  1.00  0.00    -0.246 OA
HETATM   36  N7  UNL     1      -6.034   2.134   0.979  1.00  0.00    -0.273 N 
HETATM   37  C29 UNL     1      -4.928   1.527   0.530  1.00  0.00     0.278 A 
ATOM     38  H7  UNL     1      -6.869   1.588   1.192  1.00  0.00     0.173 HD
HETATM   39  O5  UNL     1      -4.921   0.274   0.371  1.00  0.00    -0.265 OA
BRANCH  32  40
HETATM   40  C24 UNL     1      -2.671   4.446   0.103  1.00  0.00     0.055 C 
HETATM   41  C25 UNL     1      -2.536   4.749  -1.386  1.00  0.00     0.011 C 
ENDBRANCH  32  40
BRANCH  33  42
HETATM   42  C26 UNL     1      -4.964   5.623   1.054  1.00  0.00     0.129 C 
HETATM   43  C27 UNL     1      -4.527   6.030   2.444  1.00  0.00     0.027 C 
ENDBRANCH  33  42
ENDBRANCH  29  31
ENDBRANCH  11  27
ENDBRANCH  10  11
ENDBRANCH   1  10
BRANCH   5  44
HETATM   44  C16 UNL     1      -2.585  -6.293   0.092  1.00  0.00     0.000 C 
HETATM   45  C17 UNL     1      -2.764  -7.128  -1.131  1.00  0.00     0.005 C 
ENDBRANCH   5  44
TORSDOF 14
