REMARK  17 active torsions:
REMARK  status: ('A' for Active; 'I' for Inactive)
REMARK    1  A    between atoms: C2_2  and  C3_3 
REMARK    2  A    between atoms: C3_3  and  C4_4 
REMARK    3  A    between atoms: C7_9  and  C8_10 
REMARK    4  A    between atoms: C8_10  and  C9_11 
REMARK    5  A    between atoms: C10_12  and  N2_13 
REMARK    6  A    between atoms: N3_16  and  C13_17 
REMARK    7  A    between atoms: C13_17  and  O1_18 
REMARK    8  A    between atoms: C13_17  and  C14_20 
REMARK       I    between atoms: C14_20  and  N4_22 
REMARK    9  A    between atoms: N4_22  and  C15_24 
REMARK   10  A    between atoms: C15_24  and  C16_25 
REMARK   11  A    between atoms: N6_33  and  C20_34 
REMARK   12  A    between atoms: C20_34  and  C21_35 
REMARK   13  A    between atoms: C24_38  and  C25_39 
REMARK   14  A    between atoms: C25_39  and  N7_40 
REMARK       I    between atoms: N7_40  and  C27_42 
REMARK   15  A    between atoms: C27_42  and  C28_44 
REMARK   16  A    between atoms: C28_44  and  C29_45 
REMARK   17  A    between atoms: C28_44  and  C31_47 
ROOT
HETATM    1  C4  UNL     1      -1.235   3.784   3.232  1.00  0.00     0.022 C 
HETATM    2  C5  UNL     1      -0.143   3.341   2.608  1.00  0.00     0.104 A 
HETATM    3  N1  UNL     1       1.020   2.960   3.185  1.00  0.00    -0.350 N 
ATOM      4  H1  UNL     1       1.206   2.966   4.188  1.00  0.00     0.166 HD
HETATM    5  C6  UNL     1       1.893   2.573   2.242  1.00  0.00     0.119 A 
HETATM    6  C7  UNL     1       1.277   2.706   1.000  1.00  0.00     0.052 A 
HETATM    7  N6  UNL     1       0.032   3.180   1.289  1.00  0.00    -0.327 N 
ENDROOT
BRANCH   6   8
HETATM    8  C8  UNL     1       1.793   2.465  -0.192  1.00  0.00     0.052 C 
BRANCH   8   9
HETATM    9  C9  UNL     1       3.190   1.999  -0.237  1.00  0.00     0.079 A 
HETATM   10  C10 UNL     1       3.503   0.704  -0.593  1.00  0.00     0.131 A 
HETATM   11  N3  UNL     1       4.796   0.277  -0.622  1.00  0.00    -0.223 N 
HETATM   12  C18 UNL     1       5.705   1.207  -0.282  1.00  0.00     0.337 A 
HETATM   13  O3  UNL     1       6.921   0.948  -0.266  1.00  0.00    -0.246 OA
HETATM   14  N5  UNL     1       5.403   2.493   0.071  1.00  0.00    -0.274 N 
HETATM   15  C19 UNL     1       4.143   2.924   0.104  1.00  0.00     0.263 A 
ATOM     16  H5  UNL     1       6.157   3.135   0.314  1.00  0.00     0.173 HD
HETATM   17  O4  UNL     1       3.838   4.105   0.424  1.00  0.00    -0.267 OA
BRANCH  10  18
HETATM   18  N2  UNL     1       2.406  -0.117  -0.941  1.00  0.00    -0.375 N 
HETATM   19  C11 UNL     1       1.992  -0.103  -2.356  1.00  0.00     0.150 C 
HETATM   20  C12 UNL     1       1.626  -0.925  -0.043  1.00  0.00     0.150 C 
ENDBRANCH  10  18
BRANCH  11  21
HETATM   21  C13 UNL     1       5.102  -1.051  -0.975  1.00  0.00     0.222 C 
BRANCH  21  22
HETATM   22  O1  UNL     1       4.085  -1.832  -1.252  1.00  0.00    -0.342 OA
ATOM     23  H1  UNL     1       4.291  -2.728  -1.490  1.00  0.00     0.219 HD
ENDBRANCH  21  22
BRANCH  21  24
HETATM   24  C14 UNL     1       6.335  -1.768  -1.104  1.00  0.00     0.293 C 
HETATM   25  O2  UNL     1       7.455  -1.255  -0.907  1.00  0.00    -0.264 OA
HETATM   26  N4  UNL     1       6.331  -3.167  -1.482  1.00  0.00    -0.354 N 
ATOM     27  H4  UNL     1       5.436  -3.626  -1.653  1.00  0.00     0.162 HD
BRANCH  26  28
HETATM   28  C15 UNL     1       7.533  -3.929  -1.624  1.00  0.00     0.122 C 
BRANCH  28  29
HETATM   29  C16 UNL     1       8.488  -3.436  -2.671  1.00  0.00     0.015 C 
HETATM   30  C17 UNL     1       9.711  -4.354  -2.711  1.00  0.00     0.006 C 
ENDBRANCH  28  29
ENDBRANCH  26  28
ENDBRANCH  21  24
ENDBRANCH  11  21
ENDBRANCH   8   9
ENDBRANCH   6   8
BRANCH   7  31
HETATM   31  C20 UNL     1      -0.949   3.476   0.251  1.00  0.00     0.187 C 
BRANCH  31  32
HETATM   32  C21 UNL     1      -1.865   2.340  -0.005  1.00  0.00     0.028 A 
HETATM   33  C22 UNL     1      -3.176   2.211   0.475  1.00  0.00     0.028 A 
HETATM   34  C23 UNL     1      -3.705   1.016   0.057  1.00  0.00     0.028 A 
HETATM   35  C24 UNL     1      -2.719   0.404  -0.685  1.00  0.00     0.027 A 
HETATM   36  N8  UNL     1      -1.619   1.225  -0.707  1.00  0.00    -0.360 N 
ATOM     37  H8  UNL     1      -0.743   1.017  -1.187  1.00  0.00     0.165 HD
BRANCH  35  38
HETATM   38  C25 UNL     1      -2.835  -0.927  -1.327  1.00  0.00     0.182 C 
BRANCH  38  39
HETATM   39  N7  UNL     1      -3.939  -1.627  -0.625  1.00  0.00    -0.351 N 
HETATM   40  C26 UNL     1      -3.571  -2.362   0.539  1.00  0.00     0.153 C 
HETATM   41  C27 UNL     1      -5.255  -1.511  -1.087  1.00  0.00     0.224 C 
HETATM   42  O5  UNL     1      -5.515  -0.764  -2.117  1.00  0.00    -0.273 OA
BRANCH  41  43
HETATM   43  C28 UNL     1      -6.382  -2.209  -0.456  1.00  0.00     0.077 C 
BRANCH  43  44
HETATM   44  C29 UNL     1      -6.451  -3.640  -0.870  1.00  0.00     0.009 C 
HETATM   45  C30 UNL     1      -6.608  -3.739  -2.361  1.00  0.00     0.006 C 
ENDBRANCH  43  44
BRANCH  43  46
HETATM   46  C31 UNL     1      -7.699  -1.539  -0.825  1.00  0.00     0.009 C 
HETATM   47  C32 UNL     1      -8.815  -2.284  -0.173  1.00  0.00     0.006 C 
ENDBRANCH  43  46
ENDBRANCH  41  43
ENDBRANCH  38  39
ENDBRANCH  35  38
ENDBRANCH  31  32
ENDBRANCH   7  31
BRANCH   1  48
HETATM   48  C3  UNL     1      -1.185   3.875   4.713  1.00  0.00     0.030 C 
BRANCH  48  49
HETATM   49  C2  UNL     1      -0.875   5.277   5.202  1.00  0.00    -0.001 C 
HETATM   50  C1  UNL     1      -0.855   5.274   6.712  1.00  0.00     0.005 C 
ENDBRANCH  48  49
ENDBRANCH   1  48
TORSDOF 17
