REMARK  8 active torsions:
REMARK  status: ('A' for Active; 'I' for Inactive)
REMARK    1  A    between atoms: O1_2  and  C2_3 
REMARK    2  A    between atoms: C4_5  and  C5_6 
REMARK    3  A    between atoms: C5_6  and  C6_8 
REMARK    4  A    between atoms: C8_10  and  O3_11 
REMARK    5  A    between atoms: C10_13  and  O4_14 
REMARK    6  A    between atoms: C14_19  and  O5_20 
REMARK    7  A    between atoms: C16_23  and  O6_24 
REMARK    8  A    between atoms: C18_26  and  O7_27 
ROOT
HETATM    1  C6  UNL     1       1.202  -1.460   0.690  1.00  0.00     0.052 A 
HETATM    2  C7  UNL     1       1.536  -0.321  -0.034  1.00  0.00     0.058 A 
HETATM    3  C8  UNL     1       2.796  -0.198  -0.597  1.00  0.00     0.104 A 
HETATM    4  C10 UNL     1       3.719  -1.198  -0.440  1.00  0.00     0.125 A 
HETATM    5  C12 UNL     1       3.430  -2.337   0.267  1.00  0.00     0.114 A 
HETATM    6  C13 UNL     1       4.384  -3.392   0.439  1.00  0.00     0.105 C 
HETATM    7  N1  UNL     1       5.143  -4.257   0.590  1.00  0.00    -0.191 NA
HETATM    8  C14 UNL     1       2.144  -2.451   0.834  1.00  0.00     0.103 A 
ENDROOT
BRANCH   4   9
HETATM    9  O4  UNL     1       4.976  -1.063  -1.007  1.00  0.00    -0.352 OA
HETATM   10  C11 UNL     1       6.000  -0.455  -0.229  1.00  0.00     0.210 C 
ENDBRANCH   4   9
BRANCH   8  11
HETATM   11  O5  UNL     1       1.889  -3.594   1.527  1.00  0.00    -0.358 OA
ATOM     12  H5  UNL     1       2.540  -4.279   1.627  1.00  0.00     0.217 HD
ENDBRANCH   8  11
BRANCH   3  13
HETATM   13  O3  UNL     1       3.105   0.931  -1.304  1.00  0.00    -0.353 OA
HETATM   14  C9  UNL     1       2.262   2.020  -1.529  1.00  0.00     0.210 C 
ENDBRANCH   3  13
BRANCH   1  15
HETATM   15  C5  UNL     1      -0.102  -1.465   1.314  1.00  0.00     0.195 C 
HETATM   16  O2  UNL     1      -0.261  -2.189   2.346  1.00  0.00    -0.287 OA
BRANCH  15  17
HETATM   17  C4  UNL     1      -1.264  -0.703   0.854  1.00  0.00     0.020 A 
HETATM   18  C3  UNL     1      -1.463  -0.442  -0.479  1.00  0.00     0.055 A 
HETATM   19  C2  UNL     1      -2.533   0.314  -0.912  1.00  0.00     0.105 A 
HETATM   20  C18 UNL     1      -3.435   0.826   0.010  1.00  0.00     0.135 A 
HETATM   21  C16 UNL     1      -3.270   0.583   1.359  1.00  0.00     0.105 A 
HETATM   22  C15 UNL     1      -2.188  -0.174   1.733  1.00  0.00     0.055 A 
BRANCH  19  23
HETATM   23  O1  UNL     1      -2.700   0.556  -2.243  1.00  0.00    -0.353 OA
HETATM   24  C1  UNL     1      -1.890   0.110  -3.285  1.00  0.00     0.210 C 
ENDBRANCH  19  23
BRANCH  20  25
HETATM   25  O7  UNL     1      -4.500   1.581  -0.453  1.00  0.00    -0.351 OA
HETATM   26  C19 UNL     1      -4.487   2.966  -0.651  1.00  0.00     0.210 C 
ENDBRANCH  20  25
BRANCH  21  27
HETATM   27  O6  UNL     1      -4.192   1.106   2.274  1.00  0.00    -0.353 OA
HETATM   28  C17 UNL     1      -4.001   0.848   3.634  1.00  0.00     0.210 C 
ENDBRANCH  21  27
ENDBRANCH  15  17
ENDBRANCH   1  15
TORSDOF 8
