REMARK  15 active torsions:
REMARK  status: ('A' for Active; 'I' for Inactive)
REMARK    1  A    between atoms: C2_2  and  C25_30 
REMARK    2  A    between atoms: C3_3  and  C4_4 
REMARK    3  A    between atoms: C4_4  and  C5_5 
REMARK    4  A    between atoms: C5_5  and  C6_6 
REMARK    5  A    between atoms: C6_6  and  C8_8 
REMARK    6  A    between atoms: C8_8  and  C9_9 
REMARK    7  A    between atoms: C9_9  and  C10_10 
REMARK    8  A    between atoms: C10_10  and  C11_11 
REMARK    9  A    between atoms: C11_11  and  C13_13 
REMARK   10  A    between atoms: C13_13  and  C14_14 
REMARK   11  A    between atoms: C14_14  and  C15_15 
REMARK   12  A    between atoms: C15_15  and  C16_16 
REMARK   13  A    between atoms: C19_19  and  C21_21 
REMARK   14  A    between atoms: C21_21  and  O1_22 
REMARK   15  A    between atoms: C24_27  and  O3_28 
ROOT
HETATM    1  C25 UNL     1       5.728   3.336   0.532  1.00  0.00     0.157 C 
HETATM    2  C26 UNL     1       4.750   3.938  -0.361  1.00  0.00     0.063 C 
HETATM    3  N1  UNL     1       3.971   4.435  -1.065  1.00  0.00    -0.197 NA
ENDROOT
BRANCH   1   4
HETATM    4  C2  UNL     1       6.078   1.948   0.125  1.00  0.00    -0.075 C 
HETATM    5  C1  UNL     1       7.058   1.199   0.931  1.00  0.00     0.044 C 
HETATM    6  C3  UNL     1       5.497   1.435  -0.946  1.00  0.00    -0.023 C 
BRANCH   6   7
HETATM    7  C4  UNL     1       5.753   0.064  -1.461  1.00  0.00     0.028 C 
BRANCH   7   8
HETATM    8  C5  UNL     1       4.525  -0.764  -1.576  1.00  0.00     0.008 C 
BRANCH   8   9
HETATM    9  C6  UNL     1       3.761  -1.020  -0.331  1.00  0.00    -0.018 C 
HETATM   10  C7  UNL     1       4.542  -1.741   0.710  1.00  0.00     0.010 C 
BRANCH   9  11
HETATM   11  C8  UNL     1       2.489  -1.788  -0.741  1.00  0.00     0.004 C 
BRANCH  11  12
HETATM   12  C9  UNL     1       1.645  -2.101   0.425  1.00  0.00     0.005 C 
BRANCH  12  13
HETATM   13  C10 UNL     1       0.427  -2.899   0.090  1.00  0.00     0.034 C 
BRANCH  13  14
HETATM   14  C11 UNL     1      -0.558  -2.327  -0.828  1.00  0.00    -0.084 C 
HETATM   15  C12 UNL     1      -0.169  -2.117  -2.263  1.00  0.00     0.043 C 
BRANCH  14  16
HETATM   16  C13 UNL     1      -1.811  -2.043  -0.438  1.00  0.00     0.002 C 
BRANCH  16  17
HETATM   17  C14 UNL     1      -2.422  -2.219   0.853  1.00  0.00    -0.003 C 
BRANCH  17  18
HETATM   18  C15 UNL     1      -2.875  -1.103   1.666  1.00  0.00    -0.015 C 
BRANCH  18  19
HETATM   19  C16 UNL     1      -3.866  -0.107   1.300  1.00  0.00     0.001 C 
HETATM   20  C17 UNL     1      -3.956   0.787   2.578  1.00  0.00     0.022 C 
HETATM   21  C18 UNL     1      -3.383   0.875   0.274  1.00  0.00     0.035 C 
HETATM   22  C19 UNL     1      -4.464   1.755  -0.299  1.00  0.00     0.039 C 
HETATM   23  C20 UNL     1      -4.850   2.912   0.567  1.00  0.00     0.025 C 
HETATM   24  C22 UNL     1      -5.641   0.956  -0.741  1.00  0.00     0.139 C 
HETATM   25  O2  UNL     1      -6.574   1.460  -1.307  1.00  0.00    -0.297 OA
HETATM   26  C23 UNL     1      -5.585  -0.500  -0.437  1.00  0.00     0.112 C 
HETATM   27  C24 UNL     1      -5.269  -0.572   1.067  1.00  0.00     0.137 C 
BRANCH  22  28
HETATM   28  C21 UNL     1      -3.899   2.360  -1.600  1.00  0.00     0.181 C 
BRANCH  28  29
HETATM   29  O1  UNL     1      -2.745   3.113  -1.311  1.00  0.00    -0.400 OA
ATOM     30  H1  UNL     1      -2.397   3.486  -2.113  1.00  0.00     0.209 HD
ENDBRANCH  28  29
ENDBRANCH  22  28
BRANCH  27  31
HETATM   31  O3  UNL     1      -5.542  -1.842   1.483  1.00  0.00    -0.394 OA
ATOM     32  H3  UNL     1      -6.433  -2.137   1.335  1.00  0.00     0.210 HD
ENDBRANCH  27  31
ENDBRANCH  18  19
ENDBRANCH  17  18
ENDBRANCH  16  17
ENDBRANCH  14  16
ENDBRANCH  13  14
ENDBRANCH  12  13
ENDBRANCH  11  12
ENDBRANCH   9  11
ENDBRANCH   8   9
ENDBRANCH   7   8
ENDBRANCH   6   7
ENDBRANCH   1   4
TORSDOF 15
