REMARK  5 active torsions:
REMARK  status: ('A' for Active; 'I' for Inactive)
REMARK    1  A    between atoms: C2_2  and  C3_3 
REMARK    2  A    between atoms: C3_3  and  C4_4 
REMARK    3  A    between atoms: C4_4  and  C5_5 
REMARK    4  A    between atoms: C8_9  and  C9_10 
REMARK    5  A    between atoms: C11_13  and  O1_14 
ROOT
HETATM    1  C9  UNL     1       4.253  -0.043   1.105  1.00  0.00    -0.045 C 
HETATM    2  C10 UNL     1       5.428  -0.202   1.388  1.00  0.00     0.010 C 
HETATM    3 CL2  UNL     1       7.103  -0.401   1.778  1.00  0.00    -0.023 Cl
ENDROOT
BRANCH   1   4
HETATM    4  C8  UNL     1       2.871   0.160   0.758  1.00  0.00     0.075 A 
HETATM    5  C7  UNL     1       1.949   0.311   1.743  1.00  0.00     0.056 A 
HETATM    6  C6  UNL     1       0.623   0.506   1.405  1.00  0.00     0.034 A 
HETATM    7 CL1  UNL     1       2.410   0.264   3.448  1.00  0.00    -0.083 Cl
HETATM    8  C5  UNL     1       0.234   0.547   0.084  1.00  0.00    -0.032 A 
HETATM    9  C12 UNL     1       1.186   0.391  -0.903  1.00  0.00     0.075 A 
HETATM   10  C11 UNL     1       2.517   0.196  -0.586  1.00  0.00     0.108 A 
HETATM   11 CL3  UNL     1       0.776   0.431  -2.605  1.00  0.00    -0.081 Cl
BRANCH   8  12
HETATM   12  C4  UNL     1      -1.189   0.756  -0.272  1.00  0.00     0.040 C 
BRANCH  12  13
HETATM   13  C3  UNL     1      -1.796  -0.544  -0.704  1.00  0.00     0.004 C 
BRANCH  13  14
HETATM   14  C2  UNL     1      -3.258  -0.353  -1.076  1.00  0.00    -0.004 C 
HETATM   15  C1  UNL     1      -3.986   0.164   0.130  1.00  0.00     0.005 C 
ENDBRANCH  13  14
ENDBRANCH  12  13
ENDBRANCH   8  12
BRANCH  10  16
HETATM   16  O1  UNL     1       3.480   0.038  -1.574  1.00  0.00    -0.357 OA
ATOM     17  H1  UNL     1       3.238   0.063  -2.492  1.00  0.00     0.217 HD
ENDBRANCH  10  16
ENDBRANCH   1   4
TORSDOF 5
