REMARK  4 active torsions:
REMARK  status: ('A' for Active; 'I' for Inactive)
REMARK    1  A    between atoms: O1_1  and  C1_3 
REMARK    2  A    between atoms: C1_3  and  C2_4 
REMARK    3  A    between atoms: C5_10  and  C6_11 
REMARK    4  A    between atoms: C6_11  and  N2_12 
ROOT
HETATM    1  C2  UNL     1       2.263  -0.076  -0.410  1.00  0.00     0.035 C 
HETATM    2  C3  UNL     1       2.099  -1.146   0.624  1.00  0.00     0.239 C 
HETATM    3  N1  UNL     1       1.198  -0.810   1.684  1.00  0.00    -0.074 N 
ATOM      4  H11 UNL     1       1.514   0.015   2.193  1.00  0.00     0.277 HD
ATOM      5  H12 UNL     1       1.244  -1.492   2.441  1.00  0.00     0.277 HD
HETATM    6  C4  UNL     1      -0.171  -0.644   1.199  1.00  0.00     0.238 C 
HETATM    7  C5  UNL     1      -0.215  -0.114  -0.192  1.00  0.00     0.030 C 
HETATM    8  C10 UNL     1       1.006   0.779  -0.396  1.00  0.00     0.016 C 
ENDROOT
BRANCH   7   9
HETATM    9  C6  UNL     1      -1.421   0.708  -0.499  1.00  0.00     0.135 C 
BRANCH   9  10
HETATM   10  N2  UNL     1      -2.663   0.000  -0.345  1.00  0.00    -0.351 N 
HETATM   11  C7  UNL     1      -3.358  -0.044   0.804  1.00  0.00     0.108 A 
HETATM   12  C8  UNL     1      -4.474  -0.812   0.543  1.00  0.00     0.106 A 
HETATM   13  N3  UNL     1      -4.423  -1.210  -0.753  1.00  0.00    -0.361 N 
HETATM   14  C9  UNL     1      -3.300  -0.703  -1.292  1.00  0.00     0.182 A 
ATOM     15  H3  UNL     1      -5.112  -1.789  -1.232  1.00  0.00     0.166 HD
ENDBRANCH   9  10
ENDBRANCH   7   9
BRANCH   1  16
HETATM   16  C1  UNL     1       3.412   0.821   0.004  1.00  0.00     0.170 C 
BRANCH  16  17
HETATM   17  O1  UNL     1       3.574   1.831  -0.961  1.00  0.00    -0.400 OA
ATOM     18  H1  UNL     1       4.294   2.393  -0.701  1.00  0.00     0.209 HD
ENDBRANCH  16  17
ENDBRANCH   1  16
TORSDOF 4
