REMARK  8 active torsions:
REMARK  status: ('A' for Active; 'I' for Inactive)
REMARK    1  A    between atoms: C4_5  and  N1_6 
REMARK       I    between atoms: N1_6  and  C5_8 
REMARK    2  A    between atoms: C5_8  and  C6_10 
REMARK    3  A    between atoms: C6_10  and  S2_11 
REMARK    4  A    between atoms: S2_11  and  C7_12 
REMARK    5  A    between atoms: C8_17  and  C9_18 
REMARK    6  A    between atoms: C9_18  and  O2_19 
REMARK    7  A    between atoms: O2_19  and  C10_20 
REMARK    8  A    between atoms: C10_20  and  C11_22 
ROOT
HETATM    1  C7  UNL     1       0.204   0.570  -0.871  1.00  0.00     0.162 A 
HETATM    2  N2  UNL     1      -0.314   1.836  -0.823  1.00  0.00    -0.278 N 
ATOM      3  H2  UNL     1       0.003   2.633  -1.375  1.00  0.00     0.189 HD
HETATM    4  N3  UNL     1      -1.292   1.846   0.059  1.00  0.00    -0.285 N 
ATOM      5  H3  UNL     1      -1.866   2.650   0.313  1.00  0.00     0.188 HD
HETATM    6  C8  UNL     1      -1.398   0.595   0.568  1.00  0.00     0.124 A 
HETATM    7  N4  UNL     1      -0.463  -0.198  -0.013  1.00  0.00    -0.318 N 
HETATM    8  C15 UNL     1      -0.270  -1.600   0.260  1.00  0.00     0.160 C 
ENDROOT
BRANCH   1   9
HETATM    9  S2  UNL     1       1.535   0.064  -1.937  1.00  0.00    -0.083 SA
BRANCH   9  10
HETATM   10  C6  UNL     1       3.151   0.380  -1.208  1.00  0.00     0.185 C 
BRANCH  10  11
HETATM   11  C5  UNL     1       3.464  -0.444  -0.028  1.00  0.00     0.233 C 
HETATM   12  N1  UNL     1       4.354  -1.532  -0.174  1.00  0.00    -0.306 N 
ATOM     13  H1  UNL     1       4.020  -2.491  -0.264  1.00  0.00     0.171 HD
HETATM   14  O1  UNL     1       2.977  -0.218   1.100  1.00  0.00    -0.272 OA
BRANCH  12  15
HETATM   15  C4  UNL     1       5.642  -1.239  -0.187  1.00  0.00     0.151 A 
HETATM   16  S1  UNL     1       6.972  -2.299  -0.342  1.00  0.00    -0.064 SA
HETATM   17  C3  UNL     1       8.222  -1.135  -0.263  1.00  0.00     0.077 A 
HETATM   18  C2  UNL     1       7.521   0.030  -0.117  1.00  0.00     0.014 A 
HETATM   19  C1  UNL     1       8.283   1.341  -0.005  1.00  0.00     0.068 C 
HETATM   20  N5  UNL     1       6.221  -0.041  -0.081  1.00  0.00    -0.340 N 
ATOM     21  H5  UNL     1       5.657   0.802   0.026  1.00  0.00     0.167 HD
ENDBRANCH  12  15
ENDBRANCH  10  11
ENDBRANCH   9  10
ENDBRANCH   1   9
BRANCH   6  22
HETATM   22  C9  UNL     1      -2.369   0.187   1.612  1.00  0.00     0.257 C 
BRANCH  22  23
HETATM   23  O2  UNL     1      -3.712   0.377   1.265  1.00  0.00    -0.313 OA
BRANCH  23  24
HETATM   24  C10 UNL     1      -4.400  -0.165   0.223  1.00  0.00     0.266 C 
HETATM   25  O3  UNL     1      -3.770  -0.942  -0.553  1.00  0.00    -0.264 OA
BRANCH  24  26
HETATM   26  C11 UNL     1      -5.851   0.106  -0.058  1.00  0.00     0.037 C 
HETATM   27  C12 UNL     1      -6.064   1.562  -0.363  1.00  0.00     0.025 C 
HETATM   28  C13 UNL     1      -6.577  -0.187   1.257  1.00  0.00     0.025 C 
HETATM   29  C14 UNL     1      -6.345  -0.795  -1.148  1.00  0.00     0.025 C 
ENDBRANCH  24  26
ENDBRANCH  23  24
ENDBRANCH  22  23
ENDBRANCH   6  22
TORSDOF 8
