REMARK  14 active torsions:
REMARK  status: ('A' for Active; 'I' for Inactive)
REMARK    1  A    between atoms: O1_2  and  C2_3 
REMARK    2  A    between atoms: C2_3  and  C3_5 
REMARK    3  A    between atoms: C4_6  and  C5_7 
REMARK    4  A    between atoms: C6_8  and  C7_9 
REMARK    5  A    between atoms: C7_9  and  O4_11 
REMARK    6  A    between atoms: O4_11  and  C8_12 
REMARK    7  A    between atoms: C8_12  and  C9_13 
REMARK    8  A    between atoms: C9_13  and  O5_14 
REMARK    9  A    between atoms: C16_22  and  O6_23 
REMARK   10  A    between atoms: C18_25  and  O7_26 
REMARK   11  A    between atoms: C20_28  and  O8_29 
REMARK   12  A    between atoms: C22_31  and  O9_32 
REMARK   13  A    between atoms: C25_35  and  O10_36 
REMARK   14  A    between atoms: C27_38  and  C28_39 
ROOT
HETATM    1  C5  UNL     1      -1.089   1.247   0.564  1.00  0.00     0.031 A 
HETATM    2  C6  UNL     1       0.248   1.194   0.239  1.00  0.00     0.056 A 
HETATM    3  C15 UNL     1       0.920   2.380  -0.002  1.00  0.00     0.058 A 
HETATM    4  C16 UNL     1       0.264   3.608   0.079  1.00  0.00     0.105 A 
HETATM    5  C18 UNL     1      -1.073   3.668   0.403  1.00  0.00     0.136 A 
HETATM    6  C20 UNL     1      -1.750   2.482   0.646  1.00  0.00     0.116 A 
ENDROOT
BRANCH   1   7
HETATM    7  C4  UNL     1      -1.833   0.039   0.829  1.00  0.00     0.028 A 
HETATM    8  C3  UNL     1      -2.510  -0.608  -0.188  1.00  0.00     0.062 A 
HETATM    9  C27 UNL     1      -3.225  -1.767   0.106  1.00  0.00    -0.004 A 
HETATM   10  C25 UNL     1      -3.250  -2.251   1.384  1.00  0.00     0.078 A 
HETATM   11  C24 UNL     1      -2.552  -1.572   2.396  1.00  0.00     0.075 A 
HETATM   12  C22 UNL     1      -1.840  -0.427   2.128  1.00  0.00     0.083 A 
BRANCH   8  13
HETATM   13  C2  UNL     1      -2.510  -0.092  -1.540  1.00  0.00     0.294 C 
HETATM   14  O2  UNL     1      -3.383   0.711  -1.973  1.00  0.00    -0.259 OA
BRANCH  13  15
HETATM   15  O1  UNL     1      -1.536  -0.448  -2.464  1.00  0.00    -0.322 OA
HETATM   16  C1  UNL     1      -1.497   0.032  -3.794  1.00  0.00     0.213 C 
ENDBRANCH  13  15
ENDBRANCH   8  13
BRANCH   9  17
HETATM   17  C28 UNL     1      -3.912  -2.423  -0.994  1.00  0.00     0.014 C 
HETATM   18  C29 UNL     1      -4.961  -3.443  -0.604  1.00  0.00     0.015 C 
HETATM   19  C30 UNL     1      -2.964  -3.150  -1.929  1.00  0.00     0.015 C 
ENDBRANCH   9  17
BRANCH  10  20
HETATM   20  O10 UNL     1      -3.943  -3.392   1.714  1.00  0.00    -0.355 OA
HETATM   21  C26 UNL     1      -3.935  -3.847   3.049  1.00  0.00     0.210 C 
ENDBRANCH  10  20
BRANCH  12  22
HETATM   22  O9  UNL     1      -1.152   0.235   3.140  1.00  0.00    -0.355 OA
HETATM   23  C23 UNL     1      -1.141  -0.215   4.473  1.00  0.00     0.210 C 
ENDBRANCH  12  22
ENDBRANCH   1   7
BRANCH   2  24
HETATM   24  C7  UNL     1       1.003  -0.044   0.122  1.00  0.00     0.294 C 
HETATM   25  O3  UNL     1       0.503  -1.191   0.299  1.00  0.00    -0.259 OA
BRANCH  24  26
HETATM   26  O4  UNL     1       2.351  -0.015  -0.201  1.00  0.00    -0.314 OA
BRANCH  26  27
HETATM   27  C8  UNL     1       3.087  -1.190  -0.319  1.00  0.00     0.217 C 
BRANCH  27  28
HETATM   28  C9  UNL     1       4.526  -0.868  -0.670  1.00  0.00     0.080 C 
HETATM   29  C10 UNL     1       5.264  -2.151  -0.829  1.00  0.00     0.040 C 
HETATM   30  C11 UNL     1       6.625  -1.989  -1.456  1.00  0.00     0.003 C 
HETATM   31  C12 UNL     1       6.434  -1.352  -2.814  1.00  0.00     0.000 C 
HETATM   32  C13 UNL     1       5.858   0.021  -2.597  1.00  0.00     0.003 C 
HETATM   33  C14 UNL     1       4.506  -0.026  -1.923  1.00  0.00     0.040 C 
BRANCH  28  34
HETATM   34  O5  UNL     1       5.046  -0.080   0.359  1.00  0.00    -0.388 OA
ATOM     35  H5  UNL     1       5.948   0.122   0.139  1.00  0.00     0.210 HD
ENDBRANCH  28  34
ENDBRANCH  27  28
ENDBRANCH  26  27
ENDBRANCH  24  26
ENDBRANCH   2  24
BRANCH   6  36
HETATM   36  O8  UNL     1      -3.092   2.596   0.965  1.00  0.00    -0.352 OA
HETATM   37  C21 UNL     1      -3.606   2.745   2.267  1.00  0.00     0.210 C 
ENDBRANCH   6  36
BRANCH   5  38
HETATM   38  O7  UNL     1      -1.689   4.878   0.475  1.00  0.00    -0.351 OA
HETATM   39  C19 UNL     1      -1.831   5.721   1.569  1.00  0.00     0.210 C 
ENDBRANCH   5  38
BRANCH   4  40
HETATM   40  O6  UNL     1       0.929   4.800  -0.161  1.00  0.00    -0.353 OA
HETATM   41  C17 UNL     1       2.303   4.725  -0.492  1.00  0.00     0.210 C 
ENDBRANCH   4  40
TORSDOF 14
