REMARK  10 active torsions:
REMARK  status: ('A' for Active; 'I' for Inactive)
REMARK    1  A    between atoms: C2_2  and  C3_3 
REMARK    2  A    between atoms: C3_3  and  N1_6 
REMARK    3  A    between atoms: N1_6  and  S1_8 
REMARK    4  A    between atoms: S1_8  and  O3_11 
REMARK    5  A    between atoms: O3_11  and  C6_12 
REMARK    6  A    between atoms: C10_16  and  C11_17 
REMARK    7  A    between atoms: C11_17  and  N2_18 
REMARK    8  A    between atoms: C11_17  and  C20_31 
REMARK       I    between atoms: N2_18  and  C12_20 
REMARK       I    between atoms: C12_20  and  N3_22 
REMARK    9  A    between atoms: C20_31  and  O6_32 
REMARK   10  A    between atoms: C20_31  and  N4_34 
ROOT
HETATM    1  C11 UNL     1      -0.986   1.488  -0.803  1.00  0.00     0.151 C 
ENDROOT
BRANCH   1   2
HETATM    2  C10 UNL     1       0.492   1.810  -0.671  1.00  0.00     0.043 C 
HETATM    3  C6  UNL     1       1.313   0.542  -1.015  1.00  0.00     0.150 C 
HETATM    4  C7  UNL     1       1.206   0.468  -2.498  1.00  0.00     0.034 C 
HETATM    5  C8  UNL     1       0.887   1.879  -3.011  1.00  0.00     0.003 C 
HETATM    6  C9  UNL     1       0.902   2.751  -1.779  1.00  0.00     0.009 C 
BRANCH   3   7
HETATM    7  O3  UNL     1       2.540   0.533  -0.473  1.00  0.00    -0.254 OA
BRANCH   7   8
HETATM    8  S1  UNL     1       2.932  -0.605   0.635  1.00  0.00     0.359 S 
HETATM    9  O1  UNL     1       1.629  -1.022   1.309  1.00  0.00    -0.176 OA
HETATM   10  O2  UNL     1       3.774  -0.060   1.760  1.00  0.00    -0.176 OA
BRANCH   8  11
HETATM   11  N1  UNL     1       3.578  -2.013  -0.060  1.00  0.00    -0.284 N 
ATOM     12  H1  UNL     1       2.986  -2.791  -0.351  1.00  0.00     0.175 HD
BRANCH  11  13
HETATM   13  C3  UNL     1       4.991  -2.045  -0.213  1.00  0.00     0.052 C 
HETATM   14  C4  UNL     1       5.686  -1.981   1.128  1.00  0.00     0.043 C 
HETATM   15  C5  UNL     1       5.363  -3.362  -0.861  1.00  0.00     0.043 C 
BRANCH  13  16
HETATM   16  C2  UNL     1       5.546  -0.970  -1.065  1.00  0.00    -0.006 C 
HETATM   17  C1  UNL     1       6.793  -0.544  -0.969  1.00  0.00     0.009 C 
ENDBRANCH  13  16
ENDBRANCH  11  13
ENDBRANCH   8  11
ENDBRANCH   7   8
ENDBRANCH   3   7
ENDBRANCH   1   2
BRANCH   1  18
HETATM   18  N2  UNL     1      -1.368   0.419   0.090  1.00  0.00    -0.334 N 
HETATM   19  C12 UNL     1      -2.000  -0.766  -0.433  1.00  0.00     0.320 C 
HETATM   20  O4  UNL     1      -2.205  -0.832  -1.685  1.00  0.00    -0.247 OA
HETATM   21  N3  UNL     1      -2.394  -1.836   0.365  1.00  0.00    -0.313 N 
HETATM   22  C13 UNL     1      -2.238  -1.932   1.797  1.00  0.00     0.171 A 
HETATM   23  C17 UNL     1      -3.029  -3.052  -0.066  1.00  0.00     0.031 C 
HETATM   24  C14 UNL     1      -3.299  -2.494   2.638  1.00  0.00     0.157 A 
HETATM   25  C15 UNL     1      -2.240  -3.410   2.124  1.00  0.00     0.090 A 
HETATM   26  O5  UNL     1      -4.319  -2.457   3.319  1.00  0.00    -0.295 OA
HETATM   27  C16 UNL     1      -2.594  -4.148   0.875  1.00  0.00     0.045 C 
HETATM   28  C18 UNL     1      -2.604  -3.471  -1.460  1.00  0.00     0.038 C 
HETATM   29  C19 UNL     1      -4.537  -2.936  -0.083  1.00  0.00     0.038 C 
ATOM     30  H2  UNL     1      -1.190   0.503   1.091  1.00  0.00     0.164 HD
ENDBRANCH   1  18
BRANCH   1  31
HETATM   31  C20 UNL     1      -1.879   2.658  -0.674  1.00  0.00     0.380 C 
BRANCH  31  32
HETATM   32  O6  UNL     1      -3.196   2.174  -0.937  1.00  0.00    -0.366 OA
ATOM     33  H6  UNL     1      -3.770   2.926  -0.854  1.00  0.00     0.212 HD
ENDBRANCH  31  32
BRANCH  31  34
HETATM   34  N4  UNL     1      -1.804   3.495   0.450  1.00  0.00     0.123 N 
HETATM   35  C21 UNL     1      -2.130   2.914   1.692  1.00  0.00     0.302 C 
HETATM   36  C22 UNL     1      -2.704   3.857   2.726  1.00  0.00     0.198 C 
HETATM   37  O7  UNL     1      -3.490   4.857   2.216  1.00  0.00    -0.388 OA
HETATM   38  C23 UNL     1      -2.675   5.612   1.367  1.00  0.00     0.198 C 
HETATM   39  C24 UNL     1      -2.392   4.764   0.173  1.00  0.00     0.302 C 
ENDBRANCH  31  34
ENDBRANCH   1  31
TORSDOF 10
