REMARK  6 active torsions:
REMARK  status: ('A' for Active; 'I' for Inactive)
REMARK    1  A    between atoms: C2_2  and  N1_3 
REMARK    2  A    between atoms: N1_3  and  C3_5 
REMARK    3  A    between atoms: C3_5  and  N2_7 
REMARK    4  A    between atoms: N2_7  and  O1_9 
REMARK    5  A    between atoms: O1_9  and  C4_10 
REMARK    6  A    between atoms: C4_10  and  C5_12 
ROOT
HETATM    1  O1  UNL     1       0.690  -0.392   1.264  1.00  0.00    -0.197 OA
ENDROOT
BRANCH   1   2
HETATM    2  N2  UNL     1       1.832  -1.057   1.578  1.00  0.00    -0.232 N 
ATOM      3  H2  UNL     1       1.837  -1.687   2.380  1.00  0.00     0.197 HD
BRANCH   2   4
HETATM    4  C3  UNL     1       3.008  -0.897   0.822  1.00  0.00     0.192 C 
HETATM    5  S1  UNL     1       4.343  -1.730   1.251  1.00  0.00    -0.039 SA
BRANCH   4   6
HETATM    6  N1  UNL     1       3.019  -0.021  -0.293  1.00  0.00    -0.366 N 
ATOM      7  H1  UNL     1       2.177   0.496  -0.547  1.00  0.00     0.161 HD
BRANCH   6   8
HETATM    8  C2  UNL     1       4.241   0.137  -1.076  1.00  0.00     0.117 C 
HETATM    9  C1  UNL     1       5.291   0.839  -0.260  1.00  0.00     0.026 C 
ENDBRANCH   6   8
ENDBRANCH   4   6
ENDBRANCH   2   4
ENDBRANCH   1   2
BRANCH   1  10
HETATM   10  C4  UNL     1      -0.104  -0.695   0.173  1.00  0.00     0.285 C 
HETATM   11  O2  UNL     1       0.206  -1.627  -0.600  1.00  0.00    -0.263 OA
BRANCH  10  12
HETATM   12  C5  UNL     1      -1.310   0.079  -0.075  1.00  0.00     0.092 C 
HETATM   13  C6  UNL     1      -2.016  -0.345  -1.369  1.00  0.00     0.020 C 
HETATM   14  C7  UNL     1      -3.458  -0.202  -0.958  1.00  0.00    -0.013 C 
HETATM   15  C8  UNL     1      -3.715   1.196  -0.443  1.00  0.00     0.005 C 
HETATM   16  C11 UNL     1      -3.403  -0.973   0.375  1.00  0.00     0.010 C 
HETATM   17  C9  UNL     1      -3.160   1.240   0.977  1.00  0.00     0.006 C 
HETATM   18  C10 UNL     1      -2.351  -0.043   1.003  1.00  0.00    -0.001 C 
ENDBRANCH  10  12
ENDBRANCH   1  10
TORSDOF 6
