REMARK  14 active torsions:
REMARK  status: ('A' for Active; 'I' for Inactive)
REMARK    1  A    between atoms: C2_2  and  N1_4 
REMARK    2  A    between atoms: C4_6  and  N2_7 
REMARK    3  A    between atoms: C4_6  and  S1_34 
REMARK    4  A    between atoms: N2_7  and  C5_9 
REMARK    5  A    between atoms: C5_9  and  C6_11 
REMARK    6  A    between atoms: C6_11  and  O1_12 
REMARK    7  A    between atoms: C6_11  and  C7_14 
REMARK    8  A    between atoms: C7_14  and  N3_15 
REMARK    9  A    between atoms: C7_14  and  C14_28 
REMARK       I    between atoms: N3_15  and  C8_17 
REMARK       I    between atoms: C8_17  and  N4_19 
REMARK   10  A    between atoms: N4_19  and  C9_21 
REMARK   11  A    between atoms: C14_28  and  C15_30 
REMARK   12  A    between atoms: S1_34  and  O6_37 
REMARK   13  A    between atoms: O6_37  and  C19_38 
REMARK   14  A    between atoms: C19_38  and  C20_39 
ROOT
HETATM    1  C6  UNL     1      -1.946   0.262  -0.518  1.00  0.00     0.202 C 
ENDROOT
BRANCH   1   2
HETATM    2  C5  UNL     1      -0.992  -0.801  -0.020  1.00  0.00     0.302 C 
HETATM    3  F1  UNL     1      -0.841  -1.812  -0.934  1.00  0.00    -0.224 F 
BRANCH   2   4
HETATM    4  N2  UNL     1       0.305  -0.307   0.329  1.00  0.00    -0.333 N 
ATOM      5  H2  UNL     1       0.605  -0.468   1.291  1.00  0.00     0.164 HD
BRANCH   4   6
HETATM    6  C4  UNL     1       1.214   0.374  -0.500  1.00  0.00     0.225 C 
HETATM    7  N1  UNL     1       1.016   0.409  -1.758  1.00  0.00    -0.361 N 
ATOM      8  H1  UNL     1       0.181  -0.076  -2.086  1.00  0.00     0.162 HD
BRANCH   7   9
HETATM    9  C2  UNL     1       1.801   1.033  -2.767  1.00  0.00     0.075 C 
HETATM   10  C1  UNL     1       1.329   2.443  -3.056  1.00  0.00     0.032 C 
HETATM   11  C3  UNL     1       1.656   0.252  -4.061  1.00  0.00     0.032 C 
ENDBRANCH   7   9
BRANCH   6  12
HETATM   12  S1  UNL     1       2.600   1.155   0.203  1.00  0.00     0.330 S 
HETATM   13  O4  UNL     1       2.329   1.530   1.655  1.00  0.00    -0.190 OA
HETATM   14  O5  UNL     1       3.021   2.399  -0.471  1.00  0.00    -0.190 OA
BRANCH  12  15
HETATM   15  O6  UNL     1       3.924   0.090   0.239  1.00  0.00    -0.269 OA
BRANCH  15  16
HETATM   16  C19 UNL     1       5.055   0.753   0.712  1.00  0.00     0.195 C 
BRANCH  16  17
HETATM   17  C20 UNL     1       6.255  -0.167   0.753  1.00  0.00     0.011 C 
HETATM   18  C21 UNL     1       5.930  -1.312   1.672  1.00  0.00     0.007 C 
HETATM   19  C22 UNL     1       7.137  -2.011   2.229  1.00  0.00     0.000 C 
HETATM   20  C23 UNL     1       8.195  -1.058   2.721  1.00  0.00     0.000 C 
HETATM   21  C24 UNL     1       7.760   0.386   2.593  1.00  0.00     0.000 C 
HETATM   22  C25 UNL     1       7.464   0.620   1.125  1.00  0.00     0.007 C 
ENDBRANCH  16  17
ENDBRANCH  15  16
ENDBRANCH  12  15
ENDBRANCH   6  12
ENDBRANCH   4   6
ENDBRANCH   2   4
ENDBRANCH   1   2
BRANCH   1  23
HETATM   23  O1  UNL     1      -2.070   1.217   0.542  1.00  0.00    -0.388 OA
ATOM     24  H1  UNL     1      -2.669   1.885   0.229  1.00  0.00     0.210 HD
ENDBRANCH   1  23
BRANCH   1  25
HETATM   25  C7  UNL     1      -3.349  -0.238  -0.714  1.00  0.00     0.190 C 
BRANCH  25  26
HETATM   26  N3  UNL     1      -3.771  -0.877   0.530  1.00  0.00    -0.329 N 
HETATM   27  C8  UNL     1      -4.760  -0.262   1.401  1.00  0.00     0.321 C 
HETATM   28  O2  UNL     1      -5.186   0.831   0.973  1.00  0.00    -0.247 OA
HETATM   29  N4  UNL     1      -5.125  -0.918   2.577  1.00  0.00    -0.308 N 
ATOM     30  H4  UNL     1      -4.670  -1.807   2.786  1.00  0.00     0.170 HD
ATOM     31  H3  UNL     1      -3.363  -1.774   0.793  1.00  0.00     0.165 HD
BRANCH  29  32
HETATM   32  C9  UNL     1      -6.087  -0.433   3.504  1.00  0.00     0.051 A 
HETATM   33  C10 UNL     1      -6.116  -1.016   4.791  1.00  0.00     0.032 A 
HETATM   34  C11 UNL     1      -7.030  -0.604   5.712  1.00  0.00     0.019 A 
HETATM   35  C12 UNL     1      -7.935   0.384   5.404  1.00  0.00     0.088 A 
HETATM   36  N5  UNL     1      -7.892   0.923   4.183  1.00  0.00    -0.373 N 
HETATM   37  C13 UNL     1      -6.997   0.546   3.221  1.00  0.00     0.117 A 
ATOM     38  H5  UNL     1      -8.564   1.656   3.956  1.00  0.00     0.164 HD
ENDBRANCH  29  32
ENDBRANCH  25  26
BRANCH  25  39
HETATM   39  C14 UNL     1      -3.610  -1.054  -1.886  1.00  0.00     0.159 C 
HETATM   40  O3  UNL     1      -3.954  -2.232  -1.666  1.00  0.00    -0.295 OA
BRANCH  39  41
HETATM   41  C15 UNL     1      -3.527  -0.668  -3.300  1.00  0.00     0.012 C 
HETATM   42  C16 UNL     1      -3.858  -1.836  -4.228  1.00  0.00     0.022 C 
HETATM   43  C17 UNL     1      -2.272  -0.032  -3.768  1.00  0.00     0.022 C 
HETATM   44  C18 UNL     1      -4.638   0.380  -3.562  1.00  0.00     0.022 C 
ENDBRANCH  39  41
ENDBRANCH  25  39
ENDBRANCH   1  25
TORSDOF 14
