REMARK  3 active torsions:
REMARK  status: ('A' for Active; 'I' for Inactive)
REMARK    1  A    between atoms: N1_2  and  C2_3 
REMARK    2  A    between atoms: N1_2  and  C12_13 
REMARK    3  A    between atoms: C2_3  and  C3_4 
ROOT
HETATM    1  C1  UNL     1      -1.350   0.444  -2.228  1.00  0.00     0.310 C 
HETATM    2  N1  UNL     1      -0.498   0.680  -1.057  1.00  0.00     0.089 N 
ENDROOT
BRANCH   2   3
HETATM    3  C2  UNL     1       0.585  -0.218  -1.107  1.00  0.00     0.282 C 
BRANCH   3   4
HETATM    4  C3  UNL     1       1.782  -0.066  -0.292  1.00  0.00    -0.010 C 
HETATM    5  C4  UNL     1       2.528   1.238  -0.524  1.00  0.00     0.016 C 
HETATM    6  C5  UNL     1       3.952   0.799  -0.250  1.00  0.00    -0.013 C 
HETATM    7  C6  UNL     1       4.112   0.318   1.171  1.00  0.00     0.009 C 
HETATM    8  C10 UNL     1       4.031  -0.389  -1.192  1.00  0.00     0.010 C 
HETATM    9  C7  UNL     1       3.129  -0.764   1.497  1.00  0.00    -0.013 C 
HETATM   10  C8  UNL     1       3.185  -1.905   0.484  1.00  0.00     0.010 C 
HETATM   11  C11 UNL     1       1.704  -0.262   1.191  1.00  0.00     0.016 C 
HETATM   12  C9  UNL     1       2.791  -1.144  -0.771  1.00  0.00    -0.004 C 
ENDBRANCH   3   4
ENDBRANCH   2   3
BRANCH   2  13
HETATM   13  C12 UNL     1      -1.335   0.539   0.157  1.00  0.00     0.226 C 
HETATM   14  C13 UNL     1      -1.892  -0.827   0.301  1.00  0.00     0.069 C 
HETATM   15  C14 UNL     1      -3.309  -0.904   0.812  1.00  0.00     0.188 C 
HETATM   16  C15 UNL     1      -4.279  -0.756  -0.333  1.00  0.00     0.035 C 
HETATM   17  N2  UNL     1      -3.642   0.192   1.679  1.00  0.00    -0.067 N 
HETATM   18  C16 UNL     1      -4.551   0.727  -0.416  1.00  0.00     0.035 C 
HETATM   19  C17 UNL     1      -3.698   1.280   0.724  1.00  0.00     0.188 C 
HETATM   20  C18 UNL     1      -2.344   1.657   0.262  1.00  0.00     0.069 C 
ATOM     21  H22 UNL     1      -4.477   0.064   2.251  1.00  0.00     0.278 HD
ATOM     22  H21 UNL     1      -3.016   0.333   2.472  1.00  0.00     0.278 HD
ENDBRANCH   2  13
TORSDOF 3
