REMARK  2 active torsions:
REMARK  status: ('A' for Active; 'I' for Inactive)
REMARK    1  A    between atoms: C8_8  and  C9_9 
REMARK    2  A    between atoms: N1_13  and  C13_14 
ROOT
HETATM    1  C9  UNL     1      -0.955   0.328  -0.716  1.00  0.00    -0.008 C 
HETATM    2  C10 UNL     1      -0.185  -0.589  -1.674  1.00  0.00     0.007 C 
HETATM    3  C11 UNL     1       1.016   0.226  -2.147  1.00  0.00     0.020 C 
HETATM    4  C12 UNL     1       2.288  -0.268  -1.522  1.00  0.00     0.124 C 
HETATM    5  N1  UNL     1       2.220   0.057  -0.111  1.00  0.00    -0.365 N 
HETATM    6  C18 UNL     1       1.056  -0.089   0.730  1.00  0.00     0.125 C 
HETATM    7  C19 UNL     1      -0.050   0.867   0.342  1.00  0.00     0.025 C 
ENDROOT
BRANCH   5   8
HETATM    8  C13 UNL     1       3.421   0.557   0.446  1.00  0.00     0.135 A 
HETATM    9  N2  UNL     1       3.481   1.775   1.005  1.00  0.00    -0.337 N 
HETATM   10  C14 UNL     1       4.597   2.298   1.549  1.00  0.00     0.183 A 
ATOM     11  H2  UNL     1       2.631   2.339   1.019  1.00  0.00     0.168 HD
HETATM   12  N3  UNL     1       5.731   1.547   1.531  1.00  0.00    -0.337 N 
HETATM   13  C15 UNL     1       5.764   0.323   0.996  1.00  0.00     0.138 A 
ATOM     14  H3  UNL     1       6.584   1.931   1.939  1.00  0.00     0.168 HD
HETATM   15  N4  UNL     1       6.759  -0.561   0.879  1.00  0.00    -0.337 N 
HETATM   16  C17 UNL     1       4.590  -0.181   0.443  1.00  0.00     0.122 A 
HETATM   17  C16 UNL     1       6.211  -1.621   0.255  1.00  0.00     0.182 A 
ATOM     18  H4  UNL     1       7.724  -0.456   1.194  1.00  0.00     0.168 HD
HETATM   19  N5  UNL     1       4.909  -1.391  -0.006  1.00  0.00    -0.346 N 
ATOM     20  H5  UNL     1       4.273  -2.039  -0.471  1.00  0.00     0.167 HD
ENDBRANCH   5   8
BRANCH   1  21
HETATM   21  C8  UNL     1      -2.121  -0.354  -0.106  1.00  0.00     0.001 C 
HETATM   22  C2  UNL     1      -3.093  -0.910  -1.126  1.00  0.00    -0.013 C 
HETATM   23  C1  UNL     1      -3.396  -2.392  -0.850  1.00  0.00     0.010 C 
HETATM   24  C3  UNL     1      -4.406  -0.186  -0.913  1.00  0.00     0.005 C 
HETATM   25  C4  UNL     1      -4.419  -0.068   0.586  1.00  0.00     0.009 C 
HETATM   26  C5  UNL     1      -2.974   0.433   0.824  1.00  0.00    -0.043 C 
HETATM   27  C6  UNL     1      -3.011   1.907   0.612  1.00  0.00     0.015 C 
HETATM   28  C7  UNL     1      -2.702   0.162   2.290  1.00  0.00     0.015 C 
ENDBRANCH   1  21
TORSDOF 2
