REMARK  5 active torsions:
REMARK  status: ('A' for Active; 'I' for Inactive)
REMARK    1  A    between atoms: C9_11  and  C10_12 
REMARK    2  A    between atoms: C13_18  and  N3_19 
REMARK    3  A    between atoms: N3_19  and  C14_21 
REMARK    4  A    between atoms: C17_27  and  C18_28 
REMARK    5  A    between atoms: C18_28  and  C19_29 
ROOT
HETATM    1  C10 UNL     1       0.535  -1.542  -0.138  1.00  0.00     0.069 A 
HETATM    2  C11 UNL     1      -0.009  -2.060  -1.478  1.00  0.00     0.122 A 
HETATM    3 CL1  UNL     1       0.934  -1.956  -2.941  1.00  0.00    -0.121 Cl
HETATM    4  C12 UNL     1      -0.462  -0.806  -0.824  1.00  0.00     0.068 A 
HETATM    5  N2  UNL     1      -0.485   0.429  -1.470  1.00  0.00    -0.367 N 
ATOM      6  H2  UNL     1       0.208   0.969  -1.988  1.00  0.00     0.161 HD
HETATM    7  C13 UNL     1      -1.721   0.625  -1.159  1.00  0.00     0.086 A 
HETATM    8  C17 UNL     1      -1.887  -0.636  -0.421  1.00  0.00     0.087 A 
ENDROOT
BRANCH   1   9
HETATM    9  C9  UNL     1       2.000  -1.384  -0.115  1.00  0.00    -0.038 A 
HETATM   10  C2  UNL     1       2.934  -0.421   0.328  1.00  0.00     0.041 A 
HETATM   11  C1  UNL     1       2.992   0.681  -0.913  1.00  0.00     0.031 C 
HETATM   12  C3  UNL     1       2.806   0.461   1.463  1.00  0.00    -0.007 C 
HETATM   13  C7  UNL     1       4.273  -0.983   0.128  1.00  0.00     0.025 A 
HETATM   14  C4  UNL     1       3.908   0.941   2.086  1.00  0.00    -0.002 C 
HETATM   15  C5  UNL     1       5.259   0.555   1.684  1.00  0.00     0.002 C 
HETATM   16  C6  UNL     1       5.480  -0.348   0.722  1.00  0.00     0.026 C 
HETATM   17  N1  UNL     1       4.112  -2.134  -0.417  1.00  0.00    -0.368 N 
HETATM   18  C8  UNL     1       2.739  -2.427  -0.586  1.00  0.00     0.093 A 
ATOM     19  H1  UNL     1       4.873  -2.755  -0.692  1.00  0.00     0.165 HD
ENDBRANCH   1   9
BRANCH   8  20
HETATM   20  C18 UNL     1      -2.266  -0.543   1.002  1.00  0.00     0.044 C 
BRANCH  20  21
HETATM   21  C19 UNL     1      -1.713   0.548   1.788  1.00  0.00     0.010 C 
HETATM   22  C20 UNL     1      -1.047   0.330   2.901  1.00  0.00     0.099 C 
HETATM   23 CL2  UNL     1      -0.741  -1.256   3.577  1.00  0.00    -0.071 Cl
HETATM   24 CL3  UNL     1      -0.395   1.696   3.829  1.00  0.00    -0.071 Cl
ENDBRANCH  20  21
ENDBRANCH   8  20
BRANCH   7  25
HETATM   25  N3  UNL     1      -2.537   1.718  -1.464  1.00  0.00    -0.326 N 
ATOM     26  H3  UNL     1      -2.036   2.588  -1.644  1.00  0.00     0.169 HD
BRANCH  25  27
HETATM   27  C14 UNL     1      -3.805   1.803  -1.554  1.00  0.00     0.149 A 
HETATM   28  N4  UNL     1      -4.779   0.917  -1.396  1.00  0.00    -0.346 N 
HETATM   29  C15 UNL     1      -6.016   1.298  -1.554  1.00  0.00     0.097 A 
ATOM     30  H4  UNL     1      -4.563  -0.050  -1.154  1.00  0.00     0.167 HD
HETATM   31  C16 UNL     1      -6.253   2.605  -1.879  1.00  0.00     0.070 A 
HETATM   32  S1  UNL     1      -4.665   3.236  -1.942  1.00  0.00    -0.064 SA
ENDBRANCH  25  27
ENDBRANCH   7  25
TORSDOF 5
