REMARK  6 active torsions:
REMARK  status: ('A' for Active; 'I' for Inactive)
REMARK    1  A    between atoms: O1_2  and  C2_3 
REMARK    2  A    between atoms: C10_12  and  C12_14 
REMARK    3  A    between atoms: C13_18  and  O3_19 
REMARK    4  A    between atoms: C13_18  and  C14_21 
REMARK    5  A    between atoms: C14_21  and  C15_22 
REMARK    6  A    between atoms: C15_22  and  C16_23 
ROOT
HETATM    1  C2  UNL     1      -2.933  -1.371   0.038  1.00  0.00     0.131 C 
HETATM    2  C3  UNL     1      -2.418  -2.272   1.104  1.00  0.00     0.033 C 
HETATM    3  C4  UNL     1      -0.985  -2.372   1.364  1.00  0.00     0.004 C 
HETATM    4  C5  UNL     1      -0.215  -1.089   1.412  1.00  0.00     0.015 C 
HETATM    5  C6  UNL     1       0.057  -0.500   0.063  1.00  0.00     0.021 C 
HETATM    6  C7  UNL     1       0.242  -1.516  -1.008  1.00  0.00     0.021 C 
HETATM    7  C8  UNL     1      -1.098   0.389  -0.310  1.00  0.00     0.150 C 
HETATM    8  O2  UNL     1      -0.771   1.593   0.407  1.00  0.00    -0.345 OA
HETATM    9  C9  UNL     1       0.580   1.837   0.097  1.00  0.00     0.088 C 
HETATM   10  C10 UNL     1       1.072   3.041  -0.073  1.00  0.00     0.002 C 
HETATM   11  C11 UNL     1       2.499   3.279  -0.404  1.00  0.00     0.051 C 
HETATM   12  C13 UNL     1       1.189   0.483   0.034  1.00  0.00     0.116 C 
HETATM   13  C20 UNL     1      -2.462   0.025   0.017  1.00  0.00     0.006 C 
HETATM   14  C21 UNL     1      -3.029   0.728   1.265  1.00  0.00     0.020 C 
HETATM   15  C22 UNL     1      -3.299   0.672  -1.126  1.00  0.00     0.020 C 
ENDROOT
BRANCH  12  16
HETATM   16  O3  UNL     1       1.796   0.482  -1.246  1.00  0.00    -0.382 OA
ATOM     17  H3  UNL     1       2.513   1.105  -1.264  1.00  0.00     0.211 HD
ENDBRANCH  12  16
BRANCH  12  18
HETATM   18  C14 UNL     1       2.238   0.357   1.026  1.00  0.00     0.050 C 
BRANCH  18  19
HETATM   19  C15 UNL     1       3.171  -0.794   1.091  1.00  0.00     0.044 C 
BRANCH  19  20
HETATM   20  C16 UNL     1       4.102  -0.915  -0.051  1.00  0.00    -0.034 A 
HETATM   21  C17 UNL     1       3.990  -1.678  -1.166  1.00  0.00     0.033 A 
HETATM   22  C18 UNL     1       5.104  -1.457  -1.965  1.00  0.00     0.142 A 
HETATM   23  O4  UNL     1       5.835  -0.592  -1.326  1.00  0.00    -0.334 OA
HETATM   24  C19 UNL     1       5.299  -0.234  -0.193  1.00  0.00     0.148 A 
ENDBRANCH  19  20
ENDBRANCH  18  19
ENDBRANCH  12  18
BRANCH  10  25
HETATM   25  C12 UNL     1       0.244   4.260   0.074  1.00  0.00     0.214 C 
HETATM   26 CL1  UNL     1       0.879   5.123   1.517  1.00  0.00    -0.079 Cl
HETATM   27 CL2  UNL     1       0.582   5.367  -1.327  1.00  0.00    -0.079 Cl
HETATM   28 CL3  UNL     1      -1.478   4.026   0.222  1.00  0.00    -0.079 Cl
ENDBRANCH  10  25
BRANCH   1  29
HETATM   29  O1  UNL     1      -4.325  -1.285   0.364  1.00  0.00    -0.390 OA
HETATM   30  C1  UNL     1      -5.139  -1.838  -0.577  1.00  0.00     0.202 C 
ENDBRANCH   1  29
TORSDOF 6
