REMARK  11 active torsions:
REMARK  status: ('A' for Active; 'I' for Inactive)
REMARK    1  A    between atoms: C3_5  and  N3_6 
REMARK       I    between atoms: N3_6  and  C4_8 
REMARK    2  A    between atoms: C4_8  and  C5_10 
REMARK    3  A    between atoms: C5_10  and  O2_11 
REMARK    4  A    between atoms: O2_11  and  C6_12 
REMARK    5  A    between atoms: C6_12  and  C7_14 
REMARK    6  A    between atoms: C9_16  and  N4_17 
REMARK       I    between atoms: N4_17  and  C10_19 
REMARK    7  A    between atoms: C10_19  and  C11_21 
REMARK    8  A    between atoms: C13_25  and  N6_26 
REMARK    9  A    between atoms: N6_26  and  C14_28 
REMARK   10  A    between atoms: C16_38  and  N10_39 
REMARK   11  A    between atoms: C18_43  and  N11_44 
ROOT
HETATM    1  C7  UNL     1      -0.478   0.431   2.436  1.00  0.00     0.044 A 
HETATM    2  C8  UNL     1       0.722   0.059   1.912  1.00  0.00     0.047 A 
HETATM    3  C9  UNL     1       1.946   0.703   2.234  1.00  0.00     0.038 A 
HETATM    4  C17 UNL     1       1.880   1.747   3.120  1.00  0.00     0.065 A 
HETATM    5  C18 UNL     1       0.661   2.129   3.654  1.00  0.00     0.106 A 
HETATM    6  C19 UNL     1      -0.506   1.482   3.318  1.00  0.00     0.053 A 
ENDROOT
BRANCH   3   7
HETATM    7  N4  UNL     1       3.136   0.224   1.655  1.00  0.00    -0.323 N 
HETATM    8  C10 UNL     1       4.326   0.940   1.568  1.00  0.00     0.261 C 
HETATM    9  O4  UNL     1       4.483   2.092   1.984  1.00  0.00    -0.267 OA
ATOM     10  H4  UNL     1       3.125  -0.720   1.270  1.00  0.00     0.169 HD
BRANCH   8  11
HETATM   11  C11 UNL     1       5.532   0.323   0.937  1.00  0.00     0.092 A 
HETATM   12  C12 UNL     1       5.313  -0.492  -0.148  1.00  0.00     0.127 A 
HETATM   13  N5  UNL     1       6.407  -1.064  -0.735  1.00  0.00    -0.200 N 
HETATM   14  C13 UNL     1       7.654  -0.835  -0.267  1.00  0.00     0.685 A 
ATOM     15  H5  UNL     1       6.280  -1.675  -1.542  1.00  0.00     0.183 HD
HETATM   16  N9  UNL     1       7.815  -0.028   0.800  1.00  0.00    -0.176 N 
HETATM   17  C16 UNL     1       6.788   0.571   1.432  1.00  0.00     0.132 A 
ATOM     18  H9  UNL     1       8.760   0.137   1.146  1.00  0.00     0.186 HD
BRANCH  14  19
HETATM   19  N6  UNL     1       8.748  -1.458  -0.920  1.00  0.00    -0.168 N 
ATOM     20  H6  UNL     1       9.072  -2.381  -0.631  1.00  0.00     0.186 HD
BRANCH  19  21
HETATM   21  C14 UNL     1       9.327  -0.826  -1.893  1.00  0.00     0.181 A 
HETATM   22  N7  UNL     1       9.013   0.380  -2.374  1.00  0.00    -0.278 N 
HETATM   23  N8  UNL     1       9.695   0.849  -3.340  1.00  0.00    -0.282 N 
ATOM     24  H7  UNL     1       8.241   0.914  -1.975  1.00  0.00     0.189 HD
HETATM   25  C15 UNL     1      10.695   0.149  -3.853  1.00  0.00     0.163 A 
ATOM     26  H8  UNL     1       9.471   1.768  -3.721  1.00  0.00     0.188 HD
HETATM   27 CL1  UNL     1      11.779   0.585  -5.186  1.00  0.00    -0.055 Cl
HETATM   28  S1  UNL     1      10.648  -1.261  -2.888  1.00  0.00    -0.021 SA
ENDBRANCH  19  21
ENDBRANCH  14  19
BRANCH  17  29
HETATM   29  N10 UNL     1       6.975   1.338   2.450  1.00  0.00    -0.384 N 
ATOM     30 2H10 UNL     1       6.197   1.792   2.929  1.00  0.00     0.157 HD
ATOM     31 1H10 UNL     1       7.908   1.522   2.818  1.00  0.00     0.157 HD
ENDBRANCH  17  29
ENDBRANCH   8  11
ENDBRANCH   3   7
BRANCH   1  32
HETATM   32  C6  UNL     1      -1.706  -0.253   2.081  1.00  0.00     0.293 C 
HETATM   33  O3  UNL     1      -2.827   0.082   2.559  1.00  0.00    -0.259 OA
BRANCH  32  34
HETATM   34  O2  UNL     1      -1.687  -1.315   1.190  1.00  0.00    -0.308 OA
BRANCH  34  35
HETATM   35  C5  UNL     1      -2.835  -2.013   0.801  1.00  0.00     0.282 C 
BRANCH  35  36
HETATM   36  C4  UNL     1      -3.845  -1.214   0.090  1.00  0.00     0.246 C 
HETATM   37  N3  UNL     1      -5.068  -1.799  -0.311  1.00  0.00    -0.318 N 
ATOM     38  H3  UNL     1      -5.263  -2.780  -0.112  1.00  0.00     0.169 HD
HETATM   39  O1  UNL     1      -3.619  -0.011  -0.158  1.00  0.00    -0.271 OA
BRANCH  37  40
HETATM   40  C3  UNL     1      -6.028  -0.990  -1.001  1.00  0.00     0.145 A 
HETATM   41  C2  UNL     1      -6.038  -0.877  -2.384  1.00  0.00     0.154 A 
HETATM   42  N1  UNL     1      -6.980  -0.092  -2.933  1.00  0.00    -0.290 N 
HETATM   43  N2  UNL     1      -5.072  -1.581  -3.146  1.00  0.00    -0.080 NA
HETATM   44  C1  UNL     1      -6.998   0.032  -4.376  1.00  0.00     0.162 C 
HETATM   45  C22 UNL     1      -7.887   0.567  -2.193  1.00  0.00     0.332 A 
HETATM   46  N12 UNL     1      -7.899   0.474  -0.840  1.00  0.00    -0.269 N 
HETATM   47  O8  UNL     1      -8.728   1.277  -2.798  1.00  0.00    -0.246 OA
HETATM   48  C20 UNL     1      -6.958  -0.313  -0.247  1.00  0.00     0.281 A 
HETATM   49  C21 UNL     1      -8.882   1.189  -0.046  1.00  0.00     0.164 C 
HETATM   50  O7  UNL     1      -6.958  -0.408   0.996  1.00  0.00    -0.265 OA
ENDBRANCH  37  40
ENDBRANCH  35  36
ENDBRANCH  34  35
ENDBRANCH  32  34
ENDBRANCH   1  32
BRANCH   5  51
HETATM   51  N11 UNL     1       0.628   3.216   4.568  1.00  0.00    -0.116 N 
HETATM   52  O5  UNL     1      -0.455   3.580   5.063  1.00  0.00    -0.532 OA
HETATM   53  O6  UNL     1       1.758   3.899   4.940  1.00  0.00    -0.532 OA
ENDBRANCH   5  51
TORSDOF 11
