REMARK  15 active torsions:
REMARK  status: ('A' for Active; 'I' for Inactive)
REMARK    1  A    between atoms: C2_2  and  N1_5 
REMARK    2  A    between atoms: C5_12  and  C6_13 
REMARK    3  A    between atoms: C6_13  and  N6_17 
REMARK    4  A    between atoms: N6_17  and  C7_18 
REMARK    5  A    between atoms: C8_21  and  N8_22 
REMARK    6  A    between atoms: C10_29  and  N11_30 
REMARK    7  A    between atoms: N12_32  and  O1_34 
REMARK    8  A    between atoms: O1_34  and  C11_35 
REMARK    9  A    between atoms: C11_35  and  C12_36 
REMARK   10  A    between atoms: C11_35  and  C13_39 
REMARK   11  A    between atoms: C12_36  and  O2_37 
REMARK   12  A    between atoms: C13_39  and  N13_40 
REMARK   13  A    between atoms: C13_39  and  C14_44 
REMARK   14  A    between atoms: C14_44  and  O3_45 
REMARK   15  A    between atoms: C14_44  and  O4_47 
ROOT
HETATM    1  C7  UNL     1       0.524  -1.762  -0.533  1.00  0.00     0.227 A 
HETATM    2  N7  UNL     1       0.888  -3.078  -0.653  1.00  0.00    -0.162 N 
ATOM      3  H7  UNL     1       1.542  -3.312  -1.400  1.00  0.00     0.187 HD
HETATM    4  C8  UNL     1       0.470  -4.068   0.108  1.00  0.00     0.679 A 
HETATM    5  N9  UNL     1      -0.393  -3.764   1.093  1.00  0.00    -0.177 N 
ATOM      6  H9  UNL     1      -0.733  -4.512   1.698  1.00  0.00     0.185 HD
HETATM    7  C9  UNL     1      -0.825  -2.506   1.309  1.00  0.00     0.165 A 
HETATM    8  N10 UNL     1      -1.743  -2.210   2.369  1.00  0.00    -0.079 NA
HETATM    9  C10 UNL     1      -0.391  -1.468   0.517  1.00  0.00     0.150 A 
ENDROOT
BRANCH   1  10
HETATM   10  N6  UNL     1       0.909  -0.906  -1.224  1.00  0.00    -0.364 NA
BRANCH  10  11
HETATM   11  C6  UNL     1       1.344   0.047  -2.000  1.00  0.00     0.209 C 
HETATM   12  N5  UNL     1       0.768   0.361  -3.169  1.00  0.00    -0.372 N 
ATOM     13  H52 UNL     1       1.108   1.107  -3.776  1.00  0.00     0.158 HD
ATOM     14  H51 UNL     1      -0.037  -0.233  -3.367  1.00  0.00     0.158 HD
BRANCH  11  15
HETATM   15  C5  UNL     1       2.508   0.906  -1.713  1.00  0.00     0.177 A 
HETATM   16  N4  UNL     1       2.917   1.891  -2.559  1.00  0.00    -0.276 N 
HETATM   17  N3  UNL     1       3.964   2.607  -2.270  1.00  0.00    -0.227 N 
ATOM     18  H4  UNL     1       2.402   2.068  -3.421  1.00  0.00     0.189 HD
HETATM   19  N2  UNL     1       4.684   2.440  -1.170  1.00  0.00    -0.222 N 
ATOM     20  H3  UNL     1       4.246   3.336  -2.925  1.00  0.00     0.210 HD
HETATM   21  N1  UNL     1       4.356   1.516  -0.305  1.00  0.00    -0.231 N 
ATOM     22  H2  UNL     1       5.496   3.033  -0.998  1.00  0.00     0.210 HD
HETATM   23  C15 UNL     1       3.258   0.742  -0.580  1.00  0.00     0.297 A 
HETATM   24  O5  UNL     1       2.933  -0.153   0.246  1.00  0.00    -0.264 OA
BRANCH  21  25
HETATM   25  C2  UNL     1       5.063   1.247   0.934  1.00  0.00     0.048 C 
HETATM   26  C1  UNL     1       4.214   1.727   2.074  1.00  0.00     0.040 C 
HETATM   27  C3  UNL     1       6.351   2.083   0.900  1.00  0.00     0.040 C 
HETATM   28  C4  UNL     1       5.456  -0.193   1.089  1.00  0.00     0.040 C 
ENDBRANCH  21  25
ENDBRANCH  11  15
ENDBRANCH  10  11
ENDBRANCH   1  10
BRANCH   9  29
HETATM   29  N11 UNL     1      -0.817  -0.162   0.729  1.00  0.00    -0.274 N 
HETATM   30  N12 UNL     1      -1.710   0.562   0.356  1.00  0.00    -0.206 N 
ATOM     31  H12 UNL     1      -1.755   1.517   0.711  1.00  0.00     0.216 HD
ATOM     32  H11 UNL     1      -0.203   0.322   1.384  1.00  0.00     0.189 HD
BRANCH  30  33
HETATM   33  O1  UNL     1      -2.670   0.132  -0.537  1.00  0.00    -0.255 OA
BRANCH  33  34
HETATM   34  C11 UNL     1      -3.851   0.875  -0.847  1.00  0.00     0.212 C 
BRANCH  34  35
HETATM   35  C12 UNL     1      -3.874   1.274  -2.294  1.00  0.00     0.201 C 
BRANCH  35  36
HETATM   36  O2  UNL     1      -2.755   2.049  -2.591  1.00  0.00    -0.398 OA
ATOM     37  H2  UNL     1      -2.770   2.302  -3.507  1.00  0.00     0.209 HD
ENDBRANCH  35  36
ENDBRANCH  34  35
BRANCH  34  38
HETATM   38  C13 UNL     1      -4.993   0.028  -0.400  1.00  0.00     0.271 C 
BRANCH  38  39
HETATM   39  N13 UNL     1      -4.824  -0.154   1.047  1.00  0.00    -0.068 N 
ATOM     40 3H13 UNL     1      -3.913  -0.532   1.305  1.00  0.00     0.275 HD
ATOM     41 2H13 UNL     1      -4.744   0.724   1.560  1.00  0.00     0.275 HD
ATOM     42 1H13 UNL     1      -5.606  -0.734   1.353  1.00  0.00     0.275 HD
ENDBRANCH  38  39
BRANCH  38  43
HETATM   43  C14 UNL     1      -6.360   0.489  -0.740  1.00  0.00     0.287 C 
BRANCH  43  44
HETATM   44  O3  UNL     1      -6.745   1.696  -0.205  1.00  0.00    -0.369 OA
ATOM     45  H3  UNL     1      -7.621   1.991  -0.423  1.00  0.00     0.212 HD
ENDBRANCH  43  44
BRANCH  43  46
HETATM   46  O4  UNL     1      -6.681   0.341  -2.102  1.00  0.00    -0.369 OA
ATOM     47  H4  UNL     1      -7.557   0.636  -2.320  1.00  0.00     0.212 HD
ENDBRANCH  43  46
ENDBRANCH  38  43
ENDBRANCH  34  38
ENDBRANCH  33  34
ENDBRANCH  30  33
ENDBRANCH   9  29
BRANCH   4  48
HETATM   48  N8  UNL     1       0.839  -5.314  -0.045  1.00  0.00    -0.234 N 
ATOM     49  H82 UNL     1       1.494  -5.545  -0.792  1.00  0.00     0.174 HD
ATOM     50  H81 UNL     1       0.515  -6.081   0.544  1.00  0.00     0.174 HD
ENDBRANCH   4  48
TORSDOF 15
