REMARK  6 active torsions:
REMARK  status: ('A' for Active; 'I' for Inactive)
REMARK    1  A    between atoms: C2_2  and  C3_3 
REMARK    2  A    between atoms: N1_6  and  O1_8 
REMARK    3  A    between atoms: O1_8  and  C6_9 
REMARK    4  A    between atoms: C18_22  and  C19_23 
REMARK    5  A    between atoms: C19_23  and  C21_25 
REMARK    6  A    between atoms: C21_25  and  O2_26 
ROOT
HETATM    1  C3  UNL     1       0.043   1.038   0.228  1.00  0.00     0.018 C 
HETATM    2  C4  UNL     1       0.296   1.369   1.647  1.00  0.00     0.026 C 
HETATM    3  C5  UNL     1       0.771  -0.227  -0.017  1.00  0.00     0.023 C 
HETATM    4  N1  UNL     1       2.008  -0.228   0.354  1.00  0.00    -0.273 N 
ATOM      5  H1  UNL     1       2.369   0.628   0.775  1.00  0.00     0.193 HD
HETATM    6  C10 UNL     1       0.246  -1.444  -0.624  1.00  0.00     0.061 C 
HETATM    7  C11 UNL     1      -1.151  -1.329  -1.103  1.00  0.00    -0.000 C 
HETATM    8  C12 UNL     1      -1.771  -2.680  -1.296  1.00  0.00     0.007 C 
HETATM    9  C13 UNL     1      -2.661  -3.146  -0.216  1.00  0.00     0.020 C 
HETATM   10  C14 UNL     1      -2.720  -2.360   1.027  1.00  0.00     0.083 C 
HETATM   11 CL1  UNL     1      -1.624  -3.062   2.277  1.00  0.00    -0.125 Cl
HETATM   12  C15 UNL     1      -2.582  -0.874   0.926  1.00  0.00     0.030 C 
HETATM   13  C16 UNL     1      -2.018  -0.367  -0.325  1.00  0.00    -0.033 C 
HETATM   14  C17 UNL     1      -3.213  -0.160  -1.285  1.00  0.00     0.016 C 
HETATM   15  C18 UNL     1      -1.318   0.979  -0.280  1.00  0.00     0.017 C 
ENDROOT
BRANCH   1  16
HETATM   16  C2  UNL     1       0.850   2.016  -0.611  1.00  0.00    -0.021 C 
HETATM   17  C1  UNL     1       1.371   1.649  -1.778  1.00  0.00     0.008 C 
ENDBRANCH   1  16
BRANCH   4  18
HETATM   18  O1  UNL     1       2.861  -1.262   0.232  1.00  0.00    -0.271 OA
BRANCH  18  19
HETATM   19  C6  UNL     1       4.245  -1.073   0.355  1.00  0.00     0.078 C 
HETATM   20  C7  UNL     1       4.901  -2.433   0.164  1.00  0.00     0.048 C 
HETATM   21  C8  UNL     1       4.612  -0.533   1.710  1.00  0.00     0.048 C 
HETATM   22  C9  UNL     1       4.690  -0.094  -0.703  1.00  0.00     0.048 C 
ENDBRANCH  18  19
ENDBRANCH   4  18
BRANCH  15  23
HETATM   23  C19 UNL     1      -2.246   2.119  -0.052  1.00  0.00     0.011 C 
HETATM   24  C20 UNL     1      -1.761   3.444  -0.675  1.00  0.00     0.012 C 
BRANCH  23  25
HETATM   25  C21 UNL     1      -2.640   2.493   1.322  1.00  0.00     0.168 C 
BRANCH  25  26
HETATM   26  O2  UNL     1      -3.526   3.600   1.161  1.00  0.00    -0.400 OA
ATOM     27  H2  UNL     1      -3.779   3.840   2.044  1.00  0.00     0.209 HD
ENDBRANCH  25  26
ENDBRANCH  23  25
ENDBRANCH  15  23
TORSDOF 6
