REMARK  4 active torsions:
REMARK  status: ('A' for Active; 'I' for Inactive)
REMARK    1  A    between atoms: C2_4  and  C3_5 
REMARK    2  A    between atoms: C4_6  and  C5_7 
REMARK    3  A    between atoms: N3_13  and  C9_14 
REMARK    4  A    between atoms: C9_14  and  C10_15 
ROOT
HETATM    1  C3  UNL     1      -1.168   0.770  -0.376  1.00  0.00     0.043 A 
HETATM    2  C4  UNL     1      -1.090  -0.605  -0.436  1.00  0.00     0.048 A 
HETATM    3  N2  UNL     1       0.121  -0.866  -0.955  1.00  0.00    -0.300 N 
ATOM      4  H2  UNL     1       0.489  -1.801  -1.129  1.00  0.00     0.187 HD
HETATM    5  N3  UNL     1       0.782   0.278  -1.213  1.00  0.00    -0.276 N 
HETATM    6  C16 UNL     1       0.014   1.319  -0.867  1.00  0.00     0.131 A 
HETATM    7  S1  UNL     1       0.343   2.908  -0.981  1.00  0.00    -0.058 SA
ENDROOT
BRANCH   5   8
HETATM    8  C9  UNL     1       2.133   0.346  -1.779  1.00  0.00     0.188 C 
BRANCH   8   9
HETATM    9  C10 UNL     1       3.190   0.326  -0.764  1.00  0.00    -0.038 A 
HETATM   10  C11 UNL     1       3.631  -0.922  -0.315  1.00  0.00     0.010 A 
HETATM   11  C12 UNL     1       4.639  -1.023   0.648  1.00  0.00     0.019 A 
HETATM   12  C13 UNL     1       5.213   0.115   1.168  1.00  0.00     0.011 A 
HETATM   13 BR1  UNL     1       6.584   0.001   2.477  1.00  0.00    -0.051 Br
HETATM   14  C14 UNL     1       4.804   1.358   0.749  1.00  0.00     0.019 A 
HETATM   15  C15 UNL     1       3.793   1.430  -0.215  1.00  0.00     0.010 A 
ENDBRANCH   8   9
ENDBRANCH   5   8
BRANCH   2  16
HETATM   16  C5  UNL     1      -2.130  -1.584  -0.014  1.00  0.00    -0.006 C 
HETATM   17  C6  UNL     1      -1.580  -2.991  -0.275  1.00  0.00     0.021 C 
HETATM   18  C7  UNL     1      -2.458  -1.429   1.432  1.00  0.00     0.021 C 
HETATM   19  C8  UNL     1      -3.380  -1.456  -0.890  1.00  0.00     0.021 C 
ENDBRANCH   2  16
BRANCH   1  20
HETATM   20  C2  UNL     1      -2.281   1.569   0.111  1.00  0.00     0.099 C 
HETATM   21  N1  UNL     1      -2.248   2.863   0.123  1.00  0.00    -0.402 N 
HETATM   22  C1  UNL     1      -3.376   3.619   0.616  1.00  0.00     0.145 C 
ATOM     23  H1  UNL     1      -1.420   3.352  -0.218  1.00  0.00     0.158 HD
ENDBRANCH   1  20
TORSDOF 4
