REMARK  10 active torsions:
REMARK  status: ('A' for Active; 'I' for Inactive)
REMARK    1  A    between atoms: C2_2  and  C3_3 
REMARK    2  A    between atoms: C3_3  and  C5_5 
REMARK    3  A    between atoms: C5_5  and  N1_6 
REMARK    4  A    between atoms: C5_5  and  C12_16 
REMARK    5  A    between atoms: N1_6  and  C6_8 
REMARK    6  A    between atoms: C6_8  and  C7_9 
REMARK    7  A    between atoms: C6_8  and  C8_12 
REMARK    8  A    between atoms: C7_9  and  O1_10 
REMARK    9  A    between atoms: C8_12  and  C9_13 
REMARK   10  A    between atoms: C14_18  and  O2_19 
ROOT
HETATM    1  C5  UNL     1      -1.182  -0.197   0.238  1.00  0.00     0.084 C 
ENDROOT
BRANCH   1   2
HETATM    2  C3  UNL     1      -1.893  -1.359  -0.427  1.00  0.00     0.004 C 
HETATM    3  C4  UNL     1      -3.347  -1.447  -0.008  1.00  0.00     0.012 C 
BRANCH   2   4
HETATM    4  C2  UNL     1      -1.203  -2.689  -0.233  1.00  0.00     0.002 C 
HETATM    5  C1  UNL     1      -1.902  -3.709  -1.065  1.00  0.00     0.005 C 
ENDBRANCH   2   4
ENDBRANCH   1   2
BRANCH   1   6
HETATM    6  N1  UNL     1       0.137  -0.133  -0.337  1.00  0.00    -0.410 N 
ATOM      7  H1  UNL     1       0.317  -0.375  -1.311  1.00  0.00     0.154 HD
BRANCH   6   8
HETATM    8  C6  UNL     1       1.195   0.299   0.560  1.00  0.00     0.100 C 
BRANCH   8   9
HETATM    9  C7  UNL     1       1.459  -0.615   1.703  1.00  0.00     0.188 C 
BRANCH   9  10
HETATM   10  O1  UNL     1       1.875  -1.880   1.377  1.00  0.00    -0.399 OA
ATOM     11  H1  UNL     1       2.044  -2.464   2.107  1.00  0.00     0.209 HD
ENDBRANCH   9  10
ENDBRANCH   8   9
BRANCH   8  12
HETATM   12  C8  UNL     1       2.346   0.602  -0.343  1.00  0.00     0.031 C 
BRANCH  12  13
HETATM   13  C9  UNL     1       3.619   1.084   0.219  1.00  0.00    -0.021 C 
HETATM   14  C10 UNL     1       4.520   1.342  -1.044  1.00  0.00     0.009 C 
HETATM   15  C11 UNL     1       4.431   0.015   0.954  1.00  0.00     0.009 C 
ENDBRANCH  12  13
ENDBRANCH   8  12
ENDBRANCH   6   8
ENDBRANCH   1   6
BRANCH   1  16
HETATM   16  C12 UNL     1      -1.903   1.038  -0.248  1.00  0.00     0.013 C 
HETATM   17  C13 UNL     1      -1.356   2.353   0.280  1.00  0.00     0.038 C 
HETATM   18  C14 UNL     1      -2.774   2.875   0.083  1.00  0.00     0.119 C 
HETATM   19  C15 UNL     1      -3.174   1.429   0.449  1.00  0.00     0.038 C 
BRANCH  18  20
HETATM   20  O2  UNL     1      -2.976   3.107  -1.269  1.00  0.00    -0.396 OA
ATOM     21  H2  UNL     1      -3.860   3.432  -1.392  1.00  0.00     0.210 HD
ENDBRANCH  18  20
ENDBRANCH   1  16
TORSDOF 10
