REMARK  16 active torsions:
REMARK  status: ('A' for Active; 'I' for Inactive)
REMARK       I    between atoms: N2_3  and  C2_5 
REMARK    1  A    between atoms: C2_5  and  C3_7 
REMARK    2  A    between atoms: C4_10  and  C5_11 
REMARK    3  A    between atoms: C5_11  and  C6_12 
REMARK    4  A    between atoms: C5_11  and  C12_28 
REMARK    5  A    between atoms: C5_11  and  C16_37 
REMARK    6  A    between atoms: C6_12  and  C7_14 
REMARK    7  A    between atoms: C7_14  and  O3_15 
REMARK    8  A    between atoms: C7_14  and  N4_17 
REMARK    9  A    between atoms: C10_22  and  C11_23 
REMARK   10  A    between atoms: C11_23  and  O6_24 
REMARK   11  A    between atoms: C11_23  and  O7_26 
REMARK   12  A    between atoms: C16_37  and  O9_38 
REMARK   13  A    between atoms: C16_37  and  O10_40 
REMARK   14  A    between atoms: C17_42  and  N7_43 
REMARK   15  A    between atoms: N7_43  and  N8_45 
REMARK   16  A    between atoms: C18_50  and  O11_51 
ROOT
HETATM    1  N1  UNL     1      -5.576   2.530   4.256  1.00  0.00    -0.172 NA
HETATM    2  C1  UNL     1      -4.950   1.659   3.826  1.00  0.00     0.184 C 
HETATM    3  N2  UNL     1      -4.176   0.596   3.277  1.00  0.00    -0.258 N 
ATOM      4  H2  UNL     1      -4.182  -0.317   3.732  1.00  0.00     0.181 HD
HETATM    5  C2  UNL     1      -3.417   0.785   2.136  1.00  0.00     0.285 C 
HETATM    6  O1  UNL     1      -3.463   1.964   1.621  1.00  0.00    -0.265 OA
ENDROOT
BRANCH   5   7
HETATM    7  C3  UNL     1      -2.599  -0.190   1.483  1.00  0.00     0.153 A 
HETATM    8  N3  UNL     1      -1.928   0.213   0.361  1.00  0.00    -0.347 N 
HETATM    9  C4  UNL     1      -1.112  -0.585  -0.371  1.00  0.00     0.085 A 
ATOM     10  H3  UNL     1      -2.050   1.178   0.055  1.00  0.00     0.166 HD
HETATM   11  C17 UNL     1      -0.984  -1.863   0.082  1.00  0.00     0.146 A 
HETATM   12  N9  UNL     1      -1.634  -2.294   1.189  1.00  0.00    -0.319 N 
HETATM   13  C18 UNL     1      -2.434  -1.483   1.890  1.00  0.00     0.174 A 
ATOM     14  H9  UNL     1      -1.511  -3.259   1.495  1.00  0.00     0.169 HD
BRANCH   9  15
HETATM   15  C5  UNL     1      -0.438  -0.119  -1.579  1.00  0.00     0.178 C 
BRANCH  15  16
HETATM   16  C6  UNL     1       1.049  -0.220  -1.527  1.00  0.00     0.204 C 
HETATM   17  O2  UNL     1       1.664  -0.810  -2.397  1.00  0.00    -0.291 OA
BRANCH  16  18
HETATM   18  C7  UNL     1       1.851   0.386  -0.427  1.00  0.00     0.320 C 
BRANCH  18  19
HETATM   19  O3  UNL     1       1.005   0.865   0.576  1.00  0.00    -0.368 OA
ATOM     20  H3  UNL     1       1.516   1.251   1.277  1.00  0.00     0.212 HD
ENDBRANCH  18  19
BRANCH  18  21
HETATM   21  N4  UNL     1       2.862  -0.541   0.074  1.00  0.00    -0.211 N 
HETATM   22  O4  UNL     1       3.103  -1.739  -0.376  1.00  0.00    -0.190 OA
HETATM   23  C8  UNL     1       4.057  -2.347   0.252  1.00  0.00     0.307 A 
HETATM   24  O5  UNL     1       4.525  -3.519   0.051  1.00  0.00    -0.258 OA
HETATM   25  C9  UNL     1       4.489  -1.466   1.211  1.00  0.00     0.116 A 
HETATM   26  C10 UNL     1       3.710  -0.327   1.072  1.00  0.00     0.099 A 
BRANCH  26  27
HETATM   27  C11 UNL     1       3.879   0.862   1.912  1.00  0.00     0.307 C 
BRANCH  27  28
HETATM   28  O6  UNL     1       5.281   1.036   2.077  1.00  0.00    -0.366 OA
ATOM     29  H6  UNL     1       5.391   1.807   2.621  1.00  0.00     0.213 HD
ENDBRANCH  27  28
BRANCH  27  30
HETATM   30  O7  UNL     1       3.463   2.055   1.320  1.00  0.00    -0.366 OA
ATOM     31  H7  UNL     1       3.573   2.826   1.864  1.00  0.00     0.213 HD
ENDBRANCH  27  30
ENDBRANCH  26  27
ENDBRANCH  18  21
ENDBRANCH  16  18
ENDBRANCH  15  16
BRANCH  15  32
HETATM   32  C12 UNL     1      -0.732   1.363  -1.803  1.00  0.00     0.111 A 
HETATM   33  N5  UNL     1      -1.867   1.952  -1.497  1.00  0.00    -0.311 N 
HETATM   34  C13 UNL     1      -2.134   3.255  -1.722  1.00  0.00     0.247 A 
ATOM     35  H5  UNL     1      -2.594   1.386  -1.060  1.00  0.00     0.170 HD
HETATM   36  O8  UNL     1      -3.255   3.702  -1.386  1.00  0.00    -0.268 OA
HETATM   37  C14 UNL     1      -1.147   4.028  -2.317  1.00  0.00     0.091 A 
HETATM   38  C15 UNL     1       0.041   3.423  -2.640  1.00  0.00     0.095 A 
HETATM   39  N6  UNL     1       0.221   2.107  -2.377  1.00  0.00    -0.354 N 
ATOM     40  H6  UNL     1       1.109   1.670  -2.624  1.00  0.00     0.166 HD
ENDBRANCH  15  32
BRANCH  15  41
HETATM   41  C16 UNL     1      -0.974  -0.731  -2.832  1.00  0.00     0.283 C 
BRANCH  41  42
HETATM   42  O9  UNL     1      -0.935  -2.055  -3.032  1.00  0.00    -0.369 OA
ATOM     43  H9  UNL     1      -1.276  -2.444  -3.829  1.00  0.00     0.212 HD
ENDBRANCH  41  42
BRANCH  41  44
HETATM   44  O10 UNL     1      -2.284  -0.237  -3.069  1.00  0.00    -0.369 OA
ATOM     45  H10 UNL     1      -2.625  -0.626  -3.866  1.00  0.00     0.212 HD
ENDBRANCH  41  44
ENDBRANCH  15  41
ENDBRANCH   9  15
BRANCH  11  46
HETATM   46  N7  UNL     1      -0.224  -2.712  -0.482  1.00  0.00    -0.290 N 
ATOM     47  H7  UNL     1       0.313  -2.435  -1.304  1.00  0.00     0.188 HD
BRANCH  46  48
HETATM   48  N8  UNL     1      -0.112  -4.004  -0.001  1.00  0.00    -0.344 N 
ATOM     49  H82 UNL     1      -0.656  -4.264   0.822  1.00  0.00     0.176 HD
ATOM     50  H81 UNL     1       0.498  -4.685  -0.453  1.00  0.00     0.176 HD
ENDBRANCH  46  48
ENDBRANCH  11  46
BRANCH  13  51
HETATM   51  O11 UNL     1      -3.072  -1.972   3.007  1.00  0.00    -0.344 OA
ATOM     52  H11 UNL     1      -2.957  -2.872   3.290  1.00  0.00     0.219 HD
ENDBRANCH  13  51
ENDBRANCH   5   7
TORSDOF 16
