REMARK  9 active torsions:
REMARK  status: ('A' for Active; 'I' for Inactive)
REMARK    1  A    between atoms: C1_2  and  N1_3 
REMARK    2  A    between atoms: N1_3  and  C2_5 
REMARK    3  A    between atoms: C2_5  and  C3_6 
REMARK    4  A    between atoms: C2_5  and  C8_20 
REMARK    5  A    between atoms: C3_6  and  N2_7 
REMARK       I    between atoms: N2_7  and  C4_9 
REMARK       I    between atoms: C4_9  and  N3_11 
REMARK    6  A    between atoms: C5_13  and  N4_14 
REMARK    7  A    between atoms: N4_14  and  C6_16 
REMARK    8  A    between atoms: C6_16  and  C7_17 
REMARK    9  A    between atoms: C8_20  and  O3_21 
ROOT
HETATM    1  N2  UNL     1      -0.520  -0.871   0.619  1.00  0.00    -0.341 N 
ATOM      2  H2  UNL     1      -0.091  -1.715   0.239  1.00  0.00     0.164 HD
HETATM    3  C4  UNL     1       0.089   0.375   0.385  1.00  0.00     0.321 C 
HETATM    4  O2  UNL     1      -0.314   1.488   0.789  1.00  0.00    -0.247 OA
HETATM    5  N3  UNL     1       1.295   0.396  -0.391  1.00  0.00    -0.305 N 
ATOM      6  H3  UNL     1       1.244   0.629  -1.383  1.00  0.00     0.171 HD
HETATM    7  C5  UNL     1       2.436   0.129   0.129  1.00  0.00     0.180 C 
ENDROOT
BRANCH   1   8
HETATM    8  C3  UNL     1      -1.725  -0.982   1.376  1.00  0.00     0.154 C 
BRANCH   8   9
HETATM    9  C2  UNL     1      -2.856  -0.238   0.716  1.00  0.00     0.161 C 
BRANCH   9  10
HETATM   10  N1  UNL     1      -3.054  -0.809  -0.591  1.00  0.00    -0.357 N 
ATOM     11  H1  UNL     1      -3.279  -1.803  -0.628  1.00  0.00     0.162 HD
BRANCH  10  12
HETATM   12  C1  UNL     1      -2.970  -0.142  -1.806  1.00  0.00     0.349 C 
HETATM   13  O1  UNL     1      -2.700   1.082  -1.846  1.00  0.00    -0.284 OA
ENDBRANCH  10  12
ENDBRANCH   9  10
BRANCH   9  14
HETATM   14  C8  UNL     1      -4.073  -0.338   1.595  1.00  0.00     0.328 C 
HETATM   15  F3  UNL     1      -5.177   0.269   1.094  1.00  0.00    -0.218 F 
BRANCH  14  16
HETATM   16  O3  UNL     1      -3.773   0.241   2.827  1.00  0.00    -0.365 OA
ATOM     17  H3  UNL     1      -4.541   0.178   3.382  1.00  0.00     0.213 HD
ENDBRANCH  14  16
ENDBRANCH   9  14
ENDBRANCH   8   9
ENDBRANCH   1   8
BRANCH   7  18
HETATM   18  N4  UNL     1       3.596   0.159  -0.665  1.00  0.00    -0.381 N 
ATOM     19  H4  UNL     1       4.008  -0.711  -1.002  1.00  0.00     0.160 HD
BRANCH  18  20
HETATM   20  C6  UNL     1       4.201   1.423  -1.001  1.00  0.00     0.191 C 
BRANCH  20  21
HETATM   21  C7  UNL     1       5.437   1.235  -1.861  1.00  0.00     0.370 C 
HETATM   22  F1  UNL     1       5.060   0.590  -3.024  1.00  0.00    -0.213 F 
HETATM   23  F2  UNL     1       5.967   2.476  -2.142  1.00  0.00    -0.213 F 
ENDBRANCH  20  21
ENDBRANCH  18  20
ENDBRANCH   7  18
TORSDOF 9
