REMARK  8 active torsions:
REMARK  status: ('A' for Active; 'I' for Inactive)
REMARK    1  A    between atoms: N1_2  and  C2_5 
REMARK    2  A    between atoms: C2_5  and  C3_7 
REMARK    3  A    between atoms: C3_7  and  C4_8 
REMARK    4  A    between atoms: C3_7  and  N4_19 
REMARK    5  A    between atoms: C4_8  and  N2_9 
REMARK       I    between atoms: N2_9  and  C5_11 
REMARK       I    between atoms: C5_11  and  N3_13 
REMARK    6  A    between atoms: N3_13  and  C6_15 
REMARK    7  A    between atoms: C6_15  and  C7_16 
REMARK    8  A    between atoms: N4_19  and  C8_21 
ROOT
HETATM    1  C3  UNL     1      -1.592   1.121   0.463  1.00  0.00     0.163 C 
ENDROOT
BRANCH   1   2
HETATM    2  C2  UNL     1      -2.383   0.221   1.324  1.00  0.00     0.391 C 
HETATM    3  F1  UNL     1      -3.699   0.721   1.336  1.00  0.00    -0.217 F 
BRANCH   2   4
HETATM    4  N1  UNL     1      -2.408  -1.163   1.030  1.00  0.00    -0.046 N 
HETATM    5  C1  UNL     1      -3.055  -1.479  -0.234  1.00  0.00     0.270 C 
ATOM      6  H12 UNL     1      -2.835  -1.686   1.794  1.00  0.00     0.280 HD
ATOM      7  H11 UNL     1      -1.467  -1.555   1.061  1.00  0.00     0.280 HD
ENDBRANCH   2   4
ENDBRANCH   1   2
BRANCH   1   8
HETATM    8  C4  UNL     1      -0.134   0.940   0.381  1.00  0.00     0.154 C 
BRANCH   8   9
HETATM    9  N2  UNL     1       0.418  -0.276  -0.085  1.00  0.00    -0.341 N 
HETATM   10  C5  UNL     1       1.869  -0.358  -0.123  1.00  0.00     0.316 C 
HETATM   11  O1  UNL     1       2.562   0.604   0.240  1.00  0.00    -0.247 OA
HETATM   12  N3  UNL     1       2.446  -1.547  -0.579  1.00  0.00    -0.338 N 
ATOM     13  H3  UNL     1       1.799  -2.294  -0.832  1.00  0.00     0.164 HD
ATOM     14  H2  UNL     1      -0.171  -1.055  -0.379  1.00  0.00     0.164 HD
BRANCH  12  15
HETATM   15  C6  UNL     1       3.822  -1.835  -0.730  1.00  0.00     0.195 C 
BRANCH  15  16
HETATM   16  C7  UNL     1       4.537  -1.022  -1.754  1.00  0.00     0.370 C 
HETATM   17  F2  UNL     1       5.897  -1.435  -1.815  1.00  0.00    -0.213 F 
HETATM   18  F3  UNL     1       4.615   0.292  -1.421  1.00  0.00    -0.213 F 
ENDBRANCH  15  16
ENDBRANCH  12  15
ENDBRANCH   8   9
ENDBRANCH   1   8
BRANCH   1  19
HETATM   19  N4  UNL     1      -1.809   2.487   0.972  1.00  0.00    -0.357 N 
ATOM     20  H4  UNL     1      -1.508   2.702   1.922  1.00  0.00     0.162 HD
BRANCH  19  21
HETATM   21  C8  UNL     1      -2.411   3.512   0.215  1.00  0.00     0.349 C 
HETATM   22  O2  UNL     1      -2.808   3.330  -0.965  1.00  0.00    -0.284 OA
ENDBRANCH  19  21
ENDBRANCH   1  19
TORSDOF 8
