REMARK  10 active torsions:
REMARK  status: ('A' for Active; 'I' for Inactive)
REMARK    1  A    between atoms: C1_2  and  C2_3 
REMARK       I    between atoms: C1_2  and  N6_30 
REMARK    2  A    between atoms: C2_3  and  O2_4 
REMARK    3  A    between atoms: O2_4  and  C3_5 
REMARK    4  A    between atoms: C6_8  and  C7_9 
REMARK    5  A    between atoms: N1_10  and  N2_12 
REMARK    6  A    between atoms: C8_14  and  C9_15 
REMARK    7  A    between atoms: C14_22  and  N4_23 
REMARK    8  A    between atoms: C15_26  and  N5_27 
REMARK    9  A    between atoms: N6_30  and  C16_32 
REMARK   10  A    between atoms: C21_37  and  N7_38 
ROOT
HETATM    1  C3  UNL     1      -0.447  -1.185   0.358  1.00  0.00     0.104 A 
HETATM    2  C4  UNL     1       0.235  -2.034   1.229  1.00  0.00     0.040 A 
HETATM    3  C5  UNL     1       1.595  -2.125   1.130  1.00  0.00     0.018 A 
HETATM    4  C6  UNL     1       2.318  -1.383   0.171  1.00  0.00     0.017 A 
HETATM    5  C14 UNL     1       1.603  -0.570  -0.655  1.00  0.00     0.150 A 
HETATM    6  C15 UNL     1       0.199  -0.445  -0.589  1.00  0.00     0.170 A 
ENDROOT
BRANCH   1   7
HETATM    7  O2  UNL     1      -1.835  -1.118   0.495  1.00  0.00    -0.339 OA
BRANCH   7   8
HETATM    8  C2  UNL     1      -2.499  -1.881   1.462  1.00  0.00     0.278 C 
BRANCH   8   9
HETATM    9  C1  UNL     1      -3.976  -1.591   1.406  1.00  0.00     0.246 C 
HETATM   10  O1  UNL     1      -4.699  -2.248   2.190  1.00  0.00    -0.271 OA
HETATM   11  N6  UNL     1      -4.456  -0.636   0.518  1.00  0.00    -0.323 N 
ATOM     12  H6  UNL     1      -3.774  -0.170  -0.080  1.00  0.00     0.169 HD
BRANCH  11  13
HETATM   13  C16 UNL     1      -5.799  -0.259   0.374  1.00  0.00     0.068 A 
HETATM   14  C17 UNL     1      -6.767  -0.583   1.317  1.00  0.00     0.032 A 
HETATM   15  C18 UNL     1      -8.063  -0.114   1.157  1.00  0.00     0.002 A 
HETATM   16  C19 UNL     1      -8.446   0.668   0.097  1.00  0.00     0.003 A 
HETATM   17  C20 UNL     1      -7.514   1.001  -0.846  1.00  0.00     0.038 A 
HETATM   18  C21 UNL     1      -6.199   0.533  -0.699  1.00  0.00     0.129 A 
BRANCH  18  19
HETATM   19  N7  UNL     1      -5.314   0.925  -1.731  1.00  0.00    -0.113 N 
HETATM   20  O7  UNL     1      -4.424   0.207  -2.180  1.00  0.00    -0.532 OA
HETATM   21  O8  UNL     1      -5.493   2.185  -2.320  1.00  0.00    -0.532 OA
ENDBRANCH  18  19
ENDBRANCH  11  13
ENDBRANCH   8   9
ENDBRANCH   7   8
ENDBRANCH   1   7
BRANCH   6  22
HETATM   22  N5  UNL     1      -0.475   0.433  -1.495  1.00  0.00    -0.110 N 
HETATM   23  O5  UNL     1      -1.094  -0.024  -2.485  1.00  0.00    -0.532 OA
HETATM   24  O6  UNL     1      -0.471   1.796  -1.342  1.00  0.00    -0.532 OA
ENDBRANCH   6  22
BRANCH   5  25
HETATM   25  N4  UNL     1       2.210   0.212  -1.674  1.00  0.00    -0.112 N 
HETATM   26  O3  UNL     1       2.747   1.318  -1.492  1.00  0.00    -0.532 OA
HETATM   27  O4  UNL     1       2.202  -0.222  -2.999  1.00  0.00    -0.532 OA
ENDBRANCH   5  25
BRANCH   4  28
HETATM   28  C7  UNL     1       3.753  -1.527   0.106  1.00  0.00     0.121 C 
HETATM   29  N1  UNL     1       4.483  -0.900  -0.724  1.00  0.00    -0.311 N 
ATOM     30  H1  UNL     1       4.000  -0.269  -1.363  1.00  0.00     0.186 HD
BRANCH  29  31
HETATM   31  N2  UNL     1       5.820  -0.973  -0.856  1.00  0.00    -0.311 N 
HETATM   32  C8  UNL     1       6.820  -0.281  -0.597  1.00  0.00     0.118 C 
ATOM     33  H2  UNL     1       6.092  -1.852  -1.297  1.00  0.00     0.186 HD
BRANCH  32  34
HETATM   34  C9  UNL     1       6.945   1.014   0.016  1.00  0.00    -0.017 A 
HETATM   35  C10 UNL     1       8.206   1.587   0.162  1.00  0.00     0.030 A 
HETATM   36  C11 UNL     1       8.304   2.834   0.768  1.00  0.00     0.088 A 
HETATM   37  N3  UNL     1       7.234   3.506   1.215  1.00  0.00    -0.375 N 
HETATM   38  C12 UNL     1       5.993   2.972   1.085  1.00  0.00     0.088 A 
ATOM     39  H3  UNL     1       7.352   4.419   1.653  1.00  0.00     0.164 HD
HETATM   40  C13 UNL     1       5.858   1.737   0.490  1.00  0.00     0.030 A 
ENDBRANCH  32  34
ENDBRANCH  29  31
ENDBRANCH   4  28
TORSDOF 10
