REMARK  2 active torsions:
REMARK  status: ('A' for Active; 'I' for Inactive)
REMARK    1  A    between atoms: O1_1  and  C1_3 
REMARK    2  A    between atoms: C1_3  and  C2_4 
ROOT
HETATM    1  C2  UNL     1      -1.063  -0.021  -0.335  1.00  0.00     0.215 A 
HETATM    2  O2  UNL     1      -0.292  -0.403  -1.352  1.00  0.00    -0.318 OA
HETATM    3  C3  UNL     1       1.043  -0.382  -1.269  1.00  0.00     0.290 C 
HETATM    4  C4  UNL     1       1.649  -1.123  -0.107  1.00  0.00     0.232 C 
HETATM    5  O3  UNL     1       1.725  -0.146   0.857  1.00  0.00    -0.356 OA
HETATM    6  C5  UNL     1       1.654   1.060   0.219  1.00  0.00     0.265 C 
HETATM    7  C6  UNL     1       0.404   1.780   0.645  1.00  0.00     0.098 C 
HETATM    8  C7  UNL     1      -0.833   0.963   0.569  1.00  0.00     0.194 A 
HETATM    9  O4  UNL     1      -1.612   1.331  -0.640  1.00  0.00    -0.340 OA
HETATM   10  O5  UNL     1       1.619   0.873  -1.131  1.00  0.00    -0.329 OA
ENDROOT
BRANCH   1  11
HETATM   11  C1  UNL     1      -2.234  -0.983  -0.065  1.00  0.00     0.235 C 
BRANCH  11  12
HETATM   12  O1  UNL     1      -1.767  -2.249   0.238  1.00  0.00    -0.395 OA
ATOM     13  H1  UNL     1      -2.490  -2.843   0.405  1.00  0.00     0.209 HD
ENDBRANCH  11  12
ENDBRANCH   1  11
TORSDOF 2
