REMARK  3 active torsions:
REMARK  status: ('A' for Active; 'I' for Inactive)
REMARK    1  A    between atoms: N1_1  and  C1_5 
REMARK    2  A    between atoms: C4_9  and  C5_10 
REMARK    3  A    between atoms: C5_10  and  C6_11 
ROOT
HETATM    1  C1  UNL     1      -3.738   0.511  -0.361  1.00  0.00     0.284 C 
HETATM    2  C2  UNL     1      -4.609  -0.734  -0.135  1.00  0.00     0.074 C 
HETATM    3  C3  UNL     1      -3.261  -1.465  -0.338  1.00  0.00     0.128 C 
HETATM    4  N2  UNL     1      -2.619  -0.275  -0.121  1.00  0.00    -0.366 N 
HETATM    5  C4  UNL     1      -1.326   0.117  -0.095  1.00  0.00     0.060 C 
ENDROOT
BRANCH   5   6
HETATM    6  C5  UNL     1      -0.289  -1.002  -0.102  1.00  0.00     0.049 C 
BRANCH   6   7
HETATM    7  C6  UNL     1       1.123  -0.484  -0.059  1.00  0.00    -0.010 C 
HETATM    8  C7  UNL     1       1.411   0.444  -1.197  1.00  0.00     0.005 C 
HETATM    9  C8  UNL     1       2.804   0.486  -1.687  1.00  0.00     0.000 C 
HETATM   10  C9  UNL     1       3.816  -0.277  -0.922  1.00  0.00     0.000 C 
HETATM   11  C10 UNL     1       3.835  -0.114   0.539  1.00  0.00     0.000 C 
HETATM   12  C11 UNL     1       2.851   0.831   1.146  1.00  0.00     0.000 C 
HETATM   13  C12 UNL     1       1.488   0.177   1.233  1.00  0.00     0.005 C 
ENDBRANCH   6   7
ENDBRANCH   5   6
BRANCH   1  14
HETATM   14  N1  UNL     1      -4.031   1.606   0.550  1.00  0.00    -0.058 N 
ATOM     15  H13 UNL     1      -5.021   1.849   0.513  1.00  0.00     0.276 HD
ATOM     16  H12 UNL     1      -3.967   1.294   1.519  1.00  0.00     0.276 HD
ATOM     17  H11 UNL     1      -3.453   2.433   0.400  1.00  0.00     0.276 HD
ENDBRANCH   1  14
TORSDOF 3
