REMARK  8 active torsions:
REMARK  status: ('A' for Active; 'I' for Inactive)
REMARK    1  A    between atoms: C3_3  and  N1_4 
REMARK    2  A    between atoms: N1_4  and  C4_6 
REMARK    3  A    between atoms: C4_6  and  C5_7 
REMARK    4  A    between atoms: C5_7  and  N2_8 
REMARK    5  A    between atoms: N2_8  and  C6_10 
REMARK    6  A    between atoms: C6_10  and  C7_11 
REMARK    7  A    between atoms: C7_11  and  N3_12 
REMARK    8  A    between atoms: N3_12  and  C8_15 
ROOT
HETATM    1  C7  UNL     1      -0.956   1.173  -0.315  1.00  0.00     0.277 C 
ENDROOT
BRANCH   1   2
HETATM    2  C6  UNL     1       0.405   1.569   0.102  1.00  0.00     0.082 C 
BRANCH   2   3
HETATM    3  N2  UNL     1       1.411   0.593   0.202  1.00  0.00    -0.399 N 
ATOM      4  H2  UNL     1       1.804   0.348   1.111  1.00  0.00     0.158 HD
BRANCH   3   5
HETATM    5  C5  UNL     1       1.873  -0.048  -0.977  1.00  0.00     0.138 C 
BRANCH   5   6
HETATM    6  C4  UNL     1       3.139  -0.829  -0.562  1.00  0.00     0.139 C 
BRANCH   6   7
HETATM    7  N1  UNL     1       4.043   0.235  -0.100  1.00  0.00    -0.392 N 
ATOM      8  H1  UNL     1       3.689   1.169   0.105  1.00  0.00     0.159 HD
BRANCH   7   9
HETATM    9  C3  UNL     1       5.288  -0.042   0.038  1.00  0.00     0.004 C 
HETATM   10  C2  UNL     1       5.791  -1.364  -0.251  1.00  0.00     0.020 C 
HETATM   11  C1  UNL     1       7.082  -1.546  -0.380  1.00  0.00    -0.025 C 
HETATM   12  C20 UNL     1       8.093  -0.492  -0.253  1.00  0.00     0.027 C 
HETATM   13  C19 UNL     1       7.643   0.727   0.467  1.00  0.00     0.010 C 
HETATM   14  C18 UNL     1       6.195   1.018   0.487  1.00  0.00     0.057 C 
ENDBRANCH   7   9
ENDBRANCH   6   7
ENDBRANCH   5   6
ENDBRANCH   3   5
ENDBRANCH   2   3
ENDBRANCH   1   2
BRANCH   1  15
HETATM   15  N3  UNL     1      -1.625   0.219   0.502  1.00  0.00    -0.062 N 
ATOM     16  H32 UNL     1      -1.143  -0.680   0.486  1.00  0.00     0.278 HD
ATOM     17  H31 UNL     1      -1.519   0.444   1.491  1.00  0.00     0.278 HD
BRANCH  15  18
HETATM   18  C8  UNL     1      -3.030   0.067   0.146  1.00  0.00     0.127 C 
HETATM   19  C9  UNL     1      -3.269  -0.400  -1.249  1.00  0.00     0.043 C 
HETATM   20  C10 UNL     1      -4.760  -0.584  -1.440  1.00  0.00    -0.012 C 
HETATM   21  C11 UNL     1      -5.207  -1.716  -0.551  1.00  0.00     0.009 C 
HETATM   22  C15 UNL     1      -5.547   0.667  -1.185  1.00  0.00     0.009 C 
HETATM   23  C12 UNL     1      -5.036  -1.270   0.874  1.00  0.00    -0.012 C 
HETATM   24  C13 UNL     1      -5.783   0.014   1.157  1.00  0.00     0.009 C 
HETATM   25  C17 UNL     1      -3.572  -1.005   1.111  1.00  0.00     0.043 C 
HETATM   26  C14 UNL     1      -5.271   1.091   0.254  1.00  0.00    -0.012 C 
HETATM   27  C16 UNL     1      -3.774   1.329   0.438  1.00  0.00     0.043 C 
ENDBRANCH  15  18
ENDBRANCH   1  15
TORSDOF 8
