REMARK  2 active torsions:
REMARK  status: ('A' for Active; 'I' for Inactive)
REMARK    1  A    between atoms: C5_7  and  N1_8 
REMARK    2  A    between atoms: N1_8  and  C6_11 
ROOT
HETATM    1  N1  UNL     1       0.382   0.652  -0.747  1.00  0.00    -0.060 N 
ATOM      2  H11 UNL     1       0.352   0.173  -1.647  1.00  0.00     0.278 HD
ATOM      3  H12 UNL     1       0.481   1.600  -1.109  1.00  0.00     0.278 HD
ENDROOT
BRANCH   1   4
HETATM    4  C5  UNL     1       1.506   0.235   0.092  1.00  0.00     0.258 C 
HETATM    5  C1  UNL     1       2.588   1.274   0.162  1.00  0.00     0.271 C 
HETATM    6  F1  UNL     1       2.514   2.023   1.328  1.00  0.00    -0.204 F 
HETATM    7  F2  UNL     1       2.587   2.121  -0.918  1.00  0.00    -0.204 F 
HETATM    8  C2  UNL     1       3.853   0.425   0.225  1.00  0.00     0.081 C 
HETATM    9  C3  UNL     1       3.560  -0.655  -0.785  1.00  0.00     0.008 C 
HETATM   10  C4  UNL     1       2.137  -1.038  -0.419  1.00  0.00     0.039 C 
ENDBRANCH   1   4
BRANCH   1  11
HETATM   11  C6  UNL     1      -0.806   0.466   0.031  1.00  0.00     0.191 C 
HETATM   12  C7  UNL     1      -0.957  -0.968   0.539  1.00  0.00     0.038 C 
HETATM   13  C8  UNL     1      -2.443  -1.149   0.390  1.00  0.00    -0.012 C 
HETATM   14  C9  UNL     1      -3.136  -0.091   1.201  1.00  0.00     0.005 C 
HETATM   15  C12 UNL     1      -2.618  -0.587  -1.021  1.00  0.00     0.011 C 
HETATM   16  C10 UNL     1      -3.089   1.196   0.379  1.00  0.00     0.007 C 
HETATM   17  C11 UNL     1      -2.079   0.802  -0.682  1.00  0.00     0.017 C 
ENDBRANCH   1  11
TORSDOF 2
