REMARK  8 active torsions:
REMARK  status: ('A' for Active; 'I' for Inactive)
REMARK    1  A    between atoms: N1_2  and  C4_5 
REMARK    2  A    between atoms: C4_5  and  C5_6 
REMARK    3  A    between atoms: C5_6  and  C6_7 
REMARK    4  A    between atoms: C6_7  and  N2_8 
REMARK       I    between atoms: N2_8  and  C7_10 
REMARK       I    between atoms: C7_10  and  N4_15 
REMARK    5  A    between atoms: N3_11  and  O1_13 
REMARK    6  A    between atoms: N4_15  and  C8_17 
REMARK    7  A    between atoms: C8_17  and  C9_18 
REMARK    8  A    between atoms: C9_18  and  N5_19 
ROOT
HETATM    1  N2  UNL     1      -1.425   0.975   1.085  1.00  0.00    -0.225 N 
ATOM      2  H2  UNL     1      -1.684   1.738   0.459  1.00  0.00     0.177 HD
HETATM    3  C7  UNL     1      -0.061   0.576   1.115  1.00  0.00     0.693 C 
HETATM    4  N3  UNL     1       0.653   1.042   2.068  1.00  0.00    -0.099 N 
ATOM      5  H3  UNL     1       1.637   0.778   2.122  1.00  0.00     0.213 HD
HETATM    6  N4  UNL     1       0.525  -0.286   0.164  1.00  0.00    -0.223 N 
ATOM      7  H4  UNL     1       0.050  -1.172  -0.009  1.00  0.00     0.177 HD
ENDROOT
BRANCH   1   8
HETATM    8  C6  UNL     1      -2.468   0.374   1.879  1.00  0.00     0.140 C 
BRANCH   8   9
HETATM    9  C5  UNL     1      -2.799  -1.041   1.472  1.00  0.00     0.048 C 
BRANCH   9  10
HETATM   10  C4  UNL     1      -3.275  -1.214   0.082  1.00  0.00     0.237 C 
BRANCH  10  11
HETATM   11  N1  UNL     1      -4.451  -0.556  -0.333  1.00  0.00    -0.079 N 
HETATM   12  C1  UNL     1      -4.140   0.627  -1.120  1.00  0.00     0.271 C 
HETATM   13  C2  UNL     1      -5.361  -0.157   0.700  1.00  0.00     0.271 C 
HETATM   14  C3  UNL     1      -5.169  -1.457  -1.231  1.00  0.00     0.271 C 
ENDBRANCH  10  11
ENDBRANCH   9  10
ENDBRANCH   8   9
ENDBRANCH   1   8
BRANCH   4  15
HETATM   15  O1  UNL     1       0.146   1.875   3.008  1.00  0.00    -0.276 OA
ATOM     16  H1  UNL     1       0.676   2.221   3.716  1.00  0.00     0.245 HD
ENDBRANCH   4  15
BRANCH   6  17
HETATM   17  C8  UNL     1       1.715  -0.040  -0.578  1.00  0.00     0.158 C 
BRANCH  17  18
HETATM   18  C9  UNL     1       2.991  -0.047   0.234  1.00  0.00     0.142 C 
BRANCH  18  19
HETATM   19  N5  UNL     1       4.092   0.204  -0.616  1.00  0.00    -0.388 N 
HETATM   20  C10 UNL     1       4.489  -0.753  -1.554  1.00  0.00     0.084 C 
HETATM   21  C11 UNL     1       5.957  -0.561  -1.886  1.00  0.00     0.212 C 
HETATM   22  O2  UNL     1       6.673  -0.335  -0.740  1.00  0.00    -0.385 OA
HETATM   23  C12 UNL     1       6.394   0.881  -0.132  1.00  0.00     0.187 C 
HETATM   24  C13 UNL     1       4.950   1.282  -0.309  1.00  0.00     0.148 C 
ENDBRANCH  18  19
ENDBRANCH  17  18
ENDBRANCH   6  17
TORSDOF 8
