REMARK  5 active torsions:
REMARK  status: ('A' for Active; 'I' for Inactive)
REMARK    1  A    between atoms: C6_6  and  C7_7 
REMARK    2  A    between atoms: C7_7  and  C8_8 
REMARK    3  A    between atoms: C8_8  and  N1_9 
REMARK    4  A    between atoms: N1_9  and  C9_10 
REMARK    5  A    between atoms: N1_9  and  C17_23 
ROOT
HETATM    1  C9  UNL     1       2.483  -0.176   0.233  1.00  0.00     0.055 A 
HETATM    2  C10 UNL     1       2.892  -0.747   1.396  1.00  0.00     0.105 A 
HETATM    3  C11 UNL     1       3.659   0.035   2.274  1.00  0.00     0.248 A 
HETATM    4  O1  UNL     1       4.052  -0.477   3.366  1.00  0.00    -0.268 OA
HETATM    5  N2  UNL     1       3.989   1.288   2.006  1.00  0.00    -0.322 N 
ATOM      6  H2  UNL     1       4.548   1.807   2.683  1.00  0.00     0.169 HD
HETATM    7  C12 UNL     1       3.601   1.915   0.841  1.00  0.00     0.056 A 
HETATM    8  C13 UNL     1       3.876   3.178   0.467  1.00  0.00     0.061 A 
HETATM    9  C14 UNL     1       3.389   3.603  -0.738  1.00  0.00     0.088 A 
HETATM   10  C15 UNL     1       3.555   4.915  -1.350  1.00  0.00     0.107 C 
HETATM   11  N3  UNL     1       3.678   5.944  -1.852  1.00  0.00    -0.191 NA
HETATM   12  S1  UNL     1       2.561   2.230  -1.315  1.00  0.00    -0.075 SA
HETATM   13  C16 UNL     1       2.852   1.160  -0.023  1.00  0.00     0.059 A 
ENDROOT
BRANCH   1  14
HETATM   14  N1  UNL     1       1.687  -0.845  -0.772  1.00  0.00    -0.375 N 
BRANCH  14  15
HETATM   15  C8  UNL     1       0.407  -0.367  -1.126  1.00  0.00     0.124 C 
BRANCH  15  16
HETATM   16  C7  UNL     1      -0.787  -1.175  -0.709  1.00  0.00     0.026 C 
BRANCH  16  17
HETATM   17  C6  UNL     1      -2.100  -0.569  -1.175  1.00  0.00     0.011 C 
HETATM   18  C5  UNL     1      -3.276  -1.391  -0.728  1.00  0.00     0.007 C 
HETATM   19  C4  UNL     1      -3.380  -1.542   0.764  1.00  0.00     0.003 C 
HETATM   20  C3  UNL     1      -3.580  -0.289   1.532  1.00  0.00     0.031 C 
HETATM   21  C2  UNL     1      -3.690   0.964   0.715  1.00  0.00     0.117 C 
HETATM   22  C1  UNL     1      -4.361   2.060   1.515  1.00  0.00     0.039 C 
HETATM   23  O2  UNL     1      -2.370   1.308   0.340  1.00  0.00    -0.386 OA
HETATM   24  C20 UNL     1      -2.240   0.890  -0.979  1.00  0.00     0.172 C 
ENDBRANCH  16  17
ENDBRANCH  15  16
ENDBRANCH  14  15
BRANCH  14  25
HETATM   25  C17 UNL     1       2.324  -1.957  -1.403  1.00  0.00     0.084 A 
HETATM   26  C18 UNL     1       1.826  -3.232  -1.862  1.00  0.00     0.027 A 
HETATM   27  C19 UNL     1       2.424  -3.248  -0.523  1.00  0.00     0.027 A 
ENDBRANCH  14  25
ENDBRANCH   1  14
TORSDOF 5
