REMARK  16 active torsions:
REMARK  status: ('A' for Active; 'I' for Inactive)
REMARK    1  A    between atoms: S1_2  and  C3_4 
REMARK    2  A    between atoms: C3_4  and  C4_5 
REMARK    3  A    between atoms: C6_9  and  O1_10 
REMARK    4  A    between atoms: O1_10  and  C7_11 
REMARK    5  A    between atoms: C7_11  and  C8_12 
REMARK    6  A    between atoms: C8_12  and  N2_13 
REMARK       I    between atoms: C9_15  and  N4_17 
REMARK    7  A    between atoms: N4_17  and  C10_19 
REMARK    8  A    between atoms: C10_19  and  C11_20 
REMARK    9  A    between atoms: C11_20  and  C12_21 
REMARK   10  A    between atoms: C12_21  and  C13_22 
REMARK   11  A    between atoms: C13_22  and  C14_23 
REMARK   12  A    between atoms: C14_23  and  C15_24 
REMARK   13  A    between atoms: C15_24  and  C16_25 
REMARK       I    between atoms: C16_25  and  N5_27 
REMARK   14  A    between atoms: C19_30  and  C20_31 
REMARK   15  A    between atoms: C20_31  and  C21_32 
REMARK   16  A    between atoms: C21_32  and  N6_33 
ROOT
HETATM    1  C10 UNL     1      -1.682   1.145   2.389  1.00  0.00     0.122 C 
ENDROOT
BRANCH   1   2
HETATM    2  N4  UNL     1      -2.725   0.359   1.834  1.00  0.00    -0.365 N 
HETATM    3  C9  UNL     1      -3.260   0.423   0.522  1.00  0.00     0.184 C 
HETATM    4  N2  UNL     1      -3.598  -0.587  -0.189  1.00  0.00    -0.363 N 
HETATM    5  N3  UNL     1      -3.435   1.748  -0.018  1.00  0.00    -0.064 NA
ATOM      6  H2  UNL     1      -3.482  -1.531   0.179  1.00  0.00     0.162 HD
ATOM      7  H4  UNL     1      -3.140  -0.336   2.454  1.00  0.00     0.162 HD
BRANCH   4   8
HETATM    8  C8  UNL     1      -4.140  -0.391  -1.503  1.00  0.00     0.148 C 
BRANCH   8   9
HETATM    9  C7  UNL     1      -5.591  -0.013  -1.385  1.00  0.00     0.188 C 
BRANCH   9  10
HETATM   10  O1  UNL     1      -6.276  -1.063  -0.730  1.00  0.00    -0.382 OA
BRANCH  10  11
HETATM   11  C6  UNL     1      -7.578  -0.663  -0.637  1.00  0.00     0.144 C 
HETATM   12  C5  UNL     1      -8.580  -1.629  -1.264  1.00  0.00     0.151 C 
HETATM   13  N1  UNL     1      -9.811  -1.176  -0.662  1.00  0.00    -0.393 N 
HETATM   14  C4  UNL     1      -9.607  -0.617   0.465  1.00  0.00    -0.007 C 
ATOM     15  H1  UNL     1     -10.732  -1.289  -1.087  1.00  0.00     0.159 HD
HETATM   16  C25 UNL     1      -8.134  -0.635   0.778  1.00  0.00     0.086 C 
BRANCH  14  17
HETATM   17  C3  UNL     1     -10.604  -0.025   1.389  1.00  0.00     0.114 C 
BRANCH  17  18
HETATM   18  S1  UNL     1     -12.193  -0.107   0.646  1.00  0.00    -0.223 SA
HETATM   19  C1  UNL     1     -12.149   0.814  -0.884  1.00  0.00     0.078 C 
HETATM   20  C2  UNL     1     -12.557  -1.824   0.331  1.00  0.00     0.078 C 
ENDBRANCH  17  18
ENDBRANCH  14  17
ENDBRANCH  10  11
ENDBRANCH   9  10
ENDBRANCH   8   9
ENDBRANCH   4   8
ENDBRANCH   1   2
BRANCH   1  21
HETATM   21  C11 UNL     1      -0.291   0.909   1.923  1.00  0.00     0.020 C 
BRANCH  21  22
HETATM   22  C12 UNL     1      -0.110   1.118   0.470  1.00  0.00     0.002 C 
BRANCH  22  23
HETATM   23  C13 UNL     1       1.339   0.938   0.032  1.00  0.00     0.001 C 
BRANCH  23  24
HETATM   24  C14 UNL     1       1.916  -0.389   0.329  1.00  0.00     0.009 C 
BRANCH  24  25
HETATM   25  C15 UNL     1       3.344  -0.543  -0.124  1.00  0.00     0.103 C 
BRANCH  25  26
HETATM   26  C16 UNL     1       4.278   0.426   0.510  1.00  0.00     0.219 C 
HETATM   27  O2  UNL     1       3.888   1.077   1.489  1.00  0.00    -0.273 OA
HETATM   28  N5  UNL     1       5.602   0.611   0.010  1.00  0.00    -0.352 N 
HETATM   29  C17 UNL     1       6.451   1.575   0.653  1.00  0.00     0.126 C 
HETATM   30  C24 UNL     1       6.116  -0.124  -1.113  1.00  0.00     0.126 C 
HETATM   31  C18 UNL     1       7.635   0.842   1.243  1.00  0.00     0.024 C 
HETATM   32  C19 UNL     1       8.047  -0.375   0.497  1.00  0.00    -0.010 C 
HETATM   33  C23 UNL     1       7.558  -0.441  -0.930  1.00  0.00     0.024 C 
BRANCH  32  34
HETATM   34  C20 UNL     1       9.552  -0.474   0.476  1.00  0.00     0.024 C 
BRANCH  34  35
HETATM   35  C21 UNL     1      10.251   0.668  -0.178  1.00  0.00     0.122 C 
BRANCH  35  36
HETATM   36  N6  UNL     1      11.694   0.379  -0.112  1.00  0.00    -0.367 N 
HETATM   37  C22 UNL     1      12.168  -0.418  -0.997  1.00  0.00     0.196 C 
HETATM   38  N7  UNL     1      13.557  -0.746  -0.997  1.00  0.00    -0.067 NA
HETATM   39  N8  UNL     1      11.320  -0.993  -1.990  1.00  0.00    -0.067 NA
ATOM     40  H6  UNL     1      12.289   0.794   0.605  1.00  0.00     0.161 HD
ENDBRANCH  35  36
ENDBRANCH  34  35
ENDBRANCH  32  34
ENDBRANCH  25  26
ENDBRANCH  24  25
ENDBRANCH  23  24
ENDBRANCH  22  23
ENDBRANCH  21  22
ENDBRANCH   1  21
TORSDOF 16
