REMARK  16 active torsions:
REMARK  status: ('A' for Active; 'I' for Inactive)
REMARK       I    between atoms: N1_2  and  C2_3 
REMARK    1  A    between atoms: N1_2  and  C18_21 
REMARK    2  A    between atoms: C2_3  and  C3_5 
REMARK    3  A    between atoms: C3_5  and  C4_6 
REMARK    4  A    between atoms: C4_6  and  C5_7 
REMARK    5  A    between atoms: C5_7  and  C6_8 
REMARK    6  A    between atoms: C6_8  and  O2_9 
REMARK    7  A    between atoms: O2_9  and  C7_10 
REMARK    8  A    between atoms: C7_10  and  C8_11 
REMARK    9  A    between atoms: C18_21  and  C19_22 
REMARK   10  A    between atoms: C18_21  and  C23_30 
REMARK   11  A    between atoms: C19_22  and  C20_23 
REMARK   12  A    between atoms: C20_23  and  C21_24 
REMARK   13  A    between atoms: C21_24  and  N2_25 
REMARK       I    between atoms: C23_30  and  N5_32 
REMARK   14  A    between atoms: N5_32  and  C24_34 
REMARK   15  A    between atoms: C24_34  and  C25_35 
REMARK   16  A    between atoms: C25_35  and  N6_36 
ROOT
HETATM    1  C1  UNL     1      -1.915  -0.775   1.863  1.00  0.00     0.153 C 
HETATM    2  N1  UNL     1      -2.434  -0.222   0.604  1.00  0.00    -0.343 N 
HETATM    3  C2  UNL     1      -1.514  -0.037  -0.433  1.00  0.00     0.220 C 
HETATM    4  O1  UNL     1      -1.821   0.423  -1.553  1.00  0.00    -0.273 OA
ENDROOT
BRANCH   2   5
HETATM    5  C18 UNL     1      -3.857   0.076   0.557  1.00  0.00     0.178 C 
BRANCH   5   6
HETATM    6  C19 UNL     1      -4.202   1.447   0.151  1.00  0.00     0.037 C 
BRANCH   6   7
HETATM    7  C20 UNL     1      -5.638   1.823   0.110  1.00  0.00     0.022 C 
BRANCH   7   8
HETATM    8  C21 UNL     1      -6.387   1.818   1.394  1.00  0.00     0.122 C 
BRANCH   8   9
HETATM    9  N2  UNL     1      -6.480   0.557   2.060  1.00  0.00    -0.367 N 
HETATM   10  C22 UNL     1      -6.768   0.496   3.331  1.00  0.00     0.196 C 
HETATM   11  N3  UNL     1      -6.845  -0.772   3.936  1.00  0.00    -0.067 NA
HETATM   12  N4  UNL     1      -6.999   1.684   4.087  1.00  0.00    -0.067 NA
ATOM     13  H2  UNL     1      -6.320  -0.304   1.537  1.00  0.00     0.161 HD
ENDBRANCH   8   9
ENDBRANCH   7   8
ENDBRANCH   6   7
ENDBRANCH   5   6
BRANCH   5  14
HETATM   14  C23 UNL     1      -4.426  -0.967  -0.377  1.00  0.00     0.240 C 
HETATM   15  O3  UNL     1      -4.578  -2.120   0.089  1.00  0.00    -0.271 OA
HETATM   16  N5  UNL     1      -4.773  -0.689  -1.708  1.00  0.00    -0.358 N 
ATOM     17  H5  UNL     1      -4.641   0.253  -2.077  1.00  0.00     0.162 HD
BRANCH  16  18
HETATM   18  C24 UNL     1      -5.311  -1.714  -2.556  1.00  0.00     0.142 C 
BRANCH  18  19
HETATM   19  C25 UNL     1      -6.617  -2.258  -2.062  1.00  0.00     0.141 C 
BRANCH  19  20
HETATM   20  N6  UNL     1      -7.575  -1.156  -2.021  1.00  0.00    -0.365 N 
HETATM   21  C26 UNL     1      -8.805  -1.391  -1.835  1.00  0.00     0.197 C 
HETATM   22  N7  UNL     1      -9.268  -2.708  -1.664  1.00  0.00    -0.067 NA
HETATM   23  N8  UNL     1      -9.699  -0.289  -1.811  1.00  0.00    -0.067 NA
ATOM     24  H6  UNL     1      -7.253  -0.196  -2.142  1.00  0.00     0.161 HD
ENDBRANCH  19  20
ENDBRANCH  18  19
ENDBRANCH  16  18
ENDBRANCH   5  14
ENDBRANCH   2   5
BRANCH   3  25
HETATM   25  C3  UNL     1      -0.056  -0.390  -0.265  1.00  0.00     0.103 C 
BRANCH  25  26
HETATM   26  C4  UNL     1       0.736   0.164  -1.388  1.00  0.00     0.011 C 
BRANCH  26  27
HETATM   27  C5  UNL     1       2.193  -0.121  -1.350  1.00  0.00     0.027 C 
BRANCH  27  28
HETATM   28  C6  UNL     1       2.896   0.379  -0.122  1.00  0.00     0.167 C 
BRANCH  28  29
HETATM   29  O2  UNL     1       4.227   0.100  -0.143  1.00  0.00    -0.391 OA
BRANCH  29  30
HETATM   30  C7  UNL     1       4.974   0.669  -1.138  1.00  0.00     0.172 C 
BRANCH  30  31
HETATM   31  C8  UNL     1       6.413   0.200  -1.008  1.00  0.00     0.014 C 
HETATM   32  C9  UNL     1       7.276   0.823  -2.078  1.00  0.00     0.007 C 
HETATM   33  C10 UNL     1       7.799   2.162  -1.622  1.00  0.00     0.001 C 
HETATM   34  C11 UNL     1       8.627   2.044  -0.381  1.00  0.00     0.005 C 
HETATM   35  C12 UNL     1       8.483   0.661   0.171  1.00  0.00    -0.010 C 
HETATM   36  C13 UNL     1       9.197   0.515   1.523  1.00  0.00     0.005 C 
HETATM   37  C17 UNL     1       6.995   0.363   0.353  1.00  0.00    -0.004 C 
HETATM   38  C14 UNL     1       9.380  -0.987   1.707  1.00  0.00     0.000 C 
HETATM   39  C15 UNL     1       8.237  -1.707   1.066  1.00  0.00     0.000 C 
HETATM   40  C16 UNL     1       6.940  -0.937   1.157  1.00  0.00     0.005 C 
ENDBRANCH  30  31
ENDBRANCH  29  30
ENDBRANCH  28  29
ENDBRANCH  27  28
ENDBRANCH  26  27
ENDBRANCH  25  26
ENDBRANCH   3  25
TORSDOF 16
