REMARK  3 active torsions:
REMARK  status: ('A' for Active; 'I' for Inactive)
REMARK    1  A    between atoms: N1_1  and  C1_4 
REMARK    2  A    between atoms: C1_4  and  N2_5 
REMARK    3  A    between atoms: N2_5  and  C2_7 
ROOT
HETATM    1  C2  UNL     1       1.025  -0.284   0.280  1.00  0.00     0.039 C 
HETATM    2  C3  UNL     1       0.362  -1.548  -0.260  1.00  0.00     0.036 C 
HETATM    3  C4  UNL     1      -1.116  -1.346  -0.427  1.00  0.00    -0.012 C 
HETATM    4  C5  UNL     1      -1.325  -0.257  -1.452  1.00  0.00     0.009 C 
HETATM    5  C6  UNL     1      -0.641   0.996  -0.947  1.00  0.00    -0.012 C 
HETATM    6  C7  UNL     1      -1.348   1.409   0.325  1.00  0.00     0.009 C 
HETATM    7  C8  UNL     1      -1.147   0.336   1.366  1.00  0.00    -0.012 C 
HETATM    8  C9  UNL     1      -1.740  -0.954   0.890  1.00  0.00     0.009 C 
HETATM    9  C10 UNL     1       0.348   0.174   1.563  1.00  0.00     0.036 C 
HETATM   10  C11 UNL     1       0.840   0.786  -0.730  1.00  0.00     0.036 C 
ENDROOT
BRANCH   1  11
HETATM   11  N2  UNL     1       2.377  -0.619   0.589  1.00  0.00    -0.333 N 
ATOM     12  H2  UNL     1       2.544  -1.186   1.421  1.00  0.00     0.171 HD
BRANCH  11  13
HETATM   13  C1  UNL     1       3.387  -0.265  -0.093  1.00  0.00     0.040 C 
BRANCH  13  14
HETATM   14  N1  UNL     1       4.361   0.393  -0.567  1.00  0.00    -0.352 N 
ATOM     15  H12 UNL     1       4.212   1.203   0.034  1.00  0.00     0.167 HD
ATOM     16  H11 UNL     1       5.173   0.678  -1.115  1.00  0.00     0.167 HD
ENDBRANCH  13  14
ENDBRANCH  11  13
ENDBRANCH   1  11
TORSDOF 3
