REMARK  8 active torsions:
REMARK  status: ('A' for Active; 'I' for Inactive)
REMARK    1  A    between atoms: C2_4  and  N2_6 
REMARK    2  A    between atoms: N2_6  and  N3_8 
REMARK    3  A    between atoms: N3_8  and  C4_10 
REMARK    4  A    between atoms: C4_10  and  N4_12 
REMARK    5  A    between atoms: N4_12  and  N5_14 
REMARK       I    between atoms: N5_14  and  C5_16 
REMARK    6  A    between atoms: C5_16  and  C6_18 
REMARK       I    between atoms: C6_18  and  N6_20 
REMARK    7  A    between atoms: N6_20  and  C7_22 
REMARK    8  A    between atoms: C7_22  and  C8_23 
ROOT
HETATM    1  N4  UNL     1      -0.791   0.563   0.528  1.00  0.00    -0.272 N 
ATOM      2  H4  UNL     1      -1.324   1.198  -0.066  1.00  0.00     0.189 HD
ENDROOT
BRANCH   1   3
HETATM    3  C4  UNL     1      -1.478  -0.462   1.203  1.00  0.00     0.205 C 
HETATM    4  S1  UNL     1      -0.666  -1.502   2.161  1.00  0.00    -0.038 SA
BRANCH   3   5
HETATM    5  N3  UNL     1      -2.871  -0.625   1.082  1.00  0.00    -0.274 N 
ATOM      6  H3  UNL     1      -3.342  -1.379   1.582  1.00  0.00     0.189 HD
BRANCH   5   7
HETATM    7  N2  UNL     1      -3.608   0.245   0.278  1.00  0.00    -0.287 N 
ATOM      8  H2  UNL     1      -3.158   1.091  -0.073  1.00  0.00     0.188 HD
BRANCH   7   9
HETATM    9  C2  UNL     1      -4.964  -0.006  -0.069  1.00  0.00     0.087 C 
HETATM   10  N1  UNL     1      -5.216  -0.671  -1.128  1.00  0.00    -0.383 N 
HETATM   11  C1  UNL     1      -4.163  -1.184  -1.982  1.00  0.00     0.147 C 
ATOM     12  H1  UNL     1      -6.188  -0.847  -1.382  1.00  0.00     0.160 HD
HETATM   13  C3  UNL     1      -6.021   0.523   0.812  1.00  0.00     0.090 C 
ENDBRANCH   7   9
ENDBRANCH   5   7
ENDBRANCH   3   5
ENDBRANCH   1   3
BRANCH   1  14
HETATM   14  N5  UNL     1       0.598   0.752   0.636  1.00  0.00    -0.260 N 
HETATM   15  C5  UNL     1       1.577  -0.163   0.194  1.00  0.00     0.327 C 
HETATM   16  O1  UNL     1       1.211  -1.240  -0.335  1.00  0.00    -0.261 OA
ATOM     17  H5  UNL     1       0.923   1.617   1.067  1.00  0.00     0.190 HD
BRANCH  15  18
HETATM   18  C6  UNL     1       2.995   0.151   0.353  1.00  0.00     0.311 C 
HETATM   19  O2  UNL     1       3.321   1.256   0.889  1.00  0.00    -0.262 OA
HETATM   20  N6  UNL     1       3.965  -0.771  -0.091  1.00  0.00    -0.344 N 
ATOM     21  H6  UNL     1       3.670  -1.654  -0.507  1.00  0.00     0.163 HD
BRANCH  20  22
HETATM   22  C7  UNL     1       5.366  -0.476   0.038  1.00  0.00     0.222 C 
BRANCH  22  23
HETATM   23  C8  UNL     1       5.764   0.733  -0.729  1.00  0.00     0.248 C 
HETATM   24  N7  UNL     1       7.120   1.190  -0.706  1.00  0.00    -0.061 NA
HETATM   25  O3  UNL     1       4.972   1.415  -1.424  1.00  0.00    -0.275 OA
ENDBRANCH  22  23
ENDBRANCH  20  22
ENDBRANCH  15  18
ENDBRANCH   1  14
TORSDOF 8
