REMARK  6 active torsions:
REMARK  status: ('A' for Active; 'I' for Inactive)
REMARK    1  A    between atoms: C2_3  and  C3_4 
REMARK    2  A    between atoms: C3_4  and  N2_5 
REMARK       I    between atoms: N2_5  and  C4_7 
REMARK    3  A    between atoms: C4_7  and  C5_9 
REMARK    4  A    between atoms: C5_9  and  O2_10 
REMARK    5  A    between atoms: O2_10  and  C6_11 
REMARK       I    between atoms: C6_11  and  N3_13 
REMARK    6  A    between atoms: C9_16  and  C10_17 
REMARK       I    between atoms: C10_17  and  N4_19 
ROOT
HETATM    1  N1  UNL     1       5.534   1.781   2.267  1.00  0.00    -0.197 NA
HETATM    2  C1  UNL     1       6.280   1.075   1.744  1.00  0.00     0.060 C 
HETATM    3  C2  UNL     1       7.219   0.165   1.099  1.00  0.00     0.143 C 
ENDROOT
BRANCH   3   4
HETATM    4  C3  UNL     1       6.591  -1.162   0.780  1.00  0.00     0.136 C 
BRANCH   4   5
HETATM    5  N2  UNL     1       5.467  -1.008  -0.100  1.00  0.00    -0.358 N 
HETATM    6  C4  UNL     1       5.501  -0.471  -1.404  1.00  0.00     0.241 C 
HETATM    7  O1  UNL     1       6.634  -0.095  -1.852  1.00  0.00    -0.271 OA
ATOM      8  H2  UNL     1       4.560  -1.315   0.250  1.00  0.00     0.162 HD
BRANCH   6   9
HETATM    9  C5  UNL     1       4.365  -0.296  -2.315  1.00  0.00     0.283 C 
BRANCH   9  10
HETATM   10  O2  UNL     1       3.111  -0.567  -1.793  1.00  0.00    -0.295 OA
BRANCH  10  11
HETATM   11  C6  UNL     1       2.507   0.123  -0.765  1.00  0.00     0.363 C 
HETATM   12  O3  UNL     1       3.116   1.085  -0.241  1.00  0.00    -0.238 OA
HETATM   13  N3  UNL     1       1.228  -0.268  -0.330  1.00  0.00    -0.327 N 
HETATM   14  C7  UNL     1       0.438  -1.351  -0.858  1.00  0.00     0.129 C 
HETATM   15  C17 UNL     1       0.495   0.377   0.738  1.00  0.00     0.142 C 
HETATM   16  C8  UNL     1      -0.968  -0.729  -0.748  1.00  0.00     0.035 C 
HETATM   17  C9  UNL     1      -0.947  -0.166   0.635  1.00  0.00     0.097 C 
BRANCH  17  18
HETATM   18  C10 UNL     1      -1.916   0.870   0.933  1.00  0.00     0.225 C 
HETATM   19  O4  UNL     1      -1.503   2.074   1.030  1.00  0.00    -0.273 OA
HETATM   20  N4  UNL     1      -3.278   0.657   1.122  1.00  0.00    -0.352 N 
HETATM   21  C11 UNL     1      -4.129   1.835   1.391  1.00  0.00     0.125 C 
HETATM   22  C16 UNL     1      -3.781  -0.677   1.068  1.00  0.00     0.125 C 
HETATM   23  C12 UNL     1      -5.210   1.834   0.335  1.00  0.00     0.020 C 
HETATM   24  C13 UNL     1      -6.283   0.827   0.694  1.00  0.00     0.002 C 
HETATM   25  C14 UNL     1      -6.066  -0.496   0.014  1.00  0.00     0.002 C 
HETATM   26  C15 UNL     1      -4.621  -0.835  -0.180  1.00  0.00     0.020 C 
ENDBRANCH  17  18
ENDBRANCH  10  11
ENDBRANCH   9  10
ENDBRANCH   6   9
ENDBRANCH   4   5
ENDBRANCH   3   4
TORSDOF 6
