REMARK  3 active torsions:
REMARK  status: ('A' for Active; 'I' for Inactive)
REMARK    1  A    between atoms: S1_2  and  N1_4 
REMARK    2  A    between atoms: S1_2  and  C4_13 
REMARK    3  A    between atoms: N1_4  and  C1_6 
ROOT
HETATM    1  C4  UNL     1      -0.769   0.256  -0.218  1.00  0.00     0.178 A 
HETATM    2  N4  UNL     1      -0.590   1.527   0.098  1.00  0.00    -0.286 N 
ATOM      3  H4  UNL     1       0.258   2.057  -0.104  1.00  0.00     0.188 HD
HETATM    4  N5  UNL     1      -1.641   2.017   0.704  1.00  0.00    -0.284 N 
ATOM      5  H5  UNL     1      -1.743   2.974   1.043  1.00  0.00     0.188 HD
HETATM    6  C5  UNL     1      -2.563   1.045   0.803  1.00  0.00     0.133 A 
HETATM    7  N6  UNL     1      -3.796   1.039   1.335  1.00  0.00    -0.351 N 
ATOM      8  H6  UNL     1      -4.187   1.878   1.764  1.00  0.00     0.166 HD
HETATM    9  C6  UNL     1      -4.494  -0.094   1.286  1.00  0.00     0.090 A 
HETATM   10  C7  UNL     1      -4.038  -1.258   0.730  1.00  0.00     0.018 A 
HETATM   11  C8  UNL     1      -2.774  -1.267   0.179  1.00  0.00     0.020 A 
HETATM   12  C9  UNL     1      -2.037  -0.091   0.224  1.00  0.00     0.051 A 
ENDROOT
BRANCH   1  13
HETATM   13  S1  UNL     1       0.290  -0.875  -1.025  1.00  0.00     0.282 S 
HETATM   14  O1  UNL     1      -0.363  -1.291  -2.336  1.00  0.00    -0.199 OA
HETATM   15  O2  UNL     1       0.489  -2.118  -0.235  1.00  0.00    -0.199 OA
BRANCH  13  16
HETATM   16  N1  UNL     1       1.759  -0.093  -1.420  1.00  0.00    -0.263 N 
ATOM     17  H1  UNL     1       1.926   0.193  -2.385  1.00  0.00     0.180 HD
BRANCH  16  18
HETATM   18  C1  UNL     1       2.662   0.144  -0.529  1.00  0.00     0.130 A 
HETATM   19  C2  UNL     1       3.876   0.759  -0.715  1.00  0.00     0.069 A 
HETATM   20  C3  UNL     1       4.510   0.798   0.503  1.00  0.00     0.111 A 
HETATM   21  N2  UNL     1       3.672   0.212   1.377  1.00  0.00    -0.310 N 
HETATM   22  N3  UNL     1       2.563  -0.187   0.789  1.00  0.00    -0.285 N 
ATOM     23  H2  UNL     1       3.870   0.092   2.370  1.00  0.00     0.186 HD
ATOM     24  H3  UNL     1       1.776  -0.657   1.237  1.00  0.00     0.188 HD
ENDBRANCH  16  18
ENDBRANCH  13  16
ENDBRANCH   1  13
TORSDOF 3
