REMARK  3 active torsions:
REMARK  status: ('A' for Active; 'I' for Inactive)
REMARK    1  A    between atoms: C3_4  and  C4_5 
REMARK    2  A    between atoms: C9_13  and  C10_14 
REMARK    3  A    between atoms: N6_23  and  O2_24 
ROOT
HETATM    1  N1  UNL     1       2.572   3.746  -0.217  1.00  0.00    -0.190 NA
HETATM    2  C1  UNL     1       1.563   3.170  -0.327  1.00  0.00     0.123 C 
HETATM    3  C2  UNL     1       0.317   2.473  -0.451  1.00  0.00     0.175 A 
HETATM    4  C3  UNL     1       0.068   1.127  -0.157  1.00  0.00     0.063 A 
HETATM    5  C9  UNL     1      -1.256   0.846  -0.410  1.00  0.00     0.094 A 
HETATM    6  N5  UNL     1      -1.787   2.024  -0.854  1.00  0.00    -0.270 N 
ATOM      7  H5  UNL     1      -2.760   2.158  -1.131  1.00  0.00     0.189 HD
HETATM    8  N6  UNL     1      -0.859   2.965  -0.873  1.00  0.00    -0.151 N 
ENDROOT
BRANCH   4   9
HETATM    9  C4  UNL     1       1.086   0.233   0.335  1.00  0.00     0.050 A 
HETATM   10  C5  UNL     1       1.103  -0.326   1.593  1.00  0.00     0.031 A 
HETATM   11  C6  UNL     1       2.115  -1.183   1.998  1.00  0.00     0.008 A 
HETATM   12  C7  UNL     1       3.106  -1.459   1.102  1.00  0.00     0.074 A 
HETATM   13  C8  UNL     1       3.107  -0.910  -0.160  1.00  0.00     0.245 A 
HETATM   14  O1  UNL     1       4.052  -1.201  -0.953  1.00  0.00    -0.268 OA
HETATM   15  N2  UNL     1       2.111  -0.095  -0.494  1.00  0.00    -0.323 N 
ATOM     16  H2  UNL     1       2.117   0.309  -1.431  1.00  0.00     0.169 HD
ENDBRANCH   4   9
BRANCH   8  17
HETATM   17  O2  UNL     1      -1.101   4.271  -1.278  1.00  0.00    -0.267 OA
ATOM     18  H2  UNL     1      -1.933   4.619  -1.577  1.00  0.00     0.247 HD
ENDBRANCH   8  17
BRANCH   5  19
HETATM   19  C10 UNL     1      -1.945  -0.426  -0.248  1.00  0.00     0.078 A 
HETATM   20  C11 UNL     1      -2.540  -1.166  -1.257  1.00  0.00     0.052 A 
HETATM   21  C12 UNL     1      -3.096  -2.312  -0.726  1.00  0.00     0.109 A 
HETATM   22  N3  UNL     1      -2.826  -2.245   0.598  1.00  0.00    -0.311 N 
HETATM   23  N4  UNL     1      -2.154  -1.141   0.868  1.00  0.00    -0.299 N 
ATOM     24  H3  UNL     1      -3.101  -2.945   1.287  1.00  0.00     0.186 HD
ATOM     25  H4  UNL     1      -1.837  -0.869   1.798  1.00  0.00     0.187 HD
ENDBRANCH   5  19
TORSDOF 3
