REMARK  4 active torsions:
REMARK  status: ('A' for Active; 'I' for Inactive)
REMARK    1  A    between atoms: N1_2  and  C2_4 
REMARK    2  A    between atoms: C3_7  and  N3_8 
REMARK    3  A    between atoms: C5_14  and  N6_15 
REMARK    4  A    between atoms: N6_15  and  C6_17 
ROOT
HETATM    1  N3  UNL     1       1.380   1.639  -2.591  1.00  0.00    -0.125 N 
ATOM      2  H3  UNL     1       2.208   1.967  -3.089  1.00  0.00     0.197 HD
HETATM    3  C4  UNL     1       0.116   1.910  -3.102  1.00  0.00     0.196 C 
HETATM    4  N4  UNL     1      -0.943   2.147  -3.518  1.00  0.00    -0.171 NA
ENDROOT
BRANCH   1   5
HETATM    5  C3  UNL     1       1.516   0.971  -1.484  1.00  0.00     0.720 A 
HETATM    6  N2  UNL     1       2.736   0.712  -0.995  1.00  0.00    -0.021 N 
HETATM    7  C2  UNL     1       2.908   0.024   0.147  1.00  0.00     0.706 A 
ATOM      8  H2  UNL     1       3.556   1.045  -1.502  1.00  0.00     0.203 HD
HETATM    9  N7  UNL     1       1.799  -0.408   0.800  1.00  0.00    -0.021 N 
HETATM   10  C5  UNL     1       0.560  -0.173   0.349  1.00  0.00     0.711 A 
ATOM     11  H7  UNL     1       1.914  -0.932   1.668  1.00  0.00     0.203 HD
HETATM   12  N5  UNL     1       0.437   0.520  -0.798  1.00  0.00    -0.020 N 
ATOM     13  H5  UNL     1      -0.496   0.712  -1.162  1.00  0.00     0.203 HD
BRANCH   7  14
HETATM   14  N1  UNL     1       4.104  -0.204   0.585  1.00  0.00    -0.229 N 
HETATM   15  C1  UNL     1       4.407  -0.920   1.778  1.00  0.00     0.165 C 
ATOM     16  H1  UNL     1       4.886   0.155   0.037  1.00  0.00     0.177 HD
ENDBRANCH   7  14
BRANCH  10  17
HETATM   17  N6  UNL     1      -0.449  -0.594   0.989  1.00  0.00    -0.191 N 
ATOM     18  H6  UNL     1      -0.259  -1.110   1.848  1.00  0.00     0.184 HD
BRANCH  17  19
HETATM   19  C6  UNL     1      -1.797  -0.428   0.646  1.00  0.00     0.049 A 
HETATM   20  C7  UNL     1      -2.515  -1.476   0.102  1.00  0.00     0.030 A 
HETATM   21  C8  UNL     1      -3.825  -1.406  -0.260  1.00  0.00     0.002 A 
HETATM   22  C9  UNL     1      -4.482  -0.193  -0.066  1.00  0.00     0.000 A 
HETATM   23  C10 UNL     1      -3.807   0.888   0.476  1.00  0.00     0.002 A 
HETATM   24  C11 UNL     1      -2.465   0.766   0.831  1.00  0.00     0.030 A 
ENDBRANCH  17  19
ENDBRANCH  10  17
ENDBRANCH   1   5
TORSDOF 4
