REMARK  6 active torsions:
REMARK  status: ('A' for Active; 'I' for Inactive)
REMARK    1  A    between atoms: S1_2  and  C2_3 
REMARK    2  A    between atoms: C2_3  and  N1_5 
REMARK       I    between atoms: N1_5  and  C4_7 
REMARK    3  A    between atoms: C4_7  and  C5_9 
REMARK    4  A    between atoms: C5_9  and  S2_10 
REMARK    5  A    between atoms: S2_10  and  C6_11 
REMARK    6  A    between atoms: C6_11  and  N2_13 
ROOT
HETATM    1  C5  UNL     1      -0.937  -0.986  -0.363  1.00  0.00     0.184 C 
ENDROOT
BRANCH   1   2
HETATM    2  C4  UNL     1      -2.165  -0.260   0.038  1.00  0.00     0.228 C 
HETATM    3  N1  UNL     1      -3.425  -0.801  -0.290  1.00  0.00    -0.347 N 
ATOM      4  H1  UNL     1      -3.482  -1.683  -0.798  1.00  0.00     0.163 HD
HETATM    5  O1  UNL     1      -2.108   0.832   0.669  1.00  0.00    -0.273 OA
BRANCH   3   6
HETATM    6  C2  UNL     1      -4.631  -0.112   0.090  1.00  0.00     0.142 C 
HETATM    7  C3  UNL     1      -5.558  -0.988   0.884  1.00  0.00     0.044 C 
BRANCH   6   8
HETATM    8  S1  UNL     1      -5.484   0.366  -1.464  1.00  0.00    -0.149 SA
HETATM    9  C1  UNL     1      -6.905   1.431  -1.020  1.00  0.00     0.091 C 
ENDBRANCH   6   8
ENDBRANCH   3   6
ENDBRANCH   1   2
BRANCH   1  10
HETATM   10  S2  UNL     1       0.508  -0.037   0.197  1.00  0.00    -0.091 SA
BRANCH  10  11
HETATM   11  C6  UNL     1       2.001  -0.887  -0.285  1.00  0.00     0.137 C 
HETATM   12  S3  UNL     1       1.982  -2.293  -1.099  1.00  0.00    -0.053 SA
BRANCH  11  13
HETATM   13  N2  UNL     1       3.236  -0.304   0.062  1.00  0.00    -0.367 N 
HETATM   14  C7  UNL     1       3.354   0.944   0.786  1.00  0.00     0.124 C 
HETATM   15  C8  UNL     1       4.741   1.089   1.374  1.00  0.00     0.020 C 
HETATM   16  C9  UNL     1       5.826   0.951   0.359  1.00  0.00     0.003 C 
HETATM   17  C10 UNL     1       5.418   0.096  -0.823  1.00  0.00     0.020 C 
HETATM   18  C11 UNL     1       4.460  -0.972  -0.317  1.00  0.00     0.124 C 
ENDBRANCH  11  13
ENDBRANCH  10  11
ENDBRANCH   1  10
TORSDOF 6
