REMARK  13 active torsions:
REMARK  status: ('A' for Active; 'I' for Inactive)
REMARK    1  A    between atoms: N1_1  and  C1_4 
REMARK    2  A    between atoms: C4_11  and  C5_12 
REMARK    3  A    between atoms: C6_13  and  N4_14 
REMARK    4  A    between atoms: N4_14  and  C7_16 
REMARK    5  A    between atoms: C7_16  and  C8_17 
REMARK    6  A    between atoms: C8_17  and  O1_18 
REMARK    7  A    between atoms: O1_18  and  C9_19 
REMARK    8  A    between atoms: C9_19  and  N5_20 
REMARK    9  A    between atoms: C9_19  and  N6_24 
REMARK   10  A    between atoms: C9_19  and  O2_28 
REMARK   11  A    between atoms: C10_32  and  C11_33 
REMARK   12  A    between atoms: N11_41  and  N12_42 
REMARK   13  A    between atoms: C14_50  and  C15_51 
ROOT
HETATM    1  C5  UNL     1      -0.469   0.821   0.478  1.00  0.00     0.132 A 
HETATM    2  C6  UNL     1       0.834   0.456   0.743  1.00  0.00     0.134 A 
HETATM    3  N7  UNL     1       1.510   1.564   1.061  1.00  0.00    -0.323 N 
ATOM      4  H7  UNL     1       2.499   1.603   1.306  1.00  0.00     0.169 HD
HETATM    5  C10 UNL     1       0.655   2.650   1.005  1.00  0.00     0.159 A 
HETATM    6  N11 UNL     1      -0.528   2.154   0.649  1.00  0.00    -0.238 N 
ENDROOT
BRANCH   1   7
HETATM    7  C4  UNL     1      -1.537  -0.081   0.139  1.00  0.00     0.110 A 
HETATM    8  C3  UNL     1      -2.176  -0.044  -1.084  1.00  0.00     0.082 A 
HETATM    9  N3  UNL     1      -1.800   0.874  -1.989  1.00  0.00    -0.349 N 
HETATM   10  C17 UNL     1      -3.181  -0.920  -1.437  1.00  0.00     0.084 A 
HETATM   11  C2  UNL     1      -2.339   0.996  -3.216  1.00  0.00     0.182 A 
ATOM     12  H3  UNL     1      -1.056   1.522  -1.729  1.00  0.00     0.166 HD
HETATM   13  N2  UNL     1      -3.307   0.157  -3.561  1.00  0.00    -0.338 N 
HETATM   14  C1  UNL     1      -3.746  -0.813  -2.684  1.00  0.00     0.116 A 
ATOM     15  H2  UNL     1      -3.732   0.230  -4.486  1.00  0.00     0.168 HD
HETATM   16  C16 UNL     1      -3.542  -1.865  -0.504  1.00  0.00     0.163 A 
HETATM   17  N14 UNL     1      -2.913  -1.896   0.691  1.00  0.00    -0.176 N 
HETATM   18  N17 UNL     1      -4.456  -2.837  -0.528  1.00  0.00    -0.320 N 
HETATM   19  N13 UNL     1      -1.958  -1.046   0.997  1.00  0.00    -0.273 N 
HETATM   20  N15 UNL     1      -3.450  -2.901   1.405  1.00  0.00    -0.258 N 
ATOM     21  H13 UNL     1      -1.516  -1.114   1.914  1.00  0.00     0.189 HD
HETATM   22  C14 UNL     1      -4.407  -3.483   0.647  1.00  0.00     0.189 A 
ATOM     23  H15 UNL     1      -3.183  -3.176   2.350  1.00  0.00     0.191 HD
ATOM     24  H17 UNL     1      -5.082  -3.051  -1.304  1.00  0.00     0.169 HD
BRANCH  14  25
HETATM   25  N1  UNL     1      -4.665  -1.586  -3.051  1.00  0.00    -0.385 N 
ATOM     26  H12 UNL     1      -5.085  -1.507  -3.977  1.00  0.00     0.157 HD
ATOM     27  H11 UNL     1      -4.990  -2.303  -2.403  1.00  0.00     0.157 HD
ENDBRANCH  14  25
BRANCH  22  28
HETATM   28  C15 UNL     1      -5.219  -4.610   1.065  1.00  0.00     0.300 C 
HETATM   29  N16 UNL     1      -6.217  -5.160   0.220  1.00  0.00    -0.054 NA
HETATM   30  O3  UNL     1      -5.038  -5.109   2.195  1.00  0.00    -0.268 OA
ENDBRANCH  22  28
ENDBRANCH   1   7
BRANCH   2  31
HETATM   31  N4  UNL     1       1.315  -0.880   0.691  1.00  0.00    -0.372 N 
ATOM     32  H4  UNL     1       0.679  -1.642   0.457  1.00  0.00     0.161 HD
BRANCH  31  33
HETATM   33  C7  UNL     1       2.705  -1.158   0.969  1.00  0.00     0.147 C 
BRANCH  33  34
HETATM   34  C8  UNL     1       3.549  -0.621  -0.138  1.00  0.00     0.194 C 
BRANCH  34  35
HETATM   35  O1  UNL     1       4.890  -0.788  -0.050  1.00  0.00    -0.309 OA
BRANCH  35  36
HETATM   36  C9  UNL     1       5.446  -2.017  -0.047  1.00  0.00     0.507 C 
BRANCH  36  37
HETATM   37  N5  UNL     1       6.903  -1.822   0.109  1.00  0.00     0.005 N 
ATOM     38  H53 UNL     1       7.304  -1.200  -0.593  1.00  0.00     0.283 HD
ATOM     39  H52 UNL     1       7.150  -1.266   0.928  1.00  0.00     0.283 HD
ATOM     40  H51 UNL     1       7.323  -2.751   0.111  1.00  0.00     0.283 HD
ENDBRANCH  36  37
BRANCH  36  41
HETATM   41  N6  UNL     1       5.316  -2.708  -1.331  1.00  0.00     0.005 N 
ATOM     42  H63 UNL     1       4.340  -2.751  -1.624  1.00  0.00     0.283 HD
ATOM     43  H62 UNL     1       5.693  -2.140  -2.090  1.00  0.00     0.283 HD
ATOM     44  H61 UNL     1       5.736  -3.637  -1.329  1.00  0.00     0.283 HD
ENDBRANCH  36  41
BRANCH  36  45
HETATM   45  O2  UNL     1       5.082  -2.873   0.971  1.00  0.00    -0.321 OA
ATOM     46  H2  UNL     1       5.474  -3.739   0.973  1.00  0.00     0.216 HD
ENDBRANCH  36  45
ENDBRANCH  35  36
ENDBRANCH  34  35
ENDBRANCH  33  34
ENDBRANCH  31  33
ENDBRANCH   2  31
BRANCH   6  47
HETATM   47  N12 UNL     1      -1.730   2.858   0.477  1.00  0.00    -0.336 N 
ATOM     48 2H12 UNL     1      -2.636   2.478   0.204  1.00  0.00     0.177 HD
ATOM     49 1H12 UNL     1      -1.775   3.869   0.607  1.00  0.00     0.177 HD
ENDBRANCH   6  47
BRANCH   5  50
HETATM   50  C11 UNL     1       1.097   4.007   1.301  1.00  0.00     0.121 A 
HETATM   51  N8  UNL     1       2.419   4.245   1.650  1.00  0.00    -0.347 N 
HETATM   52  C12 UNL     1       2.596   5.546   1.886  1.00  0.00     0.182 A 
ATOM     53  H8  UNL     1       3.146   3.532   1.716  1.00  0.00     0.167 HD
HETATM   54  N9  UNL     1       1.445   6.192   1.710  1.00  0.00    -0.339 N 
HETATM   55  C13 UNL     1       0.530   5.230   1.349  1.00  0.00     0.148 A 
ATOM     56  H9  UNL     1       1.277   7.192   1.820  1.00  0.00     0.167 HD
HETATM   57  N10 UNL     1      -0.831   5.548   1.082  1.00  0.00    -0.080 NA
ENDBRANCH   5  50
TORSDOF 13
