REMARK  8 active torsions:
REMARK  status: ('A' for Active; 'I' for Inactive)
REMARK    1  A    between atoms: C2_2  and  C3_3 
REMARK    2  A    between atoms: C2_2  and  C12_16 
REMARK       I    between atoms: C3_3  and  N1_5 
REMARK    3  A    between atoms: N1_5  and  C4_7 
REMARK    4  A    between atoms: C4_7  and  C5_8 
REMARK    5  A    between atoms: C5_8  and  C6_9 
REMARK    6  A    between atoms: C6_9  and  N2_10 
REMARK    7  A    between atoms: C12_16  and  O2_17 
REMARK    8  A    between atoms: C20_26  and  O3_27 
ROOT
HETATM    1  C12 UNL     1      -0.295  -0.430  -1.264  1.00  0.00     0.077 C 
HETATM    2  C13 UNL     1      -0.353  -0.965   0.145  1.00  0.00     0.040 C 
HETATM    3  C14 UNL     1       0.133   0.294   0.885  1.00  0.00     0.009 C 
HETATM    4  C15 UNL     1       1.147   0.911  -0.048  1.00  0.00     0.001 C 
HETATM    5  C16 UNL     1       2.508   0.972   0.560  1.00  0.00    -0.005 C 
HETATM    6  C17 UNL     1       2.809  -0.083   1.558  1.00  0.00     0.006 C 
HETATM    7  C18 UNL     1       4.221  -0.607   1.538  1.00  0.00     0.008 C 
HETATM    8  C19 UNL     1       5.174   0.513   1.309  1.00  0.00     0.023 C 
HETATM    9  C20 UNL     1       6.598   0.026   1.125  1.00  0.00     0.123 C 
HETATM   10  C21 UNL     1       7.215   1.023   0.142  1.00  0.00     0.033 C 
HETATM   11  C22 UNL     1       6.047   1.221  -0.802  1.00  0.00     0.012 C 
HETATM   12  C23 UNL     1       4.885   1.361   0.122  1.00  0.00    -0.034 C 
HETATM   13  C24 UNL     1       4.891   2.821   0.607  1.00  0.00     0.016 C 
HETATM   14  C25 UNL     1       3.554   1.111  -0.525  1.00  0.00    -0.001 C 
HETATM   15  C26 UNL     1       3.514   0.027  -1.528  1.00  0.00     0.007 C 
HETATM   16  C27 UNL     1       2.213  -0.774  -1.541  1.00  0.00     0.013 C 
HETATM   17  C28 UNL     1       1.072   0.137  -1.360  1.00  0.00    -0.008 C 
HETATM   18  C29 UNL     1       1.066   1.116  -2.543  1.00  0.00     0.019 C 
ENDROOT
BRANCH   1  19
HETATM   19  C2  UNL     1      -0.772  -1.337  -2.326  1.00  0.00     0.109 C 
HETATM   20  C1  UNL     1      -0.070  -2.619  -2.542  1.00  0.00     0.023 C 
BRANCH  19  21
HETATM   21  C3  UNL     1      -2.228  -1.632  -2.247  1.00  0.00     0.224 C 
HETATM   22  O1  UNL     1      -3.029  -1.020  -2.994  1.00  0.00    -0.273 OA
HETATM   23  N1  UNL     1      -2.804  -2.587  -1.359  1.00  0.00    -0.361 N 
ATOM     24  H1  UNL     1      -2.171  -3.097  -0.742  1.00  0.00     0.162 HD
BRANCH  23  25
HETATM   25  C4  UNL     1      -4.184  -2.883  -1.266  1.00  0.00     0.124 C 
BRANCH  25  26
HETATM   26  C5  UNL     1      -5.083  -1.754  -0.893  1.00  0.00     0.050 C 
BRANCH  26  27
HETATM   27  C6  UNL     1      -4.760  -1.151   0.449  1.00  0.00     0.274 C 
BRANCH  27  28
HETATM   28  N2  UNL     1      -5.626  -0.069   0.802  1.00  0.00     0.088 N 
HETATM   29  C7  UNL     1      -5.195   0.412   2.118  1.00  0.00     0.272 C 
HETATM   30  C8  UNL     1      -5.671   1.853   2.322  1.00  0.00     0.030 C 
HETATM   31  C9  UNL     1      -6.876   2.018   1.396  1.00  0.00     0.003 C 
HETATM   32  C10 UNL     1      -7.720   0.760   1.575  1.00  0.00     0.030 C 
HETATM   33  C11 UNL     1      -7.012  -0.443   0.938  1.00  0.00     0.272 C 
ENDBRANCH  27  28
ENDBRANCH  26  27
ENDBRANCH  25  26
ENDBRANCH  23  25
ENDBRANCH  19  21
ENDBRANCH   1  19
BRANCH   1  34
HETATM   34  O2  UNL     1      -1.137   0.742  -1.211  1.00  0.00    -0.388 OA
ATOM     35  H2  UNL     1      -0.830   1.326  -0.527  1.00  0.00     0.210 HD
ENDBRANCH   1  34
BRANCH   9  36
HETATM   36  O3  UNL     1       7.343   0.115   2.301  1.00  0.00    -0.395 OA
ATOM     37  H3  UNL     1       8.235  -0.190   2.186  1.00  0.00     0.210 HD
ENDBRANCH   9  36
TORSDOF 8
