REMARK  8 active torsions:
REMARK  status: ('A' for Active; 'I' for Inactive)
REMARK    1  A    between atoms: C4_4  and  O1_5 
REMARK    2  A    between atoms: C9_11  and  O2_12 
REMARK    3  A    between atoms: C15_22  and  C16_23 
REMARK    4  A    between atoms: C16_23  and  C17_24 
REMARK    5  A    between atoms: C17_24  and  C18_25 
REMARK    6  A    between atoms: C18_25  and  C19_26 
REMARK    7  A    between atoms: C19_26  and  C20_27 
REMARK    8  A    between atoms: C20_27  and  N2_28 
ROOT
HETATM    1  C1  UNL     1      -6.826  -0.779  -0.820  1.00  0.00     0.010 C 
HETATM    2  C2  UNL     1      -5.524  -1.441  -0.427  1.00  0.00    -0.011 C 
HETATM    3  C3  UNL     1      -5.535  -1.840   1.008  1.00  0.00     0.037 C 
HETATM    4  C4  UNL     1      -4.132  -1.491   1.530  1.00  0.00     0.127 C 
HETATM    5  C5  UNL     1      -3.792  -0.217   0.772  1.00  0.00    -0.010 C 
HETATM    6  C6  UNL     1      -4.605   0.884   1.463  1.00  0.00     0.018 C 
HETATM    7  C7  UNL     1      -4.342  -0.539  -0.594  1.00  0.00     0.003 C 
HETATM    8  C8  UNL     1      -4.734   0.648  -1.407  1.00  0.00     0.037 C 
HETATM    9  C9  UNL     1      -3.579   1.623  -1.406  1.00  0.00     0.119 C 
HETATM   10  C10 UNL     1      -2.339   0.832  -1.682  1.00  0.00     0.038 C 
HETATM   11  C11 UNL     1      -1.667   0.192  -0.559  1.00  0.00     0.016 C 
HETATM   12  C12 UNL     1      -0.337   0.885  -0.333  1.00  0.00     0.097 C 
HETATM   13  N1  UNL     1      -0.544   2.194   0.251  1.00  0.00    -0.355 N 
ATOM     14  H1  UNL     1      -1.237   2.806  -0.181  1.00  0.00     0.162 HD
HETATM   15  C13 UNL     1       0.155   2.679   1.384  1.00  0.00     0.218 C 
HETATM   16  O3  UNL     1      -0.253   3.761   1.967  1.00  0.00    -0.274 OA
HETATM   17  C14 UNL     1       1.322   1.987   1.908  1.00  0.00     0.108 C 
HETATM   18  C15 UNL     1       1.779   0.901   0.888  1.00  0.00     0.004 C 
HETATM   19  C24 UNL     1       0.599   0.066   0.535  1.00  0.00    -0.019 C 
HETATM   20  C25 UNL     1       0.946  -1.195  -0.177  1.00  0.00     0.018 C 
HETATM   21  C26 UNL     1      -0.107  -0.350   1.816  1.00  0.00     0.012 C 
HETATM   22  C27 UNL     1      -1.516  -0.820   1.610  1.00  0.00     0.007 C 
HETATM   23  C28 UNL     1      -2.345   0.123   0.758  1.00  0.00     0.003 C 
ENDROOT
BRANCH  18  24
HETATM   24  C16 UNL     1       2.451   1.658  -0.197  1.00  0.00     0.006 C 
BRANCH  24  25
HETATM   25  C17 UNL     1       3.101   0.948  -1.319  1.00  0.00     0.000 C 
BRANCH  25  26
HETATM   26  C18 UNL     1       4.317   0.102  -0.889  1.00  0.00     0.002 C 
BRANCH  26  27
HETATM   27  C19 UNL     1       4.894  -0.591  -2.073  1.00  0.00     0.030 C 
BRANCH  27  28
HETATM   28  C20 UNL     1       6.033  -1.491  -1.748  1.00  0.00     0.272 C 
BRANCH  28  29
HETATM   29  N2  UNL     1       7.138  -0.838  -1.159  1.00  0.00     0.088 N 
HETATM   30  C21 UNL     1       7.129  -0.338   0.152  1.00  0.00     0.274 A 
HETATM   31  C22 UNL     1       8.413  -1.100   0.454  1.00  0.00     0.060 A 
HETATM   32  C23 UNL     1       8.277  -1.657  -0.929  1.00  0.00     0.274 A 
ENDBRANCH  28  29
ENDBRANCH  27  28
ENDBRANCH  26  27
ENDBRANCH  25  26
ENDBRANCH  24  25
ENDBRANCH  18  24
BRANCH   9  33
HETATM   33  O2  UNL     1      -3.802   2.465  -2.526  1.00  0.00    -0.396 OA
ATOM     34  H2  UNL     1      -3.076   3.078  -2.525  1.00  0.00     0.210 HD
ENDBRANCH   9  33
BRANCH   4  35
HETATM   35  O1  UNL     1      -4.353  -1.232   2.904  1.00  0.00    -0.395 OA
ATOM     36  H1  UNL     1      -3.486  -1.016   3.227  1.00  0.00     0.210 HD
ENDBRANCH   4  35
TORSDOF 8
