REMARK  5 active torsions:
REMARK  status: ('A' for Active; 'I' for Inactive)
REMARK    1  A    between atoms: N1_2  and  C3_4 
REMARK    2  A    between atoms: C3_4  and  C4_5 
REMARK    3  A    between atoms: C6_7  and  N2_8 
REMARK       I    between atoms: N3_14  and  C12_15 
REMARK       I    between atoms: C12_15  and  N4_17 
REMARK    4  A    between atoms: N4_17  and  C13_19 
REMARK    5  A    between atoms: C13_19  and  C14_20 
ROOT
HETATM    1  C4  UNL     1      -2.130   0.714  -0.245  1.00  0.00     0.099 C 
HETATM    2  C5  UNL     1      -2.544  -0.407   0.739  1.00  0.00     0.056 C 
HETATM    3  C6  UNL     1      -1.785  -1.621   0.346  1.00  0.00     0.243 C 
HETATM    4  C11 UNL     1      -0.398  -1.635   1.013  1.00  0.00     0.177 C 
HETATM    5  N3  UNL     1       0.399  -0.590   0.415  1.00  0.00    -0.271 N 
HETATM    6  C12 UNL     1       1.764  -0.784   0.154  1.00  0.00     0.328 C 
HETATM    7  O1  UNL     1       2.293  -1.875   0.446  1.00  0.00    -0.246 OA
HETATM    8  N4  UNL     1       2.562   0.220  -0.432  1.00  0.00    -0.340 N 
ATOM      9  H4  UNL     1       2.130   1.113  -0.670  1.00  0.00     0.164 HD
HETATM   10  S1  UNL     1      -0.351   0.948   0.004  1.00  0.00    -0.043 SA
ENDROOT
BRANCH   3  11
HETATM   11  N2  UNL     1      -2.382  -2.873   0.593  1.00  0.00     0.094 N 
HETATM   12  C7  UNL     1      -2.655  -3.230   1.940  1.00  0.00     0.273 C 
HETATM   13  C8  UNL     1      -3.179  -4.661   1.758  1.00  0.00     0.032 C 
HETATM   14  C9  UNL     1      -3.920  -4.571   0.451  1.00  0.00     0.032 C 
HETATM   15  C10 UNL     1      -3.506  -3.245  -0.195  1.00  0.00     0.273 C 
ENDBRANCH   3  11
BRANCH   8  16
HETATM   16  C13 UNL     1       3.972   0.033  -0.709  1.00  0.00     0.156 C 
BRANCH  16  17
HETATM   17  C14 UNL     1       4.562   1.271  -1.333  1.00  0.00     0.139 C 
HETATM   18  C15 UNL     1       6.029   1.027  -1.566  1.00  0.00     0.035 C 
HETATM   19  C16 UNL     1       6.604   1.517  -0.230  1.00  0.00     0.029 C 
HETATM   20  C17 UNL     1       5.648   2.634   0.085  1.00  0.00     0.168 C 
HETATM   21  O2  UNL     1       4.447   2.377  -0.519  1.00  0.00    -0.384 OA
ENDBRANCH  16  17
ENDBRANCH   8  16
BRANCH   1  22
HETATM   22  C3  UNL     1      -2.925   1.946  -0.004  1.00  0.00     0.288 C 
BRANCH  22  23
HETATM   23  N1  UNL     1      -2.575   2.990  -0.912  1.00  0.00     0.081 N 
HETATM   24  C1  UNL     1      -1.279   3.553  -0.694  1.00  0.00     0.309 C 
HETATM   25  C2  UNL     1      -3.550   4.033  -1.041  1.00  0.00     0.309 C 
ENDBRANCH  22  23
ENDBRANCH   1  22
TORSDOF 5
