REMARK  3 active torsions:
REMARK  status: ('A' for Active; 'I' for Inactive)
REMARK    1  A    between atoms: S1_2  and  C2_3 
REMARK    2  A    between atoms: C2_3  and  O2_5 
REMARK    3  A    between atoms: O2_5  and  C3_6 
ROOT
HETATM    1  C3  UNL     1      -0.570   0.086  -0.183  1.00  0.00     0.147 C 
HETATM    2  C4  UNL     1      -1.592  -1.020  -0.036  1.00  0.00     0.048 C 
HETATM    3  C5  UNL     1      -2.676  -0.454   0.844  1.00  0.00     0.143 C 
HETATM    4  S2  UNL     1      -2.739   1.271   0.333  1.00  0.00     0.146 S 
HETATM    5  O3  UNL     1      -2.467   2.179   1.485  1.00  0.00    -0.228 OA
HETATM    6  O4  UNL     1      -3.996   1.583  -0.389  1.00  0.00    -0.228 OA
HETATM    7  C6  UNL     1      -1.327   1.237  -0.790  1.00  0.00     0.172 C 
ENDROOT
BRANCH   1   8
HETATM    8  O2  UNL     1       0.549  -0.313  -0.881  1.00  0.00    -0.306 OA
BRANCH   8   9
HETATM    9  C2  UNL     1       1.813  -0.304  -0.325  1.00  0.00     0.322 C 
HETATM   10  O1  UNL     1       1.907   0.088   0.859  1.00  0.00    -0.252 OA
BRANCH   9  11
HETATM   11  S1  UNL     1       3.269  -0.828  -1.246  1.00  0.00    -0.066 SA
HETATM   12  C1  UNL     1       4.742  -0.682  -0.203  1.00  0.00     0.101 C 
ENDBRANCH   9  11
ENDBRANCH   8   9
ENDBRANCH   1   8
TORSDOF 3
