REMARK  12 active torsions:
REMARK  status: ('A' for Active; 'I' for Inactive)
REMARK    1  A    between atoms: C2_3  and  C3_4 
REMARK    2  A    between atoms: C5_12  and  N4_13 
REMARK    3  A    between atoms: C7_15  and  N5_16 
REMARK    4  A    between atoms: C10_25  and  O1_26 
REMARK    5  A    between atoms: C11_28  and  O2_29 
REMARK    6  A    between atoms: C12_31  and  C13_32 
REMARK    7  A    between atoms: N11_39  and  C14_40 
REMARK    8  A    between atoms: C14_40  and  C15_41 
REMARK    9  A    between atoms: C15_41  and  N12_42 
REMARK   10  A    between atoms: N12_42  and  N13_43 
REMARK       I    between atoms: N13_43  and  C16_45 
REMARK   11  A    between atoms: C16_45  and  O4_47 
REMARK   12  A    between atoms: O4_47  and  N14_48 
ROOT
HETATM    1  C1  UNL     1       0.130  -1.967   2.758  1.00  0.00     0.157 C 
HETATM    2  N1  UNL     1       0.042  -1.607   1.365  1.00  0.00    -0.342 N 
HETATM    3  C2  UNL     1      -1.072  -1.475   0.648  1.00  0.00     0.092 A 
HETATM    4  C10 UNL     1      -0.687  -1.090  -0.592  1.00  0.00     0.130 A 
HETATM    5  C11 UNL     1       0.719  -0.989  -0.609  1.00  0.00     0.132 A 
HETATM    6  C12 UNL     1       1.175  -1.315   0.608  1.00  0.00     0.118 A 
ENDROOT
BRANCH   3   7
HETATM    7  C3  UNL     1      -2.458  -1.647   1.162  1.00  0.00     0.083 A 
HETATM    8  S1  UNL     1      -2.949  -2.800   2.384  1.00  0.00    -0.048 SA
HETATM    9  C4  UNL     1      -4.566  -2.355   2.515  1.00  0.00     0.144 A 
HETATM   10  N2  UNL     1      -5.503  -2.854   3.290  1.00  0.00    -0.380 N 
HETATM   11  N3  UNL     1      -4.676  -1.368   1.649  1.00  0.00    -0.321 N 
ATOM     12  H22 UNL     1      -5.418  -3.618   3.960  1.00  0.00     0.158 HD
ATOM     13  H21 UNL     1      -6.483  -2.584   3.369  1.00  0.00     0.158 HD
HETATM   14  C5  UNL     1      -3.619  -0.991   0.950  1.00  0.00     0.144 A 
ATOM     15  H3  UNL     1      -5.572  -0.897   1.519  1.00  0.00     0.169 HD
BRANCH  14  16
HETATM   16  N4  UNL     1      -3.796   0.139   0.029  1.00  0.00    -0.272 N 
HETATM   17  C6  UNL     1      -3.241   1.440   0.295  1.00  0.00     0.184 C 
HETATM   18  C7  UNL     1      -4.277   2.532   0.111  1.00  0.00     0.210 C 
HETATM   19  C8  UNL     1      -5.050   2.402  -1.158  1.00  0.00     0.109 C 
HETATM   20  C9  UNL     1      -5.163   1.018  -1.666  1.00  0.00     0.109 C 
HETATM   21  N6  UNL     1      -5.946   0.793  -2.829  1.00  0.00    -0.086 NA
HETATM   22  N7  UNL     1      -4.593   0.003  -1.121  1.00  0.00    -0.287 N 
ATOM     23  H7  UNL     1      -4.722  -0.922  -1.532  1.00  0.00     0.188 HD
BRANCH  18  24
HETATM   24  N5  UNL     1      -3.569   3.806   0.129  1.00  0.00    -0.073 N 
ATOM     25  H53 UNL     1      -2.998   3.934   0.965  1.00  0.00     0.274 HD
ATOM     26  H52 UNL     1      -2.814   3.853  -0.555  1.00  0.00     0.274 HD
ATOM     27  H51 UNL     1      -4.266   4.541   0.005  1.00  0.00     0.274 HD
ENDBRANCH  18  24
ENDBRANCH  14  16
ENDBRANCH   3   7
BRANCH   4  28
HETATM   28  O1  UNL     1      -1.478  -0.835  -1.691  1.00  0.00    -0.356 OA
ATOM     29  H1  UNL     1      -1.208  -0.565  -2.561  1.00  0.00     0.218 HD
ENDBRANCH   4  28
BRANCH   6  30
HETATM   30  C13 UNL     1       2.529  -1.482   1.099  1.00  0.00     0.169 A 
HETATM   31  N8  UNL     1       2.839  -1.412   2.451  1.00  0.00    -0.267 N 
HETATM   32  N9  UNL     1       4.071  -1.700   2.678  1.00  0.00    -0.226 N 
ATOM     33  H8  UNL     1       2.168  -1.162   3.178  1.00  0.00     0.190 HD
HETATM   34  N10 UNL     1       4.622  -1.967   1.532  1.00  0.00    -0.224 N 
ATOM     35  H9  UNL     1       4.531  -1.716   3.588  1.00  0.00     0.210 HD
HETATM   36  N11 UNL     1       3.666  -1.831   0.551  1.00  0.00    -0.257 N 
ATOM     37  H10 UNL     1       5.596  -2.232   1.385  1.00  0.00     0.210 HD
BRANCH  36  38
HETATM   38  C14 UNL     1       4.024  -2.051  -0.825  1.00  0.00     0.170 C 
BRANCH  38  39
HETATM   39  C15 UNL     1       4.710  -0.796  -1.380  1.00  0.00     0.157 C 
BRANCH  39  40
HETATM   40  N12 UNL     1       5.897  -0.625  -0.547  1.00  0.00    -0.135 NA
BRANCH  40  41
HETATM   41  N13 UNL     1       6.653   0.473  -0.883  1.00  0.00    -0.248 N 
HETATM   42  C16 UNL     1       6.577   1.626  -0.060  1.00  0.00     0.398 C 
HETATM   43  O3  UNL     1       5.843   1.658   0.957  1.00  0.00    -0.235 OA
ATOM     44  H13 UNL     1       7.255   0.459  -1.706  1.00  0.00     0.187 HD
BRANCH  42  45
HETATM   45  O4  UNL     1       7.313   2.784  -0.337  1.00  0.00    -0.187 OA
BRANCH  45  46
HETATM   46  N14 UNL     1       7.227   3.901   0.470  1.00  0.00    -0.301 N 
ATOM     47 2H14 UNL     1       6.610   3.865   1.281  1.00  0.00     0.184 HD
ATOM     48 1H14 UNL     1       7.763   4.745   0.268  1.00  0.00     0.184 HD
ENDBRANCH  45  46
ENDBRANCH  42  45
ENDBRANCH  40  41
ENDBRANCH  39  40
ENDBRANCH  38  39
ENDBRANCH  36  38
ENDBRANCH   6  30
BRANCH   5  49
HETATM   49  O2  UNL     1       1.340  -0.602  -1.762  1.00  0.00    -0.356 OA
ATOM     50  H2  UNL     1       2.287  -0.534  -1.773  1.00  0.00     0.218 HD
ENDBRANCH   5  49
TORSDOF 12
