REMARK  9 active torsions:
REMARK  status: ('A' for Active; 'I' for Inactive)
REMARK    1  A    between atoms: C1_2  and  C2_3 
REMARK       I    between atoms: C1_2  and  N2_18 
REMARK    2  A    between atoms: C2_3  and  N1_4 
REMARK    3  A    between atoms: C3_5  and  O2_6 
REMARK    4  A    between atoms: C6_10  and  O3_11 
REMARK    5  A    between atoms: N2_18  and  C12_20 
REMARK    6  A    between atoms: C12_20  and  C13_21 
REMARK    7  A    between atoms: C13_21  and  C14_22 
REMARK    8  A    between atoms: C14_22  and  C15_23 
REMARK    9  A    between atoms: N3_24  and  C16_26 
ROOT
HETATM    1  C12 UNL     1      -0.680  -0.983   1.595  1.00  0.00     0.123 C 
ENDROOT
BRANCH   1   2
HETATM    2  N2  UNL     1       0.617  -1.235   2.161  1.00  0.00    -0.360 N 
HETATM    3  C1  UNL     1       1.834  -0.785   1.594  1.00  0.00     0.235 C 
HETATM    4  O1  UNL     1       1.799  -0.123   0.533  1.00  0.00    -0.272 OA
ATOM      5  H2  UNL     1       0.664  -1.772   3.027  1.00  0.00     0.162 HD
BRANCH   3   6
HETATM    6  C2  UNL     1       3.156  -1.059   2.197  1.00  0.00     0.236 C 
BRANCH   6   7
HETATM    7  N1  UNL     1       4.235  -0.511   1.408  1.00  0.00    -0.299 N 
HETATM    8  C3  UNL     1       4.787   0.712   1.502  1.00  0.00     0.152 A 
HETATM    9  C4  UNL     1       5.790   0.806   0.562  1.00  0.00     0.012 A 
HETATM   10  C5  UNL     1       5.835  -0.404  -0.113  1.00  0.00     0.012 A 
HETATM   11  C10 UNL     1       6.853   1.648  -0.045  1.00  0.00     0.047 C 
HETATM   12  C6  UNL     1       4.859  -1.186   0.440  1.00  0.00     0.152 A 
HETATM   13  C7  UNL     1       6.918  -0.290  -1.121  1.00  0.00     0.047 C 
HETATM   14  C8  UNL     1       8.196  -0.170  -0.365  1.00  0.00    -0.021 C 
HETATM   15  C11 UNL     1       6.738   1.191  -1.513  1.00  0.00     0.026 C 
HETATM   16  C9  UNL     1       8.150   1.010   0.287  1.00  0.00    -0.021 C 
BRANCH   8  17
HETATM   17  O2  UNL     1       4.425   1.715   2.382  1.00  0.00    -0.345 OA
ATOM     18  H2  UNL     1       4.815   2.579   2.448  1.00  0.00     0.219 HD
ENDBRANCH   8  17
BRANCH  12  19
HETATM   19  O3  UNL     1       4.580  -2.490   0.033  1.00  0.00    -0.345 OA
ATOM     20  H3  UNL     1       5.024  -2.970  -0.656  1.00  0.00     0.219 HD
ENDBRANCH  12  19
ENDBRANCH   6   7
ENDBRANCH   3   6
ENDBRANCH   1   2
BRANCH   1  21
HETATM   21  C13 UNL     1      -0.884  -1.545   0.227  1.00  0.00     0.025 C 
BRANCH  21  22
HETATM   22  C14 UNL     1      -2.224  -1.307  -0.375  1.00  0.00     0.046 C 
BRANCH  22  23
HETATM   23  C15 UNL     1      -2.532   0.176  -0.509  1.00  0.00     0.061 C 
HETATM   24  N3  UNL     1      -3.742   0.444  -1.073  1.00  0.00    -0.368 N 
ATOM     25  H3  UNL     1      -3.550   0.631  -2.057  1.00  0.00     0.165 HD
BRANCH  24  26
HETATM   26  C16 UNL     1      -4.968   0.566  -0.945  1.00  0.00     0.055 A 
HETATM   27  C17 UNL     1      -5.607   0.386   0.273  1.00  0.00     0.022 A 
HETATM   28  C18 UNL     1      -6.967   0.499   0.437  1.00  0.00     0.151 A 
HETATM   29  C24 UNL     1      -5.021   0.070   1.594  1.00  0.00     0.072 C 
HETATM   30  N4  UNL     1      -7.708   0.801  -0.652  1.00  0.00    -0.330 N 
HETATM   31  O4  UNL     1      -7.304   0.264   1.754  1.00  0.00    -0.335 OA
HETATM   32  C19 UNL     1      -7.111   0.985  -1.862  1.00  0.00     0.089 A 
ATOM     33  H4  UNL     1      -8.720   0.892  -0.567  1.00  0.00     0.168 HD
HETATM   34  S1  UNL     1      -7.733   1.368  -3.406  1.00  0.00    -0.064 SA
HETATM   35  C22 UNL     1      -5.774   0.886  -2.081  1.00  0.00     0.027 A 
HETATM   36  C20 UNL     1      -6.273   1.391  -4.288  1.00  0.00     0.054 A 
HETATM   37 BR1  UNL     1      -5.991   1.744  -6.164  1.00  0.00    -0.043 Br
HETATM   38  C21 UNL     1      -5.334   1.094  -3.334  1.00  0.00     0.043 A 
HETATM   39  C23 UNL     1      -6.179   0.118   2.553  1.00  0.00     0.182 C 
ENDBRANCH  24  26
ENDBRANCH  22  23
ENDBRANCH  21  22
ENDBRANCH   1  21
TORSDOF 9
