REMARK  9 active torsions:
REMARK  status: ('A' for Active; 'I' for Inactive)
REMARK    1  A    between atoms: C2_2  and  C3_3 
REMARK    2  A    between atoms: C2_2  and  C12_17 
REMARK    3  A    between atoms: C3_3  and  O1_4 
REMARK    4  A    between atoms: O1_4  and  C4_5 
REMARK    5  A    between atoms: C4_5  and  C5_6 
REMARK       I    between atoms: C5_6  and  N1_8 
REMARK    6  A    between atoms: N1_8  and  C6_10 
REMARK    7  A    between atoms: C12_17  and  O3_18 
REMARK    8  A    between atoms: C27_34  and  O4_35 
REMARK    9  A    between atoms: C28_37  and  O5_38 
ROOT
HETATM    1  C12 UNL     1       0.202  -0.245  -1.297  1.00  0.00     0.071 C 
HETATM    2  C13 UNL     1      -0.254   1.205  -1.502  1.00  0.00     0.039 C 
HETATM    3  C14 UNL     1      -1.759   1.005  -1.742  1.00  0.00     0.009 C 
HETATM    4  C15 UNL     1      -2.037  -0.401  -1.346  1.00  0.00     0.001 C 
HETATM    5  C16 UNL     1      -3.362  -0.668  -0.768  1.00  0.00    -0.005 C 
HETATM    6  C17 UNL     1      -4.451  -0.301  -1.739  1.00  0.00     0.006 C 
HETATM    7  C18 UNL     1      -5.360   0.712  -1.078  1.00  0.00     0.014 C 
HETATM    8  C19 UNL     1      -5.950   0.105   0.150  1.00  0.00     0.010 C 
HETATM    9  C20 UNL     1      -7.038  -0.895  -0.188  1.00  0.00     0.020 C 
HETATM   10  C21 UNL     1      -4.888  -0.436   1.106  1.00  0.00     0.035 C 
HETATM   11  C22 UNL     1      -3.558  -0.003   0.581  1.00  0.00    -0.003 C 
HETATM   12  C23 UNL     1      -2.438  -0.544   1.453  1.00  0.00     0.006 C 
HETATM   13  C24 UNL     1      -1.088  -0.187   0.870  1.00  0.00     0.013 C 
HETATM   14  C25 UNL     1      -0.847  -0.796  -0.480  1.00  0.00    -0.009 C 
HETATM   15  C26 UNL     1      -0.913  -2.301  -0.367  1.00  0.00     0.019 C 
HETATM   16  C27 UNL     1      -5.497   0.380   2.196  1.00  0.00     0.173 C 
HETATM   17  C28 UNL     1      -6.360   1.108   1.184  1.00  0.00     0.180 C 
HETATM   18  C29 UNL     1      -5.921   2.459   0.919  1.00  0.00     0.101 C 
HETATM   19  N2  UNL     1      -5.572   3.554   0.724  1.00  0.00    -0.194 NA
ENDROOT
BRANCH  17  20
HETATM   20  O5  UNL     1      -7.722   1.098   1.491  1.00  0.00    -0.372 OA
ATOM     21  H5  UNL     1      -7.982   1.734   2.147  1.00  0.00     0.212 HD
ENDBRANCH  17  20
BRANCH  16  22
HETATM   22  O4  UNL     1      -6.327  -0.440   2.992  1.00  0.00    -0.391 OA
ATOM     23  H4  UNL     1      -6.715   0.080   3.686  1.00  0.00     0.210 HD
ENDBRANCH  16  22
BRANCH   1  24
HETATM   24  C2  UNL     1       1.636  -0.262  -1.034  1.00  0.00     0.040 C 
HETATM   25  C1  UNL     1       2.265  -1.636  -1.123  1.00  0.00     0.015 C 
BRANCH  24  26
HETATM   26  C3  UNL     1       2.159   0.531   0.094  1.00  0.00     0.175 C 
BRANCH  26  27
HETATM   27  O1  UNL     1       3.458   0.871   0.181  1.00  0.00    -0.382 OA
BRANCH  27  28
HETATM   28  C4  UNL     1       4.464   0.002   0.272  1.00  0.00     0.270 C 
BRANCH  28  29
HETATM   29  C5  UNL     1       5.808   0.703   0.417  1.00  0.00     0.245 C 
HETATM   30  O2  UNL     1       5.812   1.919   0.431  1.00  0.00    -0.271 OA
HETATM   31  N1  UNL     1       6.929  -0.114   0.521  1.00  0.00    -0.324 N 
ATOM     32  H1  UNL     1       6.763  -1.120   0.492  1.00  0.00     0.169 HD
BRANCH  31  33
HETATM   33  C6  UNL     1       8.286   0.303   0.664  1.00  0.00     0.056 A 
HETATM   34  C7  UNL     1       8.695   1.615   0.720  1.00  0.00     0.031 A 
HETATM   35  C8  UNL     1      10.046   1.955   0.861  1.00  0.00     0.002 A 
HETATM   36  C9  UNL     1      11.024   0.994   0.950  1.00  0.00     0.002 A 
HETATM   37  C10 UNL     1      10.614  -0.312   0.894  1.00  0.00     0.026 A 
HETATM   38  C11 UNL     1       9.296  -0.661   0.756  1.00  0.00     0.060 A 
HETATM   39 CL1  UNL     1       8.895  -2.367   0.697  1.00  0.00    -0.082 Cl
ENDBRANCH  31  33
ENDBRANCH  28  29
ENDBRANCH  27  28
ENDBRANCH  26  27
ENDBRANCH  24  26
ENDBRANCH   1  24
BRANCH   1  40
HETATM   40  O3  UNL     1       0.055  -0.779  -2.618  1.00  0.00    -0.389 OA
ATOM     41  H3  UNL     1      -0.879  -0.768  -2.789  1.00  0.00     0.210 HD
ENDBRANCH   1  40
TORSDOF 9
