REMARK  9 active torsions:
REMARK  status: ('A' for Active; 'I' for Inactive)
REMARK    1  A    between atoms: C2_2  and  C3_3 
REMARK    2  A    between atoms: C4_4  and  O1_5 
REMARK    3  A    between atoms: C5_9  and  S1_10 
REMARK    4  A    between atoms: S1_10  and  C6_11 
REMARK    5  A    between atoms: C6_11  and  C7_12 
REMARK    6  A    between atoms: C7_12  and  N2_13 
REMARK    7  A    between atoms: N3_16  and  C10_17 
REMARK    8  A    between atoms: C10_17  and  C11_18 
REMARK    9  A    between atoms: C11_18  and  O2_19 
ROOT
HETATM    1  N2  UNL     1       3.013  -1.484  -0.899  1.00  0.00     0.092 N 
HETATM    2  C8  UNL     1       2.763  -1.172   0.497  1.00  0.00     0.302 C 
HETATM    3  C9  UNL     1       1.963   0.061   0.700  1.00  0.00     0.302 C 
HETATM    4  N3  UNL     1       0.558  -0.068   0.236  1.00  0.00     0.095 N 
HETATM    5  C25 UNL     1       0.675  -0.951  -0.919  1.00  0.00     0.302 C 
HETATM    6  C26 UNL     1       2.018  -0.732  -1.648  1.00  0.00     0.302 C 
ENDROOT
BRANCH   4   7
HETATM    7  C10 UNL     1      -0.220  -0.656   1.258  1.00  0.00     0.313 C 
BRANCH   7   8
HETATM    8  C11 UNL     1      -1.699  -0.698   1.223  1.00  0.00     0.115 C 
HETATM    9  C12 UNL     1      -2.312   0.678   1.382  1.00  0.00     0.043 C 
HETATM   10  C13 UNL     1      -2.946   1.206   0.154  1.00  0.00     0.018 C 
HETATM   11  C14 UNL     1      -3.911   0.274  -0.519  1.00  0.00     0.001 C 
HETATM   12  C15 UNL     1      -4.263   0.963  -1.850  1.00  0.00     0.017 C 
HETATM   13  C22 UNL     1      -5.220   0.137   0.082  1.00  0.00    -0.003 C 
HETATM   14  C23 UNL     1      -3.153  -0.976  -0.824  1.00  0.00     0.056 C 
HETATM   15  C16 UNL     1      -5.193   2.055  -1.364  1.00  0.00     0.016 C 
HETATM   16  C17 UNL     1      -5.972   1.417  -0.241  1.00  0.00    -0.001 C 
HETATM   17  C18 UNL     1      -7.388   1.076  -0.668  1.00  0.00     0.015 C 
HETATM   18  C21 UNL     1      -6.179   2.283   0.948  1.00  0.00     0.015 C 
HETATM   19  C19 UNL     1      -8.140   0.892   0.636  1.00  0.00     0.001 C 
HETATM   20  C20 UNL     1      -7.325   1.614   1.678  1.00  0.00     0.001 C 
HETATM   21  N4  UNL     1      -5.769  -0.766   0.737  1.00  0.00    -0.404 N 
ATOM     22  H42 UNL     1      -5.264  -1.625   0.954  1.00  0.00     0.155 HD
ATOM     23  H41 UNL     1      -6.692  -0.863   1.161  1.00  0.00     0.155 HD
HETATM   24  C24 UNL     1      -2.448  -1.585   0.335  1.00  0.00     0.207 C 
HETATM   25  F1  UNL     1      -1.760  -2.679  -0.088  1.00  0.00    -0.246 F 
BRANCH   8  26
HETATM   26  O2  UNL     1      -1.970  -1.297   2.537  1.00  0.00    -0.385 OA
ATOM     27  H2  UNL     1      -2.919  -1.324   2.515  1.00  0.00     0.210 HD
ENDBRANCH   8  26
ENDBRANCH   7   8
ENDBRANCH   4   7
BRANCH   1  28
HETATM   28  C7  UNL     1       2.934  -2.890  -1.061  1.00  0.00     0.283 C 
BRANCH  28  29
HETATM   29  C6  UNL     1       4.072  -3.625  -0.418  1.00  0.00     0.112 C 
BRANCH  29  30
HETATM   30  S1  UNL     1       5.623  -3.231  -1.174  1.00  0.00    -0.092 SA
BRANCH  30  31
HETATM   31  C5  UNL     1       6.118  -1.577  -0.896  1.00  0.00     0.149 A 
HETATM   32  N1  UNL     1       6.802  -1.308   0.249  1.00  0.00    -0.317 N 
HETATM   33  C4  UNL     1       7.253  -0.100   0.542  1.00  0.00     0.153 A 
ATOM     34  H1  UNL     1       6.974  -2.068   0.907  1.00  0.00     0.170 HD
HETATM   35  C3  UNL     1       7.032   0.935  -0.334  1.00  0.00     0.060 A 
HETATM   36  C27 UNL     1       6.334   0.656  -1.501  1.00  0.00     0.257 A 
HETATM   37  N5  UNL     1       5.899  -0.589  -1.745  1.00  0.00    -0.303 N 
HETATM   38  O3  UNL     1       6.145   1.611  -2.291  1.00  0.00    -0.267 OA
ATOM     39  H5  UNL     1       5.387  -0.777  -2.607  1.00  0.00     0.171 HD
BRANCH  33  40
HETATM   40  O1  UNL     1       7.941   0.146   1.708  1.00  0.00    -0.345 OA
ATOM     41  H1  UNL     1       8.094  -0.570   2.314  1.00  0.00     0.219 HD
ENDBRANCH  33  40
BRANCH  35  42
HETATM   42  C2  UNL     1       7.541   2.267  -0.002  1.00  0.00     0.044 C 
HETATM   43  C1  UNL     1       9.048   2.246  -0.247  1.00  0.00     0.010 C 
ENDBRANCH  35  42
ENDBRANCH  30  31
ENDBRANCH  29  30
ENDBRANCH  28  29
ENDBRANCH   1  28
TORSDOF 9
