REMARK  12 active torsions:
REMARK  status: ('A' for Active; 'I' for Inactive)
REMARK    1  A    between atoms: C2_2  and  C4_4 
REMARK    2  A    between atoms: C4_4  and  C5_5 
REMARK    3  A    between atoms: C5_5  and  O1_6 
REMARK    4  A    between atoms: C5_5  and  C6_8 
REMARK    5  A    between atoms: N1_10  and  C8_11 
REMARK    6  A    between atoms: C10_13  and  O2_14 
REMARK    7  A    between atoms: C16_22  and  O3_23 
REMARK    8  A    between atoms: C21_29  and  C22_30 
REMARK    9  A    between atoms: C25_33  and  C26_34 
REMARK       I    between atoms: C26_34  and  N2_36 
REMARK   10  A    between atoms: N2_36  and  C27_38 
REMARK   11  A    between atoms: C27_38  and  C28_39 
REMARK   12  A    between atoms: C28_39  and  N3_40 
ROOT
HETATM    1  C8  UNL     1       1.282   0.239   1.740  1.00  0.00     0.128 C 
HETATM    2  C9  UNL     1       1.575   1.358   2.706  1.00  0.00     0.063 C 
HETATM    3  C10 UNL     1       0.650   2.510   2.378  1.00  0.00     0.162 C 
HETATM    4  C11 UNL     1       0.185   2.150   1.041  1.00  0.00     0.150 C 
HETATM    5  F1  UNL     1       1.343   2.621   0.296  1.00  0.00    -0.238 F 
HETATM    6  C12 UNL     1      -0.871   2.948   0.362  1.00  0.00    -0.000 C 
HETATM    7  C13 UNL     1      -2.269   2.794   0.808  1.00  0.00     0.019 C 
HETATM    8  C14 UNL     1      -0.513   4.410   0.704  1.00  0.00     0.015 C 
HETATM    9  C15 UNL     1      -1.228   5.410  -0.131  1.00  0.00     0.032 C 
HETATM   10  C16 UNL     1      -1.078   5.146  -1.612  1.00  0.00     0.118 C 
HETATM   11  C17 UNL     1      -0.183   3.979  -1.831  1.00  0.00     0.037 C 
HETATM   12  C18 UNL     1      -0.739   2.728  -1.112  1.00  0.00    -0.001 C 
HETATM   13  C19 UNL     1      -0.069   1.513  -1.601  1.00  0.00     0.007 C 
HETATM   14  C20 UNL     1       0.657   0.615  -0.689  1.00  0.00     0.020 C 
HETATM   15  C21 UNL     1       0.212   0.685   0.784  1.00  0.00     0.049 C 
ENDROOT
BRANCH  15  16
HETATM   16  C22 UNL     1      -1.020  -0.105   0.953  1.00  0.00    -0.044 A 
HETATM   17  C23 UNL     1      -1.645  -0.171   2.172  1.00  0.00     0.009 A 
HETATM   18  C24 UNL     1      -2.786  -0.912   2.339  1.00  0.00     0.017 A 
HETATM   19  C25 UNL     1      -3.355  -1.626   1.276  1.00  0.00     0.032 A 
HETATM   20  C29 UNL     1      -2.742  -1.571   0.050  1.00  0.00     0.017 A 
HETATM   21  C30 UNL     1      -1.582  -0.808  -0.085  1.00  0.00     0.009 A 
BRANCH  19  22
HETATM   22  C26 UNL     1      -4.564  -2.398   1.454  1.00  0.00     0.251 C 
HETATM   23  O4  UNL     1      -5.188  -2.309   2.537  1.00  0.00    -0.268 OA
HETATM   24  N2  UNL     1      -5.057  -3.244   0.444  1.00  0.00    -0.355 N 
ATOM     25  H2  UNL     1      -4.545  -3.317  -0.435  1.00  0.00     0.162 HD
BRANCH  24  26
HETATM   26  C27 UNL     1      -6.284  -4.022   0.619  1.00  0.00     0.150 C 
BRANCH  26  27
HETATM   27  C28 UNL     1      -6.561  -4.836  -0.633  1.00  0.00     0.249 C 
BRANCH  27  28
HETATM   28  N3  UNL     1      -7.770  -5.620  -0.495  1.00  0.00    -0.078 N 
ATOM     29  H33 UNL     1      -7.740  -6.211   0.336  1.00  0.00     0.274 HD
ATOM     30  H32 UNL     1      -8.568  -5.036  -0.244  1.00  0.00     0.274 HD
ATOM     31  H31 UNL     1      -7.956  -6.167  -1.336  1.00  0.00     0.274 HD
ENDBRANCH  27  28
ENDBRANCH  26  27
ENDBRANCH  24  26
ENDBRANCH  19  22
ENDBRANCH  15  16
BRANCH   1  32
HETATM   32  N1  UNL     1       2.434  -0.386   1.201  1.00  0.00    -0.281 N 
HETATM   33  C7  UNL     1       3.604   0.103   0.790  1.00  0.00     0.145 A 
HETATM   34  C6  UNL     1       4.436  -0.936   0.354  1.00  0.00     0.095 A 
HETATM   35  N5  UNL     1       3.695  -2.031   0.536  1.00  0.00    -0.282 N 
HETATM   36  N4  UNL     1       2.547  -1.712   1.021  1.00  0.00    -0.240 N 
ATOM     37  H5  UNL     1       3.995  -2.982   0.322  1.00  0.00     0.188 HD
ATOM     38  H4  UNL     1       1.812  -2.384   1.242  1.00  0.00     0.208 HD
BRANCH  34  39
HETATM   39  C5  UNL     1       5.777  -0.793  -0.155  1.00  0.00     0.073 C 
BRANCH  39  40
HETATM   40  C4  UNL     1       6.658  -1.854  -0.594  1.00  0.00     0.070 C 
BRANCH  40  41
HETATM   41  C2  UNL     1       6.068  -3.174  -0.920  1.00  0.00    -0.017 C 
HETATM   42  C1  UNL     1       5.073  -3.203  -2.026  1.00  0.00     0.010 C 
HETATM   43  C3  UNL     1       7.232  -4.089  -1.350  1.00  0.00     0.010 C 
ENDBRANCH  40  41
ENDBRANCH  39  40
BRANCH  39  44
HETATM   44  O1  UNL     1       6.248   0.418  -0.225  1.00  0.00    -0.363 OA
ATOM     45  H1  UNL     1       5.670   1.114   0.063  1.00  0.00     0.217 HD
ENDBRANCH  39  44
ENDBRANCH  34  39
ENDBRANCH   1  32
BRANCH   3  46
HETATM   46  O2  UNL     1      -0.239   2.850   3.361  1.00  0.00    -0.392 OA
ATOM     47  H2  UNL     1      -0.820   3.573   3.155  1.00  0.00     0.210 HD
ENDBRANCH   3  46
BRANCH  10  48
HETATM   48  O3  UNL     1      -2.336   4.857  -2.132  1.00  0.00    -0.396 OA
ATOM     49  H3  UNL     1      -2.242   4.691  -3.063  1.00  0.00     0.210 HD
ENDBRANCH  10  48
TORSDOF 12
