REMARK  4 active torsions:
REMARK  status: ('A' for Active; 'I' for Inactive)
REMARK    1  A    between atoms: O1_2  and  C2_3 
REMARK    2  A    between atoms: C3_6  and  C4_7 
REMARK    3  A    between atoms: C5_10  and  N3_11 
REMARK    4  A    between atoms: C6_20  and  N7_21 
ROOT
HETATM    1  C2  UNL     1      -1.577   0.489  -2.171  1.00  0.00     0.239 A 
HETATM    2  N1  UNL     1      -2.422   0.319  -1.155  1.00  0.00    -0.304 N 
ATOM      3  H1  UNL     1      -3.427   0.285  -1.327  1.00  0.00     0.171 HD
HETATM    4  C3  UNL     1      -1.950   0.192   0.094  1.00  0.00     0.170 A 
HETATM    5  N6  UNL     1      -0.627   0.237   0.322  1.00  0.00    -0.169 N 
ATOM      6  H6  UNL     1      -0.285   0.140   1.278  1.00  0.00     0.186 HD
HETATM    7  C6  UNL     1       0.258   0.406  -0.673  1.00  0.00     0.725 A 
HETATM    8  N13 UNL     1      -0.242   0.530  -1.914  1.00  0.00    -0.151 N 
ATOM      9  H13 UNL     1       0.404   0.660  -2.693  1.00  0.00     0.188 HD
ENDROOT
BRANCH   7  10
HETATM   10  N7  UNL     1       1.664   0.460  -0.484  1.00  0.00    -0.003 N 
HETATM   11  N8  UNL     1       2.377   1.540  -0.751  1.00  0.00    -0.205 N 
HETATM   12  N9  UNL     1       3.684   1.604  -0.579  1.00  0.00    -0.276 N 
ATOM     13  H8  UNL     1       1.894   2.364  -1.107  1.00  0.00     0.211 HD
HETATM   14  C7  UNL     1       4.341   0.546  -0.119  1.00  0.00     0.167 A 
ATOM     15  H9  UNL     1       4.188   2.463  -0.799  1.00  0.00     0.189 HD
HETATM   16  C8  UNL     1       5.720   0.542   0.086  1.00  0.00     0.298 A 
HETATM   17  C9  UNL     1       3.673  -0.556   0.162  1.00  0.00     0.178 A 
HETATM   18  O2  UNL     1       6.378   1.574  -0.172  1.00  0.00    -0.264 OA
HETATM   19  N10 UNL     1       6.365  -0.539   0.553  1.00  0.00    -0.204 N 
HETATM   20  O3  UNL     1       5.656  -1.595   0.812  1.00  0.00    -0.152 OA
ATOM     21  H10 UNL     1       7.374  -0.531   0.699  1.00  0.00     0.200 HD
HETATM   22  N11 UNL     1       4.353  -1.612   0.625  1.00  0.00    -0.222 N 
ATOM     23  H11 UNL     1       3.840  -2.466   0.842  1.00  0.00     0.198 HD
HETATM   24  N12 UNL     1       2.332  -0.589  -0.025  1.00  0.00    -0.244 N 
ATOM     25  H12 UNL     1       1.822  -1.445   0.193  1.00  0.00     0.191 HD
ENDBRANCH   7  10
BRANCH   4  26
HETATM   26  C4  UNL     1      -2.900   0.008   1.180  1.00  0.00     0.181 A 
HETATM   27  N2  UNL     1      -4.235  -0.061   1.142  1.00  0.00    -0.171 N 
HETATM   28  C5  UNL     1      -4.726  -0.240   2.394  1.00  0.00     0.692 A 
ATOM     29  H2  UNL     1      -4.801   0.010   0.296  1.00  0.00     0.186 HD
HETATM   30  N4  UNL     1      -3.657  -0.278   3.185  1.00  0.00    -0.131 N 
HETATM   31  N5  UNL     1      -2.564  -0.133   2.483  1.00  0.00    -0.268 N 
ATOM     32  H4  UNL     1      -3.686  -0.403   4.197  1.00  0.00     0.205 HD
ATOM     33  H5  UNL     1      -1.615  -0.127   2.856  1.00  0.00     0.189 HD
BRANCH  28  34
HETATM   34  N3  UNL     1      -5.969  -0.347   2.707  1.00  0.00    -0.233 N 
ATOM     35  H32 UNL     1      -6.789  -0.318   2.101  1.00  0.00     0.174 HD
ATOM     36  H31 UNL     1      -6.338  -0.482   3.648  1.00  0.00     0.174 HD
ENDBRANCH  28  34
ENDBRANCH   4  26
BRANCH   1  37
HETATM   37  O1  UNL     1      -2.041   0.624  -3.490  1.00  0.00    -0.327 OA
HETATM   38  C1  UNL     1      -3.433   0.576  -3.712  1.00  0.00     0.213 C 
ENDBRANCH   1  37
TORSDOF 4
