REMARK  10 active torsions:
REMARK  status: ('A' for Active; 'I' for Inactive)
REMARK    1  A    between atoms: C2_2  and  N1_3 
REMARK    2  A    between atoms: C2_2  and  C4_12 
REMARK    3  A    between atoms: N1_3  and  C3_5 
REMARK    4  A    between atoms: C3_5  and  O1_6 
REMARK    5  A    between atoms: N2_8  and  O2_10 
REMARK       I    between atoms: C4_12  and  N3_14 
REMARK    6  A    between atoms: N3_14  and  O4_15 
REMARK    7  A    between atoms: N3_14  and  C5_17 
REMARK    8  A    between atoms: C6_18  and  N4_19 
REMARK    9  A    between atoms: C9_26  and  N6_27 
REMARK   10  A    between atoms: N7_30  and  N8_31 
ROOT
HETATM    1  C5  UNL     1       1.203   0.460   0.232  1.00  0.00     0.213 A 
HETATM    2  C6  UNL     1       1.568   0.327  -1.085  1.00  0.00     0.219 A 
HETATM    3  C7  UNL     1       2.925   0.171  -1.392  1.00  0.00     0.298 A 
HETATM    4  O7  UNL     1       3.203   0.053  -2.614  1.00  0.00    -0.265 OA
HETATM    5  N5  UNL     1       3.826   0.157  -0.402  1.00  0.00    -0.148 N 
HETATM    6  C8  UNL     1       5.243  -0.007  -0.766  1.00  0.00     0.179 C 
HETATM    7  C9  UNL     1       3.465   0.288   0.894  1.00  0.00     0.703 A 
HETATM    8  N7  UNL     1       2.180   0.435   1.178  1.00  0.00    -0.071 N 
ENDROOT
BRANCH   1   9
HETATM    9  N3  UNL     1      -0.142   0.640   0.647  1.00  0.00    -0.167 N 
HETATM   10  C4  UNL     1      -1.155  -0.339   0.611  1.00  0.00     0.272 C 
HETATM   11  O3  UNL     1      -0.915  -1.480   0.193  1.00  0.00    -0.268 OA
BRANCH  10  12
HETATM   12  C2  UNL     1      -2.524  -0.008   1.075  1.00  0.00     0.176 C 
HETATM   13  C1  UNL     1      -3.054   1.266   0.469  1.00  0.00     0.042 C 
BRANCH  12  14
HETATM   14  N1  UNL     1      -3.434  -1.105   0.914  1.00  0.00    -0.342 N 
ATOM     15  H1  UNL     1      -3.792  -1.607   1.727  1.00  0.00     0.164 HD
BRANCH  14  16
HETATM   16  C3  UNL     1      -3.832  -1.484  -0.411  1.00  0.00     0.237 C 
HETATM   17  N2  UNL     1      -4.811  -2.299  -0.562  1.00  0.00    -0.233 N 
ATOM     18  H2  UNL     1      -5.103  -2.573  -1.500  1.00  0.00     0.198 HD
BRANCH  16  19
HETATM   19  O1  UNL     1      -3.184  -0.988  -1.527  1.00  0.00    -0.331 OA
ATOM     20  H1  UNL     1      -3.448  -1.239  -2.405  1.00  0.00     0.221 HD
ENDBRANCH  16  19
BRANCH  17  21
HETATM   21  O2  UNL     1      -5.463  -2.800   0.524  1.00  0.00    -0.287 OA
ATOM     22  H2  UNL     1      -6.188  -3.404   0.412  1.00  0.00     0.244 HD
ENDBRANCH  17  21
ENDBRANCH  14  16
ENDBRANCH  12  14
ENDBRANCH  10  12
BRANCH   9  23
HETATM   23  O4  UNL     1      -0.469   1.886   1.133  1.00  0.00    -0.278 OA
ATOM     24  H4  UNL     1       0.214   2.546   1.157  1.00  0.00     0.245 HD
ENDBRANCH   9  23
ENDBRANCH   1   9
BRANCH   2  25
HETATM   25  N4  UNL     1       0.597   0.365  -2.138  1.00  0.00    -0.106 N 
HETATM   26  O5  UNL     1       0.036   1.451  -2.362  1.00  0.00    -0.531 OA
HETATM   27  O6  UNL     1       0.358  -0.792  -2.819  1.00  0.00    -0.531 OA
ENDBRANCH   2  25
BRANCH   8  28
HETATM   28  N8  UNL     1       1.787   0.575   2.499  1.00  0.00    -0.322 N 
ATOM     29  H82 UNL     1       0.797   0.688   2.718  1.00  0.00     0.178 HD
ATOM     30  H81 UNL     1       2.520   0.556   3.208  1.00  0.00     0.178 HD
ENDBRANCH   8  28
BRANCH   7  31
HETATM   31  N6  UNL     1       4.389   0.271   1.804  1.00  0.00    -0.232 N 
ATOM     32  H62 UNL     1       5.379   0.158   1.585  1.00  0.00     0.174 HD
ATOM     33  H61 UNL     1       4.117   0.370   2.782  1.00  0.00     0.174 HD
ENDBRANCH   7  31
TORSDOF 10
