REMARK  4 active torsions:
REMARK  status: ('A' for Active; 'I' for Inactive)
REMARK    1  A    between atoms: N1_2  and  C2_3 
REMARK    2  A    between atoms: N1_2  and  C10_16 
REMARK    3  A    between atoms: C2_3  and  C3_4 
REMARK       I    between atoms: C3_4  and  N2_6 
REMARK    4  A    between atoms: C13_19  and  O2_20 
ROOT
HETATM    1  C3  UNL     1       0.680  -0.473  -0.489  1.00  0.00     0.248 C 
HETATM    2  O1  UNL     1       0.759  -1.671  -0.860  1.00  0.00    -0.271 OA
HETATM    3  N2  UNL     1       1.836   0.328  -0.592  1.00  0.00    -0.344 N 
HETATM    4  C4  UNL     1       2.107   1.724  -0.261  1.00  0.00     0.133 C 
HETATM    5  C5  UNL     1       3.565   1.415  -0.181  1.00  0.00     0.030 C 
HETATM    6  C6  UNL     1       4.070   0.865   1.132  1.00  0.00     0.036 C 
HETATM    7  C7  UNL     1       5.412   0.197   0.820  1.00  0.00     0.233 C 
HETATM    8  N3  UNL     1       5.273  -0.821  -0.197  1.00  0.00    -0.073 N 
ATOM      9  H31 UNL     1       5.699  -1.697   0.105  1.00  0.00     0.277 HD
ATOM     10  H32 UNL     1       5.866  -0.615  -1.001  1.00  0.00     0.277 HD
HETATM   11  C8  UNL     1       3.906  -1.029  -0.607  1.00  0.00     0.257 C 
HETATM   12  C9  UNL     1       3.208   0.213  -1.032  1.00  0.00     0.118 C 
ENDROOT
BRANCH   1  13
HETATM   13  C2  UNL     1      -0.611   0.041   0.033  1.00  0.00     0.374 C 
BRANCH  13  14
HETATM   14  N1  UNL     1      -1.655  -0.935   0.054  1.00  0.00     0.097 N 
HETATM   15  C1  UNL     1      -1.424  -1.980   1.031  1.00  0.00     0.310 C 
BRANCH  14  16
HETATM   16  C10 UNL     1      -2.905  -0.283   0.374  1.00  0.00     0.225 C 
HETATM   17  C11 UNL     1      -4.085  -1.251   0.298  1.00  0.00     0.038 C 
HETATM   18  C12 UNL     1      -5.233  -0.234   0.411  1.00  0.00     0.034 C 
HETATM   19  C13 UNL     1      -4.824   0.778  -0.625  1.00  0.00     0.120 C 
HETATM   20  C14 UNL     1      -3.312   0.689  -0.735  1.00  0.00     0.067 C 
BRANCH  19  21
HETATM   21  O2  UNL     1      -5.219   2.036  -0.190  1.00  0.00    -0.396 OA
ATOM     22  H2  UNL     1      -4.961   2.675  -0.844  1.00  0.00     0.210 HD
ENDBRANCH  19  21
ENDBRANCH  14  16
ENDBRANCH  13  14
ENDBRANCH   1  13
TORSDOF 4
