REMARK  3 active torsions:
REMARK  status: ('A' for Active; 'I' for Inactive)
REMARK    1  A    between atoms: C1_1  and  C6_14 
REMARK    2  A    between atoms: N1_2  and  N2_4 
REMARK    3  A    between atoms: N2_4  and  C2_6 
ROOT
HETATM    1  C1  UNL     1       0.940   0.998   0.303  1.00  0.00     0.120 C 
HETATM    2  N1  UNL     1       0.135   0.399   1.083  1.00  0.00    -0.297 N 
ATOM      3  H1  UNL     1       0.364  -0.528   1.443  1.00  0.00     0.186 HD
ENDROOT
BRANCH   2   4
HETATM    4  N2  UNL     1      -1.056   1.011   1.443  1.00  0.00    -0.132 N 
ATOM      5  H2  UNL     1      -1.050   1.827   2.055  1.00  0.00     0.205 HD
BRANCH   4   6
HETATM    6  C2  UNL     1      -2.180   0.538   0.995  1.00  0.00     0.696 A 
HETATM    7  N3  UNL     1      -3.353   1.109   1.325  1.00  0.00    -0.200 N 
HETATM    8  C3  UNL     1      -4.532   0.641   0.877  1.00  0.00     0.107 A 
ATOM      9  H3  UNL     1      -3.348   1.925   1.936  1.00  0.00     0.183 HD
HETATM   10  C4  UNL     1      -4.581  -0.462   0.047  1.00  0.00     0.035 A 
HETATM   11  C5  UNL     1      -3.374  -1.040  -0.286  1.00  0.00     0.107 A 
HETATM   12  N4  UNL     1      -2.209  -0.537   0.188  1.00  0.00    -0.200 N 
ATOM     13  H4  UNL     1      -1.331  -0.985  -0.074  1.00  0.00     0.183 HD
ENDBRANCH   4   6
ENDBRANCH   2   4
BRANCH   1  14
HETATM   14  C6  UNL     1       2.200   0.312  -0.058  1.00  0.00    -0.004 A 
HETATM   15  C7  UNL     1       3.080   0.954  -0.903  1.00  0.00     0.015 A 
HETATM   16  C8  UNL     1       4.266   0.301  -1.239  1.00  0.00     0.018 A 
HETATM   17  C9  UNL     1       4.523  -0.956  -0.722  1.00  0.00     0.087 A 
HETATM   18  N5  UNL     1       3.642  -1.573   0.111  1.00  0.00    -0.374 N 
HETATM   19  C10 UNL     1       2.493  -0.940   0.437  1.00  0.00     0.100 A 
ATOM     20  H5  UNL     1       3.846  -2.500   0.484  1.00  0.00     0.164 HD
ENDBRANCH   1  14
TORSDOF 3
