REMARK  3 active torsions:
REMARK  status: ('A' for Active; 'I' for Inactive)
REMARK    1  A    between atoms: C1_2  and  C2_3 
REMARK       I    between atoms: C1_2  and  N1_8 
REMARK    2  A    between atoms: C2_3  and  C3_4 
REMARK    3  A    between atoms: C14_17  and  O3_18 
ROOT
HETATM    1  O1  UNL     1       2.324   0.020  -2.037  1.00  0.00    -0.273 OA
HETATM    2  C1  UNL     1       1.878  -0.332  -0.931  1.00  0.00     0.220 C 
HETATM    3  N1  UNL     1       0.523  -0.658  -0.791  1.00  0.00    -0.352 N 
HETATM    4  C7  UNL     1      -0.044  -1.071   0.465  1.00  0.00     0.126 C 
HETATM    5  C8  UNL     1      -1.532  -1.188   0.402  1.00  0.00     0.031 C 
HETATM    6  C9  UNL     1      -2.211  -0.099  -0.358  1.00  0.00    -0.013 C 
HETATM    7  C10 UNL     1      -1.518   0.306  -1.617  1.00  0.00     0.031 C 
HETATM    8  C11 UNL     1      -0.340  -0.580  -1.945  1.00  0.00     0.126 C 
HETATM    9  C12 UNL     1      -2.395   1.105   0.554  1.00  0.00     0.177 C 
HETATM   10  O2  UNL     1      -3.550   1.806   0.160  1.00  0.00    -0.388 OA
HETATM   11  C13 UNL     1      -4.643   1.175   0.753  1.00  0.00     0.199 C 
HETATM   12  C14 UNL     1      -4.604  -0.272   0.364  1.00  0.00     0.142 C 
HETATM   13  C15 UNL     1      -3.608  -0.572  -0.729  1.00  0.00     0.045 C 
ENDROOT
BRANCH   2  14
HETATM   14  C2  UNL     1       2.758  -0.412   0.250  1.00  0.00     0.107 C 
BRANCH  14  15
HETATM   15  C3  UNL     1       4.182  -0.033  -0.053  1.00  0.00    -0.006 C 
HETATM   16  C4  UNL     1       5.097  -0.111   1.147  1.00  0.00     0.005 C 
HETATM   17  C5  UNL     1       5.741   1.181   0.673  1.00  0.00     0.001 C 
HETATM   18  C6  UNL     1       4.471   1.431  -0.138  1.00  0.00     0.005 C 
ENDBRANCH  14  15
ENDBRANCH   2  14
BRANCH  12  19
HETATM   19  O3  UNL     1      -4.376  -1.094   1.468  1.00  0.00    -0.393 OA
ATOM     20  H3  UNL     1      -4.351  -2.011   1.221  1.00  0.00     0.210 HD
ENDBRANCH  12  19
TORSDOF 3
