REMARK  5 active torsions:
REMARK  status: ('A' for Active; 'I' for Inactive)
REMARK    1  A    between atoms: C2_2  and  C3_3 
REMARK    2  A    between atoms: C3_3  and  C4_4 
REMARK    3  A    between atoms: C3_3  and  C6_6 
REMARK    4  A    between atoms: C6_6  and  N1_7 
REMARK    5  A    between atoms: C11_12  and  C12_13 
ROOT
HETATM    1  N1  UNL     1      -0.143  -0.840   0.024  1.00  0.00    -0.388 N 
HETATM    2  C7  UNL     1       0.183  -2.220  -0.074  1.00  0.00     0.122 C 
HETATM    3  C8  UNL     1      -0.906  -2.886  -0.888  1.00  0.00     0.020 C 
HETATM    4  C9  UNL     1      -2.224  -2.503  -0.261  1.00  0.00     0.004 C 
HETATM    5  C10 UNL     1      -2.091  -1.725   1.017  1.00  0.00     0.026 C 
HETATM    6  C11 UNL     1      -1.183  -0.489   0.861  1.00  0.00     0.089 C 
ENDROOT
BRANCH   6   7
HETATM    7  C12 UNL     1      -2.072   0.651   0.567  1.00  0.00     0.036 C 
HETATM    8  C13 UNL     1      -2.783   0.629  -0.756  1.00  0.00     0.036 C 
HETATM    9  C14 UNL     1      -3.120   2.121  -0.915  1.00  0.00     0.232 C 
HETATM   10  N2  UNL     1      -1.936   2.778  -0.464  1.00  0.00    -0.075 N 
HETATM   11  C15 UNL     1      -1.549   2.028   0.743  1.00  0.00     0.239 C 
ATOM     12  H22 UNL     1      -1.201   2.847  -1.168  1.00  0.00     0.277 HD
ATOM     13  H21 UNL     1      -2.044   3.782  -0.317  1.00  0.00     0.277 HD
ENDBRANCH   6   7
BRANCH   1  14
HETATM   14  C6  UNL     1       0.783   0.002  -0.546  1.00  0.00     0.063 C 
BRANCH  14  15
HETATM   15  C3  UNL     1       2.142   0.078   0.128  1.00  0.00     0.023 C 
BRANCH  15  16
HETATM   16  C2  UNL     1       2.949   1.063  -0.691  1.00  0.00     0.005 C 
HETATM   17  C1  UNL     1       3.035   0.725  -2.141  1.00  0.00     0.006 C 
ENDBRANCH  15  16
BRANCH  15  18
HETATM   18  C4  UNL     1       2.100   0.478   1.562  1.00  0.00     0.005 C 
HETATM   19  C5  UNL     1       3.521   0.532   2.142  1.00  0.00     0.006 C 
ENDBRANCH  15  18
ENDBRANCH  14  15
ENDBRANCH   1  14
TORSDOF 5
