REMARK  4 active torsions:
REMARK  status: ('A' for Active; 'I' for Inactive)
REMARK    1  A    between atoms: C2_2  and  C4_4 
REMARK    2  A    between atoms: C4_4  and  C5_5 
REMARK    3  A    between atoms: C5_5  and  N1_7 
REMARK    4  A    between atoms: N1_7  and  N2_9 
ROOT
HETATM    1  N1  UNL     1      -0.448   1.194  -0.058  1.00  0.00    -0.294 N 
ATOM      2  H1  UNL     1      -0.650   0.814  -0.983  1.00  0.00     0.187 HD
ENDROOT
BRANCH   1   3
HETATM    3  C5  UNL     1      -1.498   1.547   0.824  1.00  0.00     0.092 C 
HETATM    4  S1  UNL     1      -1.099   2.165   2.309  1.00  0.00    -0.064 SA
BRANCH   3   5
HETATM    5  C4  UNL     1      -2.917   1.375   0.445  1.00  0.00     0.075 C 
BRANCH   5   6
HETATM    6  C2  UNL     1      -3.372  -0.042   0.360  1.00  0.00    -0.016 C 
HETATM    7  C1  UNL     1      -4.843  -0.103  -0.031  1.00  0.00     0.010 C 
HETATM    8  C3  UNL     1      -2.590  -0.897  -0.584  1.00  0.00     0.010 C 
ENDBRANCH   5   6
ENDBRANCH   3   5
ENDBRANCH   1   3
BRANCH   1   9
HETATM    9  N2  UNL     1       0.874   1.378   0.366  1.00  0.00    -0.308 N 
HETATM   10  C6  UNL     1       1.863   0.663  -0.006  1.00  0.00     0.004 C 
HETATM   11  C7  UNL     1       3.206   1.009   0.554  1.00  0.00     0.054 C 
HETATM   12  C11 UNL     1       1.687  -0.447  -0.942  1.00  0.00     0.054 C 
HETATM   13  C8  UNL     1       3.954  -0.270   0.869  1.00  0.00     0.006 C 
HETATM   14  C9  UNL     1       4.008  -1.071  -0.420  1.00  0.00     0.001 C 
HETATM   15  C10 UNL     1       2.635  -1.604  -0.677  1.00  0.00     0.006 C 
ATOM     16  H2  UNL     1       1.060   2.139   1.020  1.00  0.00     0.186 HD
ENDBRANCH   1   9
TORSDOF 4
