REMARK  4 active torsions:
REMARK  status: ('A' for Active; 'I' for Inactive)
REMARK    1  A    between atoms: N1_1  and  C1_4 
REMARK    2  A    between atoms: C3_10  and  C4_11 
REMARK    3  A    between atoms: N3_12  and  O2_14 
REMARK    4  A    between atoms: O2_14  and  C5_15 
ROOT
HETATM    1  C1  UNL     1       4.273   0.249  -0.141  1.00  0.00     0.135 A 
HETATM    2  N2  UNL     1       5.415  -0.456   0.147  1.00  0.00    -0.243 N 
ATOM      3  H2  UNL     1       6.357  -0.066   0.186  1.00  0.00     0.196 HD
HETATM    4  O1  UNL     1       5.109  -1.679   0.358  1.00  0.00    -0.223 OA
HETATM    5  C2  UNL     1       3.830  -1.879   0.237  1.00  0.00     0.183 A 
HETATM    6 CL1  UNL     1       2.939  -3.388   0.433  1.00  0.00    -0.053 Cl
HETATM    7  C3  UNL     1       3.235  -0.670  -0.084  1.00  0.00     0.074 A 
ENDROOT
BRANCH   7   8
HETATM    8  C4  UNL     1       1.816  -0.471  -0.304  1.00  0.00     0.133 C 
HETATM    9  N3  UNL     1       1.359   0.680  -0.596  1.00  0.00    -0.277 N 
ATOM     10  H3  UNL     1       1.995   1.473  -0.677  1.00  0.00     0.193 HD
BRANCH   9  11
HETATM   11  O2  UNL     1       0.022   0.858  -0.801  1.00  0.00    -0.275 OA
BRANCH  11  12
HETATM   12  C5  UNL     1      -0.885   0.316   0.138  1.00  0.00     0.152 C 
HETATM   13  C6  UNL     1      -1.773   1.437   0.628  1.00  0.00     0.034 C 
HETATM   14  C7  UNL     1      -3.129   1.429  -0.042  1.00  0.00     0.002 C 
HETATM   15  C8  UNL     1      -3.883   0.147   0.244  1.00  0.00     0.000 C 
HETATM   16  C9  UNL     1      -2.942  -1.053   0.220  1.00  0.00     0.002 C 
HETATM   17  C10 UNL     1      -1.765  -0.672  -0.630  1.00  0.00     0.034 C 
ENDBRANCH  11  12
ENDBRANCH   9  11
ENDBRANCH   7   8
BRANCH   1  18
HETATM   18  N1  UNL     1       4.226   1.485  -0.399  1.00  0.00    -0.383 N 
ATOM     19  H12 UNL     1       4.989   2.161  -0.441  1.00  0.00     0.157 HD
ATOM     20  H11 UNL     1       3.377   2.009  -0.613  1.00  0.00     0.157 HD
ENDBRANCH   1  18
TORSDOF 4
