REMARK  2 active torsions:
REMARK  status: ('A' for Active; 'I' for Inactive)
REMARK    1  A    between atoms: C2_2  and  O1_5 
REMARK    2  A    between atoms: O1_5  and  C5_6 
ROOT
HETATM    1  C5  UNL     1      -0.578   0.003  -0.409  1.00  0.00     0.122 C 
HETATM    2  C6  UNL     1       0.134  -1.294  -0.803  1.00  0.00     0.037 C 
HETATM    3  C7  UNL     1       1.196  -1.520   0.286  1.00  0.00     0.066 C 
HETATM    4  C8  UNL     1       2.327  -0.575  -0.031  1.00  0.00     0.163 C 
HETATM    5  C9  UNL     1       1.825   0.644  -0.767  1.00  0.00     0.066 C 
HETATM    6  C10 UNL     1       0.464   1.076  -0.201  1.00  0.00     0.037 C 
HETATM    7  N1  UNL     1       3.023  -0.126   1.148  1.00  0.00    -0.327 N 
ATOM      8  H1  UNL     1       2.617   0.022   2.072  1.00  0.00     0.165 HD
HETATM    9  C11 UNL     1       4.381   0.071   0.780  1.00  0.00     0.195 C 
HETATM   10  N2  UNL     1       5.327   0.648   1.448  1.00  0.00    -0.370 N 
ATOM     11  H21 UNL     1       6.302   0.789   1.184  1.00  0.00     0.159 HD
ATOM     12  H22 UNL     1       5.261   1.071   2.374  1.00  0.00     0.159 HD
HETATM   13  N3  UNL     1       4.475  -0.528  -0.530  1.00  0.00    -0.234 N 
ATOM     14  H3  UNL     1       5.278  -0.474  -1.156  1.00  0.00     0.197 HD
HETATM   15  O2  UNL     1       3.303  -1.180  -0.786  1.00  0.00    -0.244 OA
ENDROOT
BRANCH   1  16
HETATM   16  O1  UNL     1      -1.648   0.314  -1.100  1.00  0.00    -0.376 OA
BRANCH  16  17
HETATM   17  C2  UNL     1      -2.900   0.337  -0.673  1.00  0.00     0.050 C 
HETATM   18  C1  UNL     1      -2.949   1.361   0.480  1.00  0.00     0.045 C 
HETATM   19  C3  UNL     1      -4.010   0.661  -1.579  1.00  0.00     0.045 C 
HETATM   20  C4  UNL     1      -3.230  -1.003  -0.014  1.00  0.00     0.045 C 
ENDBRANCH  16  17
ENDBRANCH   1  16
TORSDOF 2
