REMARK  5 active torsions:
REMARK  status: ('A' for Active; 'I' for Inactive)
REMARK    1  A    between atoms: S1_2  and  C2_3 
REMARK    2  A    between atoms: C2_3  and  C3_7 
REMARK    3  A    between atoms: C3_7  and  S2_8 
REMARK    4  A    between atoms: S2_8  and  C4_9 
REMARK    5  A    between atoms: C5_12  and  N3_13 
ROOT
HETATM    1  C4  UNL     1      -1.404  -0.032   0.515  1.00  0.00     0.085 A 
HETATM    2  N2  UNL     1      -0.941   1.107   0.959  1.00  0.00    -0.331 N 
ATOM      3  H2  UNL     1      -0.092   1.135   1.523  1.00  0.00     0.168 HD
HETATM    4  C5  UNL     1      -1.593   2.228   0.665  1.00  0.00     0.143 A 
HETATM    5  S3  UNL     1      -2.905   1.670  -0.269  1.00  0.00    -0.057 SA
HETATM    6  C6  UNL     1      -2.550   0.002  -0.237  1.00  0.00     0.016 A 
HETATM    7  C7  UNL     1      -3.311  -1.122  -0.876  1.00  0.00     0.059 C 
ENDROOT
BRANCH   1   8
HETATM    8  S2  UNL     1      -0.619  -1.652   0.836  1.00  0.00    -0.105 SA
BRANCH   8   9
HETATM    9  C3  UNL     1       0.557  -1.939  -0.519  1.00  0.00     0.144 C 
BRANCH   9  10
HETATM   10  C2  UNL     1       1.653  -0.942  -0.442  1.00  0.00     0.049 C 
HETATM   11  N1  UNL     1       1.853  -0.141  -1.411  1.00  0.00    -0.396 N 
ATOM     12  H12 UNL     1       2.607   0.544  -1.358  1.00  0.00     0.156 HD
ATOM     13  H11 UNL     1       1.257  -0.189  -2.237  1.00  0.00     0.156 HD
BRANCH  10  14
HETATM   14  S1  UNL     1       2.700  -0.857   1.009  1.00  0.00    -0.121 SA
HETATM   15  C1  UNL     1       3.924   0.447   0.797  1.00  0.00     0.097 C 
ENDBRANCH  10  14
ENDBRANCH   9  10
ENDBRANCH   8   9
ENDBRANCH   1   8
BRANCH   4  16
HETATM   16  N3  UNL     1      -1.286   3.463   1.016  1.00  0.00    -0.380 N 
ATOM     17  H32 UNL     1      -0.501   3.797   1.575  1.00  0.00     0.158 HD
ATOM     18  H31 UNL     1      -1.786   4.323   0.790  1.00  0.00     0.158 HD
ENDBRANCH   4  16
TORSDOF 5
