REMARK  8 active torsions:
REMARK  status: ('A' for Active; 'I' for Inactive)
REMARK    1  A    between atoms: C2_2  and  C4_4 
REMARK    2  A    between atoms: C4_4  and  N1_5 
REMARK    3  A    between atoms: C4_4  and  C5_9 
REMARK    4  A    between atoms: C5_9  and  O1_10 
REMARK    5  A    between atoms: C5_9  and  N2_12 
REMARK    6  A    between atoms: N2_12  and  C6_14 
REMARK    7  A    between atoms: C8_16  and  N3_17 
REMARK    8  A    between atoms: N3_17  and  S1_19 
REMARK       I    between atoms: N4_25  and  C11_27 
ROOT
HETATM    1  C6  UNL     1       0.083   1.169   0.821  1.00  0.00     0.158 C 
HETATM    2  C7  UNL     1       0.718  -0.144   1.072  1.00  0.00     0.088 C 
HETATM    3  C8  UNL     1       2.249   0.025   0.975  1.00  0.00     0.241 C 
HETATM    4  O4  UNL     1       2.384   1.429   1.121  1.00  0.00    -0.311 OA
HETATM    5  C10 UNL     1       1.285   2.009   0.451  1.00  0.00     0.145 C 
HETATM    6  N4  UNL     1       1.251   3.019  -0.309  1.00  0.00    -0.312 N 
ATOM      7  H4  UNL     1       0.349   3.287  -0.702  1.00  0.00     0.170 HD
HETATM    8  C11 UNL     1       2.374   3.801  -0.651  1.00  0.00     0.203 C 
HETATM    9  N5  UNL     1       3.124   3.504  -1.809  1.00  0.00    -0.062 NA
HETATM   10  N6  UNL     1       2.709   4.779   0.091  1.00  0.00    -0.267 N 
ATOM     11  H6  UNL     1       2.147   4.968   0.921  1.00  0.00     0.180 HD
HETATM   12  C12 UNL     1       3.787   5.597  -0.162  1.00  0.00     0.184 C 
HETATM   13  N7  UNL     1       4.709   6.285  -0.390  1.00  0.00    -0.172 NA
ENDROOT
BRANCH   1  14
HETATM   14  N2  UNL     1      -0.925   1.197  -0.134  1.00  0.00    -0.383 N 
ATOM     15  H2  UNL     1      -0.755   1.727  -0.989  1.00  0.00     0.156 HD
BRANCH  14  16
HETATM   16  C5  UNL     1      -2.148   0.554  -0.005  1.00  0.00     0.245 C 
BRANCH  16  17
HETATM   17  C4  UNL     1      -2.269  -0.914   0.025  1.00  0.00     0.234 C 
BRANCH  17  18
HETATM   18  C2  UNL     1      -3.739  -1.344   0.257  1.00  0.00     0.012 C 
HETATM   19  C1  UNL     1      -4.566  -0.969  -0.969  1.00  0.00     0.012 C 
HETATM   20  C3  UNL     1      -3.704  -2.860   0.314  1.00  0.00     0.012 C 
ENDBRANCH  17  18
BRANCH  17  21
HETATM   21  N1  UNL     1      -1.863  -1.634  -1.142  1.00  0.00    -0.071 N 
ATOM     22  H13 UNL     1      -1.995  -2.643  -1.075  1.00  0.00     0.274 HD
ATOM     23  H12 UNL     1      -2.470  -1.493  -1.950  1.00  0.00     0.274 HD
ATOM     24  H11 UNL     1      -0.895  -1.351  -1.295  1.00  0.00     0.274 HD
ENDBRANCH  17  21
ENDBRANCH  16  17
BRANCH  16  25
HETATM   25  O1  UNL     1      -2.687   1.004   1.263  1.00  0.00    -0.375 OA
ATOM     26  H1  UNL     1      -2.609   1.951   1.244  1.00  0.00     0.212 HD
ENDBRANCH  16  25
ENDBRANCH  14  16
ENDBRANCH   1  14
BRANCH   3  27
HETATM   27  N3  UNL     1       2.629  -0.418  -0.339  1.00  0.00    -0.292 N 
ATOM     28  H3  UNL     1       2.296   0.043  -1.186  1.00  0.00     0.174 HD
BRANCH  27  29
HETATM   29  S1  UNL     1       3.668  -1.758  -0.389  1.00  0.00     0.224 S 
HETATM   30  C9  UNL     1       2.815  -3.143   0.379  1.00  0.00     0.186 C 
HETATM   31  O2  UNL     1       3.999  -2.171  -1.794  1.00  0.00    -0.206 OA
HETATM   32  O3  UNL     1       4.888  -1.502   0.418  1.00  0.00    -0.206 OA
ENDBRANCH  27  29
ENDBRANCH   3  27
TORSDOF 8
