REMARK  7 active torsions:
REMARK  status: ('A' for Active; 'I' for Inactive)
REMARK       I    between atoms: C1_2  and  N1_3 
REMARK    1  A    between atoms: C1_2  and  C11_23 
REMARK    2  A    between atoms: N1_3  and  C2_5 
REMARK    3  A    between atoms: C2_5  and  C3_6 
REMARK    4  A    between atoms: C2_5  and  C4_14 
REMARK       I    between atoms: C3_6  and  N2_8 
REMARK    5  A    between atoms: N2_8  and  S1_10 
REMARK    6  A    between atoms: C4_14  and  O6_15 
REMARK    7  A    between atoms: C4_14  and  C5_17 
ROOT
HETATM    1  C2  UNL     1      -0.685   0.277  -0.129  1.00  0.00     0.138 C 
ENDROOT
BRANCH   1   2
HETATM    2  N1  UNL     1       0.709  -0.110  -0.337  1.00  0.00    -0.317 N 
HETATM    3  C1  UNL     1       1.765   0.781  -0.142  1.00  0.00     0.270 C 
HETATM    4  O1  UNL     1       1.524   1.958   0.224  1.00  0.00    -0.269 OA
ATOM      5  H1  UNL     1       0.917  -1.063  -0.635  1.00  0.00     0.169 HD
BRANCH   3   6
HETATM    6  C11 UNL     1       3.174   0.388  -0.353  1.00  0.00     0.385 C 
HETATM    7  N3  UNL     1       4.043   1.524  -0.075  1.00  0.00    -0.046 N 
HETATM    8  C12 UNL     1       5.405   1.121  -0.455  1.00  0.00     0.252 C 
ATOM      9  H32 UNL     1       3.737   2.385  -0.529  1.00  0.00     0.279 HD
ATOM     10  H31 UNL     1       3.976   1.855   0.887  1.00  0.00     0.279 HD
HETATM   11  C13 UNL     1       5.787  -0.026   0.467  1.00  0.00     0.158 C 
HETATM   12  N4  UNL     1       4.839  -1.103   0.235  1.00  0.00    -0.144 NA
HETATM   13  N5  UNL     1       3.553  -0.694   0.548  1.00  0.00    -0.105 NA
ENDBRANCH   3   6
ENDBRANCH   1   2
BRANCH   1  14
HETATM   14  C3  UNL     1      -1.463   0.427  -1.334  1.00  0.00     0.286 C 
HETATM   15  O2  UNL     1      -1.179  -0.250  -2.354  1.00  0.00    -0.265 OA
HETATM   16  N2  UNL     1      -2.546   1.336  -1.394  1.00  0.00    -0.230 N 
ATOM     17  H2  UNL     1      -2.762   1.878  -0.557  1.00  0.00     0.184 HD
BRANCH  16  18
HETATM   18  S1  UNL     1      -3.518   1.584  -2.783  1.00  0.00     0.211 S 
HETATM   19  O3  UNL     1      -3.112   0.648  -3.904  1.00  0.00    -0.578 OA
HETATM   20  O4  UNL     1      -4.950   1.281  -2.426  1.00  0.00    -0.578 OA
HETATM   21  O5  UNL     1      -3.453   3.129  -3.387  1.00  0.00    -0.578 OA
ENDBRANCH  16  18
ENDBRANCH   1  14
BRANCH   1  22
HETATM   22  C4  UNL     1      -1.235  -0.372   1.054  1.00  0.00     0.108 C 
BRANCH  22  23
HETATM   23  O6  UNL     1      -0.437  -0.340   2.106  1.00  0.00    -0.357 OA
ATOM     24  H6  UNL     1      -0.796  -0.763   2.877  1.00  0.00     0.217 HD
ENDBRANCH  22  23
BRANCH  22  25
HETATM   25  C5  UNL     1      -2.477  -1.042   1.312  1.00  0.00    -0.001 A 
HETATM   26  C6  UNL     1      -3.421  -1.443   0.395  1.00  0.00     0.014 A 
HETATM   27  C7  UNL     1      -4.640  -2.038   0.751  1.00  0.00     0.001 A 
HETATM   28  C8  UNL     1      -4.949  -2.250   2.061  1.00  0.00     0.000 A 
HETATM   29  C9  UNL     1      -4.041  -1.870   3.002  1.00  0.00     0.001 A 
HETATM   30  C10 UNL     1      -2.846  -1.286   2.646  1.00  0.00     0.014 A 
ENDBRANCH  22  25
ENDBRANCH   1  22
TORSDOF 7
