REMARK  6 active torsions:
REMARK  status: ('A' for Active; 'I' for Inactive)
REMARK    1  A    between atoms: N1_1  and  S1_4 
REMARK    2  A    between atoms: S1_4  and  C1_7 
REMARK    3  A    between atoms: C4_10  and  N2_11 
REMARK    4  A    between atoms: N2_11  and  C5_13 
REMARK    5  A    between atoms: N4_22  and  C11_23 
REMARK    6  A    between atoms: C11_23  and  C12_24 
ROOT
HETATM    1  C5  UNL     1      -0.547   1.476  -0.346  1.00  0.00     0.119 A 
HETATM    2  N3  UNL     1       0.355   0.535  -0.671  1.00  0.00    -0.327 N 
ATOM      3  H3  UNL     1       0.059  -0.436  -0.573  1.00  0.00     0.169 HD
HETATM    4  C6  UNL     1       1.594   0.741  -1.108  1.00  0.00     0.123 A 
HETATM    5  C7  UNL     1       1.946   2.084  -1.225  1.00  0.00     0.027 A 
HETATM    6  C8  UNL     1       3.167   2.489  -1.681  1.00  0.00     0.022 A 
HETATM    7  C9  UNL     1       4.083   1.532  -2.038  1.00  0.00     0.075 A 
HETATM    8  C10 UNL     1       3.711   0.214  -1.913  1.00  0.00     0.249 A 
HETATM    9  O3  UNL     1       4.531  -0.680  -2.237  1.00  0.00    -0.268 OA
HETATM   10  N4  UNL     1       2.489  -0.190  -1.456  1.00  0.00    -0.295 N 
HETATM   11  C17 UNL     1       1.031   3.078  -0.894  1.00  0.00     0.034 A 
HETATM   12  S2  UNL     1       1.140   4.777  -0.922  1.00  0.00    -0.088 SA
HETATM   13  C18 UNL     1      -0.428   5.152  -0.364  1.00  0.00     0.017 A 
HETATM   14  C19 UNL     1      -1.047   6.369  -0.136  1.00  0.00     0.020 A 
HETATM   15  C20 UNL     1      -2.355   6.400   0.328  1.00  0.00     0.001 A 
HETATM   16  C21 UNL     1      -2.961   5.188   0.534  1.00  0.00     0.001 A 
HETATM   17  C22 UNL     1      -2.327   3.994   0.301  1.00  0.00     0.014 A 
HETATM   18  C23 UNL     1      -1.008   3.924  -0.166  1.00  0.00    -0.004 A 
HETATM   19  C24 UNL     1      -0.247   2.841  -0.443  1.00  0.00     0.038 A 
ENDROOT
BRANCH   1  20
HETATM   20  N2  UNL     1      -1.710   1.066   0.063  1.00  0.00    -0.342 N 
ATOM     21  H2  UNL     1      -2.398   1.776   0.311  1.00  0.00     0.167 HD
BRANCH  20  22
HETATM   22  C4  UNL     1      -2.088  -0.262   0.188  1.00  0.00     0.033 A 
HETATM   23  C3  UNL     1      -2.569  -0.952  -0.900  1.00  0.00     0.031 A 
HETATM   24  C2  UNL     1      -2.958  -2.290  -0.807  1.00  0.00     0.027 A 
HETATM   25  C1  UNL     1      -2.859  -2.939   0.402  1.00  0.00     0.079 A 
HETATM   26  C26 UNL     1      -2.385  -2.275   1.492  1.00  0.00     0.027 A 
HETATM   27  C25 UNL     1      -1.998  -0.933   1.388  1.00  0.00     0.031 A 
BRANCH  25  28
HETATM   28  S1  UNL     1      -3.363  -4.632   0.469  1.00  0.00     0.256 S 
HETATM   29  O1  UNL     1      -2.582  -5.372   1.514  1.00  0.00    -0.201 OA
HETATM   30  O2  UNL     1      -3.147  -5.313  -0.843  1.00  0.00    -0.201 OA
BRANCH  28  31
HETATM   31  N1  UNL     1      -5.047  -4.741   0.866  1.00  0.00    -0.324 N 
ATOM     32  H12 UNL     1      -5.427  -5.229   1.677  1.00  0.00     0.169 HD
ATOM     33  H11 UNL     1      -5.578  -4.238   0.155  1.00  0.00     0.169 HD
ENDBRANCH  28  31
ENDBRANCH  25  28
ENDBRANCH  20  22
ENDBRANCH   1  20
BRANCH  10  34
HETATM   34  C11 UNL     1       2.171  -1.578  -1.314  1.00  0.00     0.174 C 
BRANCH  34  35
HETATM   35  C12 UNL     1       2.689  -2.113  -0.030  1.00  0.00    -0.024 A 
HETATM   36  C13 UNL     1       3.853  -2.900  -0.021  1.00  0.00     0.011 A 
HETATM   37  C14 UNL     1       4.352  -3.396   1.157  1.00  0.00     0.018 A 
HETATM   38  C15 UNL     1       3.756  -3.160   2.371  1.00  0.00     0.087 A 
HETATM   39  N5  UNL     1       2.653  -2.417   2.363  1.00  0.00    -0.375 N 
HETATM   40  C16 UNL     1       2.130  -1.907   1.208  1.00  0.00     0.096 A 
ATOM     41  H5  UNL     1       2.183  -2.222   3.247  1.00  0.00     0.164 HD
ENDBRANCH  34  35
ENDBRANCH  10  34
TORSDOF 6
