REMARK  5 active torsions:
REMARK  status: ('A' for Active; 'I' for Inactive)
REMARK    1  A    between atoms: N2_6  and  C4_7 
REMARK    2  A    between atoms: C7_10  and  N3_11 
REMARK    3  A    between atoms: C10_17  and  C11_18 
REMARK    4  A    between atoms: C14_21  and  C15_22 
REMARK    5  A    between atoms: C20_29  and  N5_30 
ROOT
HETATM    1  C11 UNL     1       2.567   0.021  -1.061  1.00  0.00     0.004 C 
HETATM    2  C12 UNL     1       1.778  -1.294  -1.122  1.00  0.00     0.017 C 
HETATM    3  C13 UNL     1       0.352  -0.958  -0.768  1.00  0.00     0.018 C 
HETATM    4  C14 UNL     1       0.285   0.279   0.112  1.00  0.00     0.019 C 
HETATM    5  C27 UNL     1       1.383   0.254   1.144  1.00  0.00     0.018 C 
HETATM    6  C28 UNL     1       2.701   0.332   0.387  1.00  0.00     0.017 C 
HETATM    7  C29 UNL     1       0.596   1.536  -0.668  1.00  0.00     0.018 C 
HETATM    8  C30 UNL     1       1.576   1.026  -1.724  1.00  0.00     0.017 C 
ENDROOT
BRANCH   4   9
HETATM    9  C15 UNL     1      -1.056   0.357   0.665  1.00  0.00     0.092 A 
HETATM   10  N4  UNL     1      -1.501   0.387   1.934  1.00  0.00    -0.342 N 
HETATM   11  C16 UNL     1      -2.845   0.437   1.946  1.00  0.00     0.084 A 
ATOM     12  H4  UNL     1      -0.908   0.374   2.764  1.00  0.00     0.167 HD
HETATM   13  C17 UNL     1      -3.821   0.475   2.907  1.00  0.00    -0.028 A 
HETATM   14  C26 UNL     1      -3.267   0.440   0.630  1.00  0.00     0.136 A 
HETATM   15  C18 UNL     1      -3.415   0.474   4.319  1.00  0.00     0.050 C 
HETATM   16  C19 UNL     1      -5.167   0.513   2.518  1.00  0.00     0.057 A 
HETATM   17  C20 UNL     1      -5.543   0.514   1.203  1.00  0.00     0.105 A 
HETATM   18  N7  UNL     1      -4.560   0.478   0.279  1.00  0.00    -0.327 N 
ATOM     19  H7  UNL     1      -4.807   0.480  -0.711  1.00  0.00     0.169 HD
HETATM   20  N8  UNL     1      -2.164   0.391  -0.111  1.00  0.00    -0.329 N 
ATOM     21  H8  UNL     1      -2.154   0.380  -1.131  1.00  0.00     0.168 HD
BRANCH  17  22
HETATM   22  N5  UNL     1      -6.876   0.537   0.768  1.00  0.00    -0.364 N 
HETATM   23  C21 UNL     1      -7.244   0.848  -0.609  1.00  0.00     0.154 C 
HETATM   24  C22 UNL     1      -8.143  -0.247  -1.137  1.00  0.00     0.291 C 
HETATM   25  N6  UNL     1      -9.263  -0.442  -0.224  1.00  0.00     0.087 N 
HETATM   26  C23 UNL     1     -10.106  -1.473  -0.794  1.00  0.00     0.310 C 
HETATM   27  C24 UNL     1      -8.757  -0.915   1.038  1.00  0.00     0.291 C 
HETATM   28  C25 UNL     1      -7.961   0.241   1.665  1.00  0.00     0.154 C 
ENDBRANCH  17  22
ENDBRANCH   4   9
BRANCH   1  29
HETATM   29  C10 UNL     1       3.765   0.029  -1.884  1.00  0.00     0.045 A 
HETATM   30  C2  UNL     1       3.737  -0.098  -3.284  1.00  0.00    -0.020 A 
HETATM   31  C1  UNL     1       2.608  -0.183  -4.213  1.00  0.00     0.052 C 
HETATM   32  C3  UNL     1       5.040  -0.113  -3.756  1.00  0.00     0.116 A 
HETATM   33  N1  UNL     1       5.806   0.000  -2.688  1.00  0.00    -0.309 N 
HETATM   34  N2  UNL     1       5.062   0.086  -1.558  1.00  0.00    -0.291 N 
ATOM     35  H1  UNL     1       6.826   0.020  -2.710  1.00  0.00     0.186 HD
BRANCH  34  36
HETATM   36  C4  UNL     1       5.683   0.181  -0.259  1.00  0.00     0.108 C 
HETATM   37  C5  UNL     1       6.173  -1.175   0.225  1.00  0.00     0.029 C 
HETATM   38  C6  UNL     1       7.642  -1.339   0.281  1.00  0.00     0.035 C 
HETATM   39  C7  UNL     1       8.353  -0.287   1.103  1.00  0.00     0.183 C 
HETATM   40  C8  UNL     1       7.744   1.081   0.813  1.00  0.00     0.035 C 
HETATM   41  C9  UNL     1       7.027   0.949  -0.499  1.00  0.00     0.029 C 
BRANCH  39  42
HETATM   42  N3  UNL     1       8.208  -0.601   2.492  1.00  0.00    -0.075 N 
ATOM     43  H33 UNL     1       7.231  -0.712   2.765  1.00  0.00     0.274 HD
ATOM     44  H32 UNL     1       8.526  -1.545   2.711  1.00  0.00     0.274 HD
ATOM     45  H31 UNL     1       8.687   0.108   3.046  1.00  0.00     0.274 HD
ENDBRANCH  39  42
ENDBRANCH  34  36
ENDBRANCH   1  29
TORSDOF 5
