REMARK  5 active torsions:
REMARK  status: ('A' for Active; 'I' for Inactive)
REMARK    1  A    between atoms: N1_1  and  C1_4 
REMARK    2  A    between atoms: N3_9  and  C4_10 
REMARK    3  A    between atoms: N4_17  and  C11_18 
REMARK    4  A    between atoms: C17_24  and  N5_25 
REMARK    5  A    between atoms: N6_28  and  C20_29 
ROOT
HETATM    1  C11 UNL     1      -1.252   0.354  -1.505  1.00  0.00     0.103 A 
HETATM    2  C12 UNL     1      -1.165  -0.442  -2.637  1.00  0.00     0.049 A 
HETATM    3  C13 UNL     1       0.007  -0.655  -3.321  1.00  0.00     0.017 A 
HETATM    4  C14 UNL     1       1.156  -0.027  -2.832  1.00  0.00    -0.009 A 
HETATM    5  C15 UNL     1       2.361  -0.183  -3.446  1.00  0.00     0.016 A 
HETATM    6  C16 UNL     1       3.476   0.444  -2.941  1.00  0.00     0.030 A 
HETATM    7  C17 UNL     1       3.453   1.248  -1.818  1.00  0.00     0.032 A 
HETATM    8  C27 UNL     1       2.209   1.385  -1.218  1.00  0.00     0.059 A 
HETATM    9  C28 UNL     1       1.077   0.764  -1.708  1.00  0.00     0.046 A 
HETATM   10  N8  UNL     1      -0.121   0.934  -1.074  1.00  0.00    -0.342 N 
ATOM     11  H8  UNL     1      -0.157   1.523  -0.242  1.00  0.00     0.167 HD
ENDROOT
BRANCH   1  12
HETATM   12  N4  UNL     1      -2.493   0.524  -0.839  1.00  0.00    -0.361 N 
HETATM   13  C10 UNL     1      -3.623  -0.272  -1.217  1.00  0.00     0.183 C 
HETATM   14  C3  UNL     1      -4.685  -0.312  -0.189  1.00  0.00     0.054 A 
HETATM   15  C2  UNL     1      -4.889   0.789   0.598  1.00  0.00     0.015 A 
HETATM   16  N2  UNL     1      -5.574  -1.214   0.213  1.00  0.00    -0.294 N 
HETATM   17  C1  UNL     1      -5.923   0.500   1.471  1.00  0.00     0.129 A 
HETATM   18  C30 UNL     1      -4.025   1.979   0.383  1.00  0.00     0.064 C 
HETATM   19  N3  UNL     1      -6.323  -0.752   1.201  1.00  0.00    -0.240 N 
HETATM   20  C29 UNL     1      -2.597   1.504   0.206  1.00  0.00     0.129 C 
ATOM     21  H2  UNL     1      -5.667  -2.146  -0.190  1.00  0.00     0.187 HD
BRANCH  17  22
HETATM   22  N1  UNL     1      -6.416   1.264   2.361  1.00  0.00    -0.384 N 
ATOM     23  H12 UNL     1      -6.112   2.216   2.566  1.00  0.00     0.157 HD
ATOM     24  H11 UNL     1      -7.178   1.051   3.005  1.00  0.00     0.157 HD
ENDBRANCH  17  22
BRANCH  19  25
HETATM   25  C4  UNL     1      -7.348  -1.536   1.803  1.00  0.00     0.058 A 
HETATM   26  C5  UNL     1      -7.451  -1.684   3.178  1.00  0.00     0.031 A 
HETATM   27  C6  UNL     1      -8.441  -2.447   3.759  1.00  0.00     0.002 A 
HETATM   28  C7  UNL     1      -9.378  -3.099   2.992  1.00  0.00     0.000 A 
HETATM   29  C8  UNL     1      -9.293  -2.964   1.623  1.00  0.00     0.002 A 
HETATM   30  C9  UNL     1      -8.291  -2.194   1.043  1.00  0.00     0.031 A 
ENDBRANCH  19  25
ENDBRANCH   1  12
BRANCH   7  31
HETATM   31  N5  UNL     1       4.594   1.910  -1.290  1.00  0.00    -0.378 N 
HETATM   32  C18 UNL     1       5.800   2.054  -2.064  1.00  0.00     0.143 C 
HETATM   33  C19 UNL     1       6.840   1.135  -1.416  1.00  0.00     0.144 C 
HETATM   34  N6  UNL     1       6.557   1.118  -0.007  1.00  0.00    -0.364 N 
HETATM   35  C25 UNL     1       5.923   2.259   0.652  1.00  0.00     0.144 C 
HETATM   36  C26 UNL     1       4.549   2.445   0.068  1.00  0.00     0.143 C 
BRANCH  34  37
HETATM   37  C20 UNL     1       6.893  -0.015   0.799  1.00  0.00     0.102 A 
HETATM   38  C21 UNL     1       7.598  -1.076   0.282  1.00  0.00     0.048 A 
HETATM   39  C22 UNL     1       7.908  -2.174   1.087  1.00  0.00     0.005 A 
HETATM   40  C23 UNL     1       7.507  -2.195   2.408  1.00  0.00     0.017 A 
HETATM   41  C24 UNL     1       6.807  -1.116   2.885  1.00  0.00     0.089 A 
HETATM   42  N7  UNL     1       6.524  -0.079   2.088  1.00  0.00    -0.352 N 
ATOM     43  H7  UNL     1       6.001   0.704   2.480  1.00  0.00     0.166 HD
ENDBRANCH  34  37
ENDBRANCH   7  31
TORSDOF 5
