REMARK  11 active torsions:
REMARK  status: ('A' for Active; 'I' for Inactive)
REMARK    1  A    between atoms: N1_2  and  C2_4 
REMARK    2  A    between atoms: C3_7  and  N3_8 
REMARK    3  A    between atoms: N3_8  and  C4_10 
REMARK    4  A    between atoms: C4_10  and  C5_11 
REMARK    5  A    between atoms: C5_11  and  N4_12 
REMARK       I    between atoms: N4_12  and  C6_14 
REMARK    6  A    between atoms: C6_14  and  O2_16 
REMARK    7  A    between atoms: C9_21  and  N6_22 
REMARK    8  A    between atoms: N7_25  and  C10_26 
REMARK    9  A    between atoms: C10_26  and  C11_27 
REMARK   10  A    between atoms: C11_27  and  C12_29 
REMARK   11  A    between atoms: C12_29  and  O5_31 
ROOT
HETATM    1  C2  UNL     1       0.427   1.560  -0.154  1.00  0.00     0.681 A 
HETATM    2  N2  UNL     1      -0.728   0.858  -0.141  1.00  0.00    -0.174 N 
ATOM      3  H2  UNL     1      -1.600   1.338   0.083  1.00  0.00     0.186 HD
HETATM    4  C3  UNL     1      -0.756  -0.446  -0.414  1.00  0.00     0.152 A 
HETATM    5  C8  UNL     1       0.478  -1.053  -0.716  1.00  0.00     0.139 A 
HETATM    6  N5  UNL     1       0.826  -2.300  -1.030  1.00  0.00    -0.184 N 
ATOM      7  H5  UNL     1       0.179  -3.085  -1.106  1.00  0.00     0.184 HD
HETATM    8  C9  UNL     1       2.151  -2.373  -1.232  1.00  0.00     0.680 A 
HETATM    9  N7  UNL     1       2.679  -1.152  -1.047  1.00  0.00    -0.158 N 
HETATM   10  C14 UNL     1       1.644  -0.332  -0.727  1.00  0.00     0.170 A 
HETATM   11  N8  UNL     1       1.598   0.981  -0.442  1.00  0.00    -0.173 N 
ATOM     12  H8  UNL     1       2.455   1.535  -0.445  1.00  0.00     0.186 HD
ENDROOT
BRANCH   4  13
HETATM   13  N3  UNL     1      -1.741  -1.183  -0.432  1.00  0.00    -0.352 N 
ATOM     14  H3  UNL     1      -1.404  -2.114  -0.677  1.00  0.00     0.166 HD
BRANCH  13  15
HETATM   15  C4  UNL     1      -3.095  -1.289  -0.264  1.00  0.00     0.082 C 
BRANCH  15  16
HETATM   16  C5  UNL     1      -3.818  -0.027   0.166  1.00  0.00     0.169 C 
BRANCH  16  17
HETATM   17  N4  UNL     1      -5.254  -0.343   0.294  1.00  0.00    -0.332 N 
HETATM   18  C6  UNL     1      -6.110   0.717   0.691  1.00  0.00     0.360 C 
HETATM   19  O1  UNL     1      -5.691   1.868   0.926  1.00  0.00    -0.239 OA
ATOM     20  H4  UNL     1      -5.614  -1.279   0.106  1.00  0.00     0.165 HD
BRANCH  18  21
HETATM   21  O2  UNL     1      -7.486   0.523   0.842  1.00  0.00    -0.309 OA
HETATM   22  C7  UNL     1      -8.371   1.538   1.232  1.00  0.00     0.215 C 
ENDBRANCH  18  21
ENDBRANCH  16  17
ENDBRANCH  15  16
ENDBRANCH  13  15
ENDBRANCH   4  13
BRANCH   1  23
HETATM   23  N1  UNL     1       0.429   2.821   0.113  1.00  0.00    -0.230 N 
HETATM   24  C1  UNL     1      -0.825   3.464   0.426  1.00  0.00     0.165 C 
ATOM     25  H1  UNL     1       1.299   3.354   0.103  1.00  0.00     0.177 HD
ENDBRANCH   1  23
BRANCH   8  26
HETATM   26  N6  UNL     1       2.792  -3.455  -1.551  1.00  0.00    -0.234 N 
ATOM     27  H62 UNL     1       2.391  -4.382  -1.691  1.00  0.00     0.174 HD
ATOM     28  H61 UNL     1       3.799  -3.510  -1.704  1.00  0.00     0.174 HD
ENDBRANCH   8  26
BRANCH   9  29
HETATM   29  C10 UNL     1       4.062  -0.836  -1.174  1.00  0.00     0.239 C 
BRANCH  29  30
HETATM   30  C11 UNL     1       4.818  -0.986   0.093  1.00  0.00     0.242 C 
HETATM   31  O3  UNL     1       4.250  -1.355   1.133  1.00  0.00    -0.285 OA
BRANCH  30  32
HETATM   32  C12 UNL     1       6.246  -0.690   0.090  1.00  0.00     0.330 C 
HETATM   33  O4  UNL     1       6.839  -0.316  -0.954  1.00  0.00    -0.256 OA
BRANCH  32  34
HETATM   34  O5  UNL     1       7.026  -0.807   1.237  1.00  0.00    -0.320 OA
HETATM   35  C13 UNL     1       8.406  -0.511   1.194  1.00  0.00     0.213 C 
ENDBRANCH  32  34
ENDBRANCH  30  32
ENDBRANCH  29  30
ENDBRANCH   9  29
TORSDOF 11
