REMARK  6 active torsions:
REMARK  status: ('A' for Active; 'I' for Inactive)
REMARK    1  A    between atoms: C2_2  and  N1_3 
REMARK    2  A    between atoms: N2_6  and  C5_7 
REMARK    3  A    between atoms: C5_7  and  N3_9 
REMARK    4  A    between atoms: N3_9  and  C6_11 
REMARK    5  A    between atoms: C6_11  and  O1_13 
REMARK    6  A    between atoms: O1_13  and  C7_14 
ROOT
HETATM    1  C5  UNL     1       1.539  -0.499   0.198  1.00  0.00     0.176 C 
HETATM    2  S1  UNL     1       2.221   0.196   1.506  1.00  0.00    -0.041 SA
ENDROOT
BRANCH   1   3
HETATM    3  N2  UNL     1       0.123  -0.543   0.125  1.00  0.00    -0.355 N 
HETATM    4  C4  UNL     1      -0.621  -1.131  -0.958  1.00  0.00     0.144 C 
HETATM    5  C3  UNL     1      -1.894  -0.279  -1.135  1.00  0.00     0.136 C 
HETATM    6  N1  UNL     1      -2.724  -0.546  -0.019  1.00  0.00    -0.410 N 
HETATM    7  C9  UNL     1      -2.050  -0.617   1.236  1.00  0.00     0.136 C 
HETATM    8  C8  UNL     1      -0.685   0.036   1.211  1.00  0.00     0.144 C 
BRANCH   6   9
HETATM    9  C2  UNL     1      -4.025   0.002  -0.020  1.00  0.00     0.112 C 
HETATM   10  C1  UNL     1      -4.134   1.483   0.100  1.00  0.00     0.026 C 
ENDBRANCH   6   9
ENDBRANCH   1   3
BRANCH   1  11
HETATM   11  N3  UNL     1       2.325  -1.061  -0.829  1.00  0.00    -0.304 N 
ATOM     12  H3  UNL     1       1.824  -1.497  -1.603  1.00  0.00     0.171 HD
BRANCH  11  13
HETATM   13  C6  UNL     1       3.734  -1.081  -0.894  1.00  0.00     0.225 C 
HETATM   14  S2  UNL     1       4.429  -1.817  -2.192  1.00  0.00    -0.032 SA
BRANCH  13  15
HETATM   15  O1  UNL     1       4.553  -0.508   0.090  1.00  0.00    -0.235 OA
BRANCH  15  16
HETATM   16  C7  UNL     1       5.005   0.797  -0.061  1.00  0.00     0.379 C 
HETATM   17  N4  UNL     1       5.832   1.474   0.875  1.00  0.00    -0.032 NA
HETATM   18  O2  UNL     1       4.639   1.401  -1.112  1.00  0.00    -0.242 OA
ENDBRANCH  15  16
ENDBRANCH  13  15
ENDBRANCH  11  13
ENDBRANCH   1  11
TORSDOF 6
