REMARK  14 active torsions:
REMARK  status: ('A' for Active; 'I' for Inactive)
REMARK    1  A    between atoms: C2_2  and  N1_3 
REMARK    2  A    between atoms: N3_10  and  C5_11 
REMARK    3  A    between atoms: C6_13  and  C7_14 
REMARK    4  A    between atoms: C7_14  and  O4_15 
REMARK    5  A    between atoms: C7_14  and  O5_17 
REMARK    6  A    between atoms: N4_19  and  C8_20 
REMARK    7  A    between atoms: C10_23  and  N5_24 
REMARK    8  A    between atoms: N5_24  and  C11_27 
REMARK    9  A    between atoms: C11_27  and  O7_28 
REMARK   10  A    between atoms: C11_27  and  C12_30 
REMARK   11  A    between atoms: C12_30  and  O8_31 
REMARK   12  A    between atoms: C12_30  and  C13_33 
REMARK   13  A    between atoms: C13_33  and  O9_35 
REMARK   14  A    between atoms: C15_37  and  O10_38 
ROOT
HETATM    1  C5  UNL     1       1.392  -0.931  -0.176  1.00  0.00     0.271 C 
HETATM    2  O3  UNL     1       1.775  -2.234  -0.153  1.00  0.00    -0.334 OA
HETATM    3  C6  UNL     1       0.769  -3.174  -0.270  1.00  0.00     0.283 C 
HETATM    4  N4  UNL     1      -0.460  -2.873   0.363  1.00  0.00    -0.326 N 
HETATM    5  C9  UNL     1      -1.221  -1.625   0.467  1.00  0.00     0.163 C 
HETATM    6  C10 UNL     1      -1.051  -0.712  -0.689  1.00  0.00     0.239 C 
HETATM    7  C15 UNL     1       0.360  -0.599  -1.210  1.00  0.00     0.200 C 
ENDROOT
BRANCH   6   8
HETATM    8  N5  UNL     1      -1.583   0.597  -0.356  1.00  0.00    -0.038 N 
ATOM      9  H52 UNL     1      -1.067   1.006   0.423  1.00  0.00     0.281 HD
ATOM     10  H51 UNL     1      -1.356   1.272  -1.086  1.00  0.00     0.281 HD
BRANCH   8  11
HETATM   11  C11 UNL     1      -3.001   0.602  -0.083  1.00  0.00     0.350 C 
BRANCH  11  12
HETATM   12  O7  UNL     1      -3.274   0.213   1.255  1.00  0.00    -0.368 OA
ATOM     13  H7  UNL     1      -4.207   0.216   1.435  1.00  0.00     0.212 HD
ENDBRANCH  11  12
BRANCH  11  14
HETATM   14  C12 UNL     1      -3.444   2.063  -0.126  1.00  0.00     0.202 C 
BRANCH  14  15
HETATM   15  O8  UNL     1      -3.204   2.652  -1.353  1.00  0.00    -0.389 OA
ATOM     16  H8  UNL     1      -3.480   3.561  -1.380  1.00  0.00     0.210 HD
ENDBRANCH  14  15
BRANCH  14  17
HETATM   17  C13 UNL     1      -4.909   2.220   0.219  1.00  0.00     0.147 C 
HETATM   18  C14 UNL     1      -5.784   1.692  -0.911  1.00  0.00     0.042 C 
BRANCH  17  19
HETATM   19  O9  UNL     1      -5.143   3.606   0.262  1.00  0.00    -0.393 OA
ATOM     20  H9  UNL     1      -6.063   3.705   0.479  1.00  0.00     0.210 HD
ENDBRANCH  17  19
ENDBRANCH  14  17
ENDBRANCH  11  14
ENDBRANCH   8  11
ENDBRANCH   6   8
BRANCH   7  21
HETATM   21  O10 UNL     1       0.552  -1.249  -2.423  1.00  0.00    -0.389 OA
ATOM     22  H10 UNL     1      -0.102  -1.038  -3.079  1.00  0.00     0.210 HD
ENDBRANCH   7  21
BRANCH   4  23
HETATM   23  C8  UNL     1      -1.090  -3.955   1.025  1.00  0.00     0.353 C 
HETATM   24  O6  UNL     1      -2.206  -3.775   1.624  1.00  0.00    -0.283 OA
ENDBRANCH   4  23
BRANCH   1  25
HETATM   25  N3  UNL     1       2.571  -0.096  -0.337  1.00  0.00    -0.220 N 
HETATM   26  C4  UNL     1       3.640  -0.455  -1.074  1.00  0.00     0.336 A 
HETATM   27  N2  UNL     1       4.727   0.328  -1.218  1.00  0.00    -0.260 N 
HETATM   28  O2  UNL     1       3.591  -1.587  -1.645  1.00  0.00    -0.246 OA
HETATM   29  C3  UNL     1       4.726   1.517  -0.591  1.00  0.00     0.334 A 
ATOM     30  H2  UNL     1       5.522   0.029  -1.783  1.00  0.00     0.175 HD
HETATM   31  N1  UNL     1       3.695   1.942   0.161  1.00  0.00    -0.251 N 
HETATM   32  O1  UNL     1       5.716   2.279  -0.697  1.00  0.00    -0.246 OA
HETATM   33  C16 UNL     1       2.639   1.118   0.267  1.00  0.00     0.338 A 
HETATM   34  O11 UNL     1       1.671   1.524   0.977  1.00  0.00    -0.246 OA
BRANCH  31  35
HETATM   35  C2  UNL     1       3.711   3.243   0.835  1.00  0.00     0.134 C 
HETATM   36  C1  UNL     1       4.288   3.172   2.209  1.00  0.00     0.027 C 
ENDBRANCH  31  35
ENDBRANCH   1  25
BRANCH   3  37
HETATM   37  C7  UNL     1       1.372  -4.458   0.290  1.00  0.00     0.303 C 
BRANCH  37  38
HETATM   38  O4  UNL     1       1.558  -4.263   1.647  1.00  0.00    -0.367 OA
ATOM     39  H4  UNL     1       1.934  -5.063   1.996  1.00  0.00     0.212 HD
ENDBRANCH  37  38
BRANCH  37  40
HETATM   40  O5  UNL     1       2.650  -4.553  -0.298  1.00  0.00    -0.367 OA
ATOM     41  H5  UNL     1       3.026  -5.353   0.051  1.00  0.00     0.212 HD
ENDBRANCH  37  40
ENDBRANCH   3  37
TORSDOF 14
