REMARK  9 active torsions:
REMARK  status: ('A' for Active; 'I' for Inactive)
REMARK    1  A    between atoms: C2_2  and  C4_4 
REMARK    2  A    between atoms: C4_4  and  C5_5 
REMARK    3  A    between atoms: C5_5  and  C6_6 
REMARK    4  A    between atoms: C5_5  and  N4_16 
REMARK    5  A    between atoms: C6_6  and  N1_7 
REMARK    6  A    between atoms: C8_11  and  C9_12 
REMARK    7  A    between atoms: N4_16  and  C11_19 
REMARK    8  A    between atoms: C11_19  and  C12_20 
REMARK       I    between atoms: C12_20  and  N5_22 
REMARK    9  A    between atoms: N5_22  and  N6_24 
ROOT
HETATM    1  C5  UNL     1       0.281   0.639  -0.075  1.00  0.00     0.205 C 
ENDROOT
BRANCH   1   2
HETATM    2  C4  UNL     1       1.210   1.690  -0.534  1.00  0.00     0.038 C 
BRANCH   2   3
HETATM    3  C2  UNL     1       0.973   3.118  -0.234  1.00  0.00    -0.021 C 
HETATM    4  C1  UNL     1       2.201   3.905  -0.816  1.00  0.00     0.009 C 
HETATM    5  C3  UNL     1      -0.200   3.773  -0.914  1.00  0.00     0.009 C 
ENDBRANCH   2   3
ENDBRANCH   1   2
BRANCH   1   6
HETATM    6  C6  UNL     1      -1.100   0.810  -0.590  1.00  0.00     0.162 C 
BRANCH   6   7
HETATM    7  N1  UNL     1      -2.031  -0.246  -0.190  1.00  0.00    -0.349 N 
HETATM    8  C7  UNL     1      -2.335  -1.366  -0.839  1.00  0.00     0.183 A 
HETATM    9  N2  UNL     1      -3.247  -2.072  -0.110  1.00  0.00    -0.347 N 
HETATM   10  C8  UNL     1      -3.519  -1.387   1.011  1.00  0.00     0.114 A 
ATOM     11  H2  UNL     1      -3.654  -2.970  -0.373  1.00  0.00     0.167 HD
HETATM   12  C10 UNL     1      -2.740  -0.237   0.940  1.00  0.00     0.126 A 
BRANCH  10  13
HETATM   13  C9  UNL     1      -4.430  -1.723   2.104  1.00  0.00     0.282 C 
HETATM   14  N3  UNL     1      -5.191  -2.919   2.021  1.00  0.00    -0.056 NA
HETATM   15  O1  UNL     1      -4.536  -0.970   3.092  1.00  0.00    -0.269 OA
ENDBRANCH  10  13
ENDBRANCH   6   7
ENDBRANCH   1   6
BRANCH   1  16
HETATM   16  N4  UNL     1       0.774  -0.673  -0.486  1.00  0.00    -0.061 N 
ATOM     17  H42 UNL     1       0.084  -1.393  -0.273  1.00  0.00     0.278 HD
ATOM     18  H41 UNL     1       0.792  -0.742  -1.504  1.00  0.00     0.278 HD
BRANCH  16  19
HETATM   19  C11 UNL     1       2.050  -1.029   0.060  1.00  0.00     0.336 C 
BRANCH  19  20
HETATM   20  C12 UNL     1       2.356  -2.418  -0.366  1.00  0.00     0.261 C 
HETATM   21  O2  UNL     1       1.538  -3.031  -1.076  1.00  0.00    -0.270 OA
HETATM   22  N5  UNL     1       3.553  -3.040   0.026  1.00  0.00    -0.275 N 
ATOM     23  H5  UNL     1       4.219  -2.532   0.608  1.00  0.00     0.189 HD
BRANCH  22  24
HETATM   24  N6  UNL     1       3.841  -4.350  -0.374  1.00  0.00    -0.343 N 
ATOM     25  H62 UNL     1       3.164  -4.844  -0.956  1.00  0.00     0.176 HD
ATOM     26  H61 UNL     1       4.710  -4.802  -0.089  1.00  0.00     0.176 HD
ENDBRANCH  22  24
ENDBRANCH  19  20
ENDBRANCH  16  19
ENDBRANCH   1  16
TORSDOF 9
