REMARK  5 active torsions:
REMARK  status: ('A' for Active; 'I' for Inactive)
REMARK    1  A    between atoms: N2_3  and  C2_5 
REMARK    2  A    between atoms: C2_5  and  C3_6 
REMARK    3  A    between atoms: N3_7  and  N4_9 
REMARK    4  A    between atoms: C4_11  and  S1_12 
REMARK    5  A    between atoms: S1_12  and  C5_13 
ROOT
HETATM    1  N1  UNL     1      -4.584  -0.701   1.814  1.00  0.00    -0.172 NA
HETATM    2  C1  UNL     1      -4.214  -0.395   0.760  1.00  0.00     0.177 C 
HETATM    3  N2  UNL     1      -3.793  -0.028  -0.518  1.00  0.00    -0.324 N 
ATOM      4  H2  UNL     1      -4.235  -0.474  -1.322  1.00  0.00     0.172 HD
ENDROOT
BRANCH   3   5
HETATM    5  C2  UNL     1      -2.764   0.950  -0.756  1.00  0.00     0.177 C 
BRANCH   5   6
HETATM    6  C3  UNL     1      -1.454   0.398  -0.289  1.00  0.00     0.100 C 
HETATM    7  N3  UNL     1      -0.430   0.718  -1.005  1.00  0.00    -0.314 N 
ATOM      8  H3  UNL     1      -0.550   1.310  -1.827  1.00  0.00     0.185 HD
BRANCH   7   9
HETATM    9  N4  UNL     1       0.823   0.264  -0.664  1.00  0.00    -0.306 N 
HETATM   10  C4  UNL     1       1.095  -0.732   0.095  1.00  0.00     0.161 C 
ATOM     11  H4  UNL     1       1.616   0.772  -1.055  1.00  0.00     0.186 HD
BRANCH  10  12
HETATM   12  S1  UNL     1       2.829  -1.092   0.362  1.00  0.00    -0.026 SA
BRANCH  12  13
HETATM   13  C5  UNL     1       3.768   0.406   0.367  1.00  0.00     0.298 C 
HETATM   14  N5  UNL     1       5.172   0.404   0.558  1.00  0.00    -0.051 NA
HETATM   15  O1  UNL     1       3.205   1.518   0.200  1.00  0.00    -0.263 OA
ENDBRANCH  12  13
ENDBRANCH  10  12
ENDBRANCH   7   9
ENDBRANCH   5   6
ENDBRANCH   3   5
TORSDOF 5
