REMARK  2 active torsions:
REMARK  status: ('A' for Active; 'I' for Inactive)
REMARK    1  A    between atoms: N1_1  and  C1_5 
REMARK    2  A    between atoms: C7_12  and  O1_13 
ROOT
HETATM    1  C1  UNL     1       1.304   0.168  -0.814  1.00  0.00     0.231 C 
HETATM    2  C2  UNL     1       1.057   1.125   0.349  1.00  0.00     0.158 C 
HETATM    3  N2  UNL     1      -0.345   0.962   0.536  1.00  0.00    -0.381 N 
HETATM    4  C3  UNL     1      -1.594   1.582   0.685  1.00  0.00     0.082 C 
HETATM    5  C4  UNL     1      -2.577   0.697   0.489  1.00  0.00    -0.008 C 
HETATM    6  C5  UNL     1      -2.024  -0.649   0.179  1.00  0.00     0.056 C 
HETATM    7  C6  UNL     1      -0.573  -0.475   0.587  1.00  0.00     0.118 C 
HETATM    8  C7  UNL     1       0.399  -0.971  -0.459  1.00  0.00     0.173 C 
ENDROOT
BRANCH   1   9
HETATM    9  N1  UNL     1       2.691  -0.223  -0.899  1.00  0.00    -0.071 N 
ATOM     10  H13 UNL     1       3.304   0.591  -0.950  1.00  0.00     0.274 HD
ATOM     11  H12 UNL     1       3.021  -0.616  -0.018  1.00  0.00     0.274 HD
ATOM     12  H11 UNL     1       2.856  -0.863  -1.676  1.00  0.00     0.274 HD
ENDBRANCH   1   9
BRANCH   8  13
HETATM   13  O1  UNL     1       1.160  -2.055   0.009  1.00  0.00    -0.391 OA
ATOM     14  H1  UNL     1       0.586  -2.778   0.234  1.00  0.00     0.210 HD
ENDBRANCH   8  13
TORSDOF 2
