REMARK  8 active torsions:
REMARK  status: ('A' for Active; 'I' for Inactive)
REMARK    1  A    between atoms: C2_3  and  C3_5 
REMARK    2  A    between atoms: C4_6  and  N2_7 
REMARK    3  A    between atoms: N2_7  and  C5_9 
REMARK    4  A    between atoms: C5_9  and  O2_11 
REMARK    5  A    between atoms: N4_18  and  N5_19 
REMARK    6  A    between atoms: N5_19  and  C10_21 
REMARK    7  A    between atoms: C15_32  and  C16_33 
REMARK    8  A    between atoms: C16_33  and  O4_35 
ROOT
HETATM    1  C1  UNL     1       2.013  -3.501   1.780  1.00  0.00     0.233 C 
HETATM    2  N1  UNL     1       2.697  -2.390   1.577  1.00  0.00    -0.390 NA
HETATM    3  C2  UNL     1       3.417  -1.226   1.366  1.00  0.00     0.345 C 
HETATM    4  O1  UNL     1       4.614  -0.979   1.600  1.00  0.00    -0.249 OA
ENDROOT
BRANCH   3   5
HETATM    5  C3  UNL     1       2.666  -0.070   0.768  1.00  0.00     0.167 A 
HETATM    6  C4  UNL     1       3.206   1.140   0.415  1.00  0.00     0.093 A 
HETATM    7  C7  UNL     1       2.145   1.926   0.024  1.00  0.00     0.109 A 
HETATM    8  N3  UNL     1       2.173   3.251  -0.414  1.00  0.00    -0.097 NA
HETATM    9  C8  UNL     1       0.993   1.158   0.151  1.00  0.00     0.153 A 
HETATM   10  C9  UNL     1      -0.334   1.441  -0.074  1.00  0.00     0.299 A 
HETATM   11  N12 UNL     1       1.331  -0.056   0.606  1.00  0.00    -0.238 N 
HETATM   12  O3  UNL     1      -0.603   2.600  -0.502  1.00  0.00    -0.263 OA
HETATM   13  N4  UNL     1      -1.362   0.546   0.140  1.00  0.00    -0.195 N 
HETATM   14  C15 UNL     1      -0.978  -0.642   0.586  1.00  0.00     0.194 A 
HETATM   15  N11 UNL     1       0.361  -0.908   0.807  1.00  0.00    -0.273 N 
ATOM     16  H11 UNL     1       0.609  -1.835   1.151  1.00  0.00     0.189 HD
BRANCH   6  17
HETATM   17  N2  UNL     1       4.594   1.505   0.408  1.00  0.00    -0.360 N 
ATOM     18  H2  UNL     1       5.018   1.733   1.307  1.00  0.00     0.162 HD
BRANCH  17  19
HETATM   19  C5  UNL     1       5.429   1.578  -0.734  1.00  0.00     0.213 C 
HETATM   20  C6  UNL     1       5.568   0.365  -1.574  1.00  0.00     0.063 C 
BRANCH  19  21
HETATM   21  O2  UNL     1       5.080   2.635  -1.590  1.00  0.00    -0.377 OA
ATOM     22  H2  UNL     1       5.640   2.684  -2.356  1.00  0.00     0.212 HD
ENDBRANCH  19  21
ENDBRANCH  17  19
ENDBRANCH   6  17
BRANCH  13  23
HETATM   23  N5  UNL     1      -2.622   1.020  -0.099  1.00  0.00    -0.271 N 
ATOM     24  H5  UNL     1      -2.555   1.964  -0.480  1.00  0.00     0.189 HD
BRANCH  23  25
HETATM   25  C10 UNL     1      -3.936   0.672  -0.006  1.00  0.00     0.160 A 
HETATM   26  N6  UNL     1      -4.661   0.524   1.135  1.00  0.00    -0.282 N 
HETATM   27  N7  UNL     1      -5.940   0.285   1.185  1.00  0.00    -0.289 N 
ATOM     28  H6  UNL     1      -4.164   0.607   2.022  1.00  0.00     0.188 HD
HETATM   29  C11 UNL     1      -6.662   0.162   0.088  1.00  0.00     0.130 A 
ATOM     30  H7  UNL     1      -6.394   0.191   2.093  1.00  0.00     0.188 HD
HETATM   31  C12 UNL     1      -8.093  -0.104   0.188  1.00  0.00     0.119 C 
HETATM   32  C13 UNL     1      -6.055   0.288  -1.141  1.00  0.00     0.073 A 
HETATM   33  N8  UNL     1      -9.225  -0.334   0.252  1.00  0.00    -0.190 NA
HETATM   34  C14 UNL     1      -4.706   0.541  -1.176  1.00  0.00     0.096 A 
HETATM   35  N9  UNL     1      -4.035   0.690  -2.403  1.00  0.00    -0.098 NA
ENDBRANCH  23  25
ENDBRANCH  13  23
BRANCH  14  36
HETATM   36  C16 UNL     1      -1.914  -1.786   0.839  1.00  0.00     0.197 C 
HETATM   37  N10 UNL     1      -2.712  -2.205  -0.237  1.00  0.00    -0.071 NA
BRANCH  36  38
HETATM   38  O4  UNL     1      -2.513  -1.714   2.102  1.00  0.00    -0.346 OA
ATOM     39  H4  UNL     1      -3.106  -2.439   2.262  1.00  0.00     0.219 HD
ENDBRANCH  36  38
ENDBRANCH  14  36
ENDBRANCH   3   5
TORSDOF 7
