REMARK  13 active torsions:
REMARK  status: ('A' for Active; 'I' for Inactive)
REMARK    1  A    between atoms: C2_2  and  C11_28 
REMARK    2  A    between atoms: N1_3  and  C3_5 
REMARK    3  A    between atoms: C4_6  and  C5_7 
REMARK       I    between atoms: C5_7  and  N2_9 
REMARK    4  A    between atoms: N2_9  and  C6_10 
REMARK    5  A    between atoms: N2_9  and  S2_17 
REMARK    6  A    between atoms: C6_10  and  C7_11 
REMARK    7  A    between atoms: C7_11  and  S1_12 
REMARK    8  A    between atoms: S1_12  and  C8_13 
REMARK    9  A    between atoms: C8_13  and  C9_14 
REMARK   10  A    between atoms: C9_14  and  O2_15 
REMARK   11  A    between atoms: N7_32  and  N8_33 
REMARK   12  A    between atoms: C13_36  and  N9_37 
REMARK   13  A    between atoms: C16_45  and  O9_46 
ROOT
HETATM    1  C1  UNL     1      -2.547   1.700   1.363  1.00  0.00     0.071 C 
HETATM    2  C2  UNL     1      -2.143   0.944   0.153  1.00  0.00     0.040 C 
HETATM    3  N1  UNL     1      -1.107   1.338  -0.441  1.00  0.00    -0.376 N 
ATOM      4  H1  UNL     1      -0.702   2.147   0.029  1.00  0.00     0.160 HD
ENDROOT
BRANCH   3   5
HETATM    5  C3  UNL     1      -0.358   0.984  -1.556  1.00  0.00     0.214 C 
HETATM    6  C4  UNL     1       1.110   1.329  -1.331  1.00  0.00     0.129 C 
HETATM    7  N3  UNL     1       1.309   2.450  -1.893  1.00  0.00    -0.259 N 
HETATM    8  O6  UNL     1       0.179   2.954  -2.491  1.00  0.00    -0.228 OA
ATOM      9  H3  UNL     1       2.211   2.926  -1.900  1.00  0.00     0.194 HD
HETATM   10  C10 UNL     1      -0.612   1.818  -2.794  1.00  0.00     0.288 A 
HETATM   11  N4  UNL     1      -1.952   2.064  -3.176  1.00  0.00    -0.068 NA
HETATM   12  N6  UNL     1      -0.375   1.197  -4.057  1.00  0.00    -0.068 NA
HETATM   13  N5  UNL     1      -1.734   1.347  -4.360  1.00  0.00    -0.031 NA
BRANCH   6  14
HETATM   14  C5  UNL     1       2.025   0.471  -0.598  1.00  0.00     0.285 C 
HETATM   15  O1  UNL     1       1.544  -0.621  -0.135  1.00  0.00    -0.265 OA
HETATM   16  N2  UNL     1       3.393   0.761  -0.368  1.00  0.00    -0.220 N 
BRANCH  16  17
HETATM   17  C6  UNL     1       4.193  -0.223   0.397  1.00  0.00     0.158 C 
BRANCH  17  18
HETATM   18  C7  UNL     1       4.833  -1.206  -0.523  1.00  0.00     0.095 C 
BRANCH  18  19
HETATM   19  S1  UNL     1       5.775  -2.444   0.300  1.00  0.00    -0.165 SA
BRANCH  19  20
HETATM   20  C8  UNL     1       7.300  -1.980   1.080  1.00  0.00     0.100 C 
BRANCH  20  21
HETATM   21  C9  UNL     1       7.150  -1.117   2.298  1.00  0.00     0.174 C 
BRANCH  21  22
HETATM   22  O2  UNL     1       6.361  -1.769   3.244  1.00  0.00    -0.400 OA
ATOM     23  H2  UNL     1       6.266  -1.223   4.015  1.00  0.00     0.209 HD
ENDBRANCH  21  22
ENDBRANCH  20  21
ENDBRANCH  19  20
ENDBRANCH  18  19
ENDBRANCH  17  18
ENDBRANCH  16  17
BRANCH  16  24
HETATM   24  S2  UNL     1       4.201   2.174  -0.907  1.00  0.00     0.213 S 
HETATM   25  O3  UNL     1       5.667   2.150  -0.487  1.00  0.00    -0.578 OA
HETATM   26  O4  UNL     1       3.646   3.437  -0.318  1.00  0.00    -0.578 OA
HETATM   27  O5  UNL     1       4.214   2.293  -2.591  1.00  0.00    -0.578 OA
ENDBRANCH  16  24
ENDBRANCH   6  14
ENDBRANCH   3   5
BRANCH   2  28
HETATM   28  C11 UNL     1      -2.904  -0.188  -0.319  1.00  0.00     0.150 A 
HETATM   29  O7  UNL     1      -2.603  -0.917  -1.409  1.00  0.00    -0.254 OA
HETATM   30  C12 UNL     1      -3.450  -1.866  -1.598  1.00  0.00     0.393 A 
HETATM   31  O8  UNL     1      -3.460  -2.738  -2.534  1.00  0.00    -0.236 OA
HETATM   32  N7  UNL     1      -4.367  -1.816  -0.636  1.00  0.00    -0.184 N 
HETATM   33  C13 UNL     1      -4.035  -0.750   0.191  1.00  0.00     0.192 A 
BRANCH  32  34
HETATM   34  N8  UNL     1      -5.481  -2.631  -0.417  1.00  0.00    -0.332 N 
ATOM     35  H82 UNL     1      -5.725  -3.414  -1.024  1.00  0.00     0.177 HD
ATOM     36  H81 UNL     1      -6.184  -2.593   0.321  1.00  0.00     0.177 HD
ENDBRANCH  32  34
BRANCH  33  37
HETATM   37  N9  UNL     1      -4.803  -0.411   1.324  1.00  0.00    -0.211 N 
HETATM   38  N10 UNL     1      -5.618   0.602   1.445  1.00  0.00    -0.275 N 
HETATM   39  C14 UNL     1      -6.210   0.605   2.654  1.00  0.00     0.118 A 
ATOM     40  H10 UNL     1      -5.784   1.299   0.719  1.00  0.00     0.189 HD
HETATM   41  N11 UNL     1      -7.066   1.482   3.067  1.00  0.00    -0.384 N 
HETATM   42  C15 UNL     1      -5.727  -0.489   3.338  1.00  0.00     0.107 A 
ATOM     43 2H11 UNL     1      -7.424   2.292   2.561  1.00  0.00     0.157 HD
ATOM     44 1H11 UNL     1      -7.515   1.484   3.983  1.00  0.00     0.157 HD
HETATM   45  C16 UNL     1      -4.843  -1.105   2.469  1.00  0.00     0.167 A 
BRANCH  45  46
HETATM   46  O9  UNL     1      -4.138  -2.248   2.770  1.00  0.00    -0.345 OA
ATOM     47  H9  UNL     1      -4.166  -2.740   3.582  1.00  0.00     0.219 HD
ENDBRANCH  45  46
ENDBRANCH  33  37
ENDBRANCH   2  28
TORSDOF 13
