REMARK  8 active torsions:
REMARK  status: ('A' for Active; 'I' for Inactive)
REMARK    1  A    between atoms: C2_2  and  C3_3 
REMARK    2  A    between atoms: C3_3  and  C4_4 
REMARK    3  A    between atoms: C4_4  and  C5_5 
REMARK    4  A    between atoms: C7_10  and  C8_11 
REMARK    5  A    between atoms: C14_21  and  C15_22 
REMARK    6  A    between atoms: C15_22  and  C16_23 
REMARK    7  A    between atoms: C16_23  and  C17_24 
REMARK    8  A    between atoms: C17_24  and  N3_25 
ROOT
HETATM    1  C5  UNL     1       2.631  -0.231   0.044  1.00  0.00     0.177 C 
HETATM    2  N1  UNL     1       2.958   1.200   0.051  1.00  0.00    -0.346 N 
ATOM      3  H1  UNL     1       3.926   1.427   0.278  1.00  0.00     0.163 HD
HETATM    4  C6  UNL     1       2.138   2.286  -0.207  1.00  0.00     0.249 C 
HETATM    5  O1  UNL     1       2.017   3.165   0.726  1.00  0.00    -0.271 OA
HETATM    6  C7  UNL     1       1.348   2.624  -1.415  1.00  0.00     0.280 C 
HETATM    7  N2  UNL     1       0.152   3.406  -1.053  1.00  0.00    -0.062 N 
ATOM      8  H21 UNL     1       0.267   4.388  -1.304  1.00  0.00     0.278 HD
ATOM      9  H22 UNL     1       0.071   3.503  -0.041  1.00  0.00     0.278 HD
HETATM   10  C11 UNL     1      -1.062   2.863  -1.622  1.00  0.00     0.240 C 
HETATM   11  C12 UNL     1      -2.139   2.550  -0.611  1.00  0.00     0.106 C 
HETATM   12  C13 UNL     1      -2.804   1.244  -0.811  1.00  0.00     0.141 C 
HETATM   13  O2  UNL     1      -3.123   0.954  -1.947  1.00  0.00    -0.297 OA
HETATM   14  C14 UNL     1      -3.126   0.244   0.217  1.00  0.00     0.147 C 
HETATM   15  C18 UNL     1      -3.415  -1.098  -0.307  1.00  0.00     0.231 C 
HETATM   16  O3  UNL     1      -4.691  -1.254  -0.489  1.00  0.00    -0.273 OA
HETATM   17  N4  UNL     1      -2.596  -2.185  -0.629  1.00  0.00    -0.351 N 
HETATM   18  C19 UNL     1      -2.951  -2.957  -1.837  1.00  0.00     0.153 C 
HETATM   19  C20 UNL     1      -1.423  -2.687   0.066  1.00  0.00     0.166 C 
HETATM   20  C21 UNL     1      -0.461  -3.282  -0.962  1.00  0.00    -0.012 A 
HETATM   21  C22 UNL     1      -0.560  -4.625  -1.244  1.00  0.00     0.013 A 
HETATM   22  C23 UNL     1       0.196  -5.242  -2.206  1.00  0.00     0.026 A 
HETATM   23  C24 UNL     1       1.099  -4.501  -2.933  1.00  0.00     0.058 A 
HETATM   24 CL1  UNL     1       2.089  -5.248  -4.179  1.00  0.00    -0.082 Cl
HETATM   25  C25 UNL     1       1.203  -3.154  -2.654  1.00  0.00     0.083 A 
HETATM   26 CL2  UNL     1       2.324  -2.213  -3.687  1.00  0.00    -0.080 Cl
HETATM   27  C26 UNL     1       0.436  -2.532  -1.674  1.00  0.00     0.066 A 
HETATM   28  N5  UNL     1       0.713  -1.139  -1.493  1.00  0.00    -0.323 N 
ATOM     29  H5  UNL     1       0.519  -0.575  -2.321  1.00  0.00     0.169 HD
HETATM   30  C27 UNL     1       1.194  -0.397  -0.415  1.00  0.00     0.245 C 
HETATM   31  O4  UNL     1       0.474   0.272   0.362  1.00  0.00    -0.271 OA
ENDROOT
BRANCH  14  32
HETATM   32  C15 UNL     1      -4.275   0.838   1.014  1.00  0.00     0.023 C 
BRANCH  32  33
HETATM   33  C16 UNL     1      -4.767  -0.009   2.126  1.00  0.00     0.028 C 
BRANCH  33  34
HETATM   34  C17 UNL     1      -3.703  -0.316   3.161  1.00  0.00     0.229 C 
BRANCH  34  35
HETATM   35  N3  UNL     1      -4.246  -1.147   4.219  1.00  0.00    -0.079 N 
ATOM     36  H33 UNL     1      -5.076  -0.729   4.641  1.00  0.00     0.274 HD
ATOM     37  H32 UNL     1      -4.673  -1.997   3.851  1.00  0.00     0.274 HD
ATOM     38  H31 UNL     1      -3.530  -1.354   4.915  1.00  0.00     0.274 HD
ENDBRANCH  34  35
ENDBRANCH  33  34
ENDBRANCH  32  33
ENDBRANCH  14  32
BRANCH   6  39
HETATM   39  C8  UNL     1       2.192   3.598  -2.244  1.00  0.00     0.017 C 
HETATM   40  C9  UNL     1       2.496   4.849  -1.458  1.00  0.00     0.012 C 
HETATM   41  C10 UNL     1       1.506   3.992  -3.511  1.00  0.00     0.012 C 
ENDBRANCH   6  39
BRANCH   1  42
HETATM   42  C4  UNL     1       2.623  -0.729   1.497  1.00  0.00     0.035 C 
BRANCH  42  43
HETATM   43  C3  UNL     1       3.957  -0.535   2.151  1.00  0.00     0.002 C 
BRANCH  43  44
HETATM   44  C2  UNL     1       3.837  -1.058   3.572  1.00  0.00    -0.004 C 
HETATM   45  C1  UNL     1       5.118  -0.920   4.346  1.00  0.00     0.005 C 
ENDBRANCH  43  44
ENDBRANCH  42  43
ENDBRANCH   1  42
TORSDOF 8
