REMARK  17 active torsions:
REMARK  status: ('A' for Active; 'I' for Inactive)
REMARK    1  A    between atoms: N1_1  and  C1_5 
REMARK    2  A    between atoms: C1_5  and  O1_6 
REMARK    3  A    between atoms: C1_5  and  C2_8 
REMARK    4  A    between atoms: C2_8  and  N2_9 
REMARK    5  A    between atoms: C2_8  and  C17_48 
REMARK    6  A    between atoms: N2_9  and  C3_11 
REMARK    7  A    between atoms: C4_14  and  N4_15 
REMARK    8  A    between atoms: N4_15  and  C5_16 
REMARK    9  A    between atoms: C6_17  and  O2_18 
REMARK   10  A    between atoms: C7_20  and  O3_21 
REMARK   11  A    between atoms: C8_23  and  N5_24 
REMARK   12  A    between atoms: N5_24  and  C9_26 
REMARK   13  A    between atoms: C10_29  and  N6_30 
REMARK   14  A    between atoms: N10_42  and  C16_43 
REMARK   15  A    between atoms: C16_43  and  O6_44 
REMARK   16  A    between atoms: C17_48  and  O7_49 
REMARK   17  A    between atoms: C17_48  and  O8_51 
ROOT
HETATM    1  C3  UNL     1      -2.440   0.193   0.306  1.00  0.00     0.682 A 
HETATM    2  N3  UNL     1      -1.121   0.143   0.202  1.00  0.00    -0.162 N 
ATOM      3  H3  UNL     1      -0.626   0.979  -0.109  1.00  0.00     0.187 HD
HETATM    4  C4  UNL     1      -0.384  -0.986   0.494  1.00  0.00     0.218 A 
HETATM    5  C13 UNL     1      -1.060  -2.148   0.925  1.00  0.00     0.141 A 
HETATM    6  C14 UNL     1      -2.424  -2.055   1.017  1.00  0.00     0.154 A 
HETATM    7  N9  UNL     1      -2.852  -3.281   1.432  1.00  0.00    -0.336 N 
ATOM      8  H9  UNL     1      -3.820  -3.555   1.600  1.00  0.00     0.168 HD
HETATM    9  C15 UNL     1      -1.773  -4.061   1.580  1.00  0.00     0.187 A 
HETATM   10  N10 UNL     1      -0.640  -3.373   1.269  1.00  0.00    -0.314 N 
HETATM   11  N11 UNL     1      -3.078  -0.914   0.713  1.00  0.00    -0.174 N 
ATOM     12  H11 UNL     1      -4.094  -0.893   0.796  1.00  0.00     0.186 HD
ENDROOT
BRANCH   4  13
HETATM   13  N4  UNL     1       0.826  -1.023   0.354  1.00  0.00    -0.415 NA
BRANCH  13  14
HETATM   14  C5  UNL     1       2.121  -0.797   0.114  1.00  0.00     0.247 C 
HETATM   15  C6  UNL     1       2.422  -0.968  -1.389  1.00  0.00     0.191 C 
HETATM   16  C7  UNL     1       3.898  -0.930  -1.637  1.00  0.00     0.199 C 
HETATM   17  C8  UNL     1       4.341   0.469  -1.176  1.00  0.00     0.257 C 
HETATM   18  O5  UNL     1       4.042   0.567   0.153  1.00  0.00    -0.335 OA
HETATM   19  C10 UNL     1       2.672   0.591   0.434  1.00  0.00     0.285 C 
BRANCH  15  20
HETATM   20  O2  UNL     1       1.807   0.069  -2.049  1.00  0.00    -0.390 OA
ATOM     21  H2  UNL     1       1.992  -0.036  -2.975  1.00  0.00     0.210 HD
ENDBRANCH  15  20
BRANCH  16  22
HETATM   22  O3  UNL     1       4.105  -1.077  -3.006  1.00  0.00    -0.388 OA
ATOM     23  H3  UNL     1       5.042  -1.053  -3.163  1.00  0.00     0.210 HD
ENDBRANCH  16  22
BRANCH  17  24
HETATM   24  N5  UNL     1       5.781   0.488  -1.346  1.00  0.00    -0.340 N 
ATOM     25  H5  UNL     1       6.389  -0.075  -0.752  1.00  0.00     0.164 HD
BRANCH  24  26
HETATM   26  C9  UNL     1       6.316   1.318  -2.368  1.00  0.00     0.350 C 
HETATM   27  O4  UNL     1       5.522   1.993  -3.070  1.00  0.00    -0.284 OA
ENDBRANCH  24  26
ENDBRANCH  17  24
BRANCH  19  28
HETATM   28  N6  UNL     1       2.591   0.873   1.847  1.00  0.00    -0.255 N 
HETATM   29  C11 UNL     1       2.618   2.094   2.372  1.00  0.00     0.133 A 
HETATM   30  C12 UNL     1       2.519   1.937   3.743  1.00  0.00     0.127 A 
HETATM   31  N7  UNL     1       2.439   0.614   3.941  1.00  0.00    -0.296 N 
HETATM   32  N8  UNL     1       2.483  -0.021   2.791  1.00  0.00    -0.239 N 
ATOM     33  H7  UNL     1       2.356   0.165   4.853  1.00  0.00     0.187 HD
ATOM     34  H8  UNL     1       2.440  -1.032   2.660  1.00  0.00     0.208 HD
ENDBRANCH  19  28
ENDBRANCH  13  14
ENDBRANCH   4  13
BRANCH   1  35
HETATM   35  N2  UNL     1      -3.098   1.291   0.013  1.00  0.00    -0.212 N 
ATOM     36  H2  UNL     1      -2.538   2.086  -0.293  1.00  0.00     0.178 HD
BRANCH  35  37
HETATM   37  C2  UNL     1      -4.492   1.494   0.074  1.00  0.00     0.210 C 
BRANCH  37  38
HETATM   38  C1  UNL     1      -4.794   2.906   0.581  1.00  0.00     0.344 C 
BRANCH  38  39
HETATM   39  N1  UNL     1      -4.222   3.059   1.892  1.00  0.00    -0.051 N 
ATOM     40  H13 UNL     1      -4.450   3.960   2.313  1.00  0.00     0.277 HD
ATOM     41  H12 UNL     1      -4.671   2.460   2.585  1.00  0.00     0.277 HD
ATOM     42  H11 UNL     1      -3.216   2.900   1.835  1.00  0.00     0.277 HD
ENDBRANCH  38  39
BRANCH  38  43
HETATM   43  O1  UNL     1      -6.168   3.123   0.659  1.00  0.00    -0.368 OA
ATOM     44  H1  UNL     1      -6.546   3.022  -0.207  1.00  0.00     0.212 HD
ENDBRANCH  38  43
ENDBRANCH  37  38
BRANCH  37  45
HETATM   45  C17 UNL     1      -5.212   1.342  -1.260  1.00  0.00     0.281 C 
BRANCH  45  46
HETATM   46  O7  UNL     1      -5.066   0.110  -1.836  1.00  0.00    -0.369 OA
ATOM     47  H7  UNL     1      -5.515   0.015  -2.668  1.00  0.00     0.212 HD
ENDBRANCH  45  46
BRANCH  45  48
HETATM   48  O8  UNL     1      -4.911   2.375  -2.130  1.00  0.00    -0.369 OA
ATOM     49  H8  UNL     1      -5.360   2.280  -2.962  1.00  0.00     0.212 HD
ENDBRANCH  45  48
ENDBRANCH  37  45
ENDBRANCH  35  37
ENDBRANCH   1  35
BRANCH  10  50
HETATM   50  C16 UNL     1       0.715  -3.882   1.354  1.00  0.00     0.296 C 
BRANCH  50  51
HETATM   51  O6  UNL     1       1.094  -4.335   0.097  1.00  0.00    -0.382 OA
ATOM     52  H6  UNL     1       1.982  -4.668   0.153  1.00  0.00     0.211 HD
ENDBRANCH  50  51
ENDBRANCH  10  50
TORSDOF 17
