REMARK  11 active torsions:
REMARK  status: ('A' for Active; 'I' for Inactive)
REMARK    1  A    between atoms: C2_2  and  C3_3 
REMARK    2  A    between atoms: C3_3  and  C4_4 
REMARK    3  A    between atoms: C4_4  and  C5_5 
REMARK    4  A    between atoms: C5_5  and  C6_6 
REMARK    5  A    between atoms: C6_6  and  C7_7 
REMARK    6  A    between atoms: C7_7  and  C8_8 
REMARK    7  A    between atoms: C8_8  and  C9_9 
REMARK    8  A    between atoms: C16_18  and  C17_19 
REMARK    9  A    between atoms: C17_19  and  C18_20 
REMARK   10  A    between atoms: C24_27  and  C26_29 
REMARK   11  A    between atoms: C26_29  and  N1_30 
ROOT
HETATM    1  C8  UNL     1       2.354   0.856   0.017  1.00  0.00    -0.036 C 
HETATM    2  C11 UNL     1       2.336  -0.327   0.906  1.00  0.00     0.039 C 
HETATM    3  C12 UNL     1       1.053  -1.105   0.821  1.00  0.00     0.007 C 
HETATM    4  C13 UNL     1      -0.093  -0.469   0.687  1.00  0.00     0.055 C 
HETATM    5  O1  UNL     1      -1.187  -1.340   0.623  1.00  0.00    -0.341 OA
HETATM    6  C14 UNL     1      -2.422  -0.848   0.379  1.00  0.00     0.216 C 
HETATM    7  C15 UNL     1      -2.587   0.152   1.536  1.00  0.00     0.174 C 
HETATM    8  O2  UNL     1      -2.616  -0.154   2.674  1.00  0.00    -0.294 OA
HETATM    9  C16 UNL     1      -2.699   1.527   0.965  1.00  0.00     0.094 C 
HETATM   10  C22 UNL     1      -3.858   1.321   0.003  1.00  0.00     0.105 C 
HETATM   11  C23 UNL     1      -4.543  -0.024   0.165  1.00  0.00     0.141 C 
HETATM   12  O3  UNL     1      -5.742  -0.151   0.235  1.00  0.00    -0.297 OA
HETATM   13  C24 UNL     1      -3.721  -1.340   0.251  1.00  0.00     0.074 C 
HETATM   14  C25 UNL     1      -4.242  -1.977   1.518  1.00  0.00     0.028 C 
HETATM   15  C30 UNL     1      -1.358   1.629   0.265  1.00  0.00     0.154 C 
HETATM   16  O4  UNL     1      -1.366   2.279  -0.739  1.00  0.00    -0.296 OA
HETATM   17  C31 UNL     1      -0.009   1.042   0.631  1.00  0.00     0.114 C 
HETATM   18  C32 UNL     1       0.985   1.375  -0.403  1.00  0.00     0.028 C 
ENDROOT
BRANCH   1  19
HETATM   19  C7  UNL     1       3.031   0.465  -1.304  1.00  0.00     0.010 C 
BRANCH  19  20
HETATM   20  C6  UNL     1       4.462   0.094  -1.177  1.00  0.00     0.001 C 
BRANCH  20  21
HETATM   21  C5  UNL     1       5.077  -0.292  -2.512  1.00  0.00     0.000 C 
BRANCH  21  22
HETATM   22  C4  UNL     1       6.521  -0.637  -2.297  1.00  0.00     0.000 C 
BRANCH  22  23
HETATM   23  C3  UNL     1       6.779  -1.778  -1.371  1.00  0.00    -0.000 C 
BRANCH  23  24
HETATM   24  C2  UNL     1       8.292  -2.046  -1.248  1.00  0.00    -0.005 C 
HETATM   25  C1  UNL     1       8.481  -3.205  -0.304  1.00  0.00     0.005 C 
ENDBRANCH  23  24
ENDBRANCH  22  23
ENDBRANCH  21  22
ENDBRANCH  20  21
ENDBRANCH  19  20
ENDBRANCH   1  19
BRANCH   1  26
HETATM   26  C9  UNL     1       3.127   2.029   0.550  1.00  0.00     0.005 C 
HETATM   27  C10 UNL     1       2.617   2.577   1.855  1.00  0.00     0.006 C 
ENDBRANCH   1  26
BRANCH   9  28
HETATM   28  C17 UNL     1      -2.887   2.579   1.982  1.00  0.00     0.053 C 
BRANCH  28  29
HETATM   29  C18 UNL     1      -2.990   3.903   1.331  1.00  0.00    -0.023 C 
HETATM   30  C19 UNL     1      -4.036   4.687   1.516  1.00  0.00    -0.091 C 
HETATM   31  C20 UNL     1      -4.159   6.020   0.870  1.00  0.00     0.042 C 
HETATM   32  C21 UNL     1      -5.127   4.231   2.413  1.00  0.00     0.042 C 
ENDBRANCH  28  29
ENDBRANCH   9  28
BRANCH  13  33
HETATM   33  C26 UNL     1      -4.150  -2.043  -0.991  1.00  0.00     0.256 C 
BRANCH  33  34
HETATM   34  N1  UNL     1      -3.558  -3.211  -1.445  1.00  0.00    -0.077 N 
HETATM   35  C27 UNL     1      -4.579  -4.257  -1.727  1.00  0.00     0.271 C 
HETATM   36  C28 UNL     1      -3.014  -2.954  -2.801  1.00  0.00     0.271 C 
HETATM   37  C29 UNL     1      -2.518  -3.847  -0.734  1.00  0.00     0.271 C 
ENDBRANCH  33  34
ENDBRANCH  13  33
TORSDOF 11
