REMARK  6 active torsions:
REMARK  status: ('A' for Active; 'I' for Inactive)
REMARK    1  A    between atoms: C2_2  and  C3_3 
REMARK    2  A    between atoms: C3_3  and  C4_4 
REMARK    3  A    between atoms: C4_4  and  C5_5 
REMARK    4  A    between atoms: C5_5  and  C6_6 
REMARK    5  A    between atoms: C10_10  and  C11_11 
REMARK    6  A    between atoms: C11_11  and  C12_12 
ROOT
HETATM    1  C6  UNL     1       1.200  -1.182  -0.044  1.00  0.00     0.186 C 
HETATM    2  C7  UNL     1       1.040  -0.303   1.136  1.00  0.00     0.033 C 
HETATM    3  C8  UNL     1       0.684   1.120   0.748  1.00  0.00     0.004 C 
HETATM    4  C9  UNL     1      -0.321   1.109  -0.408  1.00  0.00     0.033 C 
HETATM    5  C10 UNL     1      -0.997  -0.214  -0.417  1.00  0.00     0.187 C 
HETATM    6  N3  UNL     1      -0.077  -1.255  -0.794  1.00  0.00    -0.067 N 
ATOM      7  H31 UNL     1      -0.506  -2.176  -0.700  1.00  0.00     0.278 HD
ATOM      8  H32 UNL     1       0.088  -1.253  -1.801  1.00  0.00     0.278 HD
ENDROOT
BRANCH   5   9
HETATM    9  C11 UNL     1      -2.151  -0.285  -1.392  1.00  0.00     0.046 C 
BRANCH   9  10
HETATM   10  C12 UNL     1      -3.239   0.687  -1.145  1.00  0.00     0.066 C 
HETATM   11  C13 UNL     1      -4.293   0.447  -2.237  1.00  0.00     0.188 C 
HETATM   12  O1  UNL     1      -5.541   0.539  -1.620  1.00  0.00    -0.333 OA
HETATM   13  C14 UNL     1      -5.405   0.364  -0.270  1.00  0.00     0.168 A 
HETATM   14  N1  UNL     1      -6.317   0.143   0.708  1.00  0.00    -0.301 N 
HETATM   15  C17 UNL     1      -4.054   0.443   0.063  1.00  0.00     0.067 A 
HETATM   16  C15 UNL     1      -5.960  -0.003   1.991  1.00  0.00     0.262 A 
ATOM     17  H1  UNL     1      -7.305   0.086   0.460  1.00  0.00     0.171 HD
HETATM   18  O2  UNL     1      -6.782  -0.208   2.919  1.00  0.00    -0.267 OA
HETATM   19  C16 UNL     1      -4.630   0.074   2.326  1.00  0.00     0.163 A 
HETATM   20  N2  UNL     1      -3.739   0.293   1.346  1.00  0.00    -0.360 N 
ATOM     21  H2  UNL     1      -2.753   0.348   1.603  1.00  0.00     0.165 HD
ENDBRANCH   9  10
ENDBRANCH   5   9
BRANCH   1  22
HETATM   22  C5  UNL     1       2.283  -0.974  -1.007  1.00  0.00     0.033 C 
BRANCH  22  23
HETATM   23  C4  UNL     1       3.703  -1.040  -0.690  1.00  0.00     0.002 C 
BRANCH  23  24
HETATM   24  C3  UNL     1       4.289  -0.061   0.250  1.00  0.00    -0.000 C 
BRANCH  24  25
HETATM   25  C2  UNL     1       5.822  -0.345   0.347  1.00  0.00    -0.005 C 
HETATM   26  C1  UNL     1       6.371   0.680   1.315  1.00  0.00     0.005 C 
ENDBRANCH  24  25
ENDBRANCH  23  24
ENDBRANCH  22  23
ENDBRANCH   1  22
TORSDOF 6
