REMARK  10 active torsions:
REMARK  status: ('A' for Active; 'I' for Inactive)
REMARK    1  A    between atoms: C2_2  and  C4_4 
REMARK    2  A    between atoms: C4_4  and  C5_6 
REMARK    3  A    between atoms: C5_6  and  O1_7 
REMARK    4  A    between atoms: C5_6  and  C6_9 
REMARK    5  A    between atoms: C6_9  and  N1_11 
REMARK    6  A    between atoms: N1_11  and  C8_14 
REMARK    7  A    between atoms: C8_14  and  C9_15 
REMARK    8  A    between atoms: C9_15  and  O2_17 
REMARK    9  A    between atoms: C9_15  and  C11_19 
REMARK   10  A    between atoms: C11_19  and  C12_20 
ROOT
HETATM    1  N1  UNL     1      -0.281  -1.129  -0.054  1.00  0.00    -0.066 N 
ATOM      2  H11 UNL     1       0.150  -1.992  -0.386  1.00  0.00     0.277 HD
ATOM      3  H12 UNL     1       0.087  -1.112   0.897  1.00  0.00     0.277 HD
ENDROOT
BRANCH   1   4
HETATM    4  C6  UNL     1      -1.739  -1.246  -0.045  1.00  0.00     0.213 C 
HETATM    5  C7  UNL     1      -2.140  -1.457  -1.462  1.00  0.00     0.043 C 
BRANCH   4   6
HETATM    6  C5  UNL     1      -2.320  -0.042   0.642  1.00  0.00     0.182 C 
BRANCH   6   7
HETATM    7  C4  UNL     1      -3.779  -0.134   0.942  1.00  0.00     0.204 C 
HETATM    8  F1  UNL     1      -4.101   0.850   1.860  1.00  0.00    -0.246 F 
BRANCH   7   9
HETATM    9  C2  UNL     1      -4.723  -0.068  -0.199  1.00  0.00     0.014 C 
HETATM   10  C1  UNL     1      -4.702   1.277  -0.898  1.00  0.00     0.012 C 
HETATM   11  C3  UNL     1      -6.138  -0.244   0.375  1.00  0.00     0.012 C 
ENDBRANCH   7   9
ENDBRANCH   6   7
BRANCH   6  12
HETATM   12  O1  UNL     1      -1.715  -0.106   1.952  1.00  0.00    -0.391 OA
ATOM     13  H1  UNL     1      -0.786  -0.047   1.761  1.00  0.00     0.210 HD
ENDBRANCH   6  12
ENDBRANCH   4   6
ENDBRANCH   1   4
BRANCH   1  14
HETATM   14  C8  UNL     1       0.196   0.005  -0.808  1.00  0.00     0.270 C 
BRANCH  14  15
HETATM   15  C9  UNL     1       1.703  -0.022  -0.950  1.00  0.00     0.079 C 
HETATM   16  C10 UNL     1       2.044   1.119  -1.903  1.00  0.00     0.047 C 
BRANCH  15  17
HETATM   17  O2  UNL     1       2.084  -1.192  -1.607  1.00  0.00    -0.389 OA
ATOM     18  H2  UNL     1       3.030  -1.209  -1.696  1.00  0.00     0.210 HD
ENDBRANCH  15  17
BRANCH  15  19
HETATM   19  C11 UNL     1       2.336   0.171   0.379  1.00  0.00     0.048 C 
BRANCH  19  20
HETATM   20  C12 UNL     1       3.851   0.126   0.314  1.00  0.00    -0.030 C 
HETATM   21  C13 UNL     1       4.382  -1.194  -0.207  1.00  0.00     0.015 C 
HETATM   22  C14 UNL     1       4.547   1.334  -0.204  1.00  0.00     0.088 C 
HETATM   23  C15 UNL     1       5.494   1.235   0.996  1.00  0.00     0.245 C 
HETATM   24  F2  UNL     1       5.760   2.466   1.574  1.00  0.00    -0.206 F 
HETATM   25  F3  UNL     1       6.663   0.572   0.741  1.00  0.00    -0.206 F 
HETATM   26  C16 UNL     1       4.423   0.423   1.679  1.00  0.00     0.088 C 
ENDBRANCH  19  20
ENDBRANCH  15  19
ENDBRANCH  14  15
ENDBRANCH   1  14
TORSDOF 10
