REMARK  14 active torsions:
REMARK  status: ('A' for Active; 'I' for Inactive)
REMARK    1  A    between atoms: C2_2  and  C3_4 
REMARK    2  A    between atoms: C3_4  and  N1_5 
REMARK    3  A    between atoms: C3_4  and  C4_9 
REMARK    4  A    between atoms: C4_9  and  C6_11 
REMARK    5  A    between atoms: C6_11  and  C7_13 
REMARK    6  A    between atoms: C7_13  and  C9_15 
REMARK    7  A    between atoms: C9_15  and  O1_16 
REMARK    8  A    between atoms: C9_15  and  C10_18 
REMARK    9  A    between atoms: C10_18  and  C11_21 
REMARK   10  A    between atoms: C11_21  and  O2_22 
REMARK   11  A    between atoms: C12_24  and  C13_25 
REMARK   12  A    between atoms: C13_25  and  C14_27 
REMARK   13  A    between atoms: C14_27  and  C15_29 
REMARK   14  A    between atoms: C14_27  and  C16_33 
ROOT
HETATM    1  C10 UNL     1      -1.893   0.461  -0.952  1.00  0.00     0.316 C 
HETATM    2  F3  UNL     1      -1.214  -0.569  -1.515  1.00  0.00    -0.196 F 
HETATM    3  F4  UNL     1      -2.912   0.758  -1.847  1.00  0.00    -0.196 F 
ENDROOT
BRANCH   1   4
HETATM    4  C9  UNL     1      -1.120   1.745  -0.821  1.00  0.00     0.204 C 
BRANCH   4   5
HETATM    5  C7  UNL     1       0.093   1.746  -0.031  1.00  0.00     0.051 C 
HETATM    6  C8  UNL     1       0.353   3.192   0.433  1.00  0.00     0.015 C 
BRANCH   5   7
HETATM    7  C6  UNL     1       1.357   1.142  -0.384  1.00  0.00     0.182 C 
HETATM    8  F2  UNL     1       2.173   1.268   0.786  1.00  0.00    -0.248 F 
BRANCH   7   9
HETATM    9  C4  UNL     1       2.260   1.651  -1.422  1.00  0.00     0.053 C 
HETATM   10  C5  UNL     1       1.844   1.732  -2.828  1.00  0.00     0.015 C 
BRANCH   9  11
HETATM   11  C3  UNL     1       3.505   0.738  -1.387  1.00  0.00     0.250 C 
BRANCH  11  12
HETATM   12  C2  UNL     1       3.210  -0.627  -1.894  1.00  0.00     0.115 C 
HETATM   13  C1  UNL     1       3.299  -1.688  -1.112  1.00  0.00     0.054 C 
HETATM   14  F1  UNL     1       2.837  -0.828  -3.187  1.00  0.00    -0.209 F 
ENDBRANCH  11  12
BRANCH  11  15
HETATM   15  N1  UNL     1       4.545   1.314  -2.188  1.00  0.00    -0.068 N 
ATOM     16  H13 UNL     1       5.377   0.725  -2.228  1.00  0.00     0.275 HD
ATOM     17  H12 UNL     1       4.319   1.308  -3.183  1.00  0.00     0.275 HD
ATOM     18  H11 UNL     1       4.748   2.251  -1.840  1.00  0.00     0.275 HD
ENDBRANCH  11  15
ENDBRANCH   9  11
ENDBRANCH   7   9
ENDBRANCH   5   7
ENDBRANCH   4   5
BRANCH   4  19
HETATM   19  O1  UNL     1      -1.088   2.340  -2.079  1.00  0.00    -0.389 OA
ATOM     20  H1  UNL     1      -1.884   2.339  -2.597  1.00  0.00     0.210 HD
ENDBRANCH   4  19
ENDBRANCH   1   4
BRANCH   1  21
HETATM   21  C11 UNL     1      -2.581   0.072   0.317  1.00  0.00     0.116 C 
HETATM   22  C12 UNL     1      -2.324  -1.065   0.940  1.00  0.00     0.052 C 
BRANCH  21  23
HETATM   23  O2  UNL     1      -3.533   0.891   0.911  1.00  0.00    -0.359 OA
ATOM     24  H2  UNL     1      -3.970   0.644   1.717  1.00  0.00     0.217 HD
ENDBRANCH  21  23
BRANCH  22  25
HETATM   25  C13 UNL     1      -2.993  -1.453   2.181  1.00  0.00     0.254 C 
HETATM   26  F5  UNL     1      -2.830  -0.455   3.166  1.00  0.00    -0.241 F 
BRANCH  25  27
HETATM   27  C14 UNL     1      -2.600  -2.763   2.779  1.00  0.00     0.329 C 
HETATM   28  F6  UNL     1      -3.393  -2.876   3.953  1.00  0.00    -0.220 F 
BRANCH  27  29
HETATM   29  C15 UNL     1      -2.958  -3.949   1.959  1.00  0.00     0.435 C 
HETATM   30  F7  UNL     1      -2.560  -5.098   2.613  1.00  0.00    -0.167 F 
HETATM   31  F8  UNL     1      -2.517  -3.926   0.658  1.00  0.00    -0.167 F 
HETATM   32  F9  UNL     1      -4.366  -4.015   1.952  1.00  0.00    -0.167 F 
ENDBRANCH  27  29
BRANCH  27  33
HETATM   33  C16 UNL     1      -1.190  -2.801   3.271  1.00  0.00     0.435 C 
HETATM   34  F10 UNL     1      -0.254  -2.581   2.293  1.00  0.00    -0.167 F 
HETATM   35  F11 UNL     1      -0.910  -4.021   3.845  1.00  0.00    -0.167 F 
HETATM   36  F12 UNL     1      -1.020  -1.874   4.318  1.00  0.00    -0.167 F 
ENDBRANCH  27  33
ENDBRANCH  25  27
ENDBRANCH  22  25
ENDBRANCH   1  21
TORSDOF 14
