REMARK  9 active torsions:
REMARK  status: ('A' for Active; 'I' for Inactive)
REMARK    1  A    between atoms: C4_4  and  O1_5 
REMARK    2  A    between atoms: C10_12  and  C11_13 
REMARK    3  A    between atoms: C11_13  and  C13_15 
REMARK    4  A    between atoms: C13_15  and  C14_16 
REMARK       I    between atoms: C14_16  and  N1_18 
REMARK    5  A    between atoms: C23_27  and  O3_28 
REMARK    6  A    between atoms: O3_28  and  C24_29 
REMARK    7  A    between atoms: C24_29  and  C25_31 
REMARK    8  A    between atoms: C25_31  and  C26_32 
REMARK    9  A    between atoms: C30_36  and  C31_37 
ROOT
HETATM    1  C1  UNL     1      -3.820  -0.323  -4.699  1.00  0.00     0.015 C 
HETATM    2  C2  UNL     1      -3.071  -0.406  -3.639  1.00  0.00    -0.071 C 
HETATM    3  C3  UNL     1      -2.014  -1.421  -3.366  1.00  0.00     0.073 C 
HETATM    4  C4  UNL     1      -1.935  -1.491  -1.869  1.00  0.00     0.076 C 
HETATM    5  C5  UNL     1      -0.652  -0.973  -1.298  1.00  0.00     0.026 C 
HETATM    6  C6  UNL     1       0.524  -1.714  -1.877  1.00  0.00     0.009 C 
HETATM    7  C7  UNL     1       1.822  -1.411  -1.168  1.00  0.00     0.010 C 
HETATM    8  C8  UNL     1       1.770  -1.658   0.291  1.00  0.00    -0.036 C 
HETATM    9  C9  UNL     1       1.494  -3.061   0.690  1.00  0.00     0.016 C 
HETATM   10  C10 UNL     1       2.784  -0.923   1.105  1.00  0.00    -0.002 C 
HETATM   11  C18 UNL     1       2.229  -1.127   2.500  1.00  0.00     0.006 C 
HETATM   12  C19 UNL     1       0.720  -0.933   2.251  1.00  0.00     0.006 C 
HETATM   13  C20 UNL     1       0.545  -0.848   0.783  1.00  0.00    -0.001 C 
HETATM   14  C21 UNL     1      -0.690  -1.390   0.187  1.00  0.00    -0.000 C 
HETATM   15  C22 UNL     1      -1.940  -0.952   0.863  1.00  0.00     0.039 C 
HETATM   16  C23 UNL     1      -2.698   0.019  -0.020  1.00  0.00     0.144 C 
HETATM   17  C28 UNL     1      -3.060  -0.568  -1.351  1.00  0.00     0.032 C 
HETATM   18  C29 UNL     1      -4.284  -1.428  -1.302  1.00  0.00     0.022 C 
HETATM   19  C30 UNL     1      -3.036   0.457  -2.410  1.00  0.00     0.128 C 
ENDROOT
BRANCH  10  20
HETATM   20  C11 UNL     1       4.186  -1.175   0.912  1.00  0.00    -0.005 C 
HETATM   21  C12 UNL     1       4.723  -2.549   1.133  1.00  0.00     0.011 C 
BRANCH  20  22
HETATM   22  C13 UNL     1       5.038  -0.239   1.744  1.00  0.00     0.107 C 
BRANCH  22  23
HETATM   23  C14 UNL     1       4.860   1.177   1.456  1.00  0.00     0.220 C 
HETATM   24  O2  UNL     1       3.959   1.831   2.023  1.00  0.00    -0.273 OA
HETATM   25  N1  UNL     1       5.700   1.844   0.533  1.00  0.00    -0.352 N 
HETATM   26  C15 UNL     1       6.836   1.503  -0.330  1.00  0.00     0.127 C 
HETATM   27  C17 UNL     1       5.819   3.189   0.011  1.00  0.00     0.127 C 
HETATM   28  C16 UNL     1       6.266   2.541  -1.305  1.00  0.00     0.040 C 
ENDBRANCH  22  23
ENDBRANCH  20  22
ENDBRANCH  10  20
BRANCH   4  29
HETATM   29  O1  UNL     1      -2.089  -2.796  -1.503  1.00  0.00    -0.388 OA
ATOM     30  H1  UNL     1      -2.039  -2.840  -0.555  1.00  0.00     0.210 HD
ENDBRANCH   4  29
BRANCH  16  31
HETATM   31  O3  UNL     1      -3.866   0.495   0.585  1.00  0.00    -0.315 OA
BRANCH  31  32
HETATM   32  C24 UNL     1      -4.064   1.771   1.031  1.00  0.00     0.259 C 
HETATM   33  O4  UNL     1      -3.100   2.556   0.879  1.00  0.00    -0.265 OA
BRANCH  32  34
HETATM   34  C25 UNL     1      -5.343   2.205   1.659  1.00  0.00     0.111 C 
BRANCH  34  35
HETATM   35  C26 UNL     1      -5.257   3.673   2.076  1.00  0.00     0.005 C 
HETATM   36  C27 UNL     1      -4.129   3.838   3.072  1.00  0.00     0.005 C 
ENDBRANCH  34  35
ENDBRANCH  32  34
ENDBRANCH  31  32
ENDBRANCH  16  31
BRANCH  19  37
HETATM   37  C31 UNL     1      -4.048   1.498  -2.430  1.00  0.00     0.182 C 
HETATM   38  O5  UNL     1      -3.700   2.734  -2.447  1.00  0.00    -0.647 OA
HETATM   39  O6  UNL     1      -5.425   1.323  -2.434  1.00  0.00    -0.647 OA
ENDBRANCH  19  37
TORSDOF 9
