REMARK  1 active torsions:
REMARK  status: ('A' for Active; 'I' for Inactive)
REMARK    1  A    between atoms: C15_16  and  O2_17 
ROOT
HETATM    1  C1  UNL     1       0.947   2.298  -2.237  1.00  0.00     0.017 C 
HETATM    2  C2  UNL     1       0.461   1.746  -1.155  1.00  0.00    -0.052 C 
HETATM    3  C3  UNL     1      -0.703   2.213  -0.315  1.00  0.00     0.074 C 
HETATM    4  C4  UNL     1      -1.254   0.859   0.103  1.00  0.00     0.066 C 
HETATM    5  C5  UNL     1      -2.245   0.466  -0.969  1.00  0.00     0.038 C 
HETATM    6  C6  UNL     1      -2.493  -1.004  -1.041  1.00  0.00     0.003 C 
HETATM    7  C7  UNL     1      -3.697  -1.298  -0.139  1.00  0.00     0.000 C 
HETATM    8  C8  UNL     1      -3.170  -1.123   1.290  1.00  0.00     0.000 C 
HETATM    9  C9  UNL     1      -3.212   0.340   1.593  1.00  0.00     0.003 C 
HETATM   10  C10 UNL     1      -1.881   1.027   1.452  1.00  0.00     0.038 C 
HETATM   11  O1  UNL     1      -0.203  -0.008   0.199  1.00  0.00    -0.364 OA
HETATM   12  C11 UNL     1       0.894   0.513  -0.427  1.00  0.00     0.085 C 
HETATM   13  C12 UNL     1       1.407  -0.468  -1.445  1.00  0.00     0.043 C 
HETATM   14  C13 UNL     1       1.916  -1.729  -0.762  1.00  0.00     0.006 C 
HETATM   15  C14 UNL     1       3.364  -1.536  -0.450  1.00  0.00     0.032 C 
HETATM   16  C15 UNL     1       3.641  -0.887   0.857  1.00  0.00     0.118 C 
HETATM   17  C16 UNL     1       2.452  -0.150   1.429  1.00  0.00     0.035 C 
HETATM   18  C17 UNL     1       1.971   0.949   0.543  1.00  0.00     0.045 C 
ENDROOT
BRANCH  16  19
HETATM   19  O2  UNL     1       4.059  -1.812   1.803  1.00  0.00    -0.396 OA
ATOM     20  H2  UNL     1       4.236  -1.397   2.639  1.00  0.00     0.210 HD
ENDBRANCH  16  19
TORSDOF 1
