REMARK  1 active torsions:
REMARK  status: ('A' for Active; 'I' for Inactive)
REMARK    1  A    between atoms: O1_1  and  C1_3 
ROOT
HETATM    1  C1  UNL     1      -0.647   1.088  -0.529  1.00  0.00     0.150 C 
HETATM    2  C2  UNL     1       0.409   1.608   0.374  1.00  0.00     0.062 C 
HETATM    3  C3  UNL     1       1.280   0.633   1.050  1.00  0.00     0.005 C 
HETATM    4  C4  UNL     1       1.786  -0.511   0.273  1.00  0.00     0.003 C 
HETATM    5  C5  UNL     1       0.867  -1.728   0.326  1.00  0.00     0.034 C 
HETATM    6  C6  UNL     1      -0.316  -1.579  -0.602  1.00  0.00     0.152 C 
HETATM    7  C7  UNL     1      -1.514  -1.147   0.211  1.00  0.00     0.039 C 
HETATM    8  C8  UNL     1      -1.737   0.323   0.207  1.00  0.00     0.065 C 
HETATM    9  O2  UNL     1      -0.083  -0.850  -1.715  1.00  0.00    -0.277 OA
HETATM   10  N1  UNL     1      -0.204   0.433  -1.698  1.00  0.00    -0.267 N 
ATOM     11  H1  UNL     1       0.021   0.976  -2.531  1.00  0.00     0.191 HD
ENDROOT
BRANCH   1  12
HETATM   12  O1  UNL     1      -1.326   2.250  -0.999  1.00  0.00    -0.369 OA
ATOM     13  H1  UNL     1      -2.002   1.917  -1.577  1.00  0.00     0.212 HD
ENDBRANCH   1  12
TORSDOF 1
