REMARK  3 active torsions:
REMARK  status: ('A' for Active; 'I' for Inactive)
REMARK    1  A    between atoms: N1_1  and  C1_5 
REMARK    2  A    between atoms: C6_10  and  C11_15 
REMARK    3  A    between atoms: C8_12  and  C9_13 
ROOT
HETATM    1  C1  UNL     1      -0.800   0.718   0.668  1.00  0.00     0.128 C 
HETATM    2  C2  UNL     1      -1.140   0.953  -0.807  1.00  0.00     0.039 C 
HETATM    3  C3  UNL     1      -1.392  -0.385  -1.424  1.00  0.00     0.007 C 
HETATM    4  C4  UNL     1      -0.904  -1.342  -0.327  1.00  0.00    -0.008 C 
HETATM    5  C5  UNL     1      -1.550  -0.575   0.837  1.00  0.00     0.044 C 
HETATM    6  C6  UNL     1       0.576  -1.414  -0.229  1.00  0.00    -0.005 C 
HETATM    7  C7  UNL     1       0.983  -0.907   1.147  1.00  0.00     0.013 C 
HETATM    8  C8  UNL     1       0.683   0.579   0.913  1.00  0.00     0.026 C 
ENDROOT
BRANCH   1   9
HETATM    9  N1  UNL     1      -1.311   1.805   1.427  1.00  0.00    -0.070 N 
ATOM     10  H13 UNL     1      -0.981   2.709   1.088  1.00  0.00     0.275 HD
ATOM     11  H12 UNL     1      -2.308   1.955   1.274  1.00  0.00     0.275 HD
ATOM     12  H11 UNL     1      -1.085   1.649   2.409  1.00  0.00     0.275 HD
ENDBRANCH   1   9
BRANCH   8  13
HETATM   13  C9  UNL     1       1.495   0.831  -0.326  1.00  0.00    -0.003 A 
HETATM   14  C10 UNL     1       2.662   0.055  -0.719  1.00  0.00     0.011 A 
HETATM   15  C11 UNL     1       1.302  -0.384  -1.104  1.00  0.00    -0.005 A 
ENDBRANCH   8  13
TORSDOF 3
