REMARK  3 active torsions:
REMARK  status: ('A' for Active; 'I' for Inactive)
REMARK       I    between atoms: C1_2  and  N1_3 
REMARK    1  A    between atoms: C1_2  and  C4_8 
REMARK    2  A    between atoms: N1_3  and  C2_5 
REMARK    3  A    between atoms: C2_5  and  C3_6 
ROOT
HETATM    1  C4  UNL     1      -0.461   0.090  -0.469  1.00  0.00     0.045 A 
HETATM    2  C5  UNL     1      -0.849   0.650   0.878  1.00  0.00     0.020 C 
HETATM    3  C6  UNL     1      -1.968  -0.134   1.520  1.00  0.00     0.001 C 
HETATM    4  C7  UNL     1      -3.195  -0.177   0.654  1.00  0.00     0.000 C 
HETATM    5  C8  UNL     1      -2.942   0.289  -0.747  1.00  0.00     0.006 C 
HETATM    6  C9  UNL     1      -1.633  -0.171  -1.306  1.00  0.00     0.004 A 
HETATM    7  C10 UNL     1      -0.690   0.970  -1.675  1.00  0.00     0.025 A 
ENDROOT
BRANCH   1   8
HETATM    8  C1  UNL     1       0.761  -0.708  -0.513  1.00  0.00     0.226 C 
HETATM    9  O1  UNL     1       0.706  -1.906  -0.888  1.00  0.00    -0.273 OA
HETATM   10  N1  UNL     1       2.017  -0.178  -0.147  1.00  0.00    -0.360 N 
ATOM     11  H1  UNL     1       2.068   0.794   0.157  1.00  0.00     0.162 HD
BRANCH  10  12
HETATM   12  C2  UNL     1       3.243  -0.962  -0.186  1.00  0.00     0.133 C 
BRANCH  12  13
HETATM   13  C3  UNL     1       4.400  -0.107   0.263  1.00  0.00     0.104 C 
HETATM   14 BR1  UNL     1       4.156   0.543   2.064  1.00  0.00    -0.095 Br
ENDBRANCH  12  13
ENDBRANCH  10  12
ENDBRANCH   1   8
TORSDOF 3
