REMARK  4 active torsions:
REMARK  status: ('A' for Active; 'I' for Inactive)
REMARK    1  A    between atoms: C2_2  and  C3_5 
REMARK    2  A    between atoms: C5_8  and  C6_9 
REMARK    3  A    between atoms: C6_9  and  N1_10 
REMARK       I    between atoms: N1_10  and  C7_12 
REMARK    4  A    between atoms: C7_12  and  C8_14 
ROOT
HETATM    1  C3  UNL     1      -2.023  -0.096   0.456  1.00  0.00     0.058 A 
HETATM    2 BR1  UNL     1      -0.964  -0.255   2.050  1.00  0.00    -0.082 Br
HETATM    3  C4  UNL     1      -2.577  -1.426  -0.041  1.00  0.00     0.032 A 
HETATM    4  C5  UNL     1      -1.584  -0.648  -0.826  1.00  0.00     0.027 A 
ENDROOT
BRANCH   4   5
HETATM    5  C6  UNL     1      -0.188  -1.199  -0.943  1.00  0.00     0.129 C 
BRANCH   5   6
HETATM    6  N1  UNL     1       0.818  -0.209  -0.664  1.00  0.00    -0.360 N 
HETATM    7  C7  UNL     1       2.195  -0.464  -0.703  1.00  0.00     0.221 C 
HETATM    8  O1  UNL     1       2.628  -1.623  -0.998  1.00  0.00    -0.273 OA
ATOM      9  H1  UNL     1       0.511   0.733  -0.424  1.00  0.00     0.162 HD
BRANCH   7  10
HETATM   10  C8  UNL     1       3.212   0.565  -0.415  1.00  0.00     0.078 A 
HETATM   11  C9  UNL     1       4.569   0.484  -1.077  1.00  0.00     0.015 A 
HETATM   12  C10 UNL     1       4.447   0.140   0.353  1.00  0.00     0.015 A 
ENDBRANCH   7  10
ENDBRANCH   5   6
ENDBRANCH   4   5
BRANCH   1  13
HETATM   13  C2  UNL     1      -2.940   1.106   0.401  1.00  0.00     0.127 C 
HETATM   14  C1  UNL     1      -3.916   1.067   1.544  1.00  0.00     0.052 C 
HETATM   15 CL1  UNL     1      -1.959   2.587   0.410  1.00  0.00    -0.100 Cl
HETATM   16 CL2  UNL     1      -3.813   1.011  -1.160  1.00  0.00    -0.100 Cl
ENDBRANCH   1  13
TORSDOF 4
