REMARK  11 active torsions:
REMARK  status: ('A' for Active; 'I' for Inactive)
REMARK    1  A    between atoms: C2_2  and  N1_3 
REMARK    2  A    between atoms: C4_5  and  C5_6 
REMARK    3  A    between atoms: C5_6  and  O1_7 
REMARK    4  A    between atoms: O1_7  and  C6_8 
REMARK    5  A    between atoms: C6_8  and  N2_9 
REMARK    6  A    between atoms: C6_8  and  N3_13 
REMARK    7  A    between atoms: N3_13  and  C7_15 
REMARK    8  A    between atoms: C7_15  and  C9_17 
REMARK    9  A    between atoms: C7_15  and  C10_22 
REMARK   10  A    between atoms: C9_17  and  N4_18 
REMARK   11  A    between atoms: C10_22  and  N5_23 
ROOT
HETATM    1  N3  UNL     1      -1.343  -1.507   0.338  1.00  0.00    -0.363 N 
ATOM      2  H3  UNL     1      -1.807  -2.415   0.373  1.00  0.00     0.158 HD
ENDROOT
BRANCH   1   3
HETATM    3  C6  UNL     1      -0.012  -1.426   0.732  1.00  0.00     0.422 C 
BRANCH   3   4
HETATM    4  O1  UNL     1       0.930  -0.986  -0.187  1.00  0.00    -0.344 OA
BRANCH   4   5
HETATM    5  C5  UNL     1       1.838  -0.098   0.394  1.00  0.00     0.188 C 
BRANCH   5   6
HETATM    6  C4  UNL     1       2.870   0.376  -0.596  1.00  0.00     0.120 C 
HETATM    7  C3  UNL     1       3.835   1.327   0.053  1.00  0.00     0.141 C 
HETATM    8  N1  UNL     1       4.744   0.215   0.159  1.00  0.00    -0.351 N 
HETATM    9  C12 UNL     1       4.011  -0.507  -0.809  1.00  0.00     0.227 C 
HETATM   10  O2  UNL     1       4.267  -1.489  -1.528  1.00  0.00    -0.273 OA
BRANCH   8  11
HETATM   11  C2  UNL     1       5.939  -0.044   0.952  1.00  0.00     0.121 C 
HETATM   12  C1  UNL     1       7.177   0.418   0.217  1.00  0.00     0.026 C 
ENDBRANCH   8  11
ENDBRANCH   5   6
ENDBRANCH   4   5
ENDBRANCH   3   4
BRANCH   3  13
HETATM   13  N2  UNL     1       0.406  -2.830   1.052  1.00  0.00    -0.035 N 
ATOM     14  H23 UNL     1       0.504  -3.432   0.235  1.00  0.00     0.279 HD
ATOM     15  H22 UNL     1       1.371  -2.915   1.371  1.00  0.00     0.279 HD
ATOM     16  H21 UNL     1      -0.286  -3.153   1.728  1.00  0.00     0.279 HD
ENDBRANCH   3  13
ENDBRANCH   1   3
BRANCH   1  17
HETATM   17  C7  UNL     1      -2.078  -0.395  -0.106  1.00  0.00     0.065 C 
HETATM   18  C8  UNL     1      -2.161   0.666   0.993  1.00  0.00     0.041 C 
BRANCH  17  19
HETATM   19  C9  UNL     1      -1.658   0.149  -1.424  1.00  0.00     0.261 C 
BRANCH  19  20
HETATM   20  N4  UNL     1      -2.428   1.290  -1.858  1.00  0.00    -0.077 N 
ATOM     21  H43 UNL     1      -3.424   1.070  -1.862  1.00  0.00     0.274 HD
ATOM     22  H42 UNL     1      -2.416   2.022  -1.148  1.00  0.00     0.274 HD
ATOM     23  H41 UNL     1      -2.140   1.663  -2.762  1.00  0.00     0.274 HD
ENDBRANCH  19  20
ENDBRANCH  17  19
BRANCH  17  24
HETATM   24  C10 UNL     1      -3.549  -0.906  -0.184  1.00  0.00     0.154 C 
BRANCH  24  25
HETATM   25  N5  UNL     1      -4.385   0.146  -0.623  1.00  0.00    -0.364 N 
HETATM   26  C11 UNL     1      -5.619   0.327  -0.393  1.00  0.00     0.197 C 
HETATM   27  N6  UNL     1      -6.243   1.472  -0.951  1.00  0.00    -0.067 NA
HETATM   28  N7  UNL     1      -6.432  -0.539   0.388  1.00  0.00    -0.067 NA
ATOM     29  H5  UNL     1      -3.935   0.855  -1.203  1.00  0.00     0.161 HD
ENDBRANCH  24  25
ENDBRANCH  17  24
ENDBRANCH   1  17
TORSDOF 11
