REMARK  10 active torsions:
REMARK  status: ('A' for Active; 'I' for Inactive)
REMARK    1  A    between atoms: C2_2  and  N1_4 
REMARK    2  A    between atoms: N1_4  and  C4_6 
REMARK    3  A    between atoms: C5_9  and  N3_10 
REMARK    4  A    between atoms: C9_14  and  N4_15 
REMARK    5  A    between atoms: C9_14  and  C10_19 
REMARK    6  A    between atoms: C10_19  and  O1_20 
REMARK    7  A    between atoms: C12_25  and  S1_26 
REMARK    8  A    between atoms: S1_26  and  C13_27 
REMARK    9  A    between atoms: C13_27  and  C14_28 
REMARK   10  A    between atoms: C14_28  and  N6_29 
ROOT
HETATM    1  C4  UNL     1      -2.046   0.940  -0.125  1.00  0.00     0.695 A 
HETATM    2  N2  UNL     1      -0.724   1.206  -0.182  1.00  0.00    -0.022 N 
ATOM      3  H2  UNL     1      -0.427   2.182  -0.168  1.00  0.00     0.203 HD
HETATM    4  C5  UNL     1       0.216   0.259  -0.256  1.00  0.00     0.696 A 
HETATM    5  N5  UNL     1      -0.205  -1.024  -0.275  1.00  0.00    -0.169 N 
ATOM      6  H5  UNL     1       0.484  -1.774  -0.331  1.00  0.00     0.186 HD
HETATM    7  C12 UNL     1      -1.516  -1.337  -0.221  1.00  0.00     0.174 A 
HETATM    8  N7  UNL     1      -2.438  -0.369  -0.145  1.00  0.00    -0.169 N 
ATOM      9  H7  UNL     1      -3.429  -0.608  -0.102  1.00  0.00     0.186 HD
ENDROOT
BRANCH   4  10
HETATM   10  N3  UNL     1       1.622   0.532  -0.323  1.00  0.00    -0.215 N 
HETATM   11  C6  UNL     1       2.087   1.896  -0.386  1.00  0.00     0.141 C 
HETATM   12  C7  UNL     1       3.472   1.962   0.191  1.00  0.00     0.023 C 
HETATM   13  C8  UNL     1       3.575   1.014   1.343  1.00  0.00     0.044 C 
HETATM   14  C9  UNL     1       3.487  -0.436   0.895  1.00  0.00     0.161 C 
HETATM   15  C11 UNL     1       2.594  -0.540  -0.331  1.00  0.00     0.182 C 
BRANCH  14  16
HETATM   16  N4  UNL     1       2.953  -1.184   1.985  1.00  0.00    -0.067 N 
ATOM     17  H43 UNL     1       3.483  -1.065   2.848  1.00  0.00     0.275 HD
ATOM     18  H42 UNL     1       2.064  -0.816   2.324  1.00  0.00     0.275 HD
ATOM     19  H41 UNL     1       2.894  -2.157   1.684  1.00  0.00     0.275 HD
ENDBRANCH  14  16
BRANCH  14  20
HETATM   20  C10 UNL     1       4.902  -0.864   0.509  1.00  0.00     0.204 C 
BRANCH  20  21
HETATM   21  O1  UNL     1       4.950  -2.193   0.125  1.00  0.00    -0.398 OA
ATOM     22  H1  UNL     1       5.830  -2.459  -0.115  1.00  0.00     0.209 HD
ENDBRANCH  20  21
ENDBRANCH  14  20
ENDBRANCH   4  10
BRANCH   1  23
HETATM   23  N1  UNL     1      -2.921   1.827  -0.064  1.00  0.00    -0.222 N 
ATOM     24  H1  UNL     1      -3.867   1.447  -0.029  1.00  0.00     0.178 HD
BRANCH  23  25
HETATM   25  C2  UNL     1      -2.896   3.231  -0.033  1.00  0.00     0.091 C 
HETATM   26  C1  UNL     1      -1.839   3.848   0.856  1.00  0.00     0.032 C 
HETATM   27  C3  UNL     1      -2.649   3.784  -1.445  1.00  0.00     0.032 C 
ENDBRANCH  23  25
ENDBRANCH   1  23
BRANCH   7  28
HETATM   28  S1  UNL     1      -2.041  -3.045  -0.275  1.00  0.00    -0.091 SA
BRANCH  28  29
HETATM   29  C13 UNL     1      -3.828  -3.222  -0.242  1.00  0.00     0.109 C 
BRANCH  29  30
HETATM   30  C14 UNL     1      -4.135  -4.704  -0.341  1.00  0.00     0.240 C 
BRANCH  30  31
HETATM   31  N6  UNL     1      -3.576  -5.201  -1.606  1.00  0.00    -0.079 N 
ATOM     32  H63 UNL     1      -3.905  -4.675  -2.416  1.00  0.00     0.274 HD
ATOM     33  H62 UNL     1      -2.582  -4.997  -1.705  1.00  0.00     0.274 HD
ATOM     34  H61 UNL     1      -3.782  -6.198  -1.673  1.00  0.00     0.274 HD
ENDBRANCH  30  31
ENDBRANCH  29  30
ENDBRANCH  28  29
ENDBRANCH   7  28
TORSDOF 10
