REMARK  2 active torsions:
REMARK  status: ('A' for Active; 'I' for Inactive)
REMARK    1  A    between atoms: C2_2  and  C5_6 
REMARK    2  A    between atoms: C5_6  and  N2_7 
ROOT
HETATM    1  C1  UNL     1       1.578  -0.215   1.072  1.00  0.00     0.033 C 
HETATM    2  C2  UNL     1       0.676  -0.282  -0.146  1.00  0.00     0.075 C 
HETATM    3  C3  UNL     1       1.384   0.476  -1.250  1.00  0.00     0.033 C 
HETATM    4  C4  UNL     1       0.586  -1.694  -0.545  1.00  0.00     0.071 C 
HETATM    5  N1  UNL     1       0.521  -2.816  -0.848  1.00  0.00    -0.196 NA
ENDROOT
BRANCH   2   6
HETATM    6  C5  UNL     1      -0.688   0.304   0.128  1.00  0.00     0.143 A 
HETATM    7  C6  UNL     1      -1.813  -0.086  -0.780  1.00  0.00     0.043 A 
HETATM    8  C7  UNL     1      -1.790  -0.510   0.671  1.00  0.00     0.043 A 
BRANCH   6   9
HETATM    9  N2  UNL     1      -0.644   1.701   0.521  1.00  0.00    -0.069 N 
ATOM     10  H23 UNL     1      -0.025   1.833   1.321  1.00  0.00     0.275 HD
ATOM     11  H22 UNL     1      -0.143   2.257  -0.172  1.00  0.00     0.275 HD
ATOM     12  H21 UNL     1      -1.566   2.097   0.706  1.00  0.00     0.275 HD
ENDBRANCH   6   9
ENDBRANCH   2   6
TORSDOF 2
