REMARK  7 active torsions:
REMARK  status: ('A' for Active; 'I' for Inactive)
REMARK    1  A    between atoms: O1_2  and  C2_3 
REMARK    2  A    between atoms: C2_3  and  O2_4 
REMARK    3  A    between atoms: C2_3  and  C11_16 
REMARK    4  A    between atoms: O2_4  and  C3_5 
REMARK       I    between atoms: C3_5  and  N1_7 
REMARK    5  A    between atoms: N1_7  and  C4_9 
REMARK    6  A    between atoms: C4_9  and  C5_10 
REMARK    7  A    between atoms: C13_18  and  C14_19 
ROOT
HETATM    1  C2  UNL     1       2.490   0.540   0.271  1.00  0.00     0.331 C 
ENDROOT
BRANCH   1   2
HETATM    2  O1  UNL     1       2.853   1.703  -0.376  1.00  0.00    -0.359 OA
HETATM    3  C1  UNL     1       2.479   2.852   0.293  1.00  0.00     0.205 C 
ENDBRANCH   1   2
BRANCH   1   4
HETATM    4  O2  UNL     1       1.639  -0.261  -0.512  1.00  0.00    -0.266 OA
BRANCH   4   5
HETATM    5  C3  UNL     1       0.354  -0.628  -0.135  1.00  0.00     0.363 C 
HETATM    6  O3  UNL     1      -0.060  -0.213   0.974  1.00  0.00    -0.238 OA
HETATM    7  N1  UNL     1      -0.482  -1.431  -0.937  1.00  0.00    -0.336 N 
ATOM      8  H1  UNL     1      -0.124  -1.757  -1.835  1.00  0.00     0.164 HD
BRANCH   7   9
HETATM    9  C4  UNL     1      -1.799  -1.810  -0.559  1.00  0.00     0.129 C 
BRANCH   9  10
HETATM   10  C5  UNL     1      -2.759  -0.662  -0.340  1.00  0.00     0.003 C 
HETATM   11  C6  UNL     1      -4.085  -1.283   0.049  1.00  0.00     0.006 C 
HETATM   12  C7  UNL     1      -5.202  -0.301   0.115  1.00  0.00     0.000 C 
HETATM   13  C8  UNL     1      -4.905   1.012  -0.542  1.00  0.00     0.000 C 
HETATM   14  C9  UNL     1      -4.128   0.841  -1.816  1.00  0.00     0.000 C 
HETATM   15  C10 UNL     1      -2.855   0.084  -1.652  1.00  0.00     0.006 C 
ENDBRANCH   9  10
ENDBRANCH   7   9
ENDBRANCH   4   5
ENDBRANCH   1   4
BRANCH   1  16
HETATM   16  C11 UNL     1       3.677  -0.280   0.665  1.00  0.00     0.134 A 
HETATM   17  C12 UNL     1       4.846   0.157   1.257  1.00  0.00     0.078 A 
HETATM   18  C13 UNL     1       5.663  -0.935   1.441  1.00  0.00     0.133 A 
HETATM   19  N2  UNL     1       4.969  -1.981   0.960  1.00  0.00    -0.254 N 
HETATM   20  O6  UNL     1       3.818  -1.573   0.514  1.00  0.00    -0.237 OA
ATOM     21  H2  UNL     1       5.296  -2.947   0.947  1.00  0.00     0.195 HD
BRANCH  18  22
HETATM   22  C14 UNL     1       7.000  -0.980   2.029  1.00  0.00     0.228 C 
HETATM   23  O4  UNL     1       7.637  -2.057   2.136  1.00  0.00    -0.643 OA
HETATM   24  O5  UNL     1       7.587   0.178   2.482  1.00  0.00    -0.643 OA
ENDBRANCH  18  22
ENDBRANCH   1  16
TORSDOF 7
