REMARK  3 active torsions:
REMARK  status: ('A' for Active; 'I' for Inactive)
REMARK    1  A    between atoms: C4_7  and  C5_8 
REMARK    2  A    between atoms: C5_8  and  N2_9 
REMARK    3  A    between atoms: C11_16  and  N3_17 
ROOT
HETATM    1  C1  UNL     1      -3.675  -2.343  -0.470  1.00  0.00     0.070 C 
HETATM    2  C2  UNL     1      -2.308  -2.024   0.079  1.00  0.00     0.033 A 
HETATM    3  N1  UNL     1      -1.434  -2.961   0.532  1.00  0.00    -0.352 N 
ATOM      4  H1  UNL     1      -1.594  -3.968   0.536  1.00  0.00     0.166 HD
HETATM    5  C3  UNL     1      -0.330  -2.348   0.972  1.00  0.00     0.090 A 
HETATM    6 BR1  UNL     1       1.248  -3.069   1.779  1.00  0.00    -0.031 Br
HETATM    7  C4  UNL     1      -0.491  -0.957   0.803  1.00  0.00     0.023 A 
HETATM    8  C11 UNL     1      -1.729  -0.785   0.246  1.00  0.00     0.064 A 
ENDROOT
BRANCH   7   9
HETATM    9  C5  UNL     1       0.435   0.084   1.232  1.00  0.00     0.175 C 
BRANCH   9  10
HETATM   10  N2  UNL     1       1.729  -0.157   0.715  1.00  0.00    -0.345 N 
HETATM   11  C6  UNL     1       2.742   0.638   1.146  1.00  0.00    -0.071 C 
HETATM   12  C7  UNL     1       3.903   1.370   1.390  1.00  0.00     0.130 C 
HETATM   13  C8  UNL     1       4.788   1.234   0.104  1.00  0.00     0.180 C 
HETATM   14  O1  UNL     1       4.292   0.147  -0.647  1.00  0.00    -0.389 OA
HETATM   15  C9  UNL     1       3.139   0.250  -1.306  1.00  0.00     0.188 C 
HETATM   16  C10 UNL     1       1.854  -0.388  -0.719  1.00  0.00     0.158 C 
ENDBRANCH   9  10
ENDBRANCH   7   9
BRANCH   8  17
HETATM   17  N3  UNL     1      -2.404   0.446  -0.087  1.00  0.00    -0.369 N 
HETATM   18  C12 UNL     1      -2.443   1.144  -1.318  1.00  0.00     0.134 C 
HETATM   19  C13 UNL     1      -3.868   1.470  -1.690  1.00  0.00     0.095 C 
HETATM   20  S1  UNL     1      -4.622   1.687  -0.054  1.00  0.00    -0.148 SA
HETATM   21  C14 UNL     1      -3.187   1.141   0.958  1.00  0.00     0.197 C 
ENDBRANCH   8  17
TORSDOF 3
