REMARK  14 active torsions:
REMARK  status: ('A' for Active; 'I' for Inactive)
REMARK    1  A    between atoms: C3_5  and  C4_6 
REMARK    2  A    between atoms: N2_8  and  C6_9 
REMARK    3  A    between atoms: C6_9  and  C7_10 
REMARK    4  A    between atoms: C7_10  and  C8_11 
REMARK    5  A    between atoms: C8_11  and  N3_12 
REMARK    6  A    between atoms: N3_12  and  C9_13 
REMARK    7  A    between atoms: C10_16  and  N5_17 
REMARK    8  A    between atoms: C14_27  and  O2_28 
REMARK    9  A    between atoms: C15_30  and  O3_31 
REMARK   10  A    between atoms: N11_39  and  C17_40 
REMARK   11  A    between atoms: C17_40  and  C18_41 
REMARK   12  A    between atoms: C18_41  and  O4_42 
REMARK   13  A    between atoms: C18_41  and  C19_44 
REMARK   14  A    between atoms: C19_44  and  O5_45 
ROOT
HETATM    1  C7  UNL     1      -1.362  -0.476   3.201  1.00  0.00     0.081 C 
ENDROOT
BRANCH   1   2
HETATM    2  C6  UNL     1      -0.203   0.140   3.914  1.00  0.00     0.152 C 
BRANCH   2   3
HETATM    3  N2  UNL     1       1.043  -0.370   3.413  1.00  0.00    -0.284 N 
HETATM    4  C5  UNL     1       1.841   0.090   2.415  1.00  0.00     0.142 A 
HETATM    5  C4  UNL     1       2.953  -0.714   2.295  1.00  0.00     0.108 A 
HETATM    6  N9  UNL     1       2.802  -1.650   3.231  1.00  0.00    -0.279 N 
HETATM    7  N8  UNL     1       1.659  -1.457   3.910  1.00  0.00    -0.020 NA
ATOM      8  H9  UNL     1       3.462  -2.407   3.407  1.00  0.00     0.184 HD
BRANCH   5   9
HETATM    9  C3  UNL     1       4.027  -0.530   1.331  1.00  0.00     0.151 A 
HETATM   10  N1  UNL     1       5.137  -1.252   1.138  1.00  0.00    -0.328 N 
HETATM   11  C2  UNL     1       5.896  -0.772   0.139  1.00  0.00     0.096 A 
ATOM     12  H1  UNL     1       5.380  -2.076   1.688  1.00  0.00     0.169 HD
HETATM   13  C1  UNL     1       7.207  -1.299  -0.355  1.00  0.00     0.091 C 
HETATM   14  N11 UNL     1       5.231   0.307  -0.319  1.00  0.00    -0.276 N 
HETATM   15  N10 UNL     1       4.102   0.463   0.392  1.00  0.00    -0.280 N 
ATOM     16  H10 UNL     1       3.412   1.202   0.254  1.00  0.00     0.189 HD
BRANCH  14  17
HETATM   17  C17 UNL     1       5.565   1.204  -1.398  1.00  0.00     0.184 C 
BRANCH  17  18
HETATM   18  C18 UNL     1       4.991   0.843  -2.727  1.00  0.00     0.161 C 
BRANCH  18  19
HETATM   19  O4  UNL     1       5.430   1.836  -3.634  1.00  0.00    -0.392 OA
ATOM     20  H4  UNL     1       5.065   1.606  -4.480  1.00  0.00     0.210 HD
ENDBRANCH  18  19
BRANCH  18  21
HETATM   21  C19 UNL     1       5.463  -0.467  -3.264  1.00  0.00     0.197 C 
BRANCH  21  22
HETATM   22  O5  UNL     1       4.915  -0.675  -4.540  1.00  0.00    -0.398 OA
ATOM     23  H5  UNL     1       5.215  -1.509  -4.882  1.00  0.00     0.209 HD
ENDBRANCH  21  22
ENDBRANCH  18  21
ENDBRANCH  17  18
ENDBRANCH  14  17
ENDBRANCH   5   9
ENDBRANCH   2   3
ENDBRANCH   1   2
BRANCH   1  24
HETATM   24  C8  UNL     1      -1.258  -0.149   1.715  1.00  0.00     0.159 C 
BRANCH  24  25
HETATM   25  N3  UNL     1      -2.284  -0.579   0.932  1.00  0.00    -0.402 NA
BRANCH  25  26
HETATM   26  C9  UNL     1      -3.218  -0.856   0.271  1.00  0.00     0.208 A 
HETATM   27  N4  UNL     1      -3.265  -2.119  -0.333  1.00  0.00    -0.164 N 
HETATM   28  C10 UNL     1      -4.261  -2.520  -1.102  1.00  0.00     0.678 A 
ATOM     29  H4  UNL     1      -2.490  -2.762  -0.171  1.00  0.00     0.187 HD
HETATM   30  N6  UNL     1      -5.318  -1.740  -1.368  1.00  0.00    -0.185 N 
HETATM   31  C11 UNL     1      -5.348  -0.495  -0.819  1.00  0.00     0.135 A 
ATOM     32  H6  UNL     1      -6.077  -2.070  -1.964  1.00  0.00     0.184 HD
HETATM   33  C12 UNL     1      -6.452   0.317  -1.102  1.00  0.00     0.277 A 
HETATM   34  C16 UNL     1      -4.331  -0.052  -0.018  1.00  0.00     0.093 A 
HETATM   35  O1  UNL     1      -7.353  -0.144  -1.843  1.00  0.00    -0.265 OA
HETATM   36  N7  UNL     1      -6.515   1.556  -0.575  1.00  0.00    -0.295 N 
HETATM   37  C13 UNL     1      -7.650   2.422  -0.855  1.00  0.00     0.162 C 
HETATM   38  C14 UNL     1      -5.531   2.003   0.209  1.00  0.00     0.180 A 
HETATM   39  C15 UNL     1      -4.438   1.222   0.499  1.00  0.00     0.134 A 
BRANCH  28  40
HETATM   40  N5  UNL     1      -4.278  -3.711  -1.657  1.00  0.00    -0.234 N 
ATOM     41  H52 UNL     1      -3.474  -4.305  -1.455  1.00  0.00     0.174 HD
ATOM     42  H51 UNL     1      -5.047  -4.021  -2.251  1.00  0.00     0.174 HD
ENDBRANCH  28  40
BRANCH  38  43
HETATM   43  O2  UNL     1      -5.655   3.308   0.730  1.00  0.00    -0.344 OA
ATOM     44  H2  UNL     1      -4.955   3.626   1.288  1.00  0.00     0.219 HD
ENDBRANCH  38  43
BRANCH  39  45
HETATM   45  O3  UNL     1      -3.462   1.718   1.301  1.00  0.00    -0.356 OA
ATOM     46  H3  UNL     1      -2.706   1.178   1.501  1.00  0.00     0.218 HD
ENDBRANCH  39  45
ENDBRANCH  25  26
ENDBRANCH  24  25
ENDBRANCH   1  24
TORSDOF 14
