REMARK  10 active torsions:
REMARK  status: ('A' for Active; 'I' for Inactive)
REMARK    1  A    between atoms: C2_2  and  C3_3 
REMARK    2  A    between atoms: C3_3  and  N1_4 
REMARK    3  A    between atoms: N1_4  and  C4_6 
REMARK    4  A    between atoms: C5_7  and  C6_8 
REMARK    5  A    between atoms: C6_8  and  O1_9 
REMARK    6  A    between atoms: C7_12  and  C8_13 
REMARK    7  A    between atoms: C8_13  and  N2_14 
REMARK    8  A    between atoms: N2_14  and  C9_16 
REMARK    9  A    between atoms: C15_22  and  O3_23 
REMARK   10  A    between atoms: C16_25  and  O4_26 
ROOT
HETATM    1  C4  UNL     1       2.788  -0.065  -0.492  1.00  0.00     0.139 C 
HETATM    2  C5  UNL     1       1.733  -0.880  -1.240  1.00  0.00     0.170 C 
HETATM    3  O2  UNL     1       0.504  -0.320  -1.266  1.00  0.00    -0.372 OA
HETATM    4  C7  UNL     1      -0.056   0.193  -0.151  1.00  0.00     0.170 C 
HETATM    5  C15 UNL     1       0.894   0.806   0.836  1.00  0.00     0.179 C 
HETATM    6  C16 UNL     1       2.249   0.156   0.883  1.00  0.00     0.174 C 
ENDROOT
BRANCH   4   7
HETATM    7  C8  UNL     1      -1.010  -0.709   0.601  1.00  0.00     0.149 C 
BRANCH   7   8
HETATM    8  N2  UNL     1      -2.142  -1.152  -0.139  1.00  0.00    -0.415 N 
ATOM      9  H2  UNL     1      -2.255  -2.125  -0.424  1.00  0.00     0.153 HD
BRANCH   8  10
HETATM   10  C9  UNL     1      -3.117  -0.144  -0.460  1.00  0.00     0.076 C 
HETATM   11  C10 UNL     1      -4.168  -0.796  -1.334  1.00  0.00     0.024 C 
HETATM   12  C11 UNL     1      -5.100   0.355  -1.735  1.00  0.00     0.002 C 
HETATM   13  C12 UNL     1      -5.908   0.715  -0.532  1.00  0.00     0.000 C 
HETATM   14  C13 UNL     1      -5.215   0.586   0.766  1.00  0.00     0.002 C 
HETATM   15  C14 UNL     1      -3.748   0.468   0.752  1.00  0.00     0.024 C 
ENDBRANCH   8  10
ENDBRANCH   7   8
ENDBRANCH   4   7
BRANCH   5  16
HETATM   16  O3  UNL     1       1.047   2.170   0.613  1.00  0.00    -0.390 OA
ATOM     17  H3  UNL     1       1.648   2.558   1.238  1.00  0.00     0.210 HD
ENDBRANCH   5  16
BRANCH   2  18
HETATM   18  C6  UNL     1       1.738  -2.337  -0.882  1.00  0.00     0.198 C 
BRANCH  18  19
HETATM   19  O1  UNL     1       2.985  -2.933  -0.875  1.00  0.00    -0.398 OA
ATOM     20  H1  UNL     1       2.988  -3.856  -0.648  1.00  0.00     0.209 HD
ENDBRANCH  18  19
ENDBRANCH   2  18
BRANCH   6  21
HETATM   21  O4  UNL     1       3.046   1.009   1.668  1.00  0.00    -0.391 OA
ATOM     22  H4  UNL     1       2.703   1.150   2.543  1.00  0.00     0.210 HD
ENDBRANCH   6  21
BRANCH   1  23
HETATM   23  N1  UNL     1       4.020  -0.761  -0.583  1.00  0.00    -0.409 N 
ATOM     24  H1  UNL     1       4.060  -1.702  -0.974  1.00  0.00     0.154 HD
BRANCH  23  25
HETATM   25  C3  UNL     1       5.198  -0.117  -0.117  1.00  0.00     0.141 C 
BRANCH  25  26
HETATM   26  C2  UNL     1       5.644   1.031  -0.939  1.00  0.00    -0.018 C 
HETATM   27  C1  UNL     1       5.753   2.232  -0.403  1.00  0.00     0.008 C 
ENDBRANCH  25  26
ENDBRANCH  23  25
ENDBRANCH   1  23
TORSDOF 10
