REMARK  2 active torsions:
REMARK  status: ('A' for Active; 'I' for Inactive)
REMARK    1  A    between atoms: O1_2  and  C2_3 
REMARK       I    between atoms: C2_3  and  N1_5 
REMARK    2  A    between atoms: N1_5  and  C3_7 
REMARK       I    between atoms: N5_20  and  C11_21 
ROOT
HETATM    1  C3  UNL     1       1.518   0.040   0.501  1.00  0.00     0.131 A 
HETATM    2  C4  UNL     1       0.620   1.058   0.640  1.00  0.00     0.098 A 
HETATM    3  N2  UNL     1       1.078   2.341   1.023  1.00  0.00    -0.099 NA
HETATM    4  C5  UNL     1      -0.727   0.783   0.395  1.00  0.00     0.104 A 
HETATM    5  C6  UNL     1      -1.599   1.831   0.543  1.00  0.00     0.267 A 
HETATM    6  O3  UNL     1      -1.160   2.967   0.887  1.00  0.00    -0.267 OA
HETATM    7  N3  UNL     1      -2.890   1.592   0.313  1.00  0.00    -0.270 N 
HETATM    8  C7  UNL     1      -3.819   2.711   0.471  1.00  0.00     0.164 C 
HETATM    9  C8  UNL     1      -3.320   0.377  -0.049  1.00  0.00     0.332 A 
HETATM   10  O4  UNL     1      -4.572   0.221  -0.254  1.00  0.00    -0.246 OA
HETATM   11  N4  UNL     1      -2.506  -0.716  -0.217  1.00  0.00    -0.288 N 
HETATM   12  C9  UNL     1      -3.053  -1.975  -0.608  1.00  0.00     0.163 C 
HETATM   13  C10 UNL     1      -1.199  -0.463   0.019  1.00  0.00     0.141 A 
HETATM   14  N5  UNL     1      -0.312  -1.442  -0.111  1.00  0.00    -0.234 N 
HETATM   15  C11 UNL     1      -0.521  -2.772  -0.473  1.00  0.00     0.197 C 
HETATM   16  N6  UNL     1      -0.474  -3.130  -1.674  1.00  0.00    -0.373 N 
ATOM     17  H61 UNL     1      -0.627  -4.103  -1.939  1.00  0.00     0.158 HD
ATOM     18  H62 UNL     1      -0.374  -2.418  -2.397  1.00  0.00     0.158 HD
HETATM   19  N7  UNL     1      -0.658  -3.745   0.515  1.00  0.00    -0.063 NA
HETATM   20  C12 UNL     1       1.030  -1.172   0.132  1.00  0.00     0.284 A 
HETATM   21  O5  UNL     1       1.899  -2.103   0.011  1.00  0.00    -0.265 OA
ENDROOT
BRANCH   1  22
HETATM   22  N1  UNL     1       2.920   0.253   0.737  1.00  0.00    -0.296 N 
HETATM   23  C2  UNL     1       3.747   0.650  -0.318  1.00  0.00     0.364 C 
HETATM   24  O2  UNL     1       3.301   0.828  -1.478  1.00  0.00    -0.238 OA
ATOM     25  H1  UNL     1       3.309   0.115   1.670  1.00  0.00     0.171 HD
BRANCH  23  26
HETATM   26  O1  UNL     1       5.093   0.854  -0.093  1.00  0.00    -0.309 OA
HETATM   27  C1  UNL     1       5.949   1.259  -1.157  1.00  0.00     0.215 C 
ENDBRANCH  23  26
ENDBRANCH   1  22
TORSDOF 2
