REMARK  3 active torsions:
REMARK  status: ('A' for Active; 'I' for Inactive)
REMARK    1  A    between atoms: C3_4  and  O1_5 
REMARK    2  A    between atoms: C6_10  and  N2_11 
REMARK    3  A    between atoms: N6_24  and  O5_25 
ROOT
HETATM    1  N1  UNL     1       5.406   2.456  -0.483  1.00  0.00    -0.191 NA
HETATM    2  C1  UNL     1       4.466   1.776  -0.324  1.00  0.00     0.105 C 
HETATM    3  C2  UNL     1       3.337   0.948  -0.160  1.00  0.00     0.119 A 
HETATM    4  C3  UNL     1       2.076   1.535  -0.220  1.00  0.00     0.109 A 
HETATM    5  C4  UNL     1       0.955   0.771  -0.062  1.00  0.00     0.076 A 
HETATM    6  S1  UNL     1      -0.639   1.400  -0.108  1.00  0.00    -0.062 SA
HETATM    7  C5  UNL     1      -1.836   0.177   0.134  1.00  0.00     0.138 A 
HETATM    8  C6  UNL     1      -3.213   0.158   0.199  1.00  0.00     0.183 A 
HETATM    9  C7  UNL     1      -3.571  -1.152   0.431  1.00  0.00     0.150 A 
HETATM   10  N3  UNL     1      -4.793  -1.546   0.542  1.00  0.00    -0.382 N 
ATOM     11  H31 UNL     1      -5.058  -2.516   0.714  1.00  0.00     0.157 HD
ATOM     12  H32 UNL     1      -5.663  -1.016   0.493  1.00  0.00     0.157 HD
HETATM   13  N4  UNL     1      -2.446  -1.837   0.494  1.00  0.00    -0.273 N 
ATOM     14  H4  UNL     1      -2.400  -2.843   0.658  1.00  0.00     0.189 HD
HETATM   15  N5  UNL     1      -1.385  -1.068   0.320  1.00  0.00    -0.207 N 
HETATM   16  C8  UNL     1      -0.090  -1.410   0.329  1.00  0.00     0.298 A 
HETATM   17  O4  UNL     1       0.176  -2.656   0.520  1.00  0.00    -0.264 OA
HETATM   18  C9  UNL     1       0.981  -0.590   0.158  1.00  0.00     0.153 A 
HETATM   19  N6  UNL     1       2.245  -1.127   0.209  1.00  0.00    -0.206 N 
HETATM   20  C10 UNL     1       3.349  -0.398   0.059  1.00  0.00     0.166 A 
HETATM   21  C11 UNL     1       4.668  -1.016   0.127  1.00  0.00     0.122 C 
HETATM   22  N7  UNL     1       5.703  -1.525   0.182  1.00  0.00    -0.190 NA
ENDROOT
BRANCH   4  23
HETATM   23  O1  UNL     1       1.939   2.871  -0.435  1.00  0.00    -0.358 OA
ATOM     24  H1  UNL     1       1.079   3.272  -0.476  1.00  0.00     0.217 HD
ENDBRANCH   4  23
BRANCH  19  25
HETATM   25  O5  UNL     1       2.434  -2.482   0.423  1.00  0.00    -0.281 OA
ATOM     26  H5  UNL     1       3.308  -2.853   0.458  1.00  0.00     0.245 HD
ENDBRANCH  19  25
BRANCH   8  27
HETATM   27  N2  UNL     1      -3.993   1.325   0.071  1.00  0.00    -0.109 N 
HETATM   28  O2  UNL     1      -4.314   1.736  -1.058  1.00  0.00    -0.532 OA
HETATM   29  O3  UNL     1      -4.442   2.056   1.173  1.00  0.00    -0.532 OA
ENDBRANCH   8  27
TORSDOF 3
