REMARK  5 active torsions:
REMARK  status: ('A' for Active; 'I' for Inactive)
REMARK    1  A    between atoms: O1_1  and  C1_3 
REMARK    2  A    between atoms: C1_3  and  C2_4 
REMARK    3  A    between atoms: C2_4  and  C3_5 
REMARK    4  A    between atoms: C3_5  and  N1_6 
REMARK    5  A    between atoms: C13_18  and  O4_19 
ROOT
HETATM    1  C2  UNL     1      -0.246  -0.436   0.548  1.00  0.00     0.061 C 
HETATM    2  C8  UNL     1      -0.726   0.962   0.432  1.00  0.00     0.033 C 
HETATM    3  C9  UNL     1      -1.440   1.244  -0.897  1.00  0.00     0.046 C 
HETATM    4  C10 UNL     1      -2.866   0.798  -0.724  1.00  0.00     0.009 A 
HETATM    5  C11 UNL     1      -3.327  -0.496  -0.690  1.00  0.00    -0.015 A 
HETATM    6  C12 UNL     1      -4.684  -0.423  -0.515  1.00  0.00     0.153 A 
HETATM    7  O3  UNL     1      -5.018   0.841  -0.447  1.00  0.00    -0.299 OA
HETATM    8  C13 UNL     1      -3.963   1.606  -0.568  1.00  0.00     0.189 A 
HETATM    9  C14 UNL     1      -2.539  -1.736  -0.811  1.00  0.00     0.116 C 
HETATM   10  S1  UNL     1      -0.758  -1.382  -0.911  1.00  0.00    -0.147 SA
ENDROOT
BRANCH   1  11
HETATM   11  C1  UNL     1      -1.011  -1.049   1.748  1.00  0.00     0.190 C 
BRANCH  11  12
HETATM   12  O1  UNL     1      -0.734  -2.384   1.882  1.00  0.00    -0.399 OA
ATOM     13  H1  UNL     1      -1.203  -2.760   2.618  1.00  0.00     0.209 HD
ENDBRANCH  11  12
ENDBRANCH   1  11
BRANCH   1  14
HETATM   14  C3  UNL     1       1.194  -0.652   0.860  1.00  0.00     0.081 C 
BRANCH  14  15
HETATM   15  N1  UNL     1       2.166  -0.219  -0.047  1.00  0.00    -0.388 N 
HETATM   16  C4  UNL     1       2.424   1.138  -0.262  1.00  0.00     0.148 C 
HETATM   17  C5  UNL     1       3.869   1.415  -0.688  1.00  0.00     0.187 C 
HETATM   18  O2  UNL     1       4.647   0.674   0.236  1.00  0.00    -0.388 OA
HETATM   19  C6  UNL     1       4.583  -0.640  -0.224  1.00  0.00     0.187 C 
HETATM   20  C7  UNL     1       3.174  -1.143  -0.418  1.00  0.00     0.148 C 
ENDBRANCH  14  15
ENDBRANCH   1  14
BRANCH   8  21
HETATM   21  O4  UNL     1      -3.919   3.006  -0.546  1.00  0.00    -0.340 OA
ATOM     22  H4  UNL     1      -4.679   3.566  -0.438  1.00  0.00     0.220 HD
ENDBRANCH   8  21
TORSDOF 5
