REMARK  14 active torsions:
REMARK  status: ('A' for Active; 'I' for Inactive)
REMARK    1  A    between atoms: C2_2  and  C4_4 
REMARK    2  A    between atoms: C4_4  and  O2_6 
REMARK    3  A    between atoms: O2_6  and  C5_7 
REMARK    4  A    between atoms: C10_14  and  C11_15 
REMARK    5  A    between atoms: C11_15  and  C13_17 
REMARK    6  A    between atoms: C13_17  and  O5_18 
REMARK    7  A    between atoms: C13_17  and  C14_20 
REMARK    8  A    between atoms: C14_20  and  C15_21 
REMARK    9  A    between atoms: C15_21  and  O6_22 
REMARK   10  A    between atoms: C15_21  and  C16_24 
REMARK   11  A    between atoms: C16_24  and  C17_25 
REMARK   12  A    between atoms: C17_25  and  C18_26 
REMARK   13  A    between atoms: C20_28  and  O7_29 
REMARK   14  A    between atoms: C21_31  and  O8_32 
ROOT
HETATM    1  C5  UNL     1      -3.538  -0.612   1.655  1.00  0.00     0.338 C 
HETATM    2  O3  UNL     1      -3.532   0.509   2.480  1.00  0.00    -0.204 OA
HETATM    3  O4  UNL     1      -2.553   0.538   3.326  1.00  0.00    -0.224 OA
HETATM    4  C6  UNL     1      -1.380   0.147   2.752  1.00  0.00     0.126 C 
HETATM    5  C7  UNL     1      -0.951  -1.254   3.029  1.00  0.00     0.052 C 
HETATM    6  C8  UNL     1      -0.189   1.036   3.138  1.00  0.00     0.044 C 
HETATM    7  C9  UNL     1       0.795   0.811   1.977  1.00  0.00     0.011 C 
HETATM    8  C10 UNL     1      -0.007   0.160   0.877  1.00  0.00     0.032 C 
HETATM    9  C20 UNL     1      -1.410   0.480   1.250  1.00  0.00     0.126 C 
HETATM   10  C21 UNL     1      -2.426  -0.466   0.641  1.00  0.00     0.214 C 
ENDROOT
BRANCH   8  11
HETATM   11  C11 UNL     1       0.423   0.454  -0.503  1.00  0.00     0.017 C 
HETATM   12  C12 UNL     1       0.464   1.861  -0.948  1.00  0.00     0.013 C 
BRANCH  11  13
HETATM   13  C13 UNL     1       1.698  -0.325  -0.823  1.00  0.00     0.124 C 
BRANCH  13  14
HETATM   14  O5  UNL     1       2.676   0.064   0.082  1.00  0.00    -0.395 OA
ATOM     15  H5  UNL     1       3.469  -0.420  -0.117  1.00  0.00     0.210 HD
ENDBRANCH  13  14
BRANCH  13  16
HETATM   16  C14 UNL     1       2.164  -0.068  -2.208  1.00  0.00     0.063 C 
BRANCH  16  17
HETATM   17  C15 UNL     1       3.389  -0.844  -2.543  1.00  0.00     0.120 C 
BRANCH  17  18
HETATM   18  O6  UNL     1       3.192  -2.226  -2.419  1.00  0.00    -0.395 OA
ATOM     19  H6  UNL     1       3.974  -2.721  -2.633  1.00  0.00     0.210 HD
ENDBRANCH  17  18
BRANCH  17  20
HETATM   20  C16 UNL     1       4.649  -0.475  -1.829  1.00  0.00     0.032 C 
BRANCH  20  21
HETATM   21  C17 UNL     1       5.073   0.967  -2.052  1.00  0.00     0.002 C 
BRANCH  21  22
HETATM   22  C18 UNL     1       6.358   1.180  -1.262  1.00  0.00    -0.004 C 
HETATM   23  C19 UNL     1       6.848   2.595  -1.426  1.00  0.00     0.005 C 
ENDBRANCH  21  22
ENDBRANCH  20  21
ENDBRANCH  17  20
ENDBRANCH  16  17
ENDBRANCH  13  16
ENDBRANCH  11  13
ENDBRANCH   8  11
BRANCH   9  24
HETATM   24  O7  UNL     1      -1.778   1.786   1.107  1.00  0.00    -0.383 OA
ATOM     25  H7  UNL     1      -1.797   1.992   0.180  1.00  0.00     0.210 HD
ENDBRANCH   9  24
BRANCH  10  26
HETATM   26  O8  UNL     1      -2.964   0.222  -0.470  1.00  0.00    -0.387 OA
ATOM     27  H8  UNL     1      -2.265   0.314  -1.107  1.00  0.00     0.210 HD
ENDBRANCH  10  26
BRANCH   1  28
HETATM   28  O2  UNL     1      -4.835  -0.617   1.020  1.00  0.00    -0.280 OA
BRANCH  28  29
HETATM   29  C4  UNL     1      -5.707  -1.666   1.209  1.00  0.00     0.290 C 
HETATM   30  O1  UNL     1      -5.320  -2.613   1.954  1.00  0.00    -0.260 OA
BRANCH  29  31
HETATM   31  C2  UNL     1      -7.049  -1.753   0.604  1.00  0.00     0.004 C 
HETATM   32  C1  UNL     1      -7.831  -2.785   0.830  1.00  0.00     0.024 C 
HETATM   33  C3  UNL     1      -7.521  -0.654  -0.266  1.00  0.00     0.054 C 
ENDBRANCH  29  31
ENDBRANCH  28  29
ENDBRANCH   1  28
TORSDOF 14
