REMARK  7 active torsions:
REMARK  status: ('A' for Active; 'I' for Inactive)
REMARK    1  A    between atoms: C8_8  and  O1_9 
REMARK    2  A    between atoms: C13_15  and  O2_16 
REMARK    3  A    between atoms: C13_15  and  C14_18 
REMARK    4  A    between atoms: C14_18  and  N1_20 
REMARK    5  A    between atoms: C19_26  and  C20_27 
REMARK    6  A    between atoms: C20_27  and  O3_28 
REMARK    7  A    between atoms: C20_27  and  N3_30 
ROOT
HETATM    1  C1  UNL     1      -8.994  -0.800  -1.685  1.00  0.00     0.011 C 
HETATM    2  C2  UNL     1      -7.567  -1.299  -1.727  1.00  0.00    -0.010 C 
HETATM    3  C3  UNL     1      -7.207  -1.916  -0.397  1.00  0.00     0.005 C 
HETATM    4  C4  UNL     1      -6.461  -0.854   0.376  1.00  0.00     0.006 C 
HETATM    5  C5  UNL     1      -6.274   0.306  -0.546  1.00  0.00    -0.001 C 
HETATM    6  C6  UNL     1      -4.959   1.006  -0.405  1.00  0.00     0.000 C 
HETATM    7  C7  UNL     1      -4.763   1.417   1.018  1.00  0.00     0.037 C 
HETATM    8  C8  UNL     1      -3.332   1.714   1.392  1.00  0.00     0.126 C 
HETATM    9  C9  UNL     1      -2.497   0.613   0.898  1.00  0.00     0.063 C 
HETATM   10  C10 UNL     1      -1.022   0.726   1.109  1.00  0.00     0.037 C 
HETATM   11  C11 UNL     1      -0.492   0.224   2.392  1.00  0.00     0.011 C 
HETATM   12  C12 UNL     1       0.345  -0.989   2.102  1.00  0.00     0.047 C 
HETATM   13  C13 UNL     1       0.705  -0.915   0.606  1.00  0.00     0.131 C 
HETATM   14  C30 UNL     1      -0.539  -0.327   0.102  1.00  0.00     0.197 A 
HETATM   15  N4  UNL     1      -1.565  -1.471  -0.057  1.00  0.00    -0.050 N 
ATOM     16  H41 UNL     1      -2.296  -1.928   0.487  1.00  0.00     0.279 HD
ATOM     17  H42 UNL     1      -1.577  -2.489  -0.120  1.00  0.00     0.279 HD
HETATM   18  C31 UNL     1      -1.409  -0.326  -0.930  1.00  0.00     0.267 A 
HETATM   19  C32 UNL     1      -2.528   0.680  -0.644  1.00  0.00     0.144 C 
HETATM   20  F1  UNL     1      -2.273   1.924  -1.109  1.00  0.00    -0.240 F 
HETATM   21  C33 UNL     1      -3.895   0.143  -0.978  1.00  0.00     0.033 C 
HETATM   22  C34 UNL     1      -4.134   0.049  -2.462  1.00  0.00     0.009 C 
HETATM   23  C35 UNL     1      -5.407  -0.707  -2.679  1.00  0.00     0.010 C 
HETATM   24  C36 UNL     1      -6.581  -0.158  -1.934  1.00  0.00    -0.037 C 
HETATM   25  C37 UNL     1      -7.225   0.943  -2.743  1.00  0.00     0.016 C 
ENDROOT
BRANCH  13  26
HETATM   26  O2  UNL     1       0.812  -2.288   0.257  1.00  0.00    -0.381 OA
ATOM     27  H2  UNL     1       1.034  -2.242  -0.666  1.00  0.00     0.211 HD
ENDBRANCH  13  26
BRANCH  13  28
HETATM   28  C14 UNL     1       1.994  -0.229   0.343  1.00  0.00     0.018 C 
HETATM   29  C15 UNL     1       1.876   1.265   0.219  1.00  0.00     0.066 C 
BRANCH  28  30
HETATM   30  N1  UNL     1       3.084  -0.694   1.099  1.00  0.00    -0.370 N 
HETATM   31  C16 UNL     1       3.490  -2.044   0.967  1.00  0.00     0.143 C 
HETATM   32  C17 UNL     1       4.744  -2.351   1.792  1.00  0.00     0.133 C 
HETATM   33  N2  UNL     1       4.579  -1.850   3.114  1.00  0.00    -0.417 N 
HETATM   34  C18 UNL     1       4.187  -0.492   3.240  1.00  0.00     0.147 C 
ATOM     35  H2  UNL     1       4.735  -2.439   3.932  1.00  0.00     0.153 HD
HETATM   36  C19 UNL     1       3.800   0.172   1.898  1.00  0.00     0.175 C 
BRANCH  36  37
HETATM   37  C20 UNL     1       4.967   0.912   1.458  1.00  0.00     0.139 C 
BRANCH  37  38
HETATM   38  O3  UNL     1       5.448   1.708   2.412  1.00  0.00    -0.348 OA
ATOM     39  H3  UNL     1       6.212   2.193   2.124  1.00  0.00     0.219 HD
ENDBRANCH  37  38
BRANCH  37  40
HETATM   40  N3  UNL     1       5.703   0.998   0.297  1.00  0.00    -0.359 N 
HETATM   41  C21 UNL     1       5.480   0.291  -0.923  1.00  0.00     0.129 C 
HETATM   42  C22 UNL     1       6.360   0.822  -2.082  1.00  0.00     0.059 C 
HETATM   43  C23 UNL     1       7.770   0.703  -1.637  1.00  0.00    -0.049 A 
HETATM   44  C24 UNL     1       8.723   0.081  -2.386  1.00  0.00     0.008 A 
HETATM   45  C28 UNL     1       8.037   1.279  -0.392  1.00  0.00    -0.034 A 
HETATM   46  C25 UNL     1      10.014   0.028  -1.871  1.00  0.00     0.001 A 
HETATM   47  C26 UNL     1      10.301   0.592  -0.639  1.00  0.00     0.001 A 
HETATM   48  C27 UNL     1       9.301   1.216   0.091  1.00  0.00     0.009 A 
HETATM   49  C29 UNL     1       6.868   1.910   0.262  1.00  0.00     0.163 C 
ENDBRANCH  37  40
ENDBRANCH  36  37
ENDBRANCH  28  30
ENDBRANCH  13  28
BRANCH   8  50
HETATM   50  O1  UNL     1      -2.961   2.972   0.988  1.00  0.00    -0.395 OA
ATOM     51  H1  UNL     1      -2.060   3.159   1.224  1.00  0.00     0.210 HD
ENDBRANCH   8  50
TORSDOF 7
