REMARK  16 active torsions:
REMARK  status: ('A' for Active; 'I' for Inactive)
REMARK    1  A    between atoms: C2_2  and  C3_3 
REMARK    2  A    between atoms: C2_2  and  N1_5 
REMARK    3  A    between atoms: N1_5  and  C4_7 
REMARK    4  A    between atoms: C4_7  and  O2_8 
REMARK    5  A    between atoms: C4_7  and  C5_10 
REMARK    6  A    between atoms: C5_10  and  N2_11 
REMARK    7  A    between atoms: C5_10  and  C18_34 
REMARK       I    between atoms: N2_11  and  C6_13 
REMARK    8  A    between atoms: C6_13  and  C7_15 
REMARK       I    between atoms: N3_19  and  C11_20 
REMARK    9  A    between atoms: C11_20  and  C12_22 
REMARK   10  A    between atoms: C12_22  and  N4_23 
REMARK       I    between atoms: N4_23  and  C13_24 
REMARK   11  A    between atoms: C13_24  and  C14_26 
REMARK   12  A    between atoms: C14_26  and  N5_27 
REMARK   13  A    between atoms: C14_26  and  C15_31 
REMARK   14  A    between atoms: C18_34  and  N6_35 
REMARK   15  A    between atoms: C18_34  and  C19_39 
REMARK       I    between atoms: C19_39  and  N7_41 
REMARK   16  A    between atoms: N7_41  and  N8_43 
ROOT
HETATM    1  N2  UNL     1      -1.825  -0.282   0.428  1.00  0.00    -0.345 N 
ATOM      2  H2  UNL     1      -1.000   0.168   0.031  1.00  0.00     0.163 HD
HETATM    3  C6  UNL     1      -1.813  -1.655   0.690  1.00  0.00     0.241 C 
HETATM    4  O3  UNL     1      -2.834  -2.190   1.199  1.00  0.00    -0.271 OA
ENDROOT
BRANCH   1   5
HETATM    5  C5  UNL     1      -3.014   0.507   0.722  1.00  0.00     0.198 C 
BRANCH   5   6
HETATM    6  C4  UNL     1      -3.485   1.067  -0.527  1.00  0.00     0.138 C 
BRANCH   6   7
HETATM    7  N1  UNL     1      -4.048   2.313  -0.734  1.00  0.00    -0.362 N 
ATOM      8  H1  UNL     1      -4.157   2.960   0.047  1.00  0.00     0.162 HD
BRANCH   7   9
HETATM    9  C2  UNL     1      -4.494   2.707  -2.093  1.00  0.00     0.140 C 
HETATM   10  C1  UNL     1      -5.982   2.994  -2.009  1.00  0.00     0.039 C 
BRANCH   9  11
HETATM   11  C3  UNL     1      -3.798   3.944  -2.498  1.00  0.00     0.255 C 
HETATM   12  O1  UNL     1      -2.993   4.484  -1.739  1.00  0.00    -0.305 OA
ENDBRANCH   9  11
ENDBRANCH   7   9
ENDBRANCH   6   7
BRANCH   6  13
HETATM   13  O2  UNL     1      -3.363   0.308  -1.580  1.00  0.00    -0.348 OA
ATOM     14  H2  UNL     1      -2.976  -0.548  -1.438  1.00  0.00     0.219 HD
ENDBRANCH   6  13
ENDBRANCH   5   6
BRANCH   5  15
HETATM   15  C18 UNL     1      -2.891   1.469   1.839  1.00  0.00     0.306 C 
BRANCH  15  16
HETATM   16  N6  UNL     1      -4.244   1.987   2.104  1.00  0.00    -0.064 N 
ATOM     17  H63 UNL     1      -4.691   2.385   1.278  1.00  0.00     0.275 HD
ATOM     18  H62 UNL     1      -4.929   1.252   2.280  1.00  0.00     0.275 HD
ATOM     19  H61 UNL     1      -4.159   2.650   2.874  1.00  0.00     0.275 HD
ENDBRANCH  15  16
BRANCH  15  20
HETATM   20  C19 UNL     1      -2.315   0.882   3.055  1.00  0.00     0.268 C 
HETATM   21  O6  UNL     1      -1.178   0.375   3.040  1.00  0.00    -0.269 OA
HETATM   22  N7  UNL     1      -3.050   0.882   4.261  1.00  0.00    -0.275 N 
ATOM     23  H7  UNL     1      -3.980   1.301   4.242  1.00  0.00     0.189 HD
BRANCH  22  24
HETATM   24  N8  UNL     1      -2.609   0.355   5.481  1.00  0.00    -0.343 N 
ATOM     25  H82 UNL     1      -1.677  -0.060   5.481  1.00  0.00     0.176 HD
ATOM     26  H81 UNL     1      -3.140   0.355   6.352  1.00  0.00     0.176 HD
ENDBRANCH  22  24
ENDBRANCH  15  20
ENDBRANCH   5  15
ENDBRANCH   1   5
BRANCH   3  27
HETATM   27  C7  UNL     1      -0.668  -2.556   0.404  1.00  0.00     0.179 C 
HETATM   28  C8  UNL     1      -1.097  -3.792  -0.361  1.00  0.00     0.037 C 
HETATM   29  C9  UNL     1      -0.348  -3.714  -1.694  1.00  0.00     0.022 C 
HETATM   30  C10 UNL     1      -0.086  -2.226  -1.785  1.00  0.00     0.127 C 
HETATM   31  N3  UNL     1       0.329  -1.921  -0.427  1.00  0.00    -0.333 N 
HETATM   32  C11 UNL     1       1.441  -1.159  -0.057  1.00  0.00     0.273 C 
HETATM   33  O4  UNL     1       1.796  -0.869   1.100  1.00  0.00    -0.266 OA
BRANCH  32  34
HETATM   34  C12 UNL     1       2.328  -0.613  -1.180  1.00  0.00     0.260 C 
BRANCH  34  35
HETATM   35  N4  UNL     1       3.342   0.088  -0.921  1.00  0.00    -0.376 NA
HETATM   36  C13 UNL     1       4.442   1.045  -0.528  1.00  0.00     0.322 C 
HETATM   37  O5  UNL     1       4.195   2.048   0.085  1.00  0.00    -0.255 OA
BRANCH  36  38
HETATM   38  C14 UNL     1       5.800   0.678  -0.940  1.00  0.00     0.293 C 
BRANCH  38  39
HETATM   39  N5  UNL     1       6.703   1.663  -0.377  1.00  0.00    -0.065 N 
ATOM     40  H53 UNL     1       6.455   2.620  -0.627  1.00  0.00     0.275 HD
ATOM     41  H52 UNL     1       6.606   1.761   0.634  1.00  0.00     0.275 HD
ATOM     42  H51 UNL     1       7.648   1.408  -0.664  1.00  0.00     0.275 HD
ENDBRANCH  38  39
BRANCH  38  43
HETATM   43  C15 UNL     1       6.273  -0.677  -0.522  1.00  0.00     0.018 C 
HETATM   44  C16 UNL     1       6.248  -0.785   1.006  1.00  0.00     0.012 C 
HETATM   45  C17 UNL     1       5.550  -1.839  -1.107  1.00  0.00     0.012 C 
ENDBRANCH  38  43
ENDBRANCH  36  38
ENDBRANCH  34  35
ENDBRANCH  32  34
ENDBRANCH   3  27
TORSDOF 16
