REMARK  12 active torsions:
REMARK  status: ('A' for Active; 'I' for Inactive)
REMARK    1  A    between atoms: C2_2  and  C3_4 
REMARK    2  A    between atoms: C3_4  and  N1_5 
REMARK    3  A    between atoms: C3_4  and  C13_31 
REMARK       I    between atoms: N1_5  and  C4_7 
REMARK    4  A    between atoms: C4_7  and  C5_9 
REMARK    5  A    between atoms: C5_9  and  C6_10 
REMARK    6  A    between atoms: C5_9  and  N4_19 
REMARK    7  A    between atoms: C6_10  and  C7_11 
REMARK       I    between atoms: C7_11  and  N2_13 
REMARK    8  A    between atoms: N2_13  and  C8_15 
REMARK    9  A    between atoms: C8_15  and  C9_16 
REMARK   10  A    between atoms: N4_19  and  S1_21 
REMARK   11  A    between atoms: S1_21  and  N5_24 
REMARK       I    between atoms: C13_31  and  N7_33 
REMARK   12  A    between atoms: N7_33  and  N8_35 
ROOT
HETATM    1  C5  UNL     1      -1.006  -0.278  -0.814  1.00  0.00     0.195 C 
ENDROOT
BRANCH   1   2
HETATM    2  C4  UNL     1      -0.402   1.094  -1.170  1.00  0.00     0.242 C 
HETATM    3  N1  UNL     1      -0.326   2.079  -0.191  1.00  0.00    -0.340 N 
ATOM      4  H1  UNL     1      -0.672   1.776   0.719  1.00  0.00     0.163 HD
HETATM    5  O2  UNL     1      -0.002   1.280  -2.320  1.00  0.00    -0.271 OA
BRANCH   3   6
HETATM    6  C3  UNL     1       0.135   3.418  -0.204  1.00  0.00     0.248 C 
BRANCH   6   7
HETATM    7  C2  UNL     1       0.112   4.181  -1.445  1.00  0.00     0.154 C 
HETATM    8  C1  UNL     1       0.728   5.569  -1.517  1.00  0.00     0.093 C 
HETATM    9  O1  UNL     1      -0.378   3.784  -2.462  1.00  0.00    -0.296 OA
ENDBRANCH   6   7
BRANCH   6  10
HETATM   10  C13 UNL     1       1.487   3.429   0.450  1.00  0.00     0.265 C 
HETATM   11  O8  UNL     1       2.251   2.486   0.224  1.00  0.00    -0.269 OA
HETATM   12  N7  UNL     1       1.879   4.489   1.307  1.00  0.00    -0.275 N 
ATOM     13  H7  UNL     1       1.234   5.259   1.485  1.00  0.00     0.189 HD
BRANCH  12  14
HETATM   14  N8  UNL     1       3.134   4.491   1.908  1.00  0.00    -0.343 N 
ATOM     15  H82 UNL     1       3.767   3.714   1.720  1.00  0.00     0.176 HD
ATOM     16  H81 UNL     1       3.416   5.253   2.524  1.00  0.00     0.176 HD
ENDBRANCH  12  14
ENDBRANCH   6  10
ENDBRANCH   3   6
ENDBRANCH   1   2
BRANCH   1  17
HETATM   17  C6  UNL     1      -0.590  -0.735   0.537  1.00  0.00     0.138 C 
BRANCH  17  18
HETATM   18  C7  UNL     1       0.890  -0.874   0.660  1.00  0.00     0.220 C 
HETATM   19  O3  UNL     1       1.578  -0.728  -0.380  1.00  0.00    -0.274 OA
HETATM   20  N2  UNL     1       1.565  -1.154   1.867  1.00  0.00    -0.353 N 
ATOM     21  H2  UNL     1       1.031  -1.277   2.728  1.00  0.00     0.162 HD
BRANCH  20  22
HETATM   22  C8  UNL     1       2.999  -1.267   1.895  1.00  0.00     0.222 C 
BRANCH  22  23
HETATM   23  C9  UNL     1       3.529  -1.558   3.258  1.00  0.00     0.248 C 
HETATM   24  N3  UNL     1       4.929  -1.681   3.400  1.00  0.00    -0.061 NA
HETATM   25  O4  UNL     1       2.771  -1.690   4.245  1.00  0.00    -0.275 OA
ENDBRANCH  22  23
ENDBRANCH  20  22
ENDBRANCH  17  18
ENDBRANCH   1  17
BRANCH   1  26
HETATM   26  N4  UNL     1      -0.950  -1.166  -1.879  1.00  0.00    -0.288 N 
ATOM     27  H4  UNL     1      -0.040  -1.564  -2.110  1.00  0.00     0.174 HD
BRANCH  26  28
HETATM   28  S1  UNL     1      -2.235  -1.630  -2.801  1.00  0.00     0.325 S 
HETATM   29  O5  UNL     1      -3.386  -0.641  -2.850  1.00  0.00    -0.182 OA
HETATM   30  O6  UNL     1      -1.935  -1.943  -4.241  1.00  0.00    -0.182 OA
BRANCH  28  31
HETATM   31  N5  UNL     1      -2.916  -3.071  -2.126  1.00  0.00    -0.209 N 
HETATM   32  C10 UNL     1      -2.817  -4.446  -2.577  1.00  0.00     0.167 C 
HETATM   33  C11 UNL     1      -4.072  -5.117  -2.011  1.00  0.00     0.145 C 
HETATM   34  N6  UNL     1      -4.277  -4.407  -0.758  1.00  0.00    -0.341 N 
HETATM   35  C12 UNL     1      -3.729  -3.118  -0.960  1.00  0.00     0.333 C 
ATOM     36  H6  UNL     1      -4.722  -4.763   0.088  1.00  0.00     0.164 HD
HETATM   37  O7  UNL     1      -3.955  -2.153  -0.181  1.00  0.00    -0.246 OA
ENDBRANCH  28  31
ENDBRANCH  26  28
ENDBRANCH   1  26
TORSDOF 12
