REMARK  8 active torsions:
REMARK  status: ('A' for Active; 'I' for Inactive)
REMARK    1  A    between atoms: C3_5  and  N2_6 
REMARK    2  A    between atoms: C4_11  and  N4_12 
REMARK       I    between atoms: N4_12  and  C5_14 
REMARK    3  A    between atoms: N6_16  and  N7_18 
REMARK    4  A    between atoms: N7_18  and  N8_20 
REMARK    5  A    between atoms: N9_23  and  C6_24 
REMARK    6  A    between atoms: C6_24  and  C7_25 
REMARK    7  A    between atoms: C7_25  and  C8_26 
REMARK    8  A    between atoms: C8_26  and  N10_28 
ROOT
HETATM    1  C1  UNL     1       1.168  -2.939   1.508  1.00  0.00     0.090 C 
HETATM    2  C2  UNL     1       1.519  -1.663   0.804  1.00  0.00     0.112 A 
HETATM    3  N1  UNL     1       2.746  -1.466   0.290  1.00  0.00    -0.180 N 
ATOM      4  H1  UNL     1       3.444  -2.204   0.386  1.00  0.00     0.185 HD
HETATM    5  C3  UNL     1       3.086  -0.331  -0.346  1.00  0.00     0.691 A 
HETATM    6  N3  UNL     1       2.199   0.668  -0.494  1.00  0.00    -0.022 N 
ATOM      7  H3  UNL     1       2.445   1.534  -0.973  1.00  0.00     0.203 HD
HETATM    8  C4  UNL     1       0.971   0.472   0.020  1.00  0.00     0.702 A 
HETATM    9  N9  UNL     1       0.628  -0.668   0.659  1.00  0.00    -0.171 N 
ENDROOT
BRANCH   8  10
HETATM   10  N4  UNL     1       0.087   1.428  -0.109  1.00  0.00    -0.161 N 
HETATM   11  C5  UNL     1       0.406   2.630  -0.767  1.00  0.00     0.222 C 
HETATM   12  N5  UNL     1       0.901   3.783  -0.102  1.00  0.00    -0.061 NA
HETATM   13  N6  UNL     1       0.241   2.698  -2.050  1.00  0.00    -0.259 N 
ATOM     14  H6  UNL     1      -0.116   1.869  -2.526  1.00  0.00     0.191 HD
ATOM     15  H4  UNL     1      -0.850   1.300   0.274  1.00  0.00     0.187 HD
BRANCH  13  16
HETATM   16  N7  UNL     1       0.513   3.810  -2.819  1.00  0.00    -0.247 N 
ATOM     17  H7  UNL     1      -0.133   4.599  -2.805  1.00  0.00     0.207 HD
BRANCH  16  18
HETATM   18  N8  UNL     1       1.651   3.873  -3.611  1.00  0.00    -0.331 N 
ATOM     19  H82 UNL     1       2.286   3.075  -3.613  1.00  0.00     0.178 HD
ATOM     20  H81 UNL     1       1.852   4.695  -4.180  1.00  0.00     0.178 HD
ENDBRANCH  16  18
ENDBRANCH  13  16
ENDBRANCH   8  10
BRANCH   9  21
HETATM   21  C6  UNL     1      -0.702  -0.828   1.191  1.00  0.00     0.151 C 
BRANCH  21  22
HETATM   22  C7  UNL     1      -1.661  -1.446   0.198  1.00  0.00     0.053 C 
BRANCH  22  23
HETATM   23  C8  UNL     1      -3.011  -1.544   0.916  1.00  0.00     0.181 C 
HETATM   24  C9  UNL     1      -2.847  -2.418   2.146  1.00  0.00     0.039 C 
BRANCH  23  25
HETATM   25  N10 UNL     1      -4.025  -2.095   0.062  1.00  0.00    -0.075 N 
ATOM     26 3H10 UNL     1      -4.104  -1.571  -0.809  1.00  0.00     0.274 HD
ATOM     27 2H10 UNL     1      -3.740  -2.997  -0.321  1.00  0.00     0.274 HD
ATOM     28 1H10 UNL     1      -4.924  -2.160   0.540  1.00  0.00     0.274 HD
ENDBRANCH  23  25
ENDBRANCH  22  23
ENDBRANCH  21  22
ENDBRANCH   9  21
BRANCH   5  29
HETATM   29  N2  UNL     1       4.286  -0.183  -0.827  1.00  0.00    -0.234 N 
ATOM     30  H22 UNL     1       4.959  -0.941  -0.715  1.00  0.00     0.174 HD
ATOM     31  H21 UNL     1       4.544   0.678  -1.309  1.00  0.00     0.174 HD
ENDBRANCH   5  29
TORSDOF 8
