REMARK  3 active torsions:
REMARK  status: ('A' for Active; 'I' for Inactive)
REMARK       I    between atoms: C2_2  and  N1_4 
REMARK    1  A    between atoms: N1_4  and  C3_6 
REMARK    2  A    between atoms: C3_6  and  S2_8 
REMARK    3  A    between atoms: S2_8  and  C4_9 
ROOT
HETATM    1  C3  UNL     1       1.703  -1.470   0.969  1.00  0.00     0.141 C 
HETATM    2  S1  UNL     1       2.536  -2.865   1.280  1.00  0.00    -0.052 SA
ENDROOT
BRANCH   1   3
HETATM    3  N1  UNL     1       2.388  -0.446   0.272  1.00  0.00    -0.313 N 
HETATM    4  C2  UNL     1       3.727  -0.591  -0.153  1.00  0.00     0.219 C 
HETATM    5  C1  UNL     1       4.388   0.532  -0.884  1.00  0.00     0.117 C 
HETATM    6  O1  UNL     1       4.404  -1.623   0.050  1.00  0.00    -0.274 OA
ATOM      7  H1  UNL     1       1.898   0.426   0.070  1.00  0.00     0.170 HD
ENDBRANCH   1   3
BRANCH   1   8
HETATM    8  S2  UNL     1       0.006  -1.336   1.509  1.00  0.00    -0.096 SA
BRANCH   8   9
HETATM    9  C4  UNL     1      -0.663   0.227   0.878  1.00  0.00     0.054 C 
HETATM   10  C5  UNL     1      -2.068   0.471   1.400  1.00  0.00     0.015 C 
HETATM   11  C6  UNL     1      -2.878   1.166   0.342  1.00  0.00     0.001 C 
HETATM   12  C7  UNL     1      -3.203   0.234  -0.812  1.00  0.00     0.000 C 
HETATM   13  C8  UNL     1      -2.063  -0.781  -0.849  1.00  0.00     0.001 C 
HETATM   14  C9  UNL     1      -0.783   0.044  -0.645  1.00  0.00     0.015 C 
ENDBRANCH   8   9
ENDBRANCH   1   8
TORSDOF 3
