REMARK  5 active torsions:
REMARK  status: ('A' for Active; 'I' for Inactive)
REMARK    1  A    between atoms: C2_2  and  O1_5 
REMARK    2  A    between atoms: O1_5  and  C5_6 
REMARK    3  A    between atoms: C5_6  and  C6_8 
REMARK    4  A    between atoms: C6_8  and  N1_9 
REMARK    5  A    between atoms: N1_9  and  C7_11 
ROOT
HETATM    1  N1  UNL     1      -0.233  -0.161   0.691  1.00  0.00    -0.409 N 
ATOM      2  H1  UNL     1       0.081  -0.450   1.617  1.00  0.00     0.154 HD
ENDROOT
BRANCH   1   3
HETATM    3  C6  UNL     1       0.691   0.267  -0.297  1.00  0.00     0.225 C 
BRANCH   3   4
HETATM    4  C5  UNL     1       2.070   0.092   0.283  1.00  0.00     0.277 C 
HETATM    5  O2  UNL     1       2.230  -0.420   1.436  1.00  0.00    -0.263 OA
BRANCH   4   6
HETATM    6  O1  UNL     1       3.219   0.466  -0.386  1.00  0.00    -0.310 OA
BRANCH   6   7
HETATM    7  C2  UNL     1       4.502   0.294   0.143  1.00  0.00     0.060 C 
HETATM    8  C1  UNL     1       5.479   0.853  -0.899  1.00  0.00     0.045 C 
HETATM    9  C3  UNL     1       4.851  -1.166   0.342  1.00  0.00     0.045 C 
HETATM   10  C4  UNL     1       4.767   1.006   1.433  1.00  0.00     0.045 C 
ENDBRANCH   6   7
ENDBRANCH   4   6
ENDBRANCH   3   4
ENDBRANCH   1   3
BRANCH   1  11
HETATM   11  C7  UNL     1      -1.618  -0.173   0.343  1.00  0.00     0.077 C 
HETATM   12  C8  UNL     1      -1.798  -1.190  -0.764  1.00  0.00     0.024 C 
HETATM   13  C9  UNL     1      -3.032  -2.004  -0.627  1.00  0.00     0.002 C 
HETATM   14  C10 UNL     1      -4.213  -1.344  -0.002  1.00  0.00     0.000 C 
HETATM   15  C11 UNL     1      -4.649  -0.062  -0.633  1.00  0.00     0.000 C 
HETATM   16  C12 UNL     1      -4.630   1.086   0.338  1.00  0.00     0.000 C 
HETATM   17  C13 UNL     1      -3.293   1.585   0.735  1.00  0.00     0.002 C 
HETATM   18  C14 UNL     1      -2.139   1.169  -0.101  1.00  0.00     0.024 C 
ENDBRANCH   1  11
TORSDOF 5
