REMARK  9 active torsions:
REMARK  status: ('A' for Active; 'I' for Inactive)
REMARK    1  A    between atoms: C2_2  and  C3_3 
REMARK    2  A    between atoms: C3_3  and  C4_4 
REMARK    3  A    between atoms: C4_4  and  N1_5 
REMARK       I    between atoms: N1_5  and  C5_7 
REMARK    4  A    between atoms: C5_7  and  C6_9 
REMARK    5  A    between atoms: C6_9  and  N2_10 
REMARK    6  A    between atoms: C6_9  and  C7_14 
REMARK    7  A    between atoms: C7_14  and  C8_15 
REMARK    8  A    between atoms: C10_17  and  S1_18 
REMARK    9  A    between atoms: S1_18  and  N3_21 
REMARK       I    between atoms: C11_23  and  N5_25 
ROOT
HETATM    1  C8  UNL     1       0.001  -1.979  -1.045  1.00  0.00    -0.035 A 
HETATM    2  C9  UNL     1      -1.031  -1.089  -1.361  1.00  0.00     0.035 A 
HETATM    3  C10 UNL     1      -2.352  -1.307  -1.074  1.00  0.00     0.099 A 
HETATM    4  C14 UNL     1      -2.703  -2.489  -0.425  1.00  0.00     0.053 A 
HETATM    5 BR1  UNL     1      -4.533  -2.815  -0.015  1.00  0.00    -0.048 Br
HETATM    6  C15 UNL     1      -1.721  -3.386  -0.101  1.00  0.00     0.047 A 
HETATM    7 BR2  UNL     1      -2.210  -5.008   0.791  1.00  0.00    -0.048 Br
HETATM    8  C16 UNL     1      -0.374  -3.133  -0.410  1.00  0.00     0.036 A 
HETATM    9 BR3  UNL     1       0.909  -4.486   0.024  1.00  0.00    -0.049 Br
ENDROOT
BRANCH   1  10
HETATM   10  C7  UNL     1       1.390  -1.628  -1.341  1.00  0.00     0.082 C 
BRANCH  10  11
HETATM   11  C6  UNL     1       2.153  -0.945  -0.268  1.00  0.00     0.278 C 
BRANCH  11  12
HETATM   12  C5  UNL     1       3.548  -0.654  -0.733  1.00  0.00     0.248 C 
HETATM   13  N1  UNL     1       4.633  -0.745   0.157  1.00  0.00    -0.359 N 
ATOM     14  H1  UNL     1       4.425  -1.016   1.118  1.00  0.00     0.162 HD
HETATM   15  O1  UNL     1       3.758  -0.320  -1.941  1.00  0.00    -0.271 OA
BRANCH  13  16
HETATM   16  C4  UNL     1       6.003  -0.490  -0.168  1.00  0.00     0.122 C 
BRANCH  16  17
HETATM   17  C3  UNL     1       6.202   0.927  -0.632  1.00  0.00     0.019 C 
BRANCH  17  18
HETATM   18  C2  UNL     1       5.763   1.902   0.449  1.00  0.00    -0.003 C 
HETATM   19  C1  UNL     1       6.533   1.739   1.733  1.00  0.00     0.005 C 
ENDBRANCH  17  18
ENDBRANCH  16  17
ENDBRANCH  13  16
ENDBRANCH  11  12
BRANCH  11  20
HETATM   20  N2  UNL     1       2.118  -1.592   0.997  1.00  0.00    -0.066 N 
ATOM     21  H23 UNL     1       2.685  -2.440   0.990  1.00  0.00     0.275 HD
ATOM     22  H22 UNL     1       2.632  -1.056   1.696  1.00  0.00     0.275 HD
ATOM     23  H21 UNL     1       1.169  -1.790   1.313  1.00  0.00     0.275 HD
ENDBRANCH  11  20
ENDBRANCH  10  11
ENDBRANCH   1  10
BRANCH   3  24
HETATM   24  S1  UNL     1      -3.518  -0.108  -1.520  1.00  0.00     0.266 S 
HETATM   25  O2  UNL     1      -2.815   1.024  -2.207  1.00  0.00    -0.200 OA
HETATM   26  O3  UNL     1      -4.480  -0.763  -2.493  1.00  0.00    -0.200 OA
BRANCH  24  27
HETATM   27  N3  UNL     1      -4.364   0.533  -0.181  1.00  0.00    -0.254 N 
HETATM   28  C11 UNL     1      -5.453   1.207  -0.407  1.00  0.00     0.199 C 
HETATM   29  N4  UNL     1      -5.922   1.403  -1.728  1.00  0.00    -0.063 NA
HETATM   30  N5  UNL     1      -6.218   1.775   0.638  1.00  0.00    -0.364 N 
HETATM   31  C12 UNL     1      -7.193   0.969   1.319  1.00  0.00     0.151 C 
HETATM   32  C13 UNL     1      -6.017   3.146   1.010  1.00  0.00     0.151 C 
ATOM     33  H3  UNL     1      -4.024   0.391   0.770  1.00  0.00     0.181 HD
ENDBRANCH  24  27
ENDBRANCH   3  24
TORSDOF 9
