REMARK  14 active torsions:
REMARK  status: ('A' for Active; 'I' for Inactive)
REMARK    1  A    between atoms: N1_7  and  C5_8 
REMARK    2  A    between atoms: C5_8  and  C6_9 
REMARK    3  A    between atoms: C6_9  and  O2_10 
REMARK    4  A    between atoms: O2_10  and  C7_11 
REMARK    5  A    between atoms: C7_11  and  O3_12 
REMARK    6  A    between atoms: C7_11  and  C8_14 
REMARK    7  A    between atoms: C10_16  and  N2_17 
REMARK    8  A    between atoms: N2_17  and  C11_19 
REMARK    9  A    between atoms: C11_19  and  O4_20 
REMARK   10  A    between atoms: C11_19  and  N3_22 
REMARK   11  A    between atoms: N3_22  and  C12_24 
REMARK   12  A    between atoms: C12_24  and  O5_25 
REMARK   13  A    between atoms: C12_24  and  O6_27 
REMARK   14  A    between atoms: O6_27  and  C13_28 
ROOT
HETATM    1  C8  UNL     1      -1.011  -1.053   0.711  1.00  0.00     0.046 A 
HETATM    2  C9  UNL     1       0.101  -0.506   0.126  1.00  0.00     0.047 A 
HETATM    3  C10 UNL     1       1.320  -1.074   0.266  1.00  0.00     0.036 A 
HETATM    4  C16 UNL     1       1.457  -2.261   1.034  1.00  0.00     0.031 A 
HETATM    5  C17 UNL     1       0.372  -2.847   1.641  1.00  0.00     0.027 A 
HETATM    6  C18 UNL     1      -0.849  -2.242   1.478  1.00  0.00     0.049 A 
HETATM    7 CL1  UNL     1      -2.262  -2.941   2.245  1.00  0.00    -0.083 Cl
ENDROOT
BRANCH   3   8
HETATM    8  N2  UNL     1       2.599  -0.647  -0.210  1.00  0.00    -0.322 N 
ATOM      9  H2  UNL     1       2.963   0.287  -0.020  1.00  0.00     0.169 HD
BRANCH   8  10
HETATM   10  C11 UNL     1       3.332  -1.603  -0.964  1.00  0.00     0.225 C 
BRANCH  10  11
HETATM   11  O4  UNL     1       2.598  -2.658  -1.264  1.00  0.00    -0.332 OA
ATOM     12  H4  UNL     1       3.088  -3.297  -1.768  1.00  0.00     0.221 HD
ENDBRANCH  10  11
BRANCH  10  13
HETATM   13  N3  UNL     1       4.631  -1.588  -1.390  1.00  0.00    -0.282 N 
ATOM     14  H3  UNL     1       4.835  -2.350  -2.036  1.00  0.00     0.173 HD
BRANCH  13  15
HETATM   15  C12 UNL     1       5.739  -0.787  -1.156  1.00  0.00     0.268 C 
BRANCH  15  16
HETATM   16  O5  UNL     1       6.902  -1.207  -1.632  1.00  0.00    -0.327 OA
ATOM     17  H5  UNL     1       7.661  -0.658  -1.472  1.00  0.00     0.221 HD
ENDBRANCH  15  16
BRANCH  15  18
HETATM   18  O6  UNL     1       5.874   0.407  -0.489  1.00  0.00    -0.275 OA
BRANCH  18  19
HETATM   19  C13 UNL     1       7.220   0.963  -0.354  1.00  0.00     0.206 C 
HETATM   20  C14 UNL     1       7.128   2.283   0.335  1.00  0.00     0.084 C 
HETATM   21  C15 UNL     1       8.022   0.007   0.543  1.00  0.00     0.084 C 
HETATM   22  F1  UNL     1       7.813   1.030  -1.575  1.00  0.00    -0.212 F 
ENDBRANCH  18  19
ENDBRANCH  15  18
ENDBRANCH  13  15
ENDBRANCH  10  13
ENDBRANCH   8  10
ENDBRANCH   3   8
BRANCH   1  23
HETATM   23  C7  UNL     1      -2.362  -0.601   0.667  1.00  0.00     0.190 C 
BRANCH  23  24
HETATM   24  O2  UNL     1      -3.276  -0.641  -0.370  1.00  0.00    -0.328 OA
BRANCH  24  25
HETATM   25  C6  UNL     1      -4.596  -0.231  -0.184  1.00  0.00     0.198 C 
BRANCH  25  26
HETATM   26  C5  UNL     1      -4.835   1.195   0.110  1.00  0.00     0.159 C 
BRANCH  26  27
HETATM   27  N1  UNL     1      -6.306   1.345   0.479  1.00  0.00    -0.310 N 
HETATM   28  C2  UNL     1      -7.272   1.493  -0.389  1.00  0.00     0.018 A 
HETATM   29  C1  UNL     1      -7.097   1.527  -1.906  1.00  0.00     0.069 C 
HETATM   30  C3  UNL     1      -8.550   1.601   0.101  1.00  0.00     0.080 A 
HETATM   31  S1  UNL     1      -8.309   1.489   1.786  1.00  0.00    -0.039 SA
HETATM   32  C4  UNL     1      -6.618   1.310   1.781  1.00  0.00     0.290 A 
HETATM   33  O1  UNL     1      -5.810   1.170   2.783  1.00  0.00    -0.260 OA
ENDBRANCH  26  27
ENDBRANCH  25  26
ENDBRANCH  24  25
ENDBRANCH  23  24
BRANCH  23  34
HETATM   34  O3  UNL     1      -2.850  -0.081   1.774  1.00  0.00    -0.340 OA
ATOM     35  H3  UNL     1      -2.222  -0.054   2.486  1.00  0.00     0.220 HD
ENDBRANCH  23  34
ENDBRANCH   1  23
TORSDOF 14
