REMARK  3 active torsions:
REMARK  status: ('A' for Active; 'I' for Inactive)
REMARK    1  A    between atoms: C4_4  and  C5_5 
REMARK    2  A    between atoms: C7_7  and  C8_9 
REMARK    3  A    between atoms: C8_9  and  O1_11 
ROOT
HETATM    1  C5  UNL     1       0.674  -0.462  -0.238  1.00  0.00     0.028 C 
HETATM    2  C6  UNL     1       0.038  -1.299   0.800  1.00  0.00     0.056 C 
HETATM    3  C7  UNL     1      -1.444  -1.236   0.395  1.00  0.00     0.137 C 
HETATM    4  F1  UNL     1      -2.202  -0.995   1.557  1.00  0.00    -0.239 F 
HETATM    5  C10 UNL     1      -1.588  -0.063  -0.534  1.00  0.00     0.006 C 
HETATM    6  C11 UNL     1      -2.815   0.719  -0.167  1.00  0.00     0.019 C 
HETATM    7  C12 UNL     1      -1.804  -0.455  -1.983  1.00  0.00     0.019 C 
HETATM    8  C13 UNL     1      -0.298   0.672  -0.378  1.00  0.00     0.037 C 
HETATM    9  C14 UNL     1      -0.279   1.609   0.797  1.00  0.00     0.019 C 
HETATM   10  C15 UNL     1       0.653   2.788   0.598  1.00  0.00     0.002 C 
HETATM   11  C16 UNL     1       0.175   3.678  -0.516  1.00  0.00     0.007 C 
HETATM   12  C17 UNL     1      -0.241   2.889  -1.713  1.00  0.00     0.079 C 
HETATM   13  C18 UNL     1       0.077   1.447  -1.589  1.00  0.00     0.137 C 
HETATM   14  O2  UNL     1       0.670   0.936  -2.551  1.00  0.00    -0.297 OA
ENDROOT
BRANCH   1  15
HETATM   15  C4  UNL     1       2.078  -0.118  -0.129  1.00  0.00    -0.019 C 
HETATM   16  C2  UNL     1       2.968  -0.337   0.802  1.00  0.00    -0.091 C 
HETATM   17  C1  UNL     1       4.371   0.183   0.566  1.00  0.00     0.042 C 
HETATM   18  C3  UNL     1       2.779  -1.044   2.089  1.00  0.00     0.042 C 
ENDBRANCH   1  15
BRANCH   3  19
HETATM   19  C8  UNL     1      -1.944  -2.536  -0.139  1.00  0.00     0.154 C 
HETATM   20  C9  UNL     1      -1.823  -3.648   0.900  1.00  0.00     0.042 C 
BRANCH  19  21
HETATM   21  O1  UNL     1      -1.246  -2.990  -1.257  1.00  0.00    -0.393 OA
ATOM     22  H1  UNL     1      -1.564  -3.818  -1.597  1.00  0.00     0.210 HD
ENDBRANCH  19  21
ENDBRANCH   3  19
TORSDOF 3
