REMARK  3 active torsions:
REMARK  status: ('A' for Active; 'I' for Inactive)
REMARK    1  A    between atoms: C5_6  and  C6_7 
REMARK    2  A    between atoms: C6_7  and  N1_8 
REMARK    3  A    between atoms: N2_11  and  C9_12 
ROOT
HETATM    1  N1  UNL     1       1.431  -0.478  -0.237  1.00  0.00     0.093 N 
HETATM    2  C7  UNL     1       0.979   0.827  -0.480  1.00  0.00     0.291 C 
HETATM    3  C8  UNL     1      -0.444   1.016  -0.861  1.00  0.00     0.147 C 
HETATM    4  N2  UNL     1      -1.315  -0.044  -0.484  1.00  0.00    -0.405 N 
HETATM    5  C16 UNL     1      -0.760  -0.718   0.645  1.00  0.00     0.147 C 
HETATM    6  C17 UNL     1       0.454  -1.466   0.074  1.00  0.00     0.291 C 
ENDROOT
BRANCH   1   7
HETATM    7  C6  UNL     1       2.492  -0.579   0.745  1.00  0.00     0.297 C 
BRANCH   7   8
HETATM    8  C5  UNL     1       3.791   0.026   0.255  1.00  0.00     0.112 C 
HETATM    9  C4  UNL     1       4.267  -0.663  -0.980  1.00  0.00     0.027 C 
HETATM   10  C3  UNL     1       5.723  -0.548  -1.271  1.00  0.00     0.011 C 
HETATM   11  C2  UNL     1       6.468   0.433  -0.410  1.00  0.00     0.103 C 
HETATM   12  C1  UNL     1       6.131   0.128   1.001  1.00  0.00     0.217 C 
HETATM   13  O1  UNL     1       7.014  -0.016   1.870  1.00  0.00    -0.274 OA
HETATM   14  N3  UNL     1       4.760   0.003   1.333  1.00  0.00    -0.355 N 
ATOM     15  H3  UNL     1       4.463  -0.100   2.303  1.00  0.00     0.162 HD
ENDBRANCH   7   8
ENDBRANCH   1   7
BRANCH   4  16
HETATM   16  C9  UNL     1      -2.696   0.207  -0.491  1.00  0.00     0.079 C 
HETATM   17  C10 UNL     1      -3.416  -1.028   0.014  1.00  0.00     0.025 C 
HETATM   18  C11 UNL     1      -4.715  -1.282  -0.717  1.00  0.00     0.002 C 
HETATM   19  C12 UNL     1      -5.836  -0.429  -0.151  1.00  0.00     0.000 C 
HETATM   20  C13 UNL     1      -5.500   1.006  -0.512  1.00  0.00     0.000 C 
HETATM   21  C14 UNL     1      -4.571   1.545   0.527  1.00  0.00     0.002 C 
HETATM   22  C15 UNL     1      -3.125   1.466   0.191  1.00  0.00     0.025 C 
ENDBRANCH   4  16
TORSDOF 3
