REMARK  14 active torsions:
REMARK  status: ('A' for Active; 'I' for Inactive)
REMARK    1  A    between atoms: O1_2  and  C2_3 
REMARK    2  A    between atoms: C5_6  and  N1_7 
REMARK    3  A    between atoms: N1_7  and  C6_9 
REMARK    4  A    between atoms: C6_9  and  O2_10 
REMARK    5  A    between atoms: C6_9  and  C7_12 
REMARK    6  A    between atoms: C7_12  and  C8_13 
REMARK    7  A    between atoms: C8_13  and  O3_14 
REMARK    8  A    between atoms: C8_13  and  C9_16 
REMARK    9  A    between atoms: C9_16  and  O4_17 
REMARK   10  A    between atoms: C9_16  and  C10_19 
REMARK   11  A    between atoms: C20_33  and  O9_35 
REMARK   12  A    between atoms: O9_35  and  C22_36 
REMARK   13  A    between atoms: C22_36  and  C23_38 
REMARK   14  A    between atoms: C23_38  and  C24_39 
ROOT
HETATM    1  C2  UNL     1      -1.382  -1.591   0.544  1.00  0.00     0.135 C 
HETATM    2  C3  UNL     1       0.143  -1.598   0.746  1.00  0.00     0.035 C 
HETATM    3  C4  UNL     1       0.829  -0.333   0.512  1.00  0.00     0.033 C 
HETATM    4  C5  UNL     1       1.569  -0.114  -0.803  1.00  0.00     0.153 C 
HETATM    5  C12 UNL     1       0.563   0.233  -1.891  1.00  0.00     0.283 A 
HETATM    6  O6  UNL     1      -0.141   1.444  -1.526  1.00  0.00    -0.267 OA
HETATM    7  C13 UNL     1       0.677   1.449  -2.703  1.00  0.00     0.328 A 
HETATM    8  O7  UNL     1       1.165   2.000  -3.700  1.00  0.00    -0.259 OA
HETATM    9  O8  UNL     1      -0.170  -0.742  -2.428  1.00  0.00    -0.338 OA
HETATM   10  C14 UNL     1      -0.789  -1.663  -1.682  1.00  0.00     0.145 A 
HETATM   11  C15 UNL     1      -2.038  -2.229  -1.984  1.00  0.00     0.033 A 
HETATM   12  C16 UNL     1      -2.783  -3.386  -1.520  1.00  0.00     0.012 C 
HETATM   13  C17 UNL     1      -4.170  -2.850  -1.236  1.00  0.00    -0.015 C 
HETATM   14  C18 UNL     1      -5.045  -3.052  -2.490  1.00  0.00     0.010 C 
HETATM   15  C19 UNL     1      -4.311  -1.503  -0.789  1.00  0.00     0.043 C 
HETATM   16  C20 UNL     1      -3.097  -0.529  -0.888  1.00  0.00     0.081 C 
HETATM   17  C21 UNL     1      -3.299   0.119  -2.279  1.00  0.00     0.047 C 
HETATM   18  C27 UNL     1      -1.871  -1.309  -0.799  1.00  0.00     0.050 A 
ENDROOT
BRANCH   4  19
HETATM   19  N1  UNL     1       2.288   1.120  -0.659  1.00  0.00    -0.387 N 
ATOM     20  H1  UNL     1       1.771   1.916  -0.285  1.00  0.00     0.156 HD
BRANCH  19  21
HETATM   21  C6  UNL     1       3.581   1.325  -0.971  1.00  0.00     0.216 C 
BRANCH  21  22
HETATM   22  O2  UNL     1       3.971   1.215  -2.306  1.00  0.00    -0.377 OA
ATOM     23  H2  UNL     1       4.884   1.360  -2.526  1.00  0.00     0.212 HD
ENDBRANCH  21  22
BRANCH  21  24
HETATM   24  C7  UNL     1       4.611   0.597  -0.101  1.00  0.00     0.087 C 
BRANCH  24  25
HETATM   25  C8  UNL     1       5.977   0.980  -0.643  1.00  0.00     0.158 C 
BRANCH  25  26
HETATM   26  O3  UNL     1       6.087   0.502  -1.930  1.00  0.00    -0.392 OA
ATOM     27  H3  UNL     1       6.941   0.742  -2.269  1.00  0.00     0.210 HD
ENDBRANCH  25  26
BRANCH  25  28
HETATM   28  C9  UNL     1       7.080   0.674   0.288  1.00  0.00     0.215 C 
BRANCH  28  29
HETATM   29  O4  UNL     1       6.910   1.201   1.556  1.00  0.00    -0.385 OA
ATOM     30  H4  UNL     1       7.620   1.004   2.155  1.00  0.00     0.210 HD
ENDBRANCH  28  29
BRANCH  28  31
HETATM   31  C10 UNL     1       8.359   1.277  -0.277  1.00  0.00     0.154 C 
HETATM   32  C11 UNL     1       9.051   2.291   0.526  1.00  0.00     0.093 C 
HETATM   33  O5  UNL     1       8.704   0.881  -1.323  1.00  0.00    -0.295 OA
ENDBRANCH  28  31
ENDBRANCH  25  28
ENDBRANCH  24  25
ENDBRANCH  21  24
ENDBRANCH  19  21
ENDBRANCH   4  19
BRANCH   1  34
HETATM   34  O1  UNL     1      -1.881  -2.725   1.175  1.00  0.00    -0.390 OA
HETATM   35  C1  UNL     1      -2.543  -2.494   2.344  1.00  0.00     0.202 C 
ENDBRANCH   1  34
BRANCH  16  36
HETATM   36  O9  UNL     1      -3.329   0.323   0.092  1.00  0.00    -0.306 OA
BRANCH  36  37
HETATM   37  C22 UNL     1      -3.330   1.241   0.991  1.00  0.00     0.284 C 
HETATM   38  O10 UNL     1      -2.271   1.897   1.067  1.00  0.00    -0.260 OA
BRANCH  37  39
HETATM   39  C23 UNL     1      -4.505   1.491   1.869  1.00  0.00     0.088 C 
BRANCH  39  40
HETATM   40  C24 UNL     1      -4.317   2.401   2.854  1.00  0.00    -0.066 C 
HETATM   41  C25 UNL     1      -3.119   3.098   3.098  1.00  0.00     0.018 C 
HETATM   42  C26 UNL     1      -5.571   2.630   3.671  1.00  0.00     0.047 C 
ENDBRANCH  39  40
ENDBRANCH  37  39
ENDBRANCH  36  37
ENDBRANCH  16  36
TORSDOF 14
