REMARK  2 active torsions:
REMARK  status: ('A' for Active; 'I' for Inactive)
REMARK    1  A    between atoms: O1_2  and  C2_3 
REMARK    2  A    between atoms: C2_3  and  N1_5 
ROOT
HETATM    1  N1  UNL     1       1.621   0.211   0.744  1.00  0.00    -0.277 N 
ATOM      2  H1  UNL     1       1.639   0.459   1.733  1.00  0.00     0.189 HD
HETATM    3  N2  UNL     1       2.521  -0.549   0.320  1.00  0.00    -0.343 N 
ATOM      4  H21 UNL     1       3.271  -0.938   0.891  1.00  0.00     0.176 HD
ATOM      5  H22 UNL     1       2.487  -0.786  -0.671  1.00  0.00     0.176 HD
ENDROOT
BRANCH   1   6
HETATM    6  C2  UNL     1       0.579   0.752  -0.049  1.00  0.00     0.228 C 
HETATM    7  S1  UNL     1       0.465   2.352  -0.363  1.00  0.00    -0.032 SA
BRANCH   6   8
HETATM    8  O1  UNL     1      -0.360  -0.107  -0.566  1.00  0.00    -0.331 OA
HETATM    9  C1  UNL     1      -1.602  -0.398   0.046  1.00  0.00     0.212 C 
ENDBRANCH   6   8
ENDBRANCH   1   6
TORSDOF 2
