REMARK  1 active torsions:
REMARK  status: ('A' for Active; 'I' for Inactive)
REMARK    1  A    between atoms: N1_5  and  N2_6 
ROOT
HETATM    1  C1  UNL     1      -2.508  -0.041   0.244  1.00  0.00     0.010 C 
HETATM    2  C2  UNL     1      -1.230  -0.180  -0.529  1.00  0.00    -0.016 C 
HETATM    3  C3  UNL     1      -0.387  -1.348  -0.071  1.00  0.00     0.020 C 
HETATM    4  C4  UNL     1       1.041  -1.052  -0.542  1.00  0.00     0.113 C 
HETATM    5  N1  UNL     1       1.583  -0.114   0.409  1.00  0.00    -0.238 NA
HETATM    6  C5  UNL     1       0.643   0.926   0.724  1.00  0.00     0.113 C 
HETATM    7  C6  UNL     1      -0.431   1.090  -0.335  1.00  0.00     0.020 C 
ENDROOT
BRANCH   5   8
HETATM    8  N2  UNL     1       2.849   0.330   0.101  1.00  0.00    -0.363 NA
ATOM      9  H22 UNL     1       3.516  -0.408  -0.123  1.00  0.00     0.171 HD
ATOM     10  H21 UNL     1       3.233   0.994   0.774  1.00  0.00     0.171 HD
ENDBRANCH   5   8
TORSDOF 1
