REMARK  6 active torsions:
REMARK  status: ('A' for Active; 'I' for Inactive)
REMARK    1  A    between atoms: C4_4  and  C5_5 
REMARK    2  A    between atoms: C5_5  and  C7_7 
REMARK    3  A    between atoms: C10_14  and  N3_15 
REMARK    4  A    between atoms: C13_20  and  O1_21 
REMARK    5  A    between atoms: O1_21  and  C14_22 
REMARK    6  A    between atoms: C14_22  and  C17_25 
ROOT
HETATM    1  C1  UNL     1       1.509  -0.058   2.419  1.00  0.00     0.051 C 
HETATM    2  C2  UNL     1       0.947  -0.003   1.048  1.00  0.00    -0.028 A 
HETATM    3  C3  UNL     1      -0.387  -0.388   0.890  1.00  0.00     0.017 A 
HETATM    4  C4  UNL     1      -1.021  -0.368  -0.340  1.00  0.00    -0.049 A 
HETATM    5  C11 UNL     1      -0.265   0.055  -1.421  1.00  0.00     0.011 A 
HETATM    6  C12 UNL     1       1.045   0.437  -1.293  1.00  0.00     0.038 A 
HETATM    7  C13 UNL     1       1.660   0.409  -0.047  1.00  0.00     0.076 A 
ENDROOT
BRANCH   4   8
HETATM    8  C5  UNL     1      -2.422  -0.788  -0.453  1.00  0.00     0.053 C 
HETATM    9  C6  UNL     1      -2.765  -1.351  -1.813  1.00  0.00     0.020 C 
BRANCH   8  10
HETATM   10  C7  UNL     1      -3.400   0.280  -0.077  1.00  0.00     0.018 A 
HETATM   11  C8  UNL     1      -4.447   0.151   0.838  1.00  0.00     0.032 A 
HETATM   12  C9  UNL     1      -4.730  -1.116   1.576  1.00  0.00     0.070 C 
HETATM   13  N1  UNL     1      -5.090   1.328   0.896  1.00  0.00    -0.303 N 
HETATM   14  N2  UNL     1      -4.517   2.192   0.078  1.00  0.00    -0.285 N 
ATOM     15  H1  UNL     1      -5.900   1.525   1.484  1.00  0.00     0.186 HD
HETATM   16  C10 UNL     1      -3.485   1.571  -0.524  1.00  0.00     0.122 A 
ATOM     17  H2  UNL     1      -4.805   3.159  -0.071  1.00  0.00     0.188 HD
BRANCH  16  18
HETATM   18  N3  UNL     1      -2.722   2.141  -1.381  1.00  0.00    -0.384 N 
ATOM     19  H32 UNL     1      -1.940   1.671  -1.837  1.00  0.00     0.157 HD
ATOM     20  H31 UNL     1      -2.785   3.103  -1.714  1.00  0.00     0.157 HD
ENDBRANCH  16  18
ENDBRANCH   8  10
ENDBRANCH   4   8
BRANCH   7  21
HETATM   21  O1  UNL     1       2.961   0.795   0.034  1.00  0.00    -0.331 OA
BRANCH  21  22
HETATM   22  C14 UNL     1       4.119   0.052  -0.109  1.00  0.00     0.158 C 
HETATM   23  C15 UNL     1       4.317  -1.082   0.836  1.00  0.00     0.056 C 
HETATM   24  C16 UNL     1       4.304  -0.497  -1.516  1.00  0.00     0.056 C 
BRANCH  22  25
HETATM   25  C17 UNL     1       5.295   1.015   0.100  1.00  0.00     0.418 C 
HETATM   26  F1  UNL     1       5.246   1.577   1.349  1.00  0.00    -0.168 F 
HETATM   27  F2  UNL     1       5.189   2.048  -0.817  1.00  0.00    -0.168 F 
HETATM   28  F3  UNL     1       6.504   0.355  -0.039  1.00  0.00    -0.168 F 
ENDBRANCH  22  25
ENDBRANCH  21  22
ENDBRANCH   7  21
TORSDOF 6
