REMARK  1 active torsions:
REMARK  status: ('A' for Active; 'I' for Inactive)
REMARK       I    between atoms: C1_2  and  N1_3 
REMARK       I    between atoms: C1_2  and  N2_12 
REMARK    1  A    between atoms: N2_12  and  C6_14 
ROOT
HETATM    1  O1  UNL     1      -0.379  -0.110  -2.500  1.00  0.00    -0.247 OA
HETATM    2  C1  UNL     1       0.297  -0.611  -1.566  1.00  0.00     0.321 C 
HETATM    3  N1  UNL     1       1.656  -0.889  -1.767  1.00  0.00    -0.303 N 
ATOM      4  H1  UNL     1       1.908  -1.714  -2.311  1.00  0.00     0.171 HD
HETATM    5  C2  UNL     1       2.594  -0.158  -1.301  1.00  0.00     0.109 C 
HETATM    6  C3  UNL     1       2.379   1.057  -0.502  1.00  0.00     0.071 C 
HETATM    7  C4  UNL     1       3.637   1.822  -0.390  1.00  0.00     0.022 C 
HETATM    8  C5  UNL     1       4.800   0.884  -0.263  1.00  0.00     0.147 C 
HETATM    9  S1  UNL     1       4.324  -0.365  -1.461  1.00  0.00     0.187 S 
HETATM   10  O2  UNL     1       4.770  -1.721  -1.020  1.00  0.00    -0.221 OA
HETATM   11  O3  UNL     1       4.771  -0.011  -2.835  1.00  0.00    -0.221 OA
HETATM   12  N2  UNL     1      -0.307  -0.893  -0.319  1.00  0.00    -0.338 N 
ATOM     13  H2  UNL     1       0.244  -1.299   0.438  1.00  0.00     0.164 HD
ENDROOT
BRANCH  12  14
HETATM   14  C6  UNL     1      -1.731  -0.598  -0.120  1.00  0.00     0.086 C 
HETATM   15  C7  UNL     1      -2.475  -1.809   0.326  1.00  0.00     0.025 C 
HETATM   16  C8  UNL     1      -3.501  -1.476   1.348  1.00  0.00     0.002 C 
HETATM   17  C9  UNL     1      -4.203  -0.153   1.145  1.00  0.00     0.000 C 
HETATM   18  C10 UNL     1      -3.219   0.994   1.104  1.00  0.00     0.002 C 
HETATM   19  C11 UNL     1      -1.802   0.482   0.905  1.00  0.00     0.025 C 
ENDBRANCH  12  14
TORSDOF 1
