REMARK  1 active torsions:
REMARK  status: ('A' for Active; 'I' for Inactive)
REMARK       I    between atoms: C1_2  and  N1_3 
REMARK       I    between atoms: C1_2  and  N3_18 
REMARK    1  A    between atoms: N1_3  and  N2_5 
ROOT
HETATM    1  N2  UNL     1      -0.063   0.360   1.528  1.00  0.00    -0.304 N 
ATOM      2  H2  UNL     1      -0.123   0.512   2.535  1.00  0.00     0.186 HD
HETATM    3  C2  UNL     1      -1.132   0.016   0.895  1.00  0.00     0.012 C 
HETATM    4  C3  UNL     1      -2.420  -0.165   1.561  1.00  0.00     0.033 C 
HETATM    5  C4  UNL     1      -3.310   1.029   1.538  1.00  0.00     0.011 C 
HETATM    6  C5  UNL     1      -3.261   1.859   0.317  1.00  0.00     0.005 C 
HETATM    7  C6  UNL     1      -3.118   1.118  -0.972  1.00  0.00    -0.013 C 
HETATM    8  C7  UNL     1      -3.880  -0.157  -1.043  1.00  0.00     0.009 C 
HETATM    9  C8  UNL     1      -3.159  -1.351  -0.512  1.00  0.00    -0.013 C 
HETATM   10  C9  UNL     1      -3.180  -1.372   0.998  1.00  0.00     0.015 C 
HETATM   11  C10 UNL     1      -1.751  -1.447  -1.014  1.00  0.00     0.015 C 
HETATM   12  C11 UNL     1      -1.017  -0.199  -0.568  1.00  0.00     0.034 C 
HETATM   13  C12 UNL     1      -1.647   0.973  -1.274  1.00  0.00     0.015 C 
ENDROOT
BRANCH   1  14
HETATM   14  N1  UNL     1       1.170   0.534   0.903  1.00  0.00    -0.252 N 
HETATM   15  C1  UNL     1       2.090  -0.533   0.757  1.00  0.00     0.337 C 
HETATM   16  O1  UNL     1       1.771  -1.675   1.213  1.00  0.00    -0.245 OA
HETATM   17  N3  UNL     1       3.343  -0.367   0.125  1.00  0.00    -0.329 N 
HETATM   18  C13 UNL     1       3.811   0.877  -0.426  1.00  0.00     0.153 C 
HETATM   19  C16 UNL     1       4.251  -1.510   0.003  1.00  0.00     0.153 C 
HETATM   20  C14 UNL     1       5.299   1.093  -0.238  1.00  0.00     0.187 C 
HETATM   21  O2  UNL     1       6.042  -0.060  -0.342  1.00  0.00    -0.388 OA
HETATM   22  C15 UNL     1       5.594  -1.061   0.521  1.00  0.00     0.187 C 
ATOM     23  H1  UNL     1       1.417   1.455   0.541  1.00  0.00     0.191 HD
ENDBRANCH   1  14
TORSDOF 1
