REMARK  4 active torsions:
REMARK  status: ('A' for Active; 'I' for Inactive)
REMARK       I    between atoms: C1_2  and  N1_3 
REMARK    1  A    between atoms: C1_2  and  C14_19 
REMARK    2  A    between atoms: N1_3  and  C2_5 
REMARK       I    between atoms: N2_8  and  C5_9 
REMARK    3  A    between atoms: C5_9  and  C6_11 
REMARK    4  A    between atoms: C6_11  and  C7_12 
ROOT
HETATM    1  C2  UNL     1       1.171  -0.371  -0.627  1.00  0.00     0.087 C 
HETATM    2  C3  UNL     1       1.059  -1.597   0.269  1.00  0.00     0.045 C 
HETATM    3  C4  UNL     1      -0.375  -2.091   0.223  1.00  0.00     0.127 C 
HETATM    4  N2  UNL     1      -1.260  -0.972   0.580  1.00  0.00    -0.352 N 
HETATM    5  C5  UNL     1      -2.668  -1.169   0.542  1.00  0.00     0.220 C 
HETATM    6  O2  UNL     1      -3.124  -2.292   0.206  1.00  0.00    -0.273 OA
HETATM    7  C12 UNL     1      -0.620   0.258   0.950  1.00  0.00     0.127 C 
HETATM    8  C13 UNL     1       0.302   0.735  -0.136  1.00  0.00     0.045 C 
ENDROOT
BRANCH   1   9
HETATM    9  N1  UNL     1       2.542   0.024  -0.787  1.00  0.00    -0.352 N 
HETATM   10  C1  UNL     1       3.369   0.471   0.257  1.00  0.00     0.248 C 
HETATM   11  O1  UNL     1       2.806   0.514   1.413  1.00  0.00    -0.268 OA
ATOM     12  H1  UNL     1       2.943  -0.023  -1.724  1.00  0.00     0.163 HD
BRANCH  10  13
HETATM   13  C14 UNL     1       4.752   0.876   0.158  1.00  0.00     0.016 C 
HETATM   14  C15 UNL     1       5.364   1.277   1.280  1.00  0.00     0.057 C 
HETATM   15  S1  UNL     1       7.064   1.781   1.196  1.00  0.00    -0.141 SA
HETATM   16  C16 UNL     1       7.806   0.886  -0.210  1.00  0.00     0.079 C 
HETATM   17  C17 UNL     1       6.810   0.166  -1.045  1.00  0.00     0.015 C 
HETATM   18  C18 UNL     1       5.453   0.839  -1.129  1.00  0.00     0.045 C 
ENDBRANCH  10  13
ENDBRANCH   1   9
BRANCH   5  19
HETATM   19  C6  UNL     1      -3.652  -0.129   0.878  1.00  0.00     0.107 C 
BRANCH  19  20
HETATM   20  C7  UNL     1      -4.365   0.463  -0.315  1.00  0.00    -0.006 C 
HETATM   21  C8  UNL     1      -5.145  -0.550  -1.117  1.00  0.00     0.005 C 
HETATM   22  C9  UNL     1      -6.288  -0.965  -0.228  1.00  0.00     0.000 C 
HETATM   23  C10 UNL     1      -6.565   0.243   0.650  1.00  0.00     0.000 C 
HETATM   24  C11 UNL     1      -5.521   1.282   0.284  1.00  0.00     0.005 C 
ENDBRANCH  19  20
ENDBRANCH   5  19
TORSDOF 4
