REMARK  4 active torsions:
REMARK  status: ('A' for Active; 'I' for Inactive)
REMARK    1  A    between atoms: C2_2  and  N1_4 
REMARK    2  A    between atoms: N1_4  and  C4_6 
REMARK    3  A    between atoms: N2_16  and  C14_17 
REMARK    4  A    between atoms: C14_17  and  C15_18 
ROOT
HETATM    1  C4  UNL     1      -2.047   0.250  -0.302  1.00  0.00     0.099 C 
HETATM    2  C5  UNL     1      -1.879  -0.399  -1.663  1.00  0.00     0.027 C 
HETATM    3  C6  UNL     1      -2.212  -1.875  -1.611  1.00  0.00     0.002 C 
HETATM    4  C7  UNL     1      -0.934  -2.623  -1.483  1.00  0.00     0.007 C 
HETATM    5  C8  UNL     1      -0.356  -2.745  -0.130  1.00  0.00     0.016 C 
HETATM    6  C9  UNL     1      -1.291  -2.683   1.024  1.00  0.00     0.016 C 
HETATM    7  C10 UNL     1      -0.594  -3.392   2.145  1.00  0.00    -0.025 C 
HETATM    8  C11 UNL     1       0.695  -3.105   2.272  1.00  0.00    -0.028 C 
HETATM    9  C12 UNL     1       1.447  -2.175   1.418  1.00  0.00     0.052 C 
HETATM   10  C13 UNL     1       0.776  -1.769   0.146  1.00  0.00     0.092 C 
HETATM   11  N2  UNL     1       0.288  -0.464   0.084  1.00  0.00    -0.379 N 
HETATM   12  C20 UNL     1      -0.998  -0.208   0.671  1.00  0.00     0.106 C 
HETATM   13  C21 UNL     1      -1.558  -1.286   1.519  1.00  0.00     0.036 C 
ENDROOT
BRANCH  11  14
HETATM   14  C14 UNL     1       1.170   0.635   0.105  1.00  0.00     0.091 C 
BRANCH  14  15
HETATM   15  C15 UNL     1       2.049   0.843  -1.095  1.00  0.00     0.159 C 
HETATM   16  C16 UNL     1       2.667   2.231  -1.055  1.00  0.00     0.037 C 
HETATM   17  C17 UNL     1       4.127   2.144  -1.353  1.00  0.00     0.005 C 
HETATM   18  C18 UNL     1       4.738   1.123  -0.403  1.00  0.00     0.026 C 
HETATM   19  C19 UNL     1       4.094  -0.203  -0.678  1.00  0.00     0.168 C 
HETATM   20  O1  UNL     1       2.925  -0.160  -1.384  1.00  0.00    -0.381 OA
ENDBRANCH  14  15
ENDBRANCH  11  14
BRANCH   1  21
HETATM   21  N1  UNL     1      -2.127   1.654  -0.509  1.00  0.00    -0.412 N 
ATOM     22  H1  UNL     1      -1.977   2.061  -1.432  1.00  0.00     0.154 HD
BRANCH  21  23
HETATM   23  C2  UNL     1      -2.423   2.470   0.614  1.00  0.00     0.068 C 
HETATM   24  C1  UNL     1      -2.564   3.904   0.087  1.00  0.00     0.031 C 
HETATM   25  C3  UNL     1      -3.680   2.136   1.348  1.00  0.00     0.031 C 
ENDBRANCH  21  23
ENDBRANCH   1  21
TORSDOF 4
