REMARK  2 active torsions:
REMARK  status: ('A' for Active; 'I' for Inactive)
REMARK       I    between atoms: C2_3  and  N2_5 
REMARK    1  A    between atoms: C5_8  and  C6_9 
REMARK       I    between atoms: C6_9  and  N3_11 
REMARK    2  A    between atoms: N3_11  and  C7_13 
ROOT
HETATM    1  N1  UNL     1       7.812   0.220  -0.996  1.00  0.00    -0.186 NA
HETATM    2  C1  UNL     1       6.972  -0.384  -0.482  1.00  0.00     0.162 C 
HETATM    3  C2  UNL     1       5.925  -1.147   0.136  1.00  0.00     0.324 C 
HETATM    4  O1  UNL     1       6.205  -2.294   0.535  1.00  0.00    -0.256 OA
HETATM    5  N2  UNL     1       4.612  -0.649   0.304  1.00  0.00    -0.340 N 
HETATM    6  C3  UNL     1       4.340   0.697  -0.179  1.00  0.00     0.127 C 
HETATM    7  C4  UNL     1       2.838   0.908  -0.281  1.00  0.00     0.034 C 
HETATM    8  C5  UNL     1       2.253   0.634   1.092  1.00  0.00     0.081 C 
HETATM    9  C15 UNL     1       2.528  -0.733   1.606  1.00  0.00     0.034 C 
HETATM   10  C16 UNL     1       3.631  -1.477   0.930  1.00  0.00     0.127 C 
ENDROOT
BRANCH   8  11
HETATM   11  C6  UNL     1       0.788   0.824   0.977  1.00  0.00     0.222 C 
HETATM   12  O2  UNL     1       0.236   1.686   1.697  1.00  0.00    -0.273 OA
HETATM   13  N3  UNL     1      -0.017   0.074   0.090  1.00  0.00    -0.356 N 
ATOM     14  H3  UNL     1       0.418  -0.632  -0.504  1.00  0.00     0.162 HD
BRANCH  13  15
HETATM   15  C7  UNL     1      -1.442   0.288   0.008  1.00  0.00     0.084 C 
HETATM   16  C8  UNL     1      -1.888   0.688  -1.373  1.00  0.00     0.025 C 
HETATM   17  C9  UNL     1      -3.138   1.535  -1.343  1.00  0.00     0.002 C 
HETATM   18  C10 UNL     1      -4.384   0.729  -1.577  1.00  0.00     0.000 C 
HETATM   19  C11 UNL     1      -5.056   0.346  -0.257  1.00  0.00     0.000 C 
HETATM   20  C12 UNL     1      -4.532  -0.981   0.260  1.00  0.00     0.000 C 
HETATM   21  C13 UNL     1      -3.372  -0.696   1.165  1.00  0.00     0.002 C 
HETATM   22  C14 UNL     1      -2.099  -1.033   0.398  1.00  0.00     0.025 C 
ENDBRANCH  13  15
ENDBRANCH   8  11
TORSDOF 2
