REMARK  3 active torsions:
REMARK  status: ('A' for Active; 'I' for Inactive)
REMARK    1  A    between atoms: C8_8  and  C9_9 
REMARK    2  A    between atoms: C9_9  and  C10_10 
REMARK    3  A    between atoms: C10_10  and  C11_12 
ROOT
HETATM    1  C11 UNL     1       0.987   1.134   0.652  1.00  0.00     0.256 C 
HETATM    2  C12 UNL     1       2.082   0.138   1.208  1.00  0.00     0.054 C 
HETATM    3  C13 UNL     1       3.195   0.177   0.220  1.00  0.00     0.016 C 
HETATM    4  C14 UNL     1       2.422   0.650  -1.025  1.00  0.00     0.244 C 
HETATM    5  N1  UNL     1       1.776   1.771  -0.382  1.00  0.00    -0.063 N 
ATOM      6  H11 UNL     1       2.411   2.497  -0.049  1.00  0.00     0.278 HD
ATOM      7  H12 UNL     1       1.248   2.378  -1.010  1.00  0.00     0.278 HD
HETATM    8  C15 UNL     1       4.199   1.272   0.530  1.00  0.00     0.283 C 
HETATM    9  N2  UNL     1       5.520   0.932   0.114  1.00  0.00     0.089 N 
HETATM   10  C16 UNL     1       5.575   0.402  -1.229  1.00  0.00     0.273 C 
HETATM   11  C17 UNL     1       4.718  -0.814  -1.397  1.00  0.00     0.036 C 
HETATM   12  C18 UNL     1       3.940  -1.070  -0.085  1.00  0.00     0.001 C 
HETATM   13  C19 UNL     1       5.011  -1.292   0.967  1.00  0.00     0.036 C 
HETATM   14  C20 UNL     1       6.011  -0.135   0.988  1.00  0.00     0.273 C 
ENDROOT
BRANCH   1  15
HETATM   15  C10 UNL     1      -0.105   0.325   0.118  1.00  0.00     0.160 C 
HETATM   16  O1  UNL     1      -0.134  -0.872   0.271  1.00  0.00    -0.295 OA
BRANCH  15  17
HETATM   17  C9  UNL     1      -1.240   0.966  -0.654  1.00  0.00     0.108 C 
BRANCH  17  18
HETATM   18  C8  UNL     1      -2.225  -0.102  -0.989  1.00  0.00    -0.016 C 
HETATM   19  C7  UNL     1      -3.280  -0.493  -0.078  1.00  0.00    -0.075 C 
HETATM   20  C2  UNL     1      -4.477   0.388   0.081  1.00  0.00    -0.021 C 
HETATM   21  C6  UNL     1      -3.809  -1.877  -0.083  1.00  0.00     0.039 C 
HETATM   22  C1  UNL     1      -4.396   1.794   0.403  1.00  0.00     0.020 C 
HETATM   23  C3  UNL     1      -5.399   0.181  -1.174  1.00  0.00     0.014 C 
HETATM   24  C21 UNL     1      -5.334  -0.468   1.026  1.00  0.00     0.018 C 
HETATM   25  C4  UNL     1      -5.903  -1.236  -1.092  1.00  0.00     0.006 C 
HETATM   26  C5  UNL     1      -5.305  -1.733   0.197  1.00  0.00    -0.010 C 
ENDBRANCH  17  18
ENDBRANCH  15  17
ENDBRANCH   1  15
TORSDOF 3
