REMARK  12 active torsions:
REMARK  status: ('A' for Active; 'I' for Inactive)
REMARK    1  A    between atoms: C3_3  and  C4_4 
REMARK    2  A    between atoms: C5_7  and  C6_8 
REMARK    3  A    between atoms: C6_8  and  O3_9 
REMARK    4  A    between atoms: C7_11  and  O4_12 
REMARK    5  A    between atoms: C8_14  and  O5_15 
REMARK    6  A    between atoms: C9_17  and  O6_18 
REMARK    7  A    between atoms: C12_23  and  O7_24 
REMARK    8  A    between atoms: O7_24  and  C13_25 
REMARK    9  A    between atoms: C13_25  and  C14_26 
REMARK   10  A    between atoms: C14_26  and  C15_27 
REMARK   11  A    between atoms: C15_27  and  O8_28 
REMARK   12  A    between atoms: O8_28  and  C16_29 
ROOT
HETATM    1  C1  UNL     1      -2.025  -2.778  -0.334  1.00  0.00     0.049 C 
HETATM    2  C2  UNL     1      -1.544  -1.359  -0.357  1.00  0.00    -0.044 A 
HETATM    3  C3  UNL     1      -2.388  -0.333  -0.833  1.00  0.00    -0.016 A 
HETATM    4  C10 UNL     1      -1.879   0.942  -0.786  1.00  0.00     0.032 A 
HETATM    5  C11 UNL     1      -0.590   1.223  -0.294  1.00  0.00     0.045 A 
HETATM    6 BR1  UNL     1       0.026   3.008  -0.282  1.00  0.00    -0.048 Br
HETATM    7  C12 UNL     1       0.218   0.205   0.165  1.00  0.00     0.092 A 
HETATM    8  C20 UNL     1      -0.289  -1.054   0.118  1.00  0.00    -0.021 A 
HETATM    9  C21 UNL     1       0.550  -2.162   0.642  1.00  0.00     0.052 C 
ENDROOT
BRANCH   3  10
HETATM   10  C4  UNL     1      -3.635  -0.746  -1.462  1.00  0.00     0.225 C 
HETATM   11  O1  UNL     1      -4.073   0.501  -2.140  1.00  0.00    -0.228 OA
HETATM   12  O2  UNL     1      -4.373   1.297  -1.228  1.00  0.00    -0.230 OA
HETATM   13  C5  UNL     1      -5.482   1.572  -0.592  1.00  0.00     0.215 C 
HETATM   14  C7  UNL     1      -5.590   0.914   0.814  1.00  0.00     0.183 C 
HETATM   15  C8  UNL     1      -4.729  -0.360   0.784  1.00  0.00     0.181 C 
HETATM   16  C9  UNL     1      -4.855  -0.918  -0.593  1.00  0.00     0.186 C 
BRANCH  13  17
HETATM   17  C6  UNL     1      -5.456   3.083  -0.221  1.00  0.00     0.201 C 
BRANCH  17  18
HETATM   18  O3  UNL     1      -6.579   3.444   0.478  1.00  0.00    -0.398 OA
ATOM     19  H3  UNL     1      -6.563   4.366   0.704  1.00  0.00     0.209 HD
ENDBRANCH  17  18
ENDBRANCH  13  17
BRANCH  14  20
HETATM   20  O4  UNL     1      -6.913   0.525   0.987  1.00  0.00    -0.390 OA
ATOM     21  H4  UNL     1      -6.979   0.123   1.845  1.00  0.00     0.210 HD
ENDBRANCH  14  20
BRANCH  15  22
HETATM   22  O5  UNL     1      -5.315  -1.256   1.667  1.00  0.00    -0.390 OA
ATOM     23  H5  UNL     1      -4.783  -2.043   1.648  1.00  0.00     0.210 HD
ENDBRANCH  15  22
BRANCH  16  24
HETATM   24  O6  UNL     1      -5.217  -2.305  -0.548  1.00  0.00    -0.390 OA
ATOM     25  H6  UNL     1      -5.986  -2.413  -0.000  1.00  0.00     0.210 HD
ENDBRANCH  16  24
ENDBRANCH   3  10
BRANCH   7  26
HETATM   26  O7  UNL     1       1.484   0.529   0.635  1.00  0.00    -0.349 OA
BRANCH  26  27
HETATM   27  C13 UNL     1       2.500   0.371  -0.325  1.00  0.00     0.178 C 
BRANCH  27  28
HETATM   28  C14 UNL     1       3.870   0.778   0.017  1.00  0.00     0.053 C 
BRANCH  28  29
HETATM   29  C15 UNL     1       4.463   0.173   1.228  1.00  0.00     0.171 C 
BRANCH  29  30
HETATM   30  O8  UNL     1       5.713   0.470   1.600  1.00  0.00    -0.381 OA
BRANCH  30  31
HETATM   31  C16 UNL     1       6.809   0.186   0.892  1.00  0.00     0.050 C 
HETATM   32  C17 UNL     1       6.972   0.814  -0.473  1.00  0.00     0.045 C 
HETATM   33  C18 UNL     1       8.026   0.714   1.689  1.00  0.00     0.045 C 
HETATM   34  C19 UNL     1       7.083  -1.308   0.772  1.00  0.00     0.045 C 
ENDBRANCH  30  31
ENDBRANCH  29  30
ENDBRANCH  28  29
ENDBRANCH  27  28
ENDBRANCH  26  27
ENDBRANCH   7  26
TORSDOF 12
