REMARK  9 active torsions:
REMARK  status: ('A' for Active; 'I' for Inactive)
REMARK    1  A    between atoms: O1_1  and  C1_3 
REMARK    2  A    between atoms: C4_6  and  N1_7 
REMARK    3  A    between atoms: N1_7  and  C5_9 
REMARK    4  A    between atoms: C6_12  and  N3_13 
REMARK    5  A    between atoms: N3_13  and  C7_15 
REMARK    6  A    between atoms: N4_18  and  C10_19 
REMARK    7  A    between atoms: C10_19  and  C11_20 
REMARK    8  A    between atoms: C11_20  and  N5_21 
REMARK    9  A    between atoms: C21_34  and  C22_35 
ROOT
HETATM    1  C5  UNL     1      -3.999  -0.291  -0.664  1.00  0.00     0.125 A 
HETATM    2  N2  UNL     1      -3.091  -0.136   0.305  1.00  0.00    -0.176 N 
ATOM      3  H2  UNL     1      -3.424   0.106   1.238  1.00  0.00     0.186 HD
HETATM    4  C6  UNL     1      -1.741  -0.282   0.121  1.00  0.00     0.679 A 
HETATM    5  N6  UNL     1      -1.353  -0.600  -1.121  1.00  0.00    -0.201 N 
ATOM      6  H6  UNL     1      -0.357  -0.718  -1.305  1.00  0.00     0.183 HD
HETATM    7  C20 UNL     1      -2.224  -0.771  -2.142  1.00  0.00     0.117 A 
HETATM    8  C21 UNL     1      -3.574  -0.627  -1.966  1.00  0.00     0.006 A 
ENDROOT
BRANCH   4   9
HETATM    9  N3  UNL     1      -0.948  -0.106   1.120  1.00  0.00    -0.221 N 
ATOM     10  H3  UNL     1      -1.348   0.137   2.026  1.00  0.00     0.178 HD
BRANCH   9  11
HETATM   11  C7  UNL     1       0.480  -0.238   1.009  1.00  0.00     0.102 C 
HETATM   12  C8  UNL     1       1.087   1.050   0.483  1.00  0.00     0.045 C 
HETATM   13  C9  UNL     1       2.500   1.278   0.890  1.00  0.00     0.119 C 
HETATM   14  N4  UNL     1       3.193   0.067   1.156  1.00  0.00    -0.411 N 
HETATM   15  C18 UNL     1       2.582  -0.794   2.108  1.00  0.00     0.119 C 
HETATM   16  C19 UNL     1       1.128  -0.473   2.365  1.00  0.00     0.045 C 
BRANCH  14  17
HETATM   17  C10 UNL     1       4.601   0.154   1.275  1.00  0.00     0.136 C 
BRANCH  17  18
HETATM   18  C11 UNL     1       5.304   0.481   0.003  1.00  0.00     0.136 C 
BRANCH  18  19
HETATM   19  N5  UNL     1       6.724   0.567   0.123  1.00  0.00    -0.408 N 
HETATM   20  C12 UNL     1       7.413   0.874  -1.070  1.00  0.00     0.123 C 
HETATM   21  C13 UNL     1       8.886   0.675  -1.038  1.00  0.00     0.029 C 
HETATM   22  C14 UNL     1       9.153  -0.820  -1.171  1.00  0.00     0.174 C 
HETATM   23  C16 UNL     1       9.353   0.893   0.407  1.00  0.00     0.042 C 
HETATM   24  O2  UNL     1       9.302  -1.336   0.093  1.00  0.00    -0.384 OA
HETATM   25  C15 UNL     1       8.811  -0.409   1.009  1.00  0.00     0.139 C 
HETATM   26  C17 UNL     1       7.320  -0.374   1.005  1.00  0.00     0.149 C 
ENDBRANCH  18  19
ENDBRANCH  17  18
ENDBRANCH  14  17
ENDBRANCH   9  11
ENDBRANCH   4   9
BRANCH   1  27
HETATM   27  N1  UNL     1      -5.248  -0.152  -0.522  1.00  0.00    -0.371 N 
ATOM     28  H1  UNL     1      -5.787  -0.310  -1.373  1.00  0.00     0.161 HD
BRANCH  27  29
HETATM   29  C4  UNL     1      -6.031   0.184   0.609  1.00  0.00     0.083 C 
HETATM   30  C3  UNL     1      -5.678   1.449   1.312  1.00  0.00     0.028 C 
HETATM   31  C2  UNL     1      -6.869   2.311   1.642  1.00  0.00     0.034 C 
HETATM   32  C1  UNL     1      -7.960   1.540   2.340  1.00  0.00     0.118 C 
HETATM   33  C27 UNL     1      -8.258   0.241   1.613  1.00  0.00     0.034 C 
HETATM   34  C26 UNL     1      -7.517   0.225   0.292  1.00  0.00     0.028 C 
BRANCH  32  35
HETATM   35  O1  UNL     1      -7.695   1.291   3.682  1.00  0.00    -0.396 OA
ATOM     36  H1  UNL     1      -8.383   0.805   4.122  1.00  0.00     0.210 HD
ENDBRANCH  32  35
ENDBRANCH  27  29
ENDBRANCH   1  27
BRANCH   8  37
HETATM   37  C22 UNL     1      -4.587  -0.802  -3.032  1.00  0.00     0.024 C 
HETATM   38  C23 UNL     1      -4.088  -1.041  -4.428  1.00  0.00     0.009 C 
HETATM   39  C24 UNL     1      -4.132  -2.537  -4.136  1.00  0.00     0.001 C 
HETATM   40  C25 UNL     1      -5.195  -2.193  -3.084  1.00  0.00     0.009 C 
ENDBRANCH   8  37
TORSDOF 9
