REMARK  14 active torsions:
REMARK  status: ('A' for Active; 'I' for Inactive)
REMARK    1  A    between atoms: C2_2  and  C3_3 
REMARK    2  A    between atoms: C2_2  and  N5_31 
REMARK    3  A    between atoms: C3_3  and  C4_4 
REMARK    4  A    between atoms: C4_4  and  C5_5 
REMARK    5  A    between atoms: C5_5  and  N1_6 
REMARK    6  A    between atoms: C8_9  and  C9_10 
REMARK    7  A    between atoms: C9_10  and  C10_11 
REMARK    8  A    between atoms: C10_11  and  N2_12 
REMARK    9  A    between atoms: N2_12  and  C11_13 
REMARK   10  A    between atoms: N2_12  and  C16_24 
REMARK   11  A    between atoms: C11_13  and  C12_14 
REMARK   12  A    between atoms: C12_14  and  N3_15 
REMARK   13  A    between atoms: C13_16  and  O1_17 
REMARK   14  A    between atoms: N5_31  and  C22_33 
ROOT
HETATM    1  N1  UNL     1       1.317   0.385   0.875  1.00  0.00    -0.374 N 
HETATM    2  C6  UNL     1       1.115  -0.973   0.648  1.00  0.00     0.063 C 
HETATM    3  C7  UNL     1      -0.374  -1.266   0.694  1.00  0.00     0.049 C 
HETATM    4  C8  UNL     1      -1.196  -0.279  -0.137  1.00  0.00    -0.007 C 
HETATM    5  C20 UNL     1      -0.306   0.625  -0.940  1.00  0.00     0.025 C 
HETATM    6  C21 UNL     1       0.787   1.255  -0.119  1.00  0.00     0.127 C 
ENDROOT
BRANCH   4   7
HETATM    7  C9  UNL     1      -1.977   0.532   0.840  1.00  0.00     0.025 C 
BRANCH   7   8
HETATM    8  C10 UNL     1      -2.874   1.597   0.451  1.00  0.00     0.131 C 
BRANCH   8   9
HETATM    9  N2  UNL     1      -4.047   1.330  -0.393  1.00  0.00    -0.336 N 
BRANCH   9  10
HETATM   10  C11 UNL     1      -3.968   1.111  -1.766  1.00  0.00     0.111 C 
BRANCH  10  11
HETATM   11  C12 UNL     1      -5.065   0.922  -2.695  1.00  0.00     0.121 C 
BRANCH  11  12
HETATM   12  N3  UNL     1      -5.965  -0.166  -2.635  1.00  0.00    -0.252 N 
HETATM   13  C13 UNL     1      -5.681  -1.454  -3.061  1.00  0.00     0.166 A 
HETATM   14  C14 UNL     1      -6.831  -2.184  -2.950  1.00  0.00     0.149 A 
HETATM   15  N4  UNL     1      -7.774  -1.377  -2.479  1.00  0.00    -0.314 N 
HETATM   16  C15 UNL     1      -7.254  -0.146  -2.286  1.00  0.00     0.332 A 
ATOM     17  H4  UNL     1      -8.740  -1.645  -2.292  1.00  0.00     0.170 HD
HETATM   18  O2  UNL     1      -7.978   0.804  -1.841  1.00  0.00    -0.246 OA
BRANCH  13  19
HETATM   19  O1  UNL     1      -4.445  -1.894  -3.512  1.00  0.00    -0.345 OA
ATOM     20  H1  UNL     1      -4.250  -2.777  -3.804  1.00  0.00     0.219 HD
ENDBRANCH  13  19
ENDBRANCH  11  12
ENDBRANCH  10  11
ENDBRANCH   9  10
BRANCH   9  21
HETATM   21  C16 UNL     1      -5.252   1.314   0.398  1.00  0.00     0.149 A 
HETATM   22  C17 UNL     1      -5.730   0.223   1.130  1.00  0.00     0.058 A 
HETATM   23  C18 UNL     1      -6.892   0.648   1.736  1.00  0.00     0.029 A 
HETATM   24  C19 UNL     1      -7.089   1.946   1.371  1.00  0.00     0.144 A 
HETATM   25  O3  UNL     1      -6.084   2.296   0.571  1.00  0.00    -0.306 OA
ENDBRANCH   9  21
ENDBRANCH   8   9
ENDBRANCH   7   8
ENDBRANCH   4   7
BRANCH   1  26
HETATM   26  C5  UNL     1       2.118   0.891   1.876  1.00  0.00     0.063 C 
BRANCH  26  27
HETATM   27  C4  UNL     1       3.590   0.726   1.688  1.00  0.00     0.046 C 
BRANCH  27  28
HETATM   28  C3  UNL     1       4.006  -0.679   1.580  1.00  0.00     0.030 C 
BRANCH  28  29
HETATM   29  C2  UNL     1       5.548  -0.862   1.507  1.00  0.00     0.079 C 
HETATM   30  C1  UNL     1       5.684  -2.387   1.404  1.00  0.00     0.032 C 
BRANCH  29  31
HETATM   31  N5  UNL     1       6.184  -0.071   0.600  1.00  0.00    -0.371 N 
ATOM     32  H5  UNL     1       5.861   0.892   0.692  1.00  0.00     0.161 HD
BRANCH  31  33
HETATM   33  C22 UNL     1       7.036  -0.149  -0.308  1.00  0.00     0.118 A 
HETATM   34  N6  UNL     1       7.691  -1.260  -0.721  1.00  0.00    -0.350 N 
HETATM   35  C23 UNL     1       8.612  -1.250  -1.721  1.00  0.00     0.108 A 
ATOM     36  H6  UNL     1       7.484  -2.146  -0.260  1.00  0.00     0.166 HD
HETATM   37  C24 UNL     1       8.905  -0.063  -2.354  1.00  0.00     0.027 A 
HETATM   38 BR1  UNL     1      10.187   0.011  -3.767  1.00  0.00    -0.050 Br
HETATM   39  C25 UNL     1       8.259   1.103  -1.964  1.00  0.00     0.043 A 
HETATM   40  C26 UNL     1       7.339   1.072  -0.959  1.00  0.00     0.056 A 
HETATM   41 BR2  UNL     1       6.462   2.688  -0.382  1.00  0.00    -0.047 Br
ENDBRANCH  31  33
ENDBRANCH  29  31
ENDBRANCH  28  29
ENDBRANCH  27  28
ENDBRANCH  26  27
ENDBRANCH   1  26
TORSDOF 14
