REMARK  8 active torsions:
REMARK  status: ('A' for Active; 'I' for Inactive)
REMARK    1  A    between atoms: C6_8  and  C7_9 
REMARK    2  A    between atoms: C7_9  and  C9_11 
REMARK    3  A    between atoms: C9_11  and  C10_12 
REMARK    4  A    between atoms: C10_12  and  C11_13 
REMARK    5  A    between atoms: C11_13  and  C12_14 
REMARK    6  A    between atoms: C20_22  and  O1_24 
REMARK    7  A    between atoms: C22_26  and  C23_27 
REMARK    8  A    between atoms: C23_27  and  O2_28 
ROOT
HETATM    1  C1  UNL     1      -3.562  -2.277  -1.988  1.00  0.00     0.063 C 
HETATM    2  C2  UNL     1      -2.676  -1.127  -1.759  1.00  0.00    -0.018 C 
HETATM    3  N1  UNL     1      -1.457  -1.279  -2.122  1.00  0.00    -0.396 N 
ATOM      4  H1  UNL     1      -1.196  -2.173  -2.537  1.00  0.00     0.159 HD
HETATM    5  C3  UNL     1      -0.430  -0.283  -1.988  1.00  0.00     0.129 C 
HETATM    6  C4  UNL     1      -0.104  -0.245  -0.499  1.00  0.00    -0.020 C 
HETATM    7  C5  UNL     1      -0.075  -1.584   0.148  1.00  0.00     0.018 C 
HETATM    8  C6  UNL     1       1.127   0.558  -0.328  1.00  0.00    -0.001 C 
HETATM    9  C15 UNL     1       0.904   1.362   0.971  1.00  0.00     0.006 C 
HETATM   10  C16 UNL     1      -0.525   1.012   1.416  1.00  0.00     0.006 C 
HETATM   11  C17 UNL     1      -1.119   0.695   0.093  1.00  0.00     0.001 C 
HETATM   12  C18 UNL     1      -2.527   0.409   0.146  1.00  0.00     0.003 C 
HETATM   13  C19 UNL     1      -3.064  -0.518   1.188  1.00  0.00     0.043 C 
HETATM   14  C20 UNL     1      -4.522  -0.153   1.415  1.00  0.00     0.060 C 
HETATM   15  C21 UNL     1      -4.548   1.193   2.097  1.00  0.00     0.046 C 
HETATM   16  C22 UNL     1      -5.357  -0.259   0.206  1.00  0.00     0.044 C 
HETATM   17  C24 UNL     1      -4.721   0.148  -1.080  1.00  0.00     0.020 C 
HETATM   18  C25 UNL     1      -3.252   0.112  -1.137  1.00  0.00     0.035 C 
ENDROOT
BRANCH   8  19
HETATM   19  C7  UNL     1       2.434  -0.166  -0.067  1.00  0.00    -0.014 C 
HETATM   20  C8  UNL     1       2.802  -1.117  -1.138  1.00  0.00     0.010 C 
BRANCH  19  21
HETATM   21  C9  UNL     1       3.416   0.972  -0.053  1.00  0.00     0.005 C 
BRANCH  21  22
HETATM   22  C10 UNL     1       4.827   0.776   0.222  1.00  0.00     0.001 C 
BRANCH  22  23
HETATM   23  C11 UNL     1       5.645  -0.057  -0.686  1.00  0.00     0.004 C 
BRANCH  23  24
HETATM   24  C12 UNL     1       7.122  -0.068  -0.229  1.00  0.00    -0.023 C 
HETATM   25  C13 UNL     1       7.142  -0.635   1.152  1.00  0.00     0.009 C 
HETATM   26  C14 UNL     1       7.739   1.283  -0.354  1.00  0.00     0.009 C 
ENDBRANCH  23  24
ENDBRANCH  22  23
ENDBRANCH  21  22
ENDBRANCH  19  21
ENDBRANCH   8  19
BRANCH  14  27
HETATM   27  O1  UNL     1      -4.998  -1.066   2.389  1.00  0.00    -0.390 OA
ATOM     28  H1  UNL     1      -5.909  -0.838   2.531  1.00  0.00     0.210 HD
ENDBRANCH  14  27
BRANCH  16  29
HETATM   29  C23 UNL     1      -6.626   0.542   0.400  1.00  0.00     0.171 C 
BRANCH  29  30
HETATM   30  O2  UNL     1      -7.451   0.468  -0.723  1.00  0.00    -0.400 OA
ATOM     31  H2  UNL     1      -8.248   0.971  -0.601  1.00  0.00     0.209 HD
ENDBRANCH  29  30
ENDBRANCH  16  29
TORSDOF 8
