REMARK  8 active torsions:
REMARK  status: ('A' for Active; 'I' for Inactive)
REMARK    1  A    between atoms: C2_2  and  C3_3 
REMARK    2  A    between atoms: C3_3  and  C5_5 
REMARK    3  A    between atoms: C5_5  and  C6_6 
REMARK    4  A    between atoms: C6_6  and  C8_8 
REMARK    5  A    between atoms: C9_9  and  C11_11 
REMARK    6  A    between atoms: C11_11  and  O1_12 
REMARK    7  A    between atoms: C11_11  and  C12_14 
REMARK    8  A    between atoms: C12_14  and  O2_15 
ROOT
HETATM    1  C12 UNL     1      -0.269   0.853   0.084  1.00  0.00     0.105 C 
HETATM    2  C13 UNL     1      -0.785  -0.495   0.228  1.00  0.00     0.017 C 
HETATM    3  C14 UNL     1      -2.013  -0.805  -0.150  1.00  0.00    -0.076 C 
HETATM    4  C15 UNL     1      -2.450  -2.226   0.040  1.00  0.00     0.035 C 
HETATM    5  C16 UNL     1      -3.840  -2.337   0.628  1.00  0.00     0.017 C 
HETATM    6  C17 UNL     1      -4.202  -0.992   1.141  1.00  0.00     0.064 C 
HETATM    7  C18 UNL     1      -5.574  -0.883   1.683  1.00  0.00     0.131 C 
HETATM    8  O3  UNL     1      -6.289  -1.710   2.185  1.00  0.00    -0.298 OA
HETATM    9  C19 UNL     1      -5.959   0.545   1.489  1.00  0.00     0.079 C 
HETATM   10  C20 UNL     1      -4.908   1.141   0.575  1.00  0.00     0.018 C 
HETATM   11  C21 UNL     1      -4.316  -0.067  -0.067  1.00  0.00    -0.026 C 
HETATM   12  C22 UNL     1      -5.377  -0.621  -1.028  1.00  0.00     0.016 C 
HETATM   13  C23 UNL     1      -3.001   0.131  -0.743  1.00  0.00     0.023 C 
HETATM   14  C24 UNL     1      -2.520   1.550  -0.767  1.00  0.00     0.013 C 
HETATM   15  C25 UNL     1      -1.426   1.823   0.224  1.00  0.00     0.046 C 
ENDROOT
BRANCH   1  16
HETATM   16  C11 UNL     1       0.497   1.064  -1.169  1.00  0.00     0.184 C 
BRANCH  16  17
HETATM   17  C9  UNL     1       1.720   0.222  -1.285  1.00  0.00    -0.056 C 
HETATM   18  C8  UNL     1       2.912   0.803  -1.308  1.00  0.00    -0.018 C 
HETATM   19  C10 UNL     1       1.622  -1.234  -1.371  1.00  0.00     0.046 C 
BRANCH  18  20
HETATM   20  C6  UNL     1       4.208   0.110  -1.412  1.00  0.00     0.005 C 
HETATM   21  C7  UNL     1       4.890   0.573  -2.721  1.00  0.00     0.014 C 
BRANCH  20  22
HETATM   22  C5  UNL     1       5.177   0.571  -0.334  1.00  0.00     0.016 C 
BRANCH  22  23
HETATM   23  C3  UNL     1       4.757   0.228   1.062  1.00  0.00     0.004 C 
HETATM   24  C4  UNL     1       5.841   0.745   1.992  1.00  0.00     0.014 C 
BRANCH  23  25
HETATM   25  C2  UNL     1       4.654  -1.241   1.218  1.00  0.00    -0.033 C 
HETATM   26  C1  UNL     1       5.381  -1.881   2.097  1.00  0.00     0.007 C 
ENDBRANCH  23  25
ENDBRANCH  22  23
ENDBRANCH  20  22
ENDBRANCH  18  20
ENDBRANCH  16  17
BRANCH  16  27
HETATM   27  O1  UNL     1       0.865   2.427  -1.214  1.00  0.00    -0.388 OA
ATOM     28  H1  UNL     1       0.085   2.964  -1.140  1.00  0.00     0.210 HD
ENDBRANCH  16  27
ENDBRANCH   1  16
BRANCH   1  29
HETATM   29  O2  UNL     1       0.580   1.164   1.171  1.00  0.00    -0.383 OA
ATOM     30  H2  UNL     1       0.090   1.029   1.973  1.00  0.00     0.211 HD
ENDBRANCH   1  29
TORSDOF 8
