REMARK  2 active torsions:
REMARK  status: ('A' for Active; 'I' for Inactive)
REMARK    1  A    between atoms: O1_1  and  C1_3 
REMARK    2  A    between atoms: N3_15  and  C7_16 
ROOT
HETATM    1  C1  UNL     1       0.540   1.488  -0.664  1.00  0.00     0.145 A 
HETATM    2  C2  UNL     1       1.903   1.734  -0.769  1.00  0.00     0.088 A 
HETATM    3  C3  UNL     1       2.521   0.581  -0.408  1.00  0.00     0.068 A 
HETATM    4  N1  UNL     1       3.819   0.263  -0.330  1.00  0.00    -0.331 N 
ATOM      5  H1  UNL     1       4.536   0.950  -0.565  1.00  0.00     0.168 HD
HETATM    6  C4  UNL     1       4.162  -0.971   0.062  1.00  0.00     0.177 A 
HETATM    7  S1  UNL     1       5.766  -1.364   0.158  1.00  0.00    -0.040 SA
HETATM    8  N2  UNL     1       3.229  -1.867   0.369  1.00  0.00    -0.322 N 
ATOM      9  H2  UNL     1       3.530  -2.796   0.663  1.00  0.00     0.169 HD
HETATM   10  C5  UNL     1       1.893  -1.611   0.312  1.00  0.00     0.132 A 
HETATM   11  S2  UNL     1       0.822  -2.763   0.705  1.00  0.00    -0.058 SA
HETATM   12  C6  UNL     1       1.529  -0.347  -0.089  1.00  0.00     0.102 A 
HETATM   13  N3  UNL     1       0.304   0.229  -0.252  1.00  0.00    -0.318 N 
ENDROOT
BRANCH  13  14
HETATM   14  C7  UNL     1      -1.004  -0.363  -0.036  1.00  0.00     0.096 C 
HETATM   15  C8  UNL     1      -2.047   0.365  -0.926  1.00  0.00     0.052 C 
HETATM   16  C9  UNL     1      -3.289  -0.543  -0.876  1.00  0.00     0.169 C 
HETATM   17  O2  UNL     1      -3.647  -0.778   0.426  1.00  0.00    -0.391 OA
HETATM   18  C10 UNL     1      -3.037   0.016   1.374  1.00  0.00     0.169 C 
HETATM   19  C11 UNL     1      -1.526  -0.098   1.363  1.00  0.00     0.052 C 
ENDBRANCH  13  14
BRANCH   1  20
HETATM   20  O1  UNL     1      -0.368   2.499  -0.973  1.00  0.00    -0.346 OA
ATOM     21  H1  UNL     1      -1.300   2.331  -0.901  1.00  0.00     0.219 HD
ENDBRANCH   1  20
TORSDOF 2
