REMARK  3 active torsions:
REMARK  status: ('A' for Active; 'I' for Inactive)
REMARK    1  A    between atoms: C4_4  and  C5_5 
REMARK    2  A    between atoms: C7_7  and  N1_8 
REMARK    3  A    between atoms: N1_8  and  C8_10 
ROOT
HETATM    1  C5  UNL     1      -1.244  -0.294   0.068  1.00  0.00    -0.013 A 
HETATM    2  C6  UNL     1      -0.081  -0.759  -0.568  1.00  0.00     0.042 A 
HETATM    3  C7  UNL     1       1.083  -1.027   0.110  1.00  0.00     0.035 A 
HETATM    4  C13 UNL     1       1.144  -0.841   1.470  1.00  0.00     0.042 A 
HETATM    5  C14 UNL     1       0.024  -0.388   2.128  1.00  0.00    -0.023 A 
HETATM    6  C15 UNL     1       0.058  -0.203   3.504  1.00  0.00     0.012 A 
HETATM    7  C16 UNL     1      -1.036   0.239   4.215  1.00  0.00     0.001 A 
HETATM    8  C17 UNL     1      -2.190   0.496   3.498  1.00  0.00     0.001 A 
HETATM    9  C18 UNL     1      -2.277   0.327   2.118  1.00  0.00     0.013 A 
HETATM   10  C19 UNL     1      -1.161  -0.116   1.436  1.00  0.00    -0.015 A 
ENDROOT
BRANCH   3  11
HETATM   11  N1  UNL     1       2.251  -1.496  -0.548  1.00  0.00    -0.342 N 
ATOM     12  H1  UNL     1       2.321  -2.489  -0.771  1.00  0.00     0.167 HD
BRANCH  11  13
HETATM   13  C8  UNL     1       3.227  -0.718  -0.875  1.00  0.00     0.105 A 
HETATM   14  C9  UNL     1       4.331  -1.216  -1.508  1.00  0.00     0.048 A 
HETATM   15  C10 UNL     1       5.377  -0.386  -1.859  1.00  0.00     0.005 A 
HETATM   16  C11 UNL     1       5.244   0.966  -1.537  1.00  0.00     0.017 A 
HETATM   17  C12 UNL     1       4.115   1.434  -0.899  1.00  0.00     0.089 A 
HETATM   18  N2  UNL     1       3.124   0.579  -0.579  1.00  0.00    -0.352 N 
ATOM     19  H2  UNL     1       2.289   0.926  -0.107  1.00  0.00     0.166 HD
ENDBRANCH  11  13
ENDBRANCH   3  11
BRANCH   1  20
HETATM   20  C4  UNL     1      -2.426   0.002  -0.734  1.00  0.00    -0.025 A 
HETATM   21  C3  UNL     1      -2.903  -1.040  -1.509  1.00  0.00     0.012 A 
HETATM   22  C2  UNL     1      -3.980  -0.935  -2.354  1.00  0.00     0.001 A 
HETATM   23  C1  UNL     1      -4.594   0.299  -2.402  1.00  0.00     0.000 A 
HETATM   24  C21 UNL     1      -4.142   1.359  -1.640  1.00  0.00     0.001 A 
HETATM   25  C20 UNL     1      -3.059   1.213  -0.806  1.00  0.00     0.012 A 
ENDBRANCH   1  20
TORSDOF 3
