REMARK  3 active torsions:
REMARK  status: ('A' for Active; 'I' for Inactive)
REMARK    1  A    between atoms: C4_4  and  N1_5 
REMARK    2  A    between atoms: N1_5  and  C5_7 
REMARK    3  A    between atoms: C7_11  and  C8_12 
ROOT
HETATM    1  C5  UNL     1       1.194   0.255  -0.526  1.00  0.00     0.116 A 
HETATM    2  N2  UNL     1       0.869  -0.502   0.532  1.00  0.00    -0.351 N 
ATOM      3  H2  UNL     1       1.598  -0.973   1.068  1.00  0.00     0.166 HD
HETATM    4  C6  UNL     1      -0.417  -0.637   0.881  1.00  0.00     0.102 A 
HETATM    5  C7  UNL     1      -1.440  -0.008   0.173  1.00  0.00     0.001 A 
HETATM    6  C14 UNL     1      -1.094   0.759  -0.899  1.00  0.00    -0.010 A 
HETATM    7  C15 UNL     1      -2.028   1.411  -1.631  1.00  0.00     0.013 A 
HETATM    8  C16 UNL     1      -1.663   2.192  -2.709  1.00  0.00     0.001 A 
HETATM    9  C17 UNL     1      -0.325   2.333  -3.076  1.00  0.00     0.001 A 
HETATM   10  C18 UNL     1       0.645   1.679  -2.346  1.00  0.00     0.016 A 
HETATM   11  C19 UNL     1       0.247   0.911  -1.279  1.00  0.00     0.019 A 
ENDROOT
BRANCH   1  12
HETATM   12  N1  UNL     1       2.448   0.396  -0.879  1.00  0.00    -0.342 N 
ATOM     13  H1  UNL     1       2.670   0.978  -1.686  1.00  0.00     0.167 HD
BRANCH  12  14
HETATM   14  C4  UNL     1       3.504  -0.232  -0.178  1.00  0.00     0.033 A 
HETATM   15  C3  UNL     1       3.805  -1.566  -0.383  1.00  0.00     0.029 A 
HETATM   16  C2  UNL     1       4.852  -2.128   0.333  1.00  0.00     0.002 A 
HETATM   17  C1  UNL     1       5.601  -1.412   1.238  1.00  0.00     0.000 A 
HETATM   18  C21 UNL     1       5.268  -0.067   1.419  1.00  0.00     0.002 A 
HETATM   19  C20 UNL     1       4.234   0.510   0.719  1.00  0.00     0.029 A 
ENDBRANCH  12  14
ENDBRANCH   1  12
BRANCH   5  20
HETATM   20  C8  UNL     1      -2.808  -0.233   0.591  1.00  0.00    -0.024 A 
HETATM   21  C9  UNL     1      -3.153   0.059   1.919  1.00  0.00     0.012 A 
HETATM   22  C10 UNL     1      -4.409  -0.151   2.420  1.00  0.00     0.001 A 
HETATM   23  C11 UNL     1      -5.393  -0.673   1.597  1.00  0.00     0.000 A 
HETATM   24  C12 UNL     1      -5.044  -0.956   0.295  1.00  0.00     0.001 A 
HETATM   25  C13 UNL     1      -3.789  -0.746  -0.209  1.00  0.00     0.012 A 
ENDBRANCH   5  20
TORSDOF 3
