REMARK  7 active torsions:
REMARK  status: ('A' for Active; 'I' for Inactive)
REMARK    1  A    between atoms: C2_2  and  O1_5 
REMARK    2  A    between atoms: O1_5  and  C4_6 
REMARK    3  A    between atoms: N1_9  and  C7_10 
REMARK    4  A    between atoms: C8_14  and  C9_15 
REMARK    5  A    between atoms: C10_18  and  C11_19 
REMARK    6  A    between atoms: C11_19  and  N4_20 
REMARK    7  A    between atoms: N4_20  and  C12_22 
ROOT
HETATM    1  C7  UNL     1      -0.161  -1.126   0.482  1.00  0.00     0.099 A 
HETATM    2  S1  UNL     1      -0.331  -2.677   1.240  1.00  0.00     0.005 SA
HETATM    3  N2  UNL     1       1.097  -3.336   0.772  1.00  0.00    -0.320 N 
ATOM      4  H2  UNL     1       1.442  -4.270   0.993  1.00  0.00     0.174 HD
HETATM    5  C8  UNL     1       1.712  -2.412   0.049  1.00  0.00     0.115 A 
HETATM    6  C10 UNL     1       1.067  -1.211  -0.113  1.00  0.00     0.026 A 
ENDROOT
BRANCH   1   7
HETATM    7  N1  UNL     1      -1.159  -0.138   0.445  1.00  0.00    -0.373 N 
HETATM    8  C6  UNL     1      -1.669   0.336  -0.852  1.00  0.00     0.126 C 
HETATM    9  C5  UNL     1      -3.010  -0.458  -0.916  1.00  0.00     0.052 C 
HETATM   10  C4  UNL     1      -3.880   0.209   0.081  1.00  0.00     0.127 C 
HETATM   11  C17 UNL     1      -3.184   0.932   1.213  1.00  0.00     0.052 C 
HETATM   12  C16 UNL     1      -1.842   0.335   1.595  1.00  0.00     0.126 C 
BRANCH  10  13
HETATM   13  O1  UNL     1      -4.597   1.185  -0.627  1.00  0.00    -0.360 OA
BRANCH  13  14
HETATM   14  C2  UNL     1      -5.951   1.087  -0.536  1.00  0.00     0.130 C 
HETATM   15  C1  UNL     1      -6.389   1.379   0.911  1.00  0.00     0.064 C 
HETATM   16  C3  UNL     1      -6.471  -0.290  -0.934  1.00  0.00     0.064 C 
HETATM   17 CL1  UNL     1      -6.718   2.291  -1.573  1.00  0.00    -0.089 Cl
ENDBRANCH  13  14
ENDBRANCH  10  13
ENDBRANCH   1   7
BRANCH   6  18
HETATM   18  C11 UNL     1       1.806  -0.063  -0.811  1.00  0.00     0.158 C 
BRANCH  18  19
HETATM   19  N4  UNL     1       2.865   0.304   0.071  1.00  0.00    -0.412 N 
ATOM     20  H4  UNL     1       2.591   0.449   1.043  1.00  0.00     0.153 HD
BRANCH  19  21
HETATM   21  C12 UNL     1       4.185   0.489  -0.192  1.00  0.00     0.091 C 
HETATM   22  C13 UNL     1       4.733   1.339  -1.301  1.00  0.00     0.040 C 
HETATM   23  C14 UNL     1       6.239   0.887  -1.232  1.00  0.00     0.142 C 
HETATM   24  S2  UNL     1       6.506   1.319   0.501  1.00  0.00     0.146 S 
HETATM   25  O3  UNL     1       7.122   2.666   0.627  1.00  0.00    -0.228 OA
HETATM   26  O4  UNL     1       7.290   0.284   1.225  1.00  0.00    -0.228 OA
HETATM   27  C15 UNL     1       4.782   1.322   1.038  1.00  0.00     0.164 C 
ENDBRANCH  19  21
ENDBRANCH  18  19
ENDBRANCH   6  18
BRANCH   5  28
HETATM   28  C9  UNL     1       2.919  -2.862  -0.769  1.00  0.00     0.282 C 
HETATM   29  N3  UNL     1       3.630  -4.032  -0.419  1.00  0.00    -0.056 NA
HETATM   30  O2  UNL     1       3.306  -2.232  -1.772  1.00  0.00    -0.269 OA
ENDBRANCH   5  28
TORSDOF 7
