REMARK  9 active torsions:
REMARK  status: ('A' for Active; 'I' for Inactive)
REMARK    1  A    between atoms: O1_2  and  C2_3 
REMARK    2  A    between atoms: C3_5  and  C4_6 
REMARK    3  A    between atoms: C12_15  and  O3_16 
REMARK    4  A    between atoms: C12_15  and  C13_18 
REMARK    5  A    between atoms: C13_18  and  C15_20 
REMARK    6  A    between atoms: C15_20  and  C16_22 
REMARK    7  A    between atoms: C16_22  and  O5_24 
REMARK    8  A    between atoms: C20_29  and  O7_30 
REMARK    9  A    between atoms: O7_30  and  C21_31 
ROOT
HETATM    1  C2  UNL     1      -1.443   1.941   0.090  1.00  0.00     0.275 C 
HETATM    2  O2  UNL     1      -1.435   1.114   1.160  1.00  0.00    -0.345 OA
HETATM    3  C3  UNL     1      -2.061  -0.097   1.016  1.00  0.00     0.110 C 
HETATM    4  C5  UNL     1      -0.941  -1.147   1.021  1.00  0.00     0.043 C 
HETATM    5  C6  UNL     1       0.398  -0.605   0.768  1.00  0.00     0.020 C 
HETATM    6  C7  UNL     1       0.861  -0.552  -0.670  1.00  0.00     0.012 C 
HETATM    7  C8  UNL     1       0.463  -1.774  -1.452  1.00  0.00     0.023 C 
HETATM    8  C9  UNL     1       0.139   0.584  -1.302  1.00  0.00    -0.056 C 
HETATM    9  C10 UNL     1       0.958   1.115  -2.195  1.00  0.00    -0.019 C 
HETATM   10  C11 UNL     1       2.264   0.398  -2.232  1.00  0.00     0.067 C 
HETATM   11  C12 UNL     1       2.251  -0.114  -0.776  1.00  0.00     0.082 C 
HETATM   12  C18 UNL     1      -1.180   1.260  -1.221  1.00  0.00     0.143 C 
HETATM   13  C19 UNL     1      -2.328   0.324  -1.421  1.00  0.00     0.172 C 
HETATM   14  O6  UNL     1      -2.803   0.053  -2.489  1.00  0.00    -0.294 OA
HETATM   15  C20 UNL     1      -2.890  -0.293  -0.187  1.00  0.00     0.237 C 
ENDROOT
BRANCH  11  16
HETATM   16  O3  UNL     1       2.346   1.096  -0.035  1.00  0.00    -0.388 OA
ATOM     17  H3  UNL     1       3.250   1.381  -0.104  1.00  0.00     0.210 HD
ENDBRANCH  11  16
BRANCH  11  18
HETATM   18  C13 UNL     1       3.411  -0.942  -0.571  1.00  0.00     0.089 C 
HETATM   19  C14 UNL     1       3.538  -2.143  -1.500  1.00  0.00     0.021 C 
BRANCH  18  20
HETATM   20  C15 UNL     1       3.790  -1.380   0.769  1.00  0.00     0.161 C 
HETATM   21  O4  UNL     1       3.838  -2.561   1.065  1.00  0.00    -0.295 OA
BRANCH  20  22
HETATM   22  C16 UNL     1       4.145  -0.451   1.876  1.00  0.00     0.184 C 
HETATM   23  C17 UNL     1       5.317   0.424   1.406  1.00  0.00     0.047 C 
BRANCH  22  24
HETATM   24  O5  UNL     1       4.482  -1.129   3.030  1.00  0.00    -0.388 OA
ATOM     25  H5  UNL     1       4.709  -0.536   3.737  1.00  0.00     0.210 HD
ENDBRANCH  22  24
ENDBRANCH  20  22
ENDBRANCH  18  20
ENDBRANCH  11  18
BRANCH   3  26
HETATM   26  C4  UNL     1      -2.956  -0.265   2.231  1.00  0.00     0.156 C 
HETATM   27 CL1  UNL     1      -4.124   1.045   2.296  1.00  0.00    -0.127 Cl
ENDBRANCH   3  26
BRANCH   1  28
HETATM   28  O1  UNL     1      -2.625   2.667  -0.049  1.00  0.00    -0.365 OA
HETATM   29  C1  UNL     1      -2.417   4.042   0.028  1.00  0.00     0.204 C 
ENDBRANCH   1  28
BRANCH  15  30
HETATM   30  O7  UNL     1      -4.257   0.046  -0.062  1.00  0.00    -0.305 OA
BRANCH  30  31
HETATM   31  C21 UNL     1      -5.284  -0.880  -0.222  1.00  0.00     0.255 C 
HETATM   32  C22 UNL     1      -6.714  -0.610  -0.110  1.00  0.00     0.126 C 
HETATM   33  O8  UNL     1      -4.914  -2.073  -0.492  1.00  0.00    -0.266 OA
ENDBRANCH  30  31
ENDBRANCH  15  30
TORSDOF 9
