REMARK  6 active torsions:
REMARK  status: ('A' for Active; 'I' for Inactive)
REMARK    1  A    between atoms: C1_2  and  C2_4 
REMARK    2  A    between atoms: C3_5  and  S1_6 
REMARK    3  A    between atoms: S1_6  and  C4_7 
REMARK    4  A    between atoms: C6_11  and  N3_12 
REMARK       I    between atoms: N3_12  and  C7_14 
REMARK       I    between atoms: C7_14  and  N4_15 
REMARK       I    between atoms: C7_14  and  N5_19 
REMARK    5  A    between atoms: C11_27  and  N6_28 
REMARK       I    between atoms: N6_28  and  C12_30 
REMARK       I    between atoms: C12_30  and  N7_32 
REMARK    6  A    between atoms: N7_32  and  N8_34 
ROOT
HETATM    1  C2  UNL     1      -1.051  -1.778   0.672  1.00  0.00     0.127 C 
HETATM    2  C3  UNL     1       0.120  -1.162   0.515  1.00  0.00     0.021 C 
HETATM    3  C9  UNL     1       0.355   0.292   0.671  1.00  0.00     0.124 C 
HETATM    4  S2  UNL     1      -1.087   1.217   1.260  1.00  0.00    -0.135 SA
HETATM    5  C10 UNL     1      -2.502   0.275   0.567  1.00  0.00     0.190 C 
HETATM    6  C11 UNL     1      -3.806   0.665   1.182  1.00  0.00     0.137 C 
HETATM    7  C13 UNL     1      -3.932  -0.326   2.320  1.00  0.00     0.163 C 
HETATM    8  N9  UNL     1      -3.304  -1.543   1.829  1.00  0.00    -0.135 NA
HETATM    9  N10 UNL     1      -2.239  -1.096   1.027  1.00  0.00    -0.273 N 
ENDROOT
BRANCH   2  10
HETATM   10  S1  UNL     1       1.542  -2.138   0.097  1.00  0.00    -0.124 SA
BRANCH  10  11
HETATM   11  C4  UNL     1       3.032  -1.147   0.141  1.00  0.00     0.077 C 
HETATM   12  C5  UNL     1       4.260  -2.025  -0.151  1.00  0.00     0.137 C 
HETATM   13  N2  UNL     1       5.216  -1.081  -0.668  1.00  0.00    -0.379 N 
HETATM   14  C6  UNL     1       4.652  -0.032  -1.100  1.00  0.00     0.076 C 
ATOM     15  H2  UNL     1       6.224  -1.237  -0.684  1.00  0.00     0.160 HD
HETATM   16  C8  UNL     1       3.150  -0.114  -0.923  1.00  0.00     0.093 C 
BRANCH  14  17
HETATM   17  N3  UNL     1       5.270   1.108  -1.677  1.00  0.00    -0.331 N 
HETATM   18  C7  UNL     1       5.760   2.179  -0.821  1.00  0.00     0.481 C 
HETATM   19  N4  UNL     1       4.628   2.670  -0.062  1.00  0.00    -0.033 N 
HETATM   20  N5  UNL     1       6.342   3.195  -1.634  1.00  0.00    -0.033 N 
ATOM     21  H43 UNL     1       3.845   2.955  -0.650  1.00  0.00     0.278 HD
ATOM     22  H42 UNL     1       4.144   1.936   0.454  1.00  0.00     0.278 HD
ATOM     23  H41 UNL     1       4.971   3.420   0.538  1.00  0.00     0.278 HD
ATOM     24  H53 UNL     1       7.067   2.830  -2.252  1.00  0.00     0.278 HD
ATOM     25  H52 UNL     1       5.700   3.534  -2.351  1.00  0.00     0.278 HD
ATOM     26  H51 UNL     1       6.685   3.945  -1.034  1.00  0.00     0.278 HD
ATOM     27  H3  UNL     1       5.371   1.177  -2.690  1.00  0.00     0.164 HD
ENDBRANCH  14  17
ENDBRANCH  10  11
ENDBRANCH   2  10
BRANCH   1  28
HETATM   28  C1  UNL     1      -1.151  -3.209   0.500  1.00  0.00     0.283 C 
HETATM   29  N1  UNL     1      -0.044  -4.013   0.166  1.00  0.00    -0.056 NA
HETATM   30  O1  UNL     1      -2.256  -3.803   0.647  1.00  0.00    -0.269 OA
ENDBRANCH   1  28
BRANCH   6  31
HETATM   31  N6  UNL     1      -4.867   0.309   0.232  1.00  0.00    -0.333 N 
HETATM   32  C12 UNL     1      -5.825   1.215  -0.243  1.00  0.00     0.340 C 
HETATM   33  O2  UNL     1      -5.796   2.399   0.147  1.00  0.00    -0.245 OA
HETATM   34  N7  UNL     1      -6.818   0.803  -1.154  1.00  0.00    -0.191 N 
ATOM     35  H7  UNL     1      -6.839  -0.167  -1.468  1.00  0.00     0.198 HD
ATOM     36  H6  UNL     1      -4.909  -0.654  -0.102  1.00  0.00     0.164 HD
BRANCH  34  37
HETATM   37  N8  UNL     1      -7.770   1.696  -1.633  1.00  0.00    -0.035 N 
HETATM   38  O3  UNL     1      -8.029   1.776  -2.872  1.00  0.00    -0.516 OA
HETATM   39  O4  UNL     1      -8.467   2.531  -0.795  1.00  0.00    -0.516 OA
ENDBRANCH  34  37
ENDBRANCH   6  31
TORSDOF 6
