REMARK  6 active torsions:
REMARK  status: ('A' for Active; 'I' for Inactive)
REMARK    1  A    between atoms: C2_2  and  C3_3 
REMARK    2  A    between atoms: C4_6  and  N2_7 
REMARK    3  A    between atoms: C5_12  and  S1_13 
REMARK    4  A    between atoms: S1_13  and  C6_14 
REMARK    5  A    between atoms: C6_14  and  C7_15 
REMARK    6  A    between atoms: C8_16  and  C9_17 
ROOT
HETATM    1  C3  UNL     1       3.757  -0.440   1.210  1.00  0.00     0.050 A 
HETATM    2  N1  UNL     1       4.550  -1.515   0.960  1.00  0.00    -0.194 N 
ATOM      3  H1  UNL     1       5.482  -1.555   1.372  1.00  0.00     0.184 HD
HETATM    4  C4  UNL     1       4.138  -2.509   0.194  1.00  0.00     0.677 A 
HETATM    5  N3  UNL     1       2.939  -2.518  -0.365  1.00  0.00    -0.184 N 
ATOM      6  H3  UNL     1       2.647  -3.299  -0.952  1.00  0.00     0.185 HD
HETATM    7  C5  UNL     1       2.080  -1.441  -0.139  1.00  0.00     0.109 A 
HETATM    8  C16 UNL     1       2.491  -0.421   0.637  1.00  0.00     0.101 A 
HETATM    9  C17 UNL     1       1.597   0.682   0.939  1.00  0.00     0.104 C 
HETATM   10  N4  UNL     1       0.919   1.557   1.216  1.00  0.00    -0.191 NA
ENDROOT
BRANCH   1  11
HETATM   11  C2  UNL     1       4.248   0.719   1.961  1.00  0.00     0.055 C 
HETATM   12  C1  UNL     1       4.967   1.724   1.061  1.00  0.00     0.011 C 
ENDBRANCH   1  11
BRANCH   7  13
HETATM   13  S1  UNL     1       0.523  -1.600  -0.977  1.00  0.00    -0.098 SA
BRANCH  13  14
HETATM   14  C6  UNL     1       0.102  -0.111  -1.885  1.00  0.00     0.175 C 
BRANCH  14  15
HETATM   15  C7  UNL     1      -1.226   0.343  -1.379  1.00  0.00    -0.090 C 
HETATM   16  C8  UNL     1      -2.325   0.639  -0.958  1.00  0.00    -0.064 C 
BRANCH  16  17
HETATM   17  C9  UNL     1      -3.630   0.914  -0.462  1.00  0.00     0.045 A 
HETATM   18  C10 UNL     1      -4.421  -0.148   0.035  1.00  0.00    -0.042 A 
HETATM   19  C11 UNL     1      -3.767  -1.495  -0.019  1.00  0.00     0.049 C 
HETATM   20  C12 UNL     1      -5.672   0.051   0.512  1.00  0.00     0.008 A 
HETATM   21  C13 UNL     1      -6.222   1.310   0.527  1.00  0.00     0.002 A 
HETATM   22  C14 UNL     1      -5.489   2.367   0.052  1.00  0.00     0.025 A 
HETATM   23  C15 UNL     1      -4.227   2.148  -0.426  1.00  0.00     0.053 A 
HETATM   24 CL1  UNL     1      -3.267   3.484  -1.054  1.00  0.00    -0.083 Cl
ENDBRANCH  16  17
ENDBRANCH  14  15
ENDBRANCH  13  14
ENDBRANCH   7  13
BRANCH   4  25
HETATM   25  N2  UNL     1       4.950  -3.518  -0.046  1.00  0.00    -0.234 N 
ATOM     26  H22 UNL     1       5.874  -3.511   0.385  1.00  0.00     0.174 HD
ATOM     27  H21 UNL     1       4.632  -4.286  -0.638  1.00  0.00     0.174 HD
ENDBRANCH   4  25
TORSDOF 6
