REMARK  3 active torsions:
REMARK  status: ('A' for Active; 'I' for Inactive)
REMARK    1  A    between atoms: O1_2  and  C2_3 
REMARK    2  A    between atoms: C3_4  and  C4_5 
REMARK    3  A    between atoms: C4_5  and  O2_7 
ROOT
HETATM    1  C2  UNL     1      -0.841   0.585  -0.074  1.00  0.00     0.060 C 
HETATM    2  C3  UNL     1      -0.193  -0.501  -0.327  1.00  0.00    -0.021 C 
HETATM    3  C7  UNL     1      -0.714  -1.807  -0.744  1.00  0.00     0.049 C 
HETATM    4  C8  UNL     1      -2.156  -2.020  -0.694  1.00  0.00     0.078 C 
HETATM    5  S1  UNL     1      -2.983  -0.487  -1.264  1.00  0.00    -0.162 SA
HETATM    6  C9  UNL     1      -2.317   0.783  -0.151  1.00  0.00     0.138 C 
ENDROOT
BRANCH   2   7
HETATM    7  C4  UNL     1       1.308  -0.465  -0.181  1.00  0.00     0.148 C 
HETATM    8  C5  UNL     1       1.692  -1.477   0.879  1.00  0.00     0.044 C 
BRANCH   7   9
HETATM    9  O2  UNL     1       1.784   0.765   0.197  1.00  0.00    -0.387 OA
HETATM   10  C6  UNL     1       2.697   1.265  -0.754  1.00  0.00     0.202 C 
ENDBRANCH   7   9
ENDBRANCH   2   7
BRANCH   1  11
HETATM   11  O1  UNL     1      -0.151   1.751   0.322  1.00  0.00    -0.359 OA
HETATM   12  C1  UNL     1      -0.685   2.530   1.386  1.00  0.00     0.209 C 
ENDBRANCH   1  11
TORSDOF 3
