REMARK  4 active torsions:
REMARK  status: ('A' for Active; 'I' for Inactive)
REMARK    1  A    between atoms: C6_9  and  C7_10 
REMARK       I    between atoms: C7_10  and  N2_12 
REMARK    2  A    between atoms: N2_12  and  N3_14 
REMARK    3  A    between atoms: N3_14  and  C8_16 
REMARK    4  A    between atoms: C8_16  and  S2_18 
ROOT
HETATM    1  C7  UNL     1       0.202  -0.948  -0.009  1.00  0.00     0.272 C 
HETATM    2  O1  UNL     1       0.871  -1.800   0.690  1.00  0.00    -0.266 OA
HETATM    3  N2  UNL     1       0.920  -0.281  -0.998  1.00  0.00    -0.264 N 
ATOM      4  H2  UNL     1       0.460   0.400  -1.602  1.00  0.00     0.190 HD
ENDROOT
BRANCH   1   5
HETATM    5  C6  UNL     1      -1.204  -0.786   0.306  1.00  0.00     0.056 A 
HETATM    6  C2  UNL     1      -1.947   0.339   0.105  1.00  0.00    -0.022 A 
HETATM    7  C1  UNL     1      -1.350   1.621  -0.383  1.00  0.00     0.051 C 
HETATM    8  C3  UNL     1      -3.319   0.325   0.413  1.00  0.00     0.056 A 
HETATM    9 CL1  UNL     1      -4.227   1.782   0.142  1.00  0.00    -0.082 Cl
HETATM   10  C4  UNL     1      -3.921  -0.796   0.911  1.00  0.00     0.112 A 
HETATM   11  N1  UNL     1      -3.183  -1.884   1.102  1.00  0.00    -0.373 N 
HETATM   12  C5  UNL     1      -1.883  -1.907   0.822  1.00  0.00     0.105 A 
ATOM     13  H1  UNL     1      -3.625  -2.725   1.474  1.00  0.00     0.164 HD
ENDBRANCH   1   5
BRANCH   3  14
HETATM   14  N3  UNL     1       2.301  -0.563  -1.152  1.00  0.00    -0.281 N 
ATOM     15  H3  UNL     1       2.586  -1.362  -1.718  1.00  0.00     0.188 HD
BRANCH  14  16
HETATM   16  C8  UNL     1       3.291   0.236  -0.540  1.00  0.00     0.164 C 
HETATM   17  S1  UNL     1       2.832   1.514   0.370  1.00  0.00    -0.050 SA
BRANCH  16  18
HETATM   18  S2  UNL     1       5.004  -0.180  -0.783  1.00  0.00    -0.014 SA
HETATM   19  S3  UNL     1       6.179   1.219   0.318  1.00  0.00    -0.005 SA
ENDBRANCH  16  18
ENDBRANCH  14  16
ENDBRANCH   3  14
TORSDOF 4
