REMARK  6 active torsions:
REMARK  status: ('A' for Active; 'I' for Inactive)
REMARK    1  A    between atoms: N1_1  and  C1_5 
REMARK    2  A    between atoms: C4_8  and  C5_9 
REMARK    3  A    between atoms: C5_9  and  N2_10 
REMARK    4  A    between atoms: C8_13  and  C9_14 
REMARK    5  A    between atoms: N3_16  and  C11_17 
REMARK    6  A    between atoms: C16_27  and  C17_28 
ROOT
HETATM    1  C9  UNL     1       1.697  -0.821   0.324  1.00  0.00     0.038 A 
HETATM    2  C10 UNL     1       2.301   0.347  -0.088  1.00  0.00     0.126 A 
HETATM    3  N3  UNL     1       3.469   0.069  -0.695  1.00  0.00    -0.297 N 
HETATM    4  N5  UNL     1       3.619  -1.228  -0.680  1.00  0.00    -0.297 N 
ATOM      5  H5  UNL     1       4.418  -1.726  -1.073  1.00  0.00     0.187 HD
HETATM    6  C16 UNL     1       2.555  -1.825  -0.063  1.00  0.00     0.075 A 
ENDROOT
BRANCH   1   7
HETATM    7  C8  UNL     1       0.416  -0.936   1.022  1.00  0.00     0.063 A 
HETATM    8  C7  UNL     1       0.091  -0.412   2.252  1.00  0.00     0.050 A 
HETATM    9  C6  UNL     1      -1.211  -0.762   2.519  1.00  0.00     0.112 A 
HETATM   10  N2  UNL     1      -1.657  -1.475   1.481  1.00  0.00    -0.303 N 
HETATM   11  N8  UNL     1      -0.688  -1.577   0.592  1.00  0.00    -0.298 N 
ATOM     12  H8  UNL     1      -0.764  -2.072  -0.297  1.00  0.00     0.187 HD
BRANCH  10  13
HETATM   13  C5  UNL     1      -2.951  -2.042   1.317  1.00  0.00     0.152 C 
BRANCH  13  14
HETATM   14  C4  UNL     1      -3.962  -1.173   0.627  1.00  0.00     0.006 C 
HETATM   15  C3  UNL     1      -4.258   0.121   1.301  1.00  0.00     0.008 C 
HETATM   16  C2  UNL     1      -3.757   1.320   0.548  1.00  0.00     0.036 C 
HETATM   17  C1  UNL     1      -4.477   1.690  -0.671  1.00  0.00     0.217 C 
HETATM   18  C22 UNL     1      -5.449   0.724  -1.236  1.00  0.00     0.200 C 
HETATM   19  C21 UNL     1      -4.919  -0.636  -1.534  1.00  0.00     0.040 C 
HETATM   20  F1  UNL     1      -6.648   0.669  -0.509  1.00  0.00    -0.247 F 
HETATM   21  C20 UNL     1      -3.644  -0.983  -0.841  1.00  0.00     0.009 C 
BRANCH  17  22
HETATM   22  N1  UNL     1      -5.196   2.959  -0.479  1.00  0.00    -0.072 N 
ATOM     23  H13 UNL     1      -5.814   2.926   0.332  1.00  0.00     0.274 HD
ATOM     24  H12 UNL     1      -4.574   3.704  -0.165  1.00  0.00     0.274 HD
ATOM     25  H11 UNL     1      -5.698   3.217  -1.329  1.00  0.00     0.274 HD
ENDBRANCH  17  22
ENDBRANCH  13  14
ENDBRANCH  10  13
ENDBRANCH   1   7
BRANCH   6  26
HETATM   26  C17 UNL     1       2.342  -3.241   0.157  1.00  0.00     0.027 A 
HETATM   27  C18 UNL     1       2.231  -4.174  -0.845  1.00  0.00     0.122 A 
HETATM   28  N6  UNL     1       2.041  -5.362  -0.261  1.00  0.00    -0.311 N 
HETATM   29  N7  UNL     1       2.025  -5.233   1.051  1.00  0.00    -0.311 N 
ATOM     30  H6  UNL     1       1.925  -6.244  -0.760  1.00  0.00     0.186 HD
HETATM   31  C19 UNL     1       2.210  -3.923   1.363  1.00  0.00     0.122 A 
ATOM     32  H7  UNL     1       1.895  -5.991   1.721  1.00  0.00     0.186 HD
ENDBRANCH   6  26
BRANCH   3  33
HETATM   33  C11 UNL     1       4.398   1.016  -1.265  1.00  0.00     0.110 C 
HETATM   34  C12 UNL     1       5.514   1.351  -0.270  1.00  0.00     0.055 C 
HETATM   35  C13 UNL     1       6.322   2.470  -0.884  1.00  0.00     0.234 C 
HETATM   36  N4  UNL     1       5.602   3.704  -0.856  1.00  0.00    -0.075 N 
HETATM   37  C14 UNL     1       4.185   3.464  -0.730  1.00  0.00     0.234 C 
ATOM     38  H42 UNL     1       5.947   4.326  -0.125  1.00  0.00     0.277 HD
ATOM     39  H41 UNL     1       5.817   4.286  -1.666  1.00  0.00     0.277 HD
HETATM   40  C15 UNL     1       3.733   2.309  -1.631  1.00  0.00     0.055 C 
ENDBRANCH   3  33
TORSDOF 6
