REMARK  9 active torsions:
REMARK  status: ('A' for Active; 'I' for Inactive)
REMARK    1  A    between atoms: C2_2  and  C3_3 
REMARK    2  A    between atoms: C9_10  and  O2_11 
REMARK    3  A    between atoms: O2_11  and  C10_12 
REMARK    4  A    between atoms: C10_12  and  C11_14 
REMARK    5  A    between atoms: C11_14  and  C12_15 
REMARK    6  A    between atoms: C11_14  and  C15_18 
REMARK    7  A    between atoms: C15_18  and  C16_20 
REMARK    8  A    between atoms: C16_20  and  O5_23 
REMARK    9  A    between atoms: C20_29  and  O6_31 
ROOT
HETATM    1  C3  UNL     1      -4.431   0.517   0.883  1.00  0.00     0.011 C 
HETATM    2  C4  UNL     1      -5.242   0.952   2.047  1.00  0.00     0.023 C 
HETATM    3  C5  UNL     1      -3.131  -0.092   1.419  1.00  0.00     0.073 C 
HETATM    4  C6  UNL     1      -2.292  -0.354   0.218  1.00  0.00     0.016 C 
HETATM    5  C7  UNL     1      -2.816  -0.748  -0.948  1.00  0.00    -0.013 C 
HETATM    6  C8  UNL     1      -1.877  -0.971  -2.050  1.00  0.00     0.210 C 
HETATM    7  O1  UNL     1      -0.646  -1.433  -1.748  1.00  0.00    -0.339 OA
HETATM    8  C9  UNL     1      -0.089  -1.084  -0.555  1.00  0.00     0.380 C 
HETATM    9  N1  UNL     1      -0.897  -0.199   0.260  1.00  0.00    -0.345 N 
ATOM     10  H1  UNL     1      -0.465   0.515   0.847  1.00  0.00     0.164 HD
HETATM   11  C19 UNL     1      -4.285  -0.950  -1.119  1.00  0.00     0.150 C 
HETATM   12 CL1  UNL     1      -4.847  -0.175  -2.634  1.00  0.00    -0.117 Cl
HETATM   13  C20 UNL     1      -5.100  -0.550   0.053  1.00  0.00     0.086 C 
HETATM   14  C21 UNL     1      -5.368  -1.774   0.916  1.00  0.00     0.049 C 
ENDROOT
BRANCH   8  15
HETATM   15  O2  UNL     1       1.156  -0.434  -0.718  1.00  0.00    -0.270 OA
BRANCH  15  16
HETATM   16  C10 UNL     1       2.327  -0.957  -0.162  1.00  0.00     0.278 C 
HETATM   17  O3  UNL     1       2.217  -2.006   0.477  1.00  0.00    -0.264 OA
BRANCH  16  18
HETATM   18  C11 UNL     1       3.600  -0.193  -0.393  1.00  0.00     0.186 C 
BRANCH  18  19
HETATM   19  C12 UNL     1       3.532   1.115   0.266  1.00  0.00    -0.072 C 
HETATM   20  C13 UNL     1       2.541   1.325   1.199  1.00  0.00     0.015 C 
HETATM   21  C14 UNL     1       4.371   2.303  -0.026  1.00  0.00     0.044 C 
ENDBRANCH  18  19
BRANCH  18  22
HETATM   22  C15 UNL     1       4.784  -0.983  -0.091  1.00  0.00     0.177 C 
HETATM   23  O4  UNL     1       4.531  -2.143   0.415  1.00  0.00    -0.293 OA
BRANCH  22  24
HETATM   24  C16 UNL     1       6.211  -0.743  -0.244  1.00  0.00     0.112 C 
HETATM   25  C17 UNL     1       6.670  -0.321  -1.603  1.00  0.00     0.053 C 
HETATM   26  C18 UNL     1       6.807   0.190   0.797  1.00  0.00     0.053 C 
BRANCH  24  27
HETATM   27  O5  UNL     1       6.865  -2.021  -0.035  1.00  0.00    -0.383 OA
ATOM     28  H5  UNL     1       7.797  -1.864  -0.135  1.00  0.00     0.211 HD
ENDBRANCH  24  27
ENDBRANCH  22  24
ENDBRANCH  18  22
ENDBRANCH  16  18
ENDBRANCH  15  16
ENDBRANCH   8  15
BRANCH   1  29
HETATM   29  C2  UNL     1      -4.110   1.672   0.038  1.00  0.00    -0.024 C 
HETATM   30  C1  UNL     1      -5.064   2.506  -0.327  1.00  0.00     0.008 C 
ENDBRANCH   1  29
BRANCH  13  31
HETATM   31  O6  UNL     1      -6.339  -0.087  -0.400  1.00  0.00    -0.387 OA
ATOM     32  H6  UNL     1      -6.760  -0.759  -0.923  1.00  0.00     0.210 HD
ENDBRANCH  13  31
TORSDOF 9
