REMARK  7 active torsions:
REMARK  status: ('A' for Active; 'I' for Inactive)
REMARK    1  A    between atoms: C2_2  and  S1_4 
REMARK    2  A    between atoms: S1_4  and  C3_5 
REMARK    3  A    between atoms: C7_12  and  N2_13 
REMARK    4  A    between atoms: N2_13  and  C8_16 
REMARK    5  A    between atoms: C8_16  and  C10_18 
REMARK       I    between atoms: C10_18  and  N3_20 
REMARK    6  A    between atoms: N3_20  and  C11_22 
REMARK    7  A    between atoms: C18_32  and  O2_33 
ROOT
HETATM    1  C3  UNL     1       5.506  -1.692  -0.199  1.00  0.00     0.114 A 
HETATM    2  N1  UNL     1       5.251  -0.410  -0.376  1.00  0.00    -0.344 N 
ATOM      3  H1  UNL     1       6.006   0.233  -0.616  1.00  0.00     0.167 HD
HETATM    4  C4  UNL     1       4.030   0.034  -0.243  1.00  0.00     0.080 A 
HETATM    5  C5  UNL     1       3.060  -0.871   0.079  1.00  0.00     0.016 A 
HETATM    6  S2  UNL     1       3.967  -2.326   0.173  1.00  0.00    -0.068 SA
HETATM    7  C6  UNL     1       1.610  -0.499   0.265  1.00  0.00     0.111 C 
HETATM    8  C7  UNL     1       1.319   0.852  -0.279  1.00  0.00     0.391 C 
HETATM    9  N4  UNL     1       2.326   1.330  -1.207  1.00  0.00    -0.014 N 
ATOM     10  H41 UNL     1       2.063   2.184  -1.699  1.00  0.00     0.283 HD
ATOM     11  H42 UNL     1       2.434   0.746  -2.036  1.00  0.00     0.283 HD
HETATM   12  C18 UNL     1       3.552   1.458  -0.404  1.00  0.00     0.373 C 
ENDROOT
BRANCH   8  13
HETATM   13  N2  UNL     1       0.019   0.891  -0.963  1.00  0.00    -0.033 N 
ATOM     14  H22 UNL     1      -0.155   1.767  -1.456  1.00  0.00     0.280 HD
ATOM     15  H21 UNL     1      -0.031   0.279  -1.777  1.00  0.00     0.280 HD
BRANCH  13  16
HETATM   16  C8  UNL     1      -0.974   0.590   0.049  1.00  0.00     0.275 C 
HETATM   17  C9  UNL     1      -0.943   1.658   1.107  1.00  0.00     0.050 C 
BRANCH  16  18
HETATM   18  C10 UNL     1      -2.317   0.430  -0.555  1.00  0.00     0.248 C 
HETATM   19  O1  UNL     1      -2.422   0.572  -1.798  1.00  0.00    -0.271 OA
HETATM   20  N3  UNL     1      -3.466   0.130   0.189  1.00  0.00    -0.354 N 
ATOM     21  H3  UNL     1      -3.351   0.020   1.196  1.00  0.00     0.162 HD
BRANCH  20  22
HETATM   22  C11 UNL     1      -4.782  -0.035  -0.335  1.00  0.00     0.092 C 
HETATM   23  C12 UNL     1      -5.795   0.897   0.320  1.00  0.00     0.034 C 
HETATM   24  C13 UNL     1      -6.854  -0.056   0.799  1.00  0.00     0.010 C 
HETATM   25  C14 UNL     1      -7.455  -0.700  -0.378  1.00  0.00    -0.026 C 
HETATM   26  C17 UNL     1      -5.959  -1.222   1.271  1.00  0.00     0.019 C 
HETATM   27  C15 UNL     1      -6.567  -1.513  -0.935  1.00  0.00    -0.024 C 
HETATM   28  C16 UNL     1      -5.339  -1.423  -0.127  1.00  0.00     0.031 C 
ENDBRANCH  20  22
ENDBRANCH  16  18
ENDBRANCH  13  16
ENDBRANCH   8  13
BRANCH  12  29
HETATM   29  O2  UNL     1       4.479   2.267  -1.012  1.00  0.00    -0.365 OA
ATOM     30  H2  UNL     1       4.178   3.162  -1.113  1.00  0.00     0.212 HD
ENDBRANCH  12  29
BRANCH   1  31
HETATM   31  S1  UNL     1       7.103  -2.500  -0.331  1.00  0.00    -0.085 SA
BRANCH  31  32
HETATM   32  C2  UNL     1       8.335  -1.269  -0.748  1.00  0.00     0.146 C 
HETATM   33  C1  UNL     1       8.447  -0.316   0.448  1.00  0.00     0.038 C 
HETATM   34 CL1  UNL     1       7.852  -0.277  -2.161  1.00  0.00    -0.114 Cl
ENDBRANCH  31  32
ENDBRANCH   1  31
TORSDOF 7
