REMARK  3 active torsions:
REMARK  status: ('A' for Active; 'I' for Inactive)
REMARK    1  A    between atoms: C2_2  and  O1_3 
REMARK    2  A    between atoms: C2_2  and  C3_5 
REMARK    3  A    between atoms: N1_15  and  O3_17 
ROOT
HETATM    1  C3  UNL     1      -0.692   0.545  -0.022  1.00  0.00     0.039 C 
HETATM    2  C4  UNL     1      -1.914   0.537  -0.907  1.00  0.00     0.019 C 
HETATM    3  C5  UNL     1      -2.109  -0.670  -1.740  1.00  0.00     0.001 C 
HETATM    4  C6  UNL     1      -1.785  -1.965  -1.039  1.00  0.00     0.002 C 
HETATM    5  C7  UNL     1      -0.437  -1.881  -0.355  1.00  0.00     0.033 C 
HETATM    6  C8  UNL     1      -0.534  -0.757   0.663  1.00  0.00     0.137 C 
HETATM    7  O2  UNL     1       0.479  -0.827   1.598  1.00  0.00    -0.374 OA
HETATM    8  C9  UNL     1       1.651  -0.217   1.299  1.00  0.00     0.165 C 
HETATM    9  C10 UNL     1       2.748  -1.291   1.314  1.00  0.00     0.046 C 
HETATM   10  C11 UNL     1       1.731   0.507   0.029  1.00  0.00     0.039 C 
HETATM   11  N1  UNL     1       2.938   0.877  -0.332  1.00  0.00    -0.275 N 
ATOM     12  H1  UNL     1       3.750   0.664   0.248  1.00  0.00     0.193 HD
HETATM   13  C12 UNL     1       0.564   0.828  -0.828  1.00  0.00     0.076 C 
ENDROOT
BRANCH   1  14
HETATM   14  C2  UNL     1      -0.861   1.692   0.891  1.00  0.00     0.045 C 
HETATM   15  C1  UNL     1      -1.101   1.484   2.157  1.00  0.00     0.046 C 
BRANCH  14  16
HETATM   16  O1  UNL     1      -0.770   2.989   0.420  1.00  0.00    -0.365 OA
ATOM     17  H1  UNL     1      -0.595   3.140  -0.501  1.00  0.00     0.217 HD
ENDBRANCH  14  16
ENDBRANCH   1  14
BRANCH  11  18
HETATM   18  O3  UNL     1       3.069   1.549  -1.497  1.00  0.00    -0.290 OA
ATOM     19  H3  UNL     1       3.942   1.817  -1.758  1.00  0.00     0.244 HD
ENDBRANCH  11  18
TORSDOF 3
