REMARK  3 active torsions:
REMARK  status: ('A' for Active; 'I' for Inactive)
REMARK    1  A    between atoms: C2_2  and  C5_15 
REMARK    2  A    between atoms: N1_3  and  N2_5 
REMARK    3  A    between atoms: N2_5  and  C3_7 
ROOT
HETATM    1  N2  UNL     1       1.101  -0.199   0.875  1.00  0.00    -0.279 N 
ATOM      2  H2  UNL     1       0.616  -0.887   1.451  1.00  0.00     0.189 HD
ENDROOT
BRANCH   1   3
HETATM    3  N1  UNL     1       0.430   0.826   0.291  1.00  0.00    -0.306 N 
HETATM    4  C2  UNL     1      -0.732   0.956  -0.151  1.00  0.00     0.007 C 
HETATM    5  C1  UNL     1      -1.084   2.301  -0.735  1.00  0.00     0.066 C 
ATOM      6  H1  UNL     1       0.994   1.670   0.192  1.00  0.00     0.186 HD
BRANCH   4   7
HETATM    7  C5  UNL     1      -1.762  -0.055  -0.153  1.00  0.00    -0.012 C 
HETATM    8  C6  UNL     1      -2.997   0.345   0.640  1.00  0.00     0.021 C 
HETATM    9  C7  UNL     1      -1.330  -1.406   0.339  1.00  0.00     0.021 C 
HETATM   10  C8  UNL     1      -2.298  -0.254  -1.589  1.00  0.00     0.021 C 
ENDBRANCH   4   7
ENDBRANCH   1   3
BRANCH   1  11
HETATM   11  C3  UNL     1       2.400  -0.274   0.672  1.00  0.00     0.180 A 
HETATM   12  N3  UNL     1       3.250  -1.185   1.140  1.00  0.00    -0.277 N 
HETATM   13  N4  UNL     1       4.489  -1.095   0.835  1.00  0.00    -0.282 N 
ATOM     14  H3  UNL     1       2.918  -1.945   1.734  1.00  0.00     0.189 HD
HETATM   15  C4  UNL     1       4.884  -0.087   0.054  1.00  0.00     0.160 A 
ATOM     16  H4  UNL     1       5.161  -1.779   1.181  1.00  0.00     0.188 HD
HETATM   17  S1  UNL     1       6.404   0.268  -0.491  1.00  0.00    -0.051 SA
HETATM   18  S2  UNL     1       3.425   0.743  -0.239  1.00  0.00    -0.020 SA
ENDBRANCH   1  11
TORSDOF 3
