REMARK  14 active torsions:
REMARK  status: ('A' for Active; 'I' for Inactive)
REMARK    1  A    between atoms: C1_2  and  C2_3 
REMARK    2  A    between atoms: C1_2  and  O4_17 
REMARK    3  A    between atoms: C2_3  and  C3_4 
REMARK    4  A    between atoms: C3_4  and  C4_5 
REMARK    5  A    between atoms: C4_5  and  C5_6 
REMARK    6  A    between atoms: C5_6  and  C6_7 
REMARK    7  A    between atoms: C12_14  and  O3_15 
REMARK    8  A    between atoms: O4_17  and  C13_18 
REMARK    9  A    between atoms: C13_18  and  C14_19 
REMARK   10  A    between atoms: C14_19  and  S1_20 
REMARK   11  A    between atoms: S1_20  and  C15_21 
REMARK   12  A    between atoms: C16_22  and  O5_23 
REMARK   13  A    between atoms: C17_25  and  O6_26 
REMARK   14  A    between atoms: C21_33  and  O9_34 
ROOT
HETATM    1  C13 UNL     1       1.382  -0.424  -0.570  1.00  0.00     0.189 C 
ENDROOT
BRANCH   1   2
HETATM    2  O4  UNL     1       0.339   0.498  -0.586  1.00  0.00    -0.321 OA
BRANCH   2   3
HETATM    3  C1  UNL     1      -0.852   0.403   0.128  1.00  0.00     0.258 C 
HETATM    4  O1  UNL     1      -0.986  -0.607   0.839  1.00  0.00    -0.265 OA
BRANCH   3   5
HETATM    5  C2  UNL     1      -1.907   1.425   0.060  1.00  0.00     0.111 C 
BRANCH   5   6
HETATM    6  C3  UNL     1      -3.123   1.000   0.805  1.00  0.00     0.010 C 
BRANCH   6   7
HETATM    7  C4  UNL     1      -3.820  -0.219   0.273  1.00  0.00     0.001 C 
BRANCH   7   8
HETATM    8  C5  UNL     1      -5.022  -0.569   1.089  1.00  0.00     0.012 C 
BRANCH   8   9
HETATM    9  C6  UNL     1      -6.022   0.548   1.115  1.00  0.00     0.050 C 
HETATM   10  C7  UNL     1      -6.480   0.854  -0.241  1.00  0.00    -0.021 A 
HETATM   11  C8  UNL     1      -6.128   1.541  -1.401  1.00  0.00     0.149 A 
HETATM   12  C10 UNL     1      -7.702   0.276  -0.499  1.00  0.00    -0.025 A 
HETATM   13  O2  UNL     1      -7.093   1.363  -2.265  1.00  0.00    -0.334 OA
HETATM   14  C9  UNL     1      -8.051   0.618  -1.776  1.00  0.00     0.149 A 
HETATM   15  C11 UNL     1      -8.160  -0.482   0.701  1.00  0.00     0.073 C 
HETATM   16  C12 UNL     1      -7.310   0.101   1.816  1.00  0.00     0.131 C 
BRANCH  16  17
HETATM   17  O3  UNL     1      -7.923   1.195   2.380  1.00  0.00    -0.395 OA
ATOM     18  H3  UNL     1      -8.721   0.918   2.814  1.00  0.00     0.210 HD
ENDBRANCH  16  17
ENDBRANCH   8   9
ENDBRANCH   7   8
ENDBRANCH   6   7
ENDBRANCH   5   6
ENDBRANCH   3   5
ENDBRANCH   2   3
ENDBRANCH   1   2
BRANCH   1  19
HETATM   19  C14 UNL     1       2.013  -0.647   0.774  1.00  0.00     0.101 C 
BRANCH  19  20
HETATM   20  S1  UNL     1       3.348  -1.881   0.564  1.00  0.00    -0.157 SA
BRANCH  20  21
HETATM   21  C15 UNL     1       4.608  -1.069  -0.478  1.00  0.00     0.110 C 
HETATM   22  C16 UNL     1       5.723  -2.033  -0.673  1.00  0.00     0.165 C 
HETATM   23  C17 UNL     1       6.998  -1.373  -1.201  1.00  0.00     0.179 C 
HETATM   24  C18 UNL     1       7.307  -0.251  -0.275  1.00  0.00     0.187 C 
HETATM   25  O7  UNL     1       8.400   0.509  -0.588  1.00  0.00    -0.356 OA
HETATM   26  C20 UNL     1       6.187   0.784  -0.486  1.00  0.00     0.185 C 
HETATM   27  C19 UNL     1       8.132   1.725   0.061  1.00  0.00     0.339 C 
HETATM   28  O8  UNL     1       6.755   1.873   0.121  1.00  0.00    -0.356 OA
HETATM   29  C21 UNL     1       4.979   0.222   0.176  1.00  0.00     0.166 C 
BRANCH  22  30
HETATM   30  O5  UNL     1       6.096  -2.644   0.539  1.00  0.00    -0.392 OA
ATOM     31  H5  UNL     1       6.808  -3.260   0.414  1.00  0.00     0.210 HD
ENDBRANCH  22  30
BRANCH  23  32
HETATM   32  O6  UNL     1       6.691  -0.877  -2.464  1.00  0.00    -0.390 OA
ATOM     33  H6  UNL     1       7.483  -0.467  -2.792  1.00  0.00     0.210 HD
ENDBRANCH  23  32
BRANCH  29  34
HETATM   34  O9  UNL     1       5.189   0.134   1.536  1.00  0.00    -0.392 OA
ATOM     35  H9  UNL     1       5.425   0.955   1.952  1.00  0.00     0.210 HD
ENDBRANCH  29  34
ENDBRANCH  20  21
ENDBRANCH  19  20
ENDBRANCH   1  19
TORSDOF 14
