REMARK  4 active torsions:
REMARK  status: ('A' for Active; 'I' for Inactive)
REMARK    1  A    between atoms: C3_6  and  N3_7 
REMARK       I    between atoms: N3_7  and  C4_9 
REMARK    2  A    between atoms: C4_9  and  C5_11 
REMARK    3  A    between atoms: C7_17  and  C8_18 
REMARK    4  A    between atoms: C13_26  and  N7_27 
ROOT
HETATM    1  C5  UNL     1      -2.195   1.505  -0.322  1.00  0.00     0.126 A 
HETATM    2  N4  UNL     1      -2.324   2.725  -0.891  1.00  0.00    -0.295 N 
ATOM      3  H4  UNL     1      -3.191   3.089  -1.287  1.00  0.00     0.187 HD
HETATM    4  N5  UNL     1      -1.180   3.381  -0.866  1.00  0.00    -0.311 N 
ATOM      5  H5  UNL     1      -1.004   4.318  -1.228  1.00  0.00     0.186 HD
HETATM    6  C6  UNL     1      -0.287   2.562  -0.264  1.00  0.00     0.118 A 
HETATM    7  C7  UNL     1      -0.898   1.379   0.087  1.00  0.00     0.023 A 
ENDROOT
BRANCH   7   8
HETATM    8  C8  UNL     1      -0.251   0.233   0.733  1.00  0.00     0.223 C 
HETATM    9  C9  UNL     1       1.101   0.570   1.324  1.00  0.00     0.049 C 
HETATM   10  C10 UNL     1       2.075  -0.179   0.504  1.00  0.00    -0.010 C 
HETATM   11  C11 UNL     1       1.344  -0.836  -0.613  1.00  0.00     0.242 C 
HETATM   12  C12 UNL     1       3.065  -1.058   1.246  1.00  0.00     0.047 C 
HETATM   13  C17 UNL     1       3.292   0.604   0.004  1.00  0.00     0.047 C 
HETATM   14  N6  UNL     1      -0.044  -0.866  -0.199  1.00  0.00    -0.066 N 
ATOM     15  H62 UNL     1      -0.324  -1.769   0.184  1.00  0.00     0.278 HD
ATOM     16  H61 UNL     1      -0.693  -0.846  -0.986  1.00  0.00     0.278 HD
HETATM   17  C13 UNL     1       4.050  -0.727   0.122  1.00  0.00     0.225 C 
BRANCH  17  18
HETATM   18  N7  UNL     1       5.394  -0.479   0.563  1.00  0.00     0.102 N 
HETATM   19  C14 UNL     1       6.196  -0.213  -0.616  1.00  0.00     0.284 C 
HETATM   20  C15 UNL     1       7.588   0.173  -0.103  1.00  0.00     0.105 C 
HETATM   21  S1  UNL     1       7.748  -1.107   1.209  1.00  0.00    -0.138 SA
HETATM   22  C16 UNL     1       5.982  -1.629   1.232  1.00  0.00     0.347 C 
ENDBRANCH  17  18
ENDBRANCH   7   8
BRANCH   1  23
HETATM   23  C4  UNL     1      -3.283   0.525  -0.180  1.00  0.00     0.274 C 
HETATM   24  N3  UNL     1      -4.555   0.818  -0.720  1.00  0.00    -0.318 N 
ATOM     25  H3  UNL     1      -4.689   1.709  -1.198  1.00  0.00     0.169 HD
HETATM   26  O1  UNL     1      -3.029  -0.539   0.421  1.00  0.00    -0.266 OA
BRANCH  24  27
HETATM   27  C3  UNL     1      -5.643  -0.066  -0.626  1.00  0.00     0.092 A 
HETATM   28  C2  UNL     1      -5.729  -1.305  -0.051  1.00  0.00     0.140 A 
HETATM   29  N2  UNL     1      -6.995  -1.761  -0.223  1.00  0.00    -0.307 N 
HETATM   30  N1  UNL     1      -7.724  -0.884  -0.874  1.00  0.00    -0.284 N 
ATOM     31  H2  UNL     1      -7.335  -2.664   0.109  1.00  0.00     0.186 HD
HETATM   32  C1  UNL     1      -9.132  -0.984  -1.264  1.00  0.00     0.179 C 
HETATM   33  C18 UNL     1      -6.934   0.162  -1.136  1.00  0.00     0.148 A 
HETATM   34 CL1  UNL     1      -7.423   1.604  -1.986  1.00  0.00    -0.060 Cl
ENDBRANCH  24  27
ENDBRANCH   1  23
TORSDOF 4
