REMARK  7 active torsions:
REMARK  status: ('A' for Active; 'I' for Inactive)
REMARK    1  A    between atoms: O1_1  and  C1_3 
REMARK    2  A    between atoms: C7_10  and  C8_11 
REMARK    3  A    between atoms: C8_11  and  O2_12 
REMARK    4  A    between atoms: O2_12  and  C9_13 
REMARK    5  A    between atoms: C10_14  and  C11_15 
REMARK    6  A    between atoms: C13_19  and  O3_20 
REMARK    7  A    between atoms: C14_22  and  O4_23 
ROOT
HETATM    1  C1  UNL     1      -3.113  -0.263   1.001  1.00  0.00     0.126 C 
HETATM    2  C2  UNL     1      -3.973   0.966   0.764  1.00  0.00     0.032 C 
HETATM    3  C3  UNL     1      -4.504   0.826  -0.653  1.00  0.00     0.002 C 
HETATM    4  C4  UNL     1      -3.264   0.531  -1.511  1.00  0.00     0.001 C 
HETATM    5  C5  UNL     1      -2.162   1.480  -1.189  1.00  0.00     0.015 C 
HETATM    6  C6  UNL     1      -1.327   1.177  -0.029  1.00  0.00     0.057 C 
HETATM    7  S1  UNL     1       0.434   0.976  -0.522  1.00  0.00    -0.154 SA
HETATM    8  C7  UNL     1       1.201  -0.070   0.745  1.00  0.00     0.104 C 
HETATM    9  C13 UNL     1       0.440  -1.372   0.877  1.00  0.00     0.163 C 
HETATM   10  C14 UNL     1      -0.954  -1.271   0.267  1.00  0.00     0.155 C 
HETATM   11  C15 UNL     1      -1.667  -0.014   0.788  1.00  0.00     0.059 C 
ENDROOT
BRANCH   8  12
HETATM   12  C8  UNL     1       2.631  -0.377   0.354  1.00  0.00     0.205 C 
BRANCH  12  13
HETATM   13  O2  UNL     1       3.343   0.842   0.244  1.00  0.00    -0.302 OA
BRANCH  13  14
HETATM   14  C9  UNL     1       4.657   0.903  -0.094  1.00  0.00     0.060 C 
HETATM   15  C10 UNL     1       5.840   0.938  -0.408  1.00  0.00    -0.023 C 
BRANCH  15  16
HETATM   16  C11 UNL     1       7.224   0.962  -0.790  1.00  0.00     0.100 C 
HETATM   17 CL1  UNL     1       8.079   2.484  -0.884  1.00  0.00    -0.073 Cl
HETATM   18  C12 UNL     1       7.878  -0.147  -1.076  1.00  0.00     0.117 C 
HETATM   19 CL2  UNL     1       7.038  -1.692  -0.988  1.00  0.00    -0.095 Cl
ENDBRANCH  15  16
ENDBRANCH  13  14
ENDBRANCH  12  13
ENDBRANCH   8  12
BRANCH   9  20
HETATM   20  O3  UNL     1       1.110  -2.376   0.156  1.00  0.00    -0.392 OA
ATOM     21  H3  UNL     1       0.632  -3.193   0.239  1.00  0.00     0.210 HD
ENDBRANCH   9  20
BRANCH  10  22
HETATM   22  O4  UNL     1      -1.679  -2.380   0.698  1.00  0.00    -0.392 OA
ATOM     23  H4  UNL     1      -2.547  -2.317   0.318  1.00  0.00     0.210 HD
ENDBRANCH  10  22
BRANCH   1  24
HETATM   24  O1  UNL     1      -3.367  -0.650   2.337  1.00  0.00    -0.395 OA
ATOM     25  H1  UNL     1      -2.829  -1.419   2.485  1.00  0.00     0.210 HD
ENDBRANCH   1  24
TORSDOF 7
