REMARK  9 active torsions:
REMARK  status: ('A' for Active; 'I' for Inactive)
REMARK    1  A    between atoms: C4_10  and  N4_11 
REMARK    2  A    between atoms: N4_11  and  C5_13 
REMARK    3  A    between atoms: C5_13  and  O1_14 
REMARK    4  A    between atoms: C5_13  and  C6_16 
REMARK    5  A    between atoms: C6_16  and  N5_17 
REMARK    6  A    between atoms: N5_17  and  C7_18 
REMARK    7  A    between atoms: C9_20  and  N6_21 
REMARK    8  A    between atoms: C14_28  and  N8_29 
REMARK    9  A    between atoms: N8_29  and  C16_31 
ROOT
HETATM    1  C7  UNL     1       1.331  -0.002   0.676  1.00  0.00     0.135 A 
HETATM    2  C8  UNL     1       1.383   1.269   0.086  1.00  0.00     0.095 A 
HETATM    3  C9  UNL     1       0.295   2.009  -0.255  1.00  0.00     0.107 A 
HETATM    4  N7  UNL     1      -0.930   1.475  -0.004  1.00  0.00    -0.327 N 
ATOM      5  H7  UNL     1      -1.772   1.998  -0.245  1.00  0.00     0.169 HD
HETATM    6  C14 UNL     1      -1.036   0.256   0.562  1.00  0.00     0.130 A 
HETATM    7  C24 UNL     1       0.040  -0.491   0.906  1.00  0.00     0.118 A 
HETATM    8 CL1  UNL     1      -0.209  -2.070   1.640  1.00  0.00    -0.077 Cl
ENDROOT
BRANCH   1   9
HETATM    9  N5  UNL     1       2.262  -0.669   0.995  1.00  0.00    -0.416 NA
BRANCH   9  10
HETATM   10  C6  UNL     1       3.409  -1.241   1.272  1.00  0.00     0.208 C 
BRANCH  10  11
HETATM   11  C5  UNL     1       4.657  -0.602   0.660  1.00  0.00     0.272 C 
BRANCH  11  12
HETATM   12  N4  UNL     1       5.786  -1.377   1.170  1.00  0.00    -0.343 N 
ATOM     13  H4  UNL     1       5.958  -1.426   2.174  1.00  0.00     0.164 HD
BRANCH  12  14
HETATM   14  C4  UNL     1       6.554  -1.990   0.365  1.00  0.00     0.128 A 
HETATM   15  C2  UNL     1       7.625  -2.728   0.818  1.00  0.00     0.065 A 
HETATM   16  C1  UNL     1       7.867  -2.797   2.282  1.00  0.00     0.074 C 
HETATM   17  N1  UNL     1       8.428  -3.368  -0.054  1.00  0.00    -0.301 N 
HETATM   18  N2  UNL     1       8.216  -3.308  -1.355  1.00  0.00    -0.296 N 
ATOM     19  H1  UNL     1       9.216  -3.910   0.299  1.00  0.00     0.186 HD
HETATM   20  C3  UNL     1       7.179  -2.596  -1.825  1.00  0.00     0.199 A 
ATOM     21  H2  UNL     1       8.836  -3.799  -1.999  1.00  0.00     0.187 HD
HETATM   22  N3  UNL     1       6.353  -1.940  -0.963  1.00  0.00    -0.336 N 
ATOM     23  H3  UNL     1       5.569  -1.402  -1.332  1.00  0.00     0.168 HD
ENDBRANCH  12  14
ENDBRANCH  11  12
BRANCH  11  24
HETATM   24  O1  UNL     1       4.760   0.712   1.120  1.00  0.00    -0.371 OA
ATOM     25  H1  UNL     1       4.026   1.216   0.788  1.00  0.00     0.212 HD
ENDBRANCH  11  24
ENDBRANCH  10  11
ENDBRANCH   9  10
ENDBRANCH   1   9
BRANCH   3  26
HETATM   26  N6  UNL     1       0.386   3.297  -0.857  1.00  0.00    -0.367 N 
HETATM   27  C10 UNL     1       0.360   4.538  -0.136  1.00  0.00     0.124 C 
HETATM   28  C11 UNL     1       0.740   5.621  -1.107  1.00  0.00     0.021 C 
HETATM   29  C12 UNL     1       0.725   4.983  -2.480  1.00  0.00     0.021 C 
HETATM   30  C13 UNL     1       0.520   3.499  -2.282  1.00  0.00     0.124 C 
ENDBRANCH   3  26
BRANCH   6  31
HETATM   31  N8  UNL     1      -2.373  -0.180   0.789  1.00  0.00    -0.365 N 
HETATM   32  C15 UNL     1      -2.804  -0.310   2.151  1.00  0.00     0.151 C 
BRANCH  31  33
HETATM   33  C16 UNL     1      -3.239  -0.464  -0.317  1.00  0.00     0.085 C 
HETATM   34  C17 UNL     1      -3.654  -1.888  -0.453  1.00  0.00     0.026 C 
HETATM   35  C18 UNL     1      -4.950  -2.276   0.156  1.00  0.00     0.011 C 
HETATM   36  C19 UNL     1      -6.076  -1.328  -0.080  1.00  0.00    -0.048 C 
HETATM   37  C20 UNL     1      -6.627  -1.348  -1.480  1.00  0.00     0.015 C 
HETATM   38  C21 UNL     1      -7.187  -1.732   0.902  1.00  0.00     0.015 C 
HETATM   39  C22 UNL     1      -5.650   0.061   0.259  1.00  0.00     0.011 C 
HETATM   40  C23 UNL     1      -4.396   0.517  -0.393  1.00  0.00     0.026 C 
ENDBRANCH  31  33
ENDBRANCH   6  31
TORSDOF 9
