REMARK  11 active torsions:
REMARK  status: ('A' for Active; 'I' for Inactive)
REMARK    1  A    between atoms: N1_2  and  O1_3 
REMARK    2  A    between atoms: N1_2  and  C2_5 
REMARK    3  A    between atoms: C2_5  and  O2_7 
REMARK    4  A    between atoms: O2_7  and  C3_8 
REMARK    5  A    between atoms: C3_8  and  C4_9 
REMARK    6  A    between atoms: C4_9  and  C5_10 
REMARK    7  A    between atoms: C5_10  and  C22_32 
REMARK    8  A    between atoms: C6_11  and  C7_12 
REMARK    9  A    between atoms: C7_12  and  O3_13 
REMARK   10  A    between atoms: C8_15  and  O4_16 
REMARK   11  A    between atoms: C22_32  and  C23_34 
ROOT
HETATM    1  C7  UNL     1       0.339  -0.054   0.501  1.00  0.00     0.106 C 
HETATM    2  C8  UNL     1       0.606   1.431   0.798  1.00  0.00     0.157 C 
HETATM    3  C9  UNL     1      -0.526   2.150   1.411  1.00  0.00     0.036 C 
HETATM    4  C10 UNL     1      -1.626   1.319   1.961  1.00  0.00     0.012 C 
HETATM    5  C11 UNL     1      -2.057   0.182   1.079  1.00  0.00    -0.032 C 
HETATM    6  C12 UNL     1      -2.173  -1.043   1.991  1.00  0.00     0.016 C 
HETATM    7  C13 UNL     1      -3.465   0.398   0.563  1.00  0.00     0.010 C 
HETATM    8  C14 UNL     1      -4.083  -0.964   0.218  1.00  0.00     0.014 C 
HETATM    9  C15 UNL     1      -4.953  -0.740  -0.997  1.00  0.00     0.079 C 
HETATM   10  C16 UNL     1      -4.945   0.716  -1.185  1.00  0.00     0.135 C 
HETATM   11  O5  UNL     1      -5.856   1.365  -1.649  1.00  0.00    -0.297 OA
HETATM   12  C17 UNL     1      -3.594   1.174  -0.682  1.00  0.00     0.021 C 
HETATM   13  C18 UNL     1      -3.739   2.668  -0.489  1.00  0.00     0.024 C 
HETATM   14  C19 UNL     1      -2.608   0.834  -1.746  1.00  0.00     0.018 C 
HETATM   15  C20 UNL     1      -1.209   0.667  -1.247  1.00  0.00     0.010 C 
HETATM   16  C21 UNL     1      -1.083  -0.157   0.008  1.00  0.00     0.035 C 
ENDROOT
BRANCH   1  17
HETATM   17  C6  UNL     1       1.335  -0.499  -0.455  1.00  0.00     0.024 C 
HETATM   18  C5  UNL     1       1.809  -1.691  -0.775  1.00  0.00    -0.010 C 
BRANCH  18  19
HETATM   19  C4  UNL     1       2.855  -1.657  -1.852  1.00  0.00     0.069 C 
BRANCH  19  20
HETATM   20  C3  UNL     1       4.188  -2.050  -1.330  1.00  0.00     0.183 C 
BRANCH  20  21
HETATM   21  O2  UNL     1       4.627  -1.157  -0.330  1.00  0.00    -0.325 OA
BRANCH  21  22
HETATM   22  C2  UNL     1       4.878   0.160  -0.549  1.00  0.00     0.236 C 
HETATM   23  S1  UNL     1       5.003   0.855  -2.033  1.00  0.00    -0.031 SA
BRANCH  22  24
HETATM   24  N1  UNL     1       5.053   1.017   0.584  1.00  0.00    -0.234 N 
HETATM   25  C1  UNL     1       5.318   2.415   0.412  1.00  0.00     0.188 C 
BRANCH  24  26
HETATM   26  O1  UNL     1       4.972   0.495   1.809  1.00  0.00    -0.285 OA
ATOM     27  H1  UNL     1       4.796  -0.432   1.923  1.00  0.00     0.245 HD
ENDBRANCH  24  26
ENDBRANCH  22  24
ENDBRANCH  21  22
ENDBRANCH  20  21
ENDBRANCH  19  20
ENDBRANCH  18  19
BRANCH  18  28
HETATM   28  C22 UNL     1       1.388  -2.960  -0.262  1.00  0.00     0.169 C 
HETATM   29  O6  UNL     1       0.506  -3.123   0.652  1.00  0.00    -0.291 OA
BRANCH  28  30
HETATM   30  C23 UNL     1       1.924  -4.247  -0.751  1.00  0.00     0.198 C 
HETATM   31 CL1  UNL     1       2.756  -5.211   0.451  1.00  0.00    -0.122 Cl
ENDBRANCH  28  30
ENDBRANCH  18  28
ENDBRANCH   1  17
BRANCH   1  32
HETATM   32  O3  UNL     1       0.563  -0.676   1.723  1.00  0.00    -0.383 OA
ATOM     33  H3  UNL     1      -0.089  -0.385   2.349  1.00  0.00     0.211 HD
ENDBRANCH   1  32
BRANCH   2  34
HETATM   34  O4  UNL     1       1.729   1.438   1.660  1.00  0.00    -0.392 OA
ATOM     35  H4  UNL     1       1.894   2.355   1.843  1.00  0.00     0.210 HD
ENDBRANCH   2  34
TORSDOF 11
