REMARK  15 active torsions:
REMARK  status: ('A' for Active; 'I' for Inactive)
REMARK    1  A    between atoms: N1_3  and  C2_4 
REMARK    2  A    between atoms: C2_4  and  C3_5 
REMARK    3  A    between atoms: C3_5  and  O2_6 
REMARK    4  A    between atoms: C3_5  and  N2_8 
REMARK    5  A    between atoms: C4_9  and  C5_10 
REMARK    6  A    between atoms: C5_10  and  O3_11 
REMARK    7  A    between atoms: O3_11  and  C6_12 
REMARK    8  A    between atoms: C6_12  and  C7_13 
REMARK    9  A    between atoms: C15_21  and  C16_22 
REMARK   10  A    between atoms: C15_21  and  C23_29 
REMARK   11  A    between atoms: C16_22  and  C17_23 
REMARK   12  A    between atoms: C24_31  and  C25_32 
REMARK   13  A    between atoms: C32_39  and  O5_40 
REMARK   14  A    between atoms: N3_42  and  C33_43 
REMARK   15  A    between atoms: C33_43  and  C34_44 
ROOT
HETATM    1  N2  UNL     1      -0.732   0.128   0.005  1.00  0.00     0.148 N 
HETATM    2  C4  UNL     1      -1.115  -0.956   0.865  1.00  0.00     0.274 C 
HETATM    3  C13 UNL     1      -1.430  -0.308   2.126  1.00  0.00     0.010 C 
HETATM    4  C14 UNL     1      -1.555   0.961   1.977  1.00  0.00     0.020 C 
HETATM    5  C15 UNL     1      -1.341   1.365   0.561  1.00  0.00     0.228 C 
ENDROOT
BRANCH   1   6
HETATM    6  C3  UNL     1       0.661   0.165  -0.231  1.00  0.00     0.378 C 
BRANCH   6   7
HETATM    7  C2  UNL     1       1.186  -1.151  -0.886  1.00  0.00     0.197 C 
BRANCH   7   8
HETATM    8  N1  UNL     1       2.613  -0.839  -1.136  1.00  0.00    -0.301 N 
HETATM    9  C1  UNL     1       3.631  -1.047  -0.278  1.00  0.00     0.331 A 
HETATM   10  O1  UNL     1       3.458  -1.541   0.873  1.00  0.00    -0.246 OA
HETATM   11  N3  UNL     1       4.808  -0.677  -0.783  1.00  0.00    -0.274 N 
HETATM   12  C32 UNL     1       4.541  -0.211  -2.013  1.00  0.00     0.162 A 
HETATM   13  C31 UNL     1       3.172  -0.310  -2.237  1.00  0.00     0.151 A 
BRANCH  11  14
HETATM   14  C33 UNL     1       6.123  -0.760  -0.126  1.00  0.00     0.174 C 
BRANCH  14  15
HETATM   15  C34 UNL     1       6.748  -2.054  -0.390  1.00  0.00    -0.040 A 
HETATM   16  C35 UNL     1       6.539  -3.093   0.483  1.00  0.00     0.009 A 
HETATM   17  C36 UNL     1       7.127  -4.309   0.223  1.00  0.00     0.001 A 
HETATM   18  C37 UNL     1       7.910  -4.494  -0.883  1.00  0.00     0.000 A 
HETATM   19  C38 UNL     1       8.134  -3.460  -1.776  1.00  0.00     0.001 A 
HETATM   20  C39 UNL     1       7.529  -2.231  -1.499  1.00  0.00     0.009 A 
ENDBRANCH  14  15
ENDBRANCH  11  14
BRANCH  12  21
HETATM   21  O5  UNL     1       5.482   0.283  -2.898  1.00  0.00    -0.345 OA
ATOM     22  H5  UNL     1       6.417   0.351  -2.745  1.00  0.00     0.219 HD
ENDBRANCH  12  21
ENDBRANCH   7   8
ENDBRANCH   6   7
BRANCH   6  23
HETATM   23  O2  UNL     1       0.934   1.038  -1.314  1.00  0.00    -0.366 OA
ATOM     24  H2  UNL     1       0.614   1.839  -0.915  1.00  0.00     0.212 HD
ENDBRANCH   6  23
ENDBRANCH   1   6
BRANCH   2  25
HETATM   25  C5  UNL     1      -2.021  -1.998   0.353  1.00  0.00     0.208 C 
BRANCH  25  26
HETATM   26  O3  UNL     1      -1.530  -2.688  -0.757  1.00  0.00    -0.384 OA
BRANCH  26  27
HETATM   27  C6  UNL     1      -2.417  -3.660  -1.205  1.00  0.00     0.206 C 
BRANCH  27  28
HETATM   28  C7  UNL     1      -2.705  -4.682  -0.174  1.00  0.00    -0.035 A 
HETATM   29  C8  UNL     1      -1.715  -5.622   0.058  1.00  0.00     0.009 A 
HETATM   30  C9  UNL     1      -1.850  -6.636   0.982  1.00  0.00     0.001 A 
HETATM   31  C10 UNL     1      -3.030  -6.687   1.685  1.00  0.00     0.000 A 
HETATM   32  C11 UNL     1      -4.046  -5.748   1.469  1.00  0.00     0.001 A 
HETATM   33  C12 UNL     1      -3.885  -4.747   0.540  1.00  0.00     0.009 A 
ENDBRANCH  27  28
ENDBRANCH  26  27
ENDBRANCH  25  26
ENDBRANCH   2  25
BRANCH   5  34
HETATM   34  C16 UNL     1      -2.754   1.383   0.017  1.00  0.00     0.033 C 
BRANCH  34  35
HETATM   35  C17 UNL     1      -3.704   2.402   0.277  1.00  0.00    -0.037 A 
HETATM   36  C18 UNL     1      -4.437   2.615   1.417  1.00  0.00     0.011 A 
HETATM   37  C19 UNL     1      -5.401   3.582   1.522  1.00  0.00     0.001 A 
HETATM   38  C20 UNL     1      -5.688   4.407   0.466  1.00  0.00     0.000 A 
HETATM   39  C21 UNL     1      -4.977   4.227  -0.696  1.00  0.00     0.001 A 
HETATM   40  C22 UNL     1      -4.023   3.266  -0.792  1.00  0.00     0.011 A 
ENDBRANCH  34  35
ENDBRANCH   5  34
BRANCH   5  41
HETATM   41  C23 UNL     1      -0.526   2.570   0.472  1.00  0.00     0.203 A 
HETATM   42  O4  UNL     1      -0.214   3.254  -0.709  1.00  0.00    -0.367 OA
HETATM   43  C24 UNL     1      -0.355   3.928   0.468  1.00  0.00     0.187 A 
BRANCH  43  44
HETATM   44  C25 UNL     1      -1.150   5.149   0.430  1.00  0.00    -0.027 A 
HETATM   45  C26 UNL     1      -1.894   5.525   1.519  1.00  0.00     0.010 A 
HETATM   46  C27 UNL     1      -2.645   6.660   1.527  1.00  0.00     0.001 A 
HETATM   47  C28 UNL     1      -2.662   7.469   0.397  1.00  0.00     0.000 A 
HETATM   48  C29 UNL     1      -1.924   7.119  -0.717  1.00  0.00     0.001 A 
HETATM   49  C30 UNL     1      -1.185   5.967  -0.674  1.00  0.00     0.010 A 
ENDBRANCH  43  44
ENDBRANCH   5  41
TORSDOF 15
