REMARK  3 active torsions:
REMARK  status: ('A' for Active; 'I' for Inactive)
REMARK    1  A    between atoms: N1_1  and  N2_4 
REMARK    2  A    between atoms: C1_7  and  N4_8 
REMARK    3  A    between atoms: N4_8  and  C2_10 
ROOT
HETATM    1  N2  UNL     1      -1.506   0.046  -0.204  1.00  0.00    -0.108 N 
HETATM    2  N3  UNL     1      -0.541   0.717  -0.847  1.00  0.00    -0.093 N 
ATOM      3  H3  UNL     1      -0.707   1.391  -1.595  1.00  0.00     0.209 HD
HETATM    4  C1  UNL     1       0.670   0.387  -0.379  1.00  0.00     0.717 A 
HETATM    5  N5  UNL     1       0.412  -0.532   0.599  1.00  0.00    -0.113 N 
ATOM      6  H5  UNL     1       1.112  -1.001   1.174  1.00  0.00     0.207 HD
HETATM    7  N6  UNL     1      -0.891  -0.712   0.677  1.00  0.00    -0.192 N 
ATOM      8  H6  UNL     1      -1.355  -1.347   1.326  1.00  0.00     0.212 HD
ENDROOT
BRANCH   4   9
HETATM    9  N4  UNL     1       1.798   0.854  -0.785  1.00  0.00    -0.165 N 
ATOM     10  H4  UNL     1       1.834   1.545  -1.534  1.00  0.00     0.186 HD
BRANCH   9  11
HETATM   11  C2  UNL     1       2.984   0.394  -0.177  1.00  0.00     0.368 C 
HETATM   12  O1  UNL     1       3.541   1.093   0.687  1.00  0.00    -0.283 OA
ENDBRANCH   9  11
ENDBRANCH   4   9
BRANCH   1  13
HETATM   13  N1  UNL     1      -2.882   0.168  -0.461  1.00  0.00    -0.307 N 
ATOM     14  H12 UNL     1      -3.359   0.756  -1.144  1.00  0.00     0.180 HD
ATOM     15  H11 UNL     1      -3.617  -0.343   0.029  1.00  0.00     0.180 HD
ENDBRANCH   1  13
TORSDOF 3
