REMARK  8 active torsions:
REMARK  status: ('A' for Active; 'I' for Inactive)
REMARK    1  A    between atoms: C2_2  and  C3_3 
REMARK    2  A    between atoms: C3_3  and  C4_4 
REMARK    3  A    between atoms: C4_4  and  N1_5 
REMARK       I    between atoms: N1_5  and  C5_7 
REMARK    4  A    between atoms: C5_7  and  C6_9 
REMARK    5  A    between atoms: C6_9  and  S1_10 
REMARK    6  A    between atoms: S1_10  and  C7_11 
REMARK    7  A    between atoms: C9_16  and  N3_17 
REMARK       I    between atoms: N3_17  and  C10_19 
REMARK       I    between atoms: C10_19  and  N4_21 
REMARK       I    between atoms: N4_21  and  C11_23 
REMARK    8  A    between atoms: C11_23  and  C12_25 
ROOT
HETATM    1  C7  UNL     1       1.442   0.142   3.008  1.00  0.00     0.147 A 
HETATM    2  N2  UNL     1       0.485   1.084   3.204  1.00  0.00    -0.302 N 
ATOM      3  H2  UNL     1       0.712   1.875   3.807  1.00  0.00     0.171 HD
HETATM    4  C8  UNL     1      -0.725   1.046   2.665  1.00  0.00     0.276 A 
HETATM    5  O2  UNL     1      -1.600   1.924   2.853  1.00  0.00    -0.266 OA
HETATM    6  C9  UNL     1      -1.016  -0.035   1.851  1.00  0.00     0.127 A 
HETATM    7  C16 UNL     1      -0.075  -1.007   1.629  1.00  0.00     0.040 A 
HETATM    8  C17 UNL     1      -0.392  -2.160   0.748  1.00  0.00     0.071 C 
HETATM    9  N5  UNL     1       1.141  -0.891   2.221  1.00  0.00    -0.338 N 
ATOM     10  H5  UNL     1       1.843  -1.613   2.059  1.00  0.00     0.168 HD
ENDROOT
BRANCH   6  11
HETATM   11  N3  UNL     1      -2.336  -0.085   1.276  1.00  0.00    -0.302 N 
HETATM   12  C10 UNL     1      -2.604   0.483   0.019  1.00  0.00     0.327 C 
HETATM   13  O3  UNL     1      -1.618   1.041  -0.612  1.00  0.00    -0.247 OA
HETATM   14  N4  UNL     1      -3.849   0.494  -0.606  1.00  0.00    -0.278 N 
HETATM   15  C11 UNL     1      -5.044  -0.042  -0.105  1.00  0.00     0.233 C 
ATOM     16  H4  UNL     1      -3.896   0.938  -1.523  1.00  0.00     0.173 HD
HETATM   17  O4  UNL     1      -5.099  -0.610   0.997  1.00  0.00    -0.272 OA
ATOM     18  H3  UNL     1      -3.090  -0.541   1.791  1.00  0.00     0.171 HD
BRANCH  15  19
HETATM   19  C12 UNL     1      -6.302   0.077  -0.940  1.00  0.00     0.030 C 
HETATM   20  C13 UNL     1      -6.641   1.509  -1.207  1.00  0.00     0.025 C 
HETATM   21  C14 UNL     1      -6.166  -0.745  -2.185  1.00  0.00     0.025 C 
HETATM   22  C15 UNL     1      -7.449  -0.494  -0.092  1.00  0.00     0.025 C 
ENDBRANCH  15  19
ENDBRANCH   6  11
BRANCH   1  23
HETATM   23  S1  UNL     1       2.981   0.411   3.826  1.00  0.00    -0.085 SA
BRANCH  23  24
HETATM   24  C6  UNL     1       4.150   1.374   2.880  1.00  0.00     0.185 C 
BRANCH  24  25
HETATM   25  C5  UNL     1       4.746   0.710   1.725  1.00  0.00     0.227 C 
HETATM   26  N1  UNL     1       4.074   0.525   0.451  1.00  0.00    -0.360 N 
ATOM     27  H1  UNL     1       3.113   0.846   0.335  1.00  0.00     0.162 HD
HETATM   28  O1  UNL     1       5.901   0.262   1.801  1.00  0.00    -0.273 OA
BRANCH  26  29
HETATM   29  C4  UNL     1       4.757  -0.112  -0.658  1.00  0.00     0.122 C 
BRANCH  29  30
HETATM   30  C3  UNL     1       5.912   0.756  -1.087  1.00  0.00     0.019 C 
BRANCH  30  31
HETATM   31  C2  UNL     1       6.738   0.168  -2.200  1.00  0.00    -0.003 C 
HETATM   32  C1  UNL     1       7.363  -1.149  -1.790  1.00  0.00     0.005 C 
ENDBRANCH  30  31
ENDBRANCH  29  30
ENDBRANCH  26  29
ENDBRANCH  24  25
ENDBRANCH  23  24
ENDBRANCH   1  23
TORSDOF 8
