REMARK  14 active torsions:
REMARK  status: ('A' for Active; 'I' for Inactive)
REMARK    1  A    between atoms: C2_2  and  C3_3 
REMARK    2  A    between atoms: C3_3  and  C4_4 
REMARK    3  A    between atoms: C4_4  and  C5_5 
REMARK    4  A    between atoms: C8_8  and  C9_9 
REMARK    5  A    between atoms: C9_9  and  O1_10 
REMARK    6  A    between atoms: C10_12  and  C11_13 
REMARK    7  A    between atoms: C11_13  and  C12_14 
REMARK    8  A    between atoms: C12_14  and  C13_15 
REMARK    9  A    between atoms: C13_15  and  C14_16 
REMARK   10  A    between atoms: C15_18  and  C16_19 
REMARK   11  A    between atoms: C16_19  and  O3_20 
REMARK   12  A    between atoms: C17_22  and  O4_23 
REMARK   13  A    between atoms: C18_25  and  O5_26 
REMARK   14  A    between atoms: C19_28  and  O6_29 
ROOT
HETATM    1  C14 UNL     1       2.780   0.929   1.004  1.00  0.00     0.153 C 
HETATM    2  O2  UNL     1       3.270  -0.354   0.880  1.00  0.00    -0.373 OA
HETATM    3  C15 UNL     1       4.042  -0.565  -0.238  1.00  0.00     0.176 C 
HETATM    4  C17 UNL     1       5.316   0.249  -0.177  1.00  0.00     0.180 C 
HETATM    5  C18 UNL     1       5.173   1.359   0.844  1.00  0.00     0.180 C 
HETATM    6  C19 UNL     1       3.807   1.986   0.615  1.00  0.00     0.178 C 
ENDROOT
BRANCH   1   7
HETATM    7  C13 UNL     1       1.560   1.083   0.148  1.00  0.00     0.035 C 
BRANCH   7   8
HETATM    8  C12 UNL     1       0.522   0.056   0.645  1.00  0.00     0.003 C 
BRANCH   8   9
HETATM    9  C11 UNL     1      -0.669   0.236  -0.221  1.00  0.00     0.005 C 
BRANCH   9  10
HETATM   10  C10 UNL     1      -1.845  -0.657   0.077  1.00  0.00    -0.004 C 
HETATM   11  C5  UNL     1      -2.921  -0.257  -0.938  1.00  0.00    -0.010 C 
HETATM   12  C6  UNL     1      -3.208  -1.505  -1.742  1.00  0.00     0.005 C 
HETATM   13  C7  UNL     1      -1.961  -2.373  -1.566  1.00  0.00     0.007 C 
HETATM   14  C8  UNL     1      -1.487  -2.075  -0.158  1.00  0.00     0.014 C 
BRANCH  11  15
HETATM   15  C4  UNL     1      -4.143   0.281  -0.259  1.00  0.00     0.005 C 
BRANCH  15  16
HETATM   16  C3  UNL     1      -3.843   1.533   0.534  1.00  0.00     0.000 C 
BRANCH  16  17
HETATM   17  C2  UNL     1      -5.075   2.071   1.214  1.00  0.00    -0.005 C 
HETATM   18  C1  UNL     1      -6.120   2.408   0.192  1.00  0.00     0.005 C 
ENDBRANCH  16  17
ENDBRANCH  15  16
ENDBRANCH  11  15
BRANCH  14  19
HETATM   19  C9  UNL     1      -2.224  -3.044   0.741  1.00  0.00     0.169 C 
BRANCH  19  20
HETATM   20  O1  UNL     1      -1.867  -4.331   0.313  1.00  0.00    -0.400 OA
ATOM     21  H1  UNL     1      -2.330  -4.939   0.877  1.00  0.00     0.209 HD
ENDBRANCH  19  20
ENDBRANCH  14  19
ENDBRANCH   9  10
ENDBRANCH   8   9
ENDBRANCH   7   8
ENDBRANCH   1   7
BRANCH   6  22
HETATM   22  O6  UNL     1       3.617   3.087   1.428  1.00  0.00    -0.390 OA
ATOM     23  H6  UNL     1       4.257   3.746   1.186  1.00  0.00     0.210 HD
ENDBRANCH   6  22
BRANCH   3  24
HETATM   24  C16 UNL     1       4.395  -2.054  -0.259  1.00  0.00     0.198 C 
BRANCH  24  25
HETATM   25  O3  UNL     1       5.180  -2.344  -1.372  1.00  0.00    -0.398 OA
ATOM     26  H3  UNL     1       5.399  -3.268  -1.385  1.00  0.00     0.209 HD
ENDBRANCH  24  25
ENDBRANCH   3  24
BRANCH   5  27
HETATM   27  O5  UNL     1       6.198   2.278   0.727  1.00  0.00    -0.390 OA
ATOM     28  H5  UNL     1       6.108   2.974   1.367  1.00  0.00     0.210 HD
ENDBRANCH   5  27
BRANCH   4  29
HETATM   29  O4  UNL     1       5.537   0.840  -1.422  1.00  0.00    -0.390 OA
ATOM     30  H4  UNL     1       6.337   1.351  -1.384  1.00  0.00     0.210 HD
ENDBRANCH   4  29
TORSDOF 14
