REMARK  17 active torsions:
REMARK  status: ('A' for Active; 'I' for Inactive)
REMARK    1  A    between atoms: C4_8  and  N4_9 
REMARK    2  A    between atoms: N4_9  and  C5_10 
REMARK    3  A    between atoms: C5_10  and  O1_11 
REMARK    4  A    between atoms: C5_10  and  N5_13 
REMARK    5  A    between atoms: N5_13  and  C6_14 
REMARK    6  A    between atoms: C6_14  and  C7_15 
REMARK    7  A    between atoms: C7_15  and  C8_16 
REMARK    8  A    between atoms: C8_16  and  C9_17 
REMARK    9  A    between atoms: C9_17  and  C10_18 
REMARK   10  A    between atoms: C10_18  and  C11_19 
REMARK   11  A    between atoms: C11_19  and  C12_20 
REMARK   12  A    between atoms: C12_20  and  C13_21 
REMARK   13  A    between atoms: C13_21  and  C14_22 
REMARK   14  A    between atoms: C14_22  and  C15_23 
REMARK   15  A    between atoms: C15_23  and  C16_24 
REMARK   16  A    between atoms: C16_24  and  N6_25 
REMARK   17  A    between atoms: C17_31  and  C18_32 
ROOT
HETATM    1  N1  UNL     1      -8.731   1.992  -2.451  1.00  0.00    -0.190 NA
HETATM    2  C1  UNL     1      -7.689   1.566  -2.262  1.00  0.00     0.120 C 
HETATM    3  C2  UNL     1      -6.329   1.097  -2.040  1.00  0.00     0.142 A 
HETATM    4  N2  UNL     1      -5.409   1.373  -2.990  1.00  0.00    -0.330 N 
ATOM      5  H2  UNL     1      -5.685   1.884  -3.828  1.00  0.00     0.168 HD
HETATM    6  C3  UNL     1      -4.152   0.986  -2.842  1.00  0.00     0.176 A 
HETATM    7  N3  UNL     1      -3.143   1.293  -3.833  1.00  0.00    -0.077 NA
HETATM    8  C4  UNL     1      -3.807   0.281  -1.690  1.00  0.00     0.226 A 
HETATM    9  N7  UNL     1      -4.772   0.046  -0.764  1.00  0.00    -0.326 N 
ATOM     10  H7  UNL     1      -4.498  -0.456   0.081  1.00  0.00     0.169 HD
HETATM   11  C17 UNL     1      -6.058   0.420  -0.869  1.00  0.00     0.075 A 
ENDROOT
BRANCH  11  12
HETATM   12  C18 UNL     1      -7.072  -0.062   0.093  1.00  0.00    -0.047 C 
HETATM   13  C19 UNL     1      -7.236   0.570   1.393  1.00  0.00     0.056 C 
HETATM   14  C20 UNL     1      -7.809  -0.351   2.438  1.00  0.00     0.118 C 
HETATM   15  N8  UNL     1      -7.985  -1.641   1.896  1.00  0.00    -0.421 N 
HETATM   16  C21 UNL     1      -8.710  -1.763   0.700  1.00  0.00     0.118 C 
ATOM     17  H8  UNL     1      -7.597  -2.462   2.360  1.00  0.00     0.153 HD
HETATM   18  C22 UNL     1      -8.253  -0.786  -0.420  1.00  0.00     0.056 C 
ENDBRANCH  11  12
BRANCH   8  19
HETATM   19  N4  UNL     1      -2.707  -0.190  -1.612  1.00  0.00    -0.331 NA
BRANCH  19  20
HETATM   20  C5  UNL     1      -1.556  -0.785  -1.319  1.00  0.00     0.373 C 
BRANCH  20  21
HETATM   21  O1  UNL     1      -1.033  -1.463  -2.339  1.00  0.00    -0.310 OA
ATOM     22  H1  UNL     1      -0.210  -1.889  -2.129  1.00  0.00     0.223 HD
ENDBRANCH  20  21
BRANCH  20  23
HETATM   23  N5  UNL     1      -0.808  -0.790  -0.109  1.00  0.00    -0.398 NA
BRANCH  23  24
HETATM   24  C6  UNL     1      -0.089  -0.812   1.000  1.00  0.00     0.223 C 
BRANCH  24  25
HETATM   25  C7  UNL     1       1.134   0.115   0.929  1.00  0.00     0.033 C 
BRANCH  25  26
HETATM   26  C8  UNL     1       2.031  -0.086  -0.247  1.00  0.00     0.002 C 
BRANCH  26  27
HETATM   27  C9  UNL     1       2.900   1.188  -0.307  1.00  0.00     0.000 C 
BRANCH  27  28
HETATM   28  C10 UNL     1       3.827   1.340   0.786  1.00  0.00     0.000 C 
BRANCH  28  29
HETATM   29  C11 UNL     1       5.015   0.348   0.762  1.00  0.00     0.000 C 
BRANCH  29  30
HETATM   30  C12 UNL     1       5.671   0.619  -0.597  1.00  0.00     0.000 C 
BRANCH  30  31
HETATM   31  C13 UNL     1       6.909  -0.177  -0.784  1.00  0.00     0.000 C 
BRANCH  31  32
HETATM   32  C14 UNL     1       7.962   0.186   0.241  1.00  0.00     0.002 C 
BRANCH  32  33
HETATM   33  C15 UNL     1       9.202  -0.646   0.065  1.00  0.00     0.027 C 
BRANCH  33  34
HETATM   34  C16 UNL     1      10.151  -0.123   1.175  1.00  0.00     0.229 C 
BRANCH  34  35
HETATM   35  N6  UNL     1       9.515  -0.310   2.452  1.00  0.00    -0.079 N 
ATOM     36  H63 UNL     1       8.591   0.120   2.494  1.00  0.00     0.274 HD
ATOM     37  H62 UNL     1       9.228  -1.276   2.607  1.00  0.00     0.274 HD
ATOM     38  H61 UNL     1      10.139   0.034   3.182  1.00  0.00     0.274 HD
ENDBRANCH  34  35
ENDBRANCH  33  34
ENDBRANCH  32  33
ENDBRANCH  31  32
ENDBRANCH  30  31
ENDBRANCH  29  30
ENDBRANCH  28  29
ENDBRANCH  27  28
ENDBRANCH  26  27
ENDBRANCH  25  26
ENDBRANCH  24  25
ENDBRANCH  23  24
ENDBRANCH  20  23
ENDBRANCH  19  20
ENDBRANCH   8  19
TORSDOF 17
