REMARK  16 active torsions:
REMARK  status: ('A' for Active; 'I' for Inactive)
REMARK    1  A    between atoms: C2_2  and  C3_3 
REMARK    2  A    between atoms: C3_3  and  C4_4 
REMARK    3  A    between atoms: C4_4  and  C5_5 
REMARK    4  A    between atoms: C6_7  and  C7_8 
REMARK    5  A    between atoms: C7_8  and  C8_9 
REMARK    6  A    between atoms: C10_11  and  C11_12 
REMARK    7  A    between atoms: C10_11  and  C12_15 
REMARK    8  A    between atoms: C11_12  and  O2_13 
REMARK    9  A    between atoms: C12_15  and  C13_16 
REMARK   10  A    between atoms: C13_16  and  C14_17 
REMARK   11  A    between atoms: C14_17  and  C15_18 
REMARK   12  A    between atoms: C15_18  and  C16_19 
REMARK   13  A    between atoms: C16_19  and  C17_20 
REMARK   14  A    between atoms: C20_23  and  O3_24 
REMARK   15  A    between atoms: C23_31  and  O4_32 
REMARK   16  A    between atoms: C24_34  and  O5_35 
ROOT
HETATM    1  C8  UNL     1      -0.998   0.867  -0.389  1.00  0.00     0.189 C 
HETATM    2  C9  UNL     1      -0.472   0.192   0.846  1.00  0.00     0.046 C 
HETATM    3  C10 UNL     1       0.726   1.096   1.162  1.00  0.00     0.007 C 
HETATM    4  C22 UNL     1       0.414   2.385   0.394  1.00  0.00     0.244 C 
HETATM    5  N1  UNL     1      -1.030   2.236   0.056  1.00  0.00    -0.070 N 
ATOM      6  H11 UNL     1      -1.697   2.460   0.795  1.00  0.00     0.277 HD
ATOM      7  H12 UNL     1      -1.418   2.918  -0.595  1.00  0.00     0.277 HD
ENDROOT
BRANCH   3   8
HETATM    8  C11 UNL     1       0.765   1.446   2.622  1.00  0.00     0.175 C 
BRANCH   8   9
HETATM    9  O2  UNL     1       0.873   0.361   3.454  1.00  0.00    -0.400 OA
ATOM     10  H2  UNL     1       0.898   0.582   4.378  1.00  0.00     0.209 HD
ENDBRANCH   8   9
ENDBRANCH   3   8
BRANCH   3  11
HETATM   11  C12 UNL     1       1.953   0.408   0.668  1.00  0.00     0.013 C 
BRANCH  11  12
HETATM   12  C13 UNL     1       3.210   1.174   0.905  1.00  0.00     0.001 C 
BRANCH  12  13
HETATM   13  C14 UNL     1       4.466   0.470   0.392  1.00  0.00     0.000 C 
BRANCH  13  14
HETATM   14  C15 UNL     1       4.692  -0.838   1.021  1.00  0.00     0.000 C 
BRANCH  14  15
HETATM   15  C16 UNL     1       5.844  -1.601   0.485  1.00  0.00     0.005 C 
BRANCH  15  16
HETATM   16  C17 UNL     1       7.202  -0.999   0.520  1.00  0.00    -0.012 C 
HETATM   17  C18 UNL     1       8.173  -2.113  -0.018  1.00  0.00     0.007 C 
HETATM   18  C19 UNL     1       7.760  -2.193  -1.462  1.00  0.00     0.032 C 
HETATM   19  C20 UNL     1       7.273  -0.808  -1.818  1.00  0.00     0.118 C 
HETATM   20  C21 UNL     1       7.499   0.020  -0.564  1.00  0.00     0.036 C 
BRANCH  19  21
HETATM   21  O3  UNL     1       8.117  -0.273  -2.796  1.00  0.00    -0.396 OA
ATOM     22  H3  UNL     1       7.811   0.598  -3.020  1.00  0.00     0.210 HD
ENDBRANCH  19  21
ENDBRANCH  15  16
ENDBRANCH  14  15
ENDBRANCH  13  14
ENDBRANCH  12  13
ENDBRANCH  11  12
ENDBRANCH   3  11
BRANCH   1  23
HETATM   23  C7  UNL     1      -2.191   0.288  -0.995  1.00  0.00     0.067 C 
BRANCH  23  24
HETATM   24  C6  UNL     1      -3.451   0.183  -0.232  1.00  0.00     0.155 C 
HETATM   25  O1  UNL     1      -4.390  -0.431  -1.072  1.00  0.00    -0.375 OA
HETATM   26  C5  UNL     1      -5.603   0.164  -0.928  1.00  0.00     0.153 C 
HETATM   27  C24 UNL     1      -5.553   1.092   0.241  1.00  0.00     0.178 C 
HETATM   28  C23 UNL     1      -4.059   1.495   0.179  1.00  0.00     0.178 C 
BRANCH  26  29
HETATM   29  C4  UNL     1      -6.718  -0.838  -0.840  1.00  0.00     0.034 C 
BRANCH  29  30
HETATM   30  C3  UNL     1      -8.068  -0.170  -0.680  1.00  0.00     0.002 C 
BRANCH  30  31
HETATM   31  C2  UNL     1      -9.181  -1.162  -0.592  1.00  0.00    -0.004 C 
HETATM   32  C1  UNL     1      -9.279  -2.032  -1.817  1.00  0.00     0.005 C 
ENDBRANCH  30  31
ENDBRANCH  29  30
ENDBRANCH  26  29
BRANCH  27  33
HETATM   33  O5  UNL     1      -5.755   0.361   1.412  1.00  0.00    -0.390 OA
ATOM     34  H5  UNL     1      -5.723   0.951   2.156  1.00  0.00     0.210 HD
ENDBRANCH  27  33
BRANCH  28  35
HETATM   35  O4  UNL     1      -3.878   2.461  -0.787  1.00  0.00    -0.390 OA
ATOM     36  H4  UNL     1      -4.262   3.290  -0.527  1.00  0.00     0.210 HD
ENDBRANCH  28  35
ENDBRANCH  23  24
ENDBRANCH   1  23
TORSDOF 16
