REMARK  10 active torsions:
REMARK  status: ('A' for Active; 'I' for Inactive)
REMARK    1  A    between atoms: C2_2  and  C3_3 
REMARK    2  A    between atoms: C3_3  and  N1_5 
REMARK    3  A    between atoms: C3_3  and  C11_20 
REMARK       I    between atoms: N1_5  and  C5_7 
REMARK       I    between atoms: C5_7  and  N2_9 
REMARK    4  A    between atoms: N2_9  and  C6_11 
REMARK    5  A    between atoms: C6_11  and  C8_15 
REMARK    6  A    between atoms: C8_15  and  O2_18 
REMARK       I    between atoms: C11_20  and  N4_22 
REMARK    7  A    between atoms: N4_22  and  C12_24 
REMARK    8  A    between atoms: C12_24  and  C13_25 
REMARK    9  A    between atoms: C13_25  and  C14_26 
REMARK   10  A    between atoms: C14_26  and  O4_27 
ROOT
HETATM    1  C3  UNL     1       0.355  -0.588   1.839  1.00  0.00     0.111 C 
HETATM    2  C4  UNL     1       0.789  -2.021   2.011  1.00  0.00     0.049 C 
ENDROOT
BRANCH   1   3
HETATM    3  C2  UNL     1      -0.473  -0.117   3.044  1.00  0.00     0.036 C 
HETATM    4  C1  UNL     1      -0.902   1.317   2.862  1.00  0.00     0.008 C 
ENDBRANCH   1   3
BRANCH   1   5
HETATM    5  N1  UNL     1       1.438   0.294   1.585  1.00  0.00    -0.325 N 
HETATM    6  C5  UNL     1       2.381   0.054   0.524  1.00  0.00     0.322 C 
HETATM    7  O1  UNL     1       2.217  -0.976  -0.174  1.00  0.00    -0.247 OA
HETATM    8  N2  UNL     1       3.442   0.927   0.272  1.00  0.00    -0.296 N 
ATOM      9  H2  UNL     1       3.470   1.728   0.903  1.00  0.00     0.172 HD
ATOM     10  H1  UNL     1       1.551   1.121   2.171  1.00  0.00     0.165 HD
BRANCH   8  11
HETATM   11  C6  UNL     1       4.464   0.924  -0.663  1.00  0.00     0.115 C 
HETATM   12  N3  UNL     1       5.362   1.890  -0.703  1.00  0.00    -0.381 N 
HETATM   13  C7  UNL     1       5.300   2.989   0.238  1.00  0.00     0.147 C 
ATOM     14  H3  UNL     1       6.105   1.862  -1.401  1.00  0.00     0.160 HD
BRANCH  11  15
HETATM   15  C8  UNL     1       4.665  -0.129  -1.672  1.00  0.00     0.108 C 
HETATM   16  C9  UNL     1       5.036  -1.472  -1.092  1.00  0.00     0.054 C 
HETATM   17  C10 UNL     1       5.798   0.245  -2.637  1.00  0.00     0.054 C 
BRANCH  15  18
HETATM   18  O2  UNL     1       3.542  -0.291  -2.511  1.00  0.00    -0.383 OA
ATOM     19  H2  UNL     1       3.672  -0.971  -3.162  1.00  0.00     0.211 HD
ENDBRANCH  15  18
ENDBRANCH  11  15
ENDBRANCH   8  11
ENDBRANCH   1   5
BRANCH   1  20
HETATM   20  C11 UNL     1      -0.660  -0.582   0.712  1.00  0.00     0.249 C 
HETATM   21  O3  UNL     1      -0.383   0.198  -0.208  1.00  0.00    -0.270 OA
HETATM   22  N4  UNL     1      -1.790  -1.385   0.731  1.00  0.00    -0.338 N 
ATOM     23  H4  UNL     1      -1.843  -1.969   1.565  1.00  0.00     0.167 HD
BRANCH  22  24
HETATM   24  C12 UNL     1      -2.876  -1.578  -0.133  1.00  0.00     0.075 C 
BRANCH  24  25
HETATM   25  C13 UNL     1      -3.854  -0.510  -0.417  1.00  0.00     0.013 C 
HETATM   26  C15 UNL     1      -5.004  -1.049  -1.302  1.00  0.00     0.017 C 
HETATM   27  C16 UNL     1      -6.099  -0.034  -1.072  1.00  0.00     0.001 C 
HETATM   28  C17 UNL     1      -5.827   0.596   0.262  1.00  0.00     0.001 C 
HETATM   29  C18 UNL     1      -4.669  -0.167   0.846  1.00  0.00     0.017 C 
BRANCH  25  30
HETATM   30  C14 UNL     1      -3.404   0.743  -1.064  1.00  0.00     0.178 C 
BRANCH  30  31
HETATM   31  O4  UNL     1      -2.838   0.495  -2.330  1.00  0.00    -0.400 OA
ATOM     32  H4  UNL     1      -2.549   1.299  -2.745  1.00  0.00     0.209 HD
ENDBRANCH  30  31
ENDBRANCH  25  30
ENDBRANCH  24  25
ENDBRANCH  22  24
ENDBRANCH   1  20
TORSDOF 10
