REMARK  8 active torsions:
REMARK  status: ('A' for Active; 'I' for Inactive)
REMARK       I    between atoms: C2_2  and  N1_4 
REMARK    1  A    between atoms: N1_4  and  C3_6 
REMARK    2  A    between atoms: C3_6  and  C4_7 
REMARK    3  A    between atoms: C3_6  and  C13_30 
REMARK    4  A    between atoms: C4_7  and  O2_8 
REMARK    5  A    between atoms: C4_7  and  N2_10 
REMARK    6  A    between atoms: C6_15  and  C7_16 
REMARK    7  A    between atoms: C9_19  and  N4_20 
REMARK    8  A    between atoms: C11_26  and  C12_27 
ROOT
HETATM    1  N2  UNL     1      -0.268  -0.409  -0.555  1.00  0.00    -0.300 N 
HETATM    2  C5  UNL     1      -1.088   0.493   0.129  1.00  0.00     0.090 C 
HETATM    3  N3  UNL     1      -1.125   1.766   0.116  1.00  0.00    -0.388 N 
ATOM      4  H31 UNL     1      -1.723   2.424   0.615  1.00  0.00     0.157 HD
ATOM      5  H32 UNL     1      -0.459   2.293  -0.450  1.00  0.00     0.157 HD
HETATM    6  C6  UNL     1      -2.094  -0.303   0.984  1.00  0.00     0.106 C 
HETATM    7  C10 UNL     1      -2.236  -1.524   0.146  1.00  0.00     0.055 C 
HETATM    8  C11 UNL     1      -0.775  -1.732  -0.269  1.00  0.00     0.195 C 
ENDROOT
BRANCH   1   9
HETATM    9  C4  UNL     1       0.857  -0.098  -1.390  1.00  0.00     0.168 C 
BRANCH   9  10
HETATM   10  C3  UNL     1       2.251   0.172  -1.068  1.00  0.00     0.067 C 
BRANCH  10  11
HETATM   11  N1  UNL     1       3.085  -0.765  -0.429  1.00  0.00    -0.327 N 
HETATM   12  C2  UNL     1       3.280  -1.698   0.519  1.00  0.00     0.218 C 
HETATM   13  C1  UNL     1       4.674  -2.314   0.761  1.00  0.00     0.117 C 
HETATM   14  O1  UNL     1       2.433  -2.163   1.302  1.00  0.00    -0.274 OA
ATOM     15  H1  UNL     1       3.973  -0.709  -0.928  1.00  0.00     0.168 HD
ENDBRANCH  10  11
BRANCH  10  16
HETATM   16  C13 UNL     1       2.666   1.561  -0.680  1.00  0.00     0.032 C 
HETATM   17  C14 UNL     1       2.027   2.698  -1.300  1.00  0.00     0.016 C 
HETATM   18  C15 UNL     1       2.564   1.656   0.848  1.00  0.00     0.016 C 
ENDBRANCH  10  16
ENDBRANCH   9  10
BRANCH   9  19
HETATM   19  O2  UNL     1       0.456  -0.085  -2.644  1.00  0.00    -0.344 OA
ATOM     20  H2  UNL     1      -0.454  -0.261  -2.854  1.00  0.00     0.219 HD
ENDBRANCH   9  19
ENDBRANCH   1   9
BRANCH   8  21
HETATM   21  C12 UNL     1      -0.796  -2.676  -1.375  1.00  0.00     0.197 C 
HETATM   22  O3  UNL     1      -0.410  -2.541  -2.540  1.00  0.00    -0.646 OA
HETATM   23  O4  UNL     1      -1.334  -3.965  -1.092  1.00  0.00    -0.646 OA
ENDBRANCH   8  21
BRANCH   6  24
HETATM   24  C7  UNL     1      -3.353   0.576   1.026  1.00  0.00     0.029 A 
HETATM   25  C8  UNL     1      -3.592   1.344   2.134  1.00  0.00     0.079 A 
HETATM   26  S1  UNL     1      -5.022   2.164   1.715  1.00  0.00    -0.064 SA
HETATM   27  C9  UNL     1      -5.234   1.495   0.165  1.00  0.00     0.142 A 
HETATM   28  N5  UNL     1      -4.207   0.667   0.025  1.00  0.00    -0.339 N 
ATOM     29  H5  UNL     1      -4.082   0.120  -0.827  1.00  0.00     0.168 HD
BRANCH  27  30
HETATM   30  N4  UNL     1      -6.168   1.748  -0.751  1.00  0.00    -0.380 N 
ATOM     31  H42 UNL     1      -6.958   2.385  -0.643  1.00  0.00     0.158 HD
ATOM     32  H41 UNL     1      -6.295   1.347  -1.680  1.00  0.00     0.158 HD
ENDBRANCH  27  30
ENDBRANCH   6  24
TORSDOF 8
