REMARK  10 active torsions:
REMARK  status: ('A' for Active; 'I' for Inactive)
REMARK    1  A    between atoms: C3_3  and  N1_4 
REMARK    2  A    between atoms: N2_7  and  C6_8 
REMARK    3  A    between atoms: C6_8  and  C7_9 
REMARK    4  A    between atoms: C8_10  and  C9_11 
REMARK    5  A    between atoms: C9_11  and  N3_12 
REMARK    6  A    between atoms: N3_12  and  C10_13 
REMARK    7  A    between atoms: C10_13  and  C11_14 
REMARK    8  A    between atoms: C12_15  and  C13_16 
REMARK    9  A    between atoms: C13_16  and  C14_17 
REMARK   10  A    between atoms: C22_29  and  O1_30 
ROOT
HETATM    1  C1  UNL     1      -6.941   4.399   0.023  1.00  0.00     0.013 C 
HETATM    2  C2  UNL     1      -6.994   3.252   0.392  1.00  0.00    -0.089 C 
HETATM    3  C3  UNL     1      -7.060   1.870   0.864  1.00  0.00     0.332 C 
ENDROOT
BRANCH   3   4
HETATM    4  N1  UNL     1      -6.213   0.988   0.165  1.00  0.00    -0.030 N 
HETATM    5  C4  UNL     1      -6.897  -0.001  -0.645  1.00  0.00     0.268 C 
HETATM    6  C5  UNL     1      -5.846  -1.080  -0.809  1.00  0.00     0.268 C 
HETATM    7  N2  UNL     1      -4.726  -0.623  -0.012  1.00  0.00    -0.030 N 
HETATM    8  C23 UNL     1      -4.107   0.464  -0.700  1.00  0.00     0.268 C 
HETATM    9  C25 UNL     1      -5.445   0.098   1.054  1.00  0.00     0.475 C 
HETATM   10  C24 UNL     1      -5.168   1.572  -0.613  1.00  0.00     0.268 C 
BRANCH   7  11
HETATM   11  C6  UNL     1      -3.890  -1.643   0.473  1.00  0.00     0.333 C 
BRANCH  11  12
HETATM   12  C7  UNL     1      -2.476  -1.290   0.388  1.00  0.00    -0.077 C 
HETATM   13  C8  UNL     1      -1.292  -1.014   0.330  1.00  0.00    -0.077 C 
BRANCH  13  14
HETATM   14  C9  UNL     1       0.144  -0.706   0.259  1.00  0.00     0.335 C 
BRANCH  14  15
HETATM   15  N3  UNL     1       0.874  -1.654  -0.544  1.00  0.00    -0.021 N 
HETATM   16  C20 UNL     1       0.085  -2.357  -1.534  1.00  0.00     0.247 C 
HETATM   17  C21 UNL     1       0.112  -3.641  -0.771  1.00  0.00     0.090 C 
HETATM   18  C22 UNL     1       1.142  -2.920   0.085  1.00  0.00     0.326 C 
BRANCH  15  19
HETATM   19  C10 UNL     1       2.051  -1.022  -1.120  1.00  0.00     0.335 C 
BRANCH  19  20
HETATM   20  C11 UNL     1       2.874  -0.468  -0.035  1.00  0.00    -0.078 C 
HETATM   21  C12 UNL     1       3.568  -0.020   0.851  1.00  0.00    -0.099 C 
BRANCH  21  22
HETATM   22  C13 UNL     1       4.427   0.506   1.934  1.00  0.00     0.152 C 
BRANCH  22  23
HETATM   23  C14 UNL     1       5.623   1.140   1.332  1.00  0.00     0.039 A 
HETATM   24  N4  UNL     1       5.769   2.474   1.240  1.00  0.00    -0.367 N 
HETATM   25  C15 UNL     1       6.855   3.042   0.693  1.00  0.00     0.096 A 
ATOM     26  H4  UNL     1       5.028   3.076   1.599  1.00  0.00     0.165 HD
HETATM   27  C16 UNL     1       7.871   2.234   0.200  1.00  0.00    -0.021 A 
HETATM   28  C17 UNL     1       9.074   2.841  -0.406  1.00  0.00     0.052 C 
HETATM   29  C18 UNL     1       7.720   0.861   0.294  1.00  0.00     0.073 A 
HETATM   30  N5  UNL     1       8.733  -0.024  -0.197  1.00  0.00    -0.100 NA
HETATM   31  C19 UNL     1       6.607   0.275   0.855  1.00  0.00     0.059 A 
HETATM   32 BR1  UNL     1       6.433  -1.612   0.968  1.00  0.00    -0.047 Br
ENDBRANCH  22  23
ENDBRANCH  21  22
ENDBRANCH  19  20
ENDBRANCH  15  19
BRANCH  18  33
HETATM   33  O1  UNL     1       2.411  -3.429  -0.182  1.00  0.00    -0.369 OA
ATOM     34  H1  UNL     1       2.588  -4.265   0.233  1.00  0.00     0.212 HD
ENDBRANCH  18  33
ENDBRANCH  14  15
ENDBRANCH  13  14
ENDBRANCH  11  12
ENDBRANCH   7  11
ENDBRANCH   3   4
TORSDOF 10
