REMARK  10 active torsions:
REMARK  status: ('A' for Active; 'I' for Inactive)
REMARK    1  A    between atoms: O1_2  and  C2_3 
REMARK    2  A    between atoms: C4_5  and  N1_6 
REMARK    3  A    between atoms: C6_11  and  N2_12 
REMARK    4  A    between atoms: C7_16  and  O2_17 
REMARK    5  A    between atoms: O2_17  and  C8_18 
REMARK    6  A    between atoms: C9_19  and  N3_20 
REMARK    7  A    between atoms: C11_26  and  N4_27 
REMARK    8  A    between atoms: C12_31  and  O4_32 
REMARK    9  A    between atoms: O4_32  and  C13_33 
REMARK   10  A    between atoms: C14_36  and  O6_37 
ROOT
HETATM    1  C2  UNL     1      -3.066  -0.380  -0.004  1.00  0.00     0.113 C 
HETATM    2  C3  UNL     1      -3.978  -1.516  -0.433  1.00  0.00     0.051 C 
HETATM    3  C4  UNL     1      -3.038   0.646  -1.097  1.00  0.00     0.222 C 
HETATM    4  C5  UNL     1      -2.204   1.816  -0.630  1.00  0.00     0.071 C 
HETATM    5  C6  UNL     1      -0.907   1.386  -0.015  1.00  0.00     0.217 C 
HETATM    6  C7  UNL     1      -0.591  -0.064  -0.296  1.00  0.00     0.184 C 
HETATM    7  C14 UNL     1      -1.671  -1.004   0.098  1.00  0.00     0.185 C 
ENDROOT
BRANCH   6   8
HETATM    8  O2  UNL     1       0.621  -0.391   0.256  1.00  0.00    -0.371 OA
BRANCH   8   9
HETATM    9  C8  UNL     1       1.599  -0.687  -0.666  1.00  0.00     0.188 C 
HETATM   10  C9  UNL     1       2.178  -2.051  -0.575  1.00  0.00     0.238 C 
HETATM   11  C10 UNL     1       3.636  -2.055  -0.112  1.00  0.00     0.206 C 
HETATM   12  O3  UNL     1       4.442  -1.262  -0.882  1.00  0.00    -0.355 OA
HETATM   13  C11 UNL     1       3.804  -0.262  -1.567  1.00  0.00     0.351 C 
HETATM   14  C12 UNL     1       2.735   0.315  -0.661  1.00  0.00     0.220 C 
BRANCH  10  15
HETATM   15  N3  UNL     1       1.472  -2.955   0.291  1.00  0.00    -0.070 N 
ATOM     16  H33 UNL     1       1.379  -2.549   1.222  1.00  0.00     0.274 HD
ATOM     17  H32 UNL     1       0.490  -3.007   0.020  1.00  0.00     0.274 HD
ATOM     18  H31 UNL     1       1.870  -3.892   0.354  1.00  0.00     0.274 HD
ENDBRANCH  10  15
BRANCH  13  19
HETATM   19  N4  UNL     1       4.782   0.742  -1.948  1.00  0.00    -0.050 N 
ATOM     20  H43 UNL     1       5.312   1.093  -1.150  1.00  0.00     0.277 HD
ATOM     21  H42 UNL     1       5.562   0.347  -2.473  1.00  0.00     0.277 HD
ATOM     22  H41 UNL     1       4.307   1.487  -2.458  1.00  0.00     0.277 HD
ENDBRANCH  13  19
BRANCH  14  23
HETATM   23  O4  UNL     1       3.299   0.505   0.604  1.00  0.00    -0.294 OA
BRANCH  23  24
HETATM   24  C13 UNL     1       3.376   1.707   1.274  1.00  0.00     0.373 C 
HETATM   25  N5  UNL     1       3.965   1.841   2.569  1.00  0.00    -0.032 NA
HETATM   26  O5  UNL     1       2.901   2.723   0.704  1.00  0.00    -0.242 OA
ENDBRANCH  23  24
ENDBRANCH  14  23
ENDBRANCH   8   9
ENDBRANCH   6   8
BRANCH   5  27
HETATM   27  N2  UNL     1      -0.818   1.730   1.380  1.00  0.00    -0.072 N 
ATOM     28  H23 UNL     1      -0.980   2.727   1.523  1.00  0.00     0.274 HD
ATOM     29  H22 UNL     1      -1.612   1.359   1.901  1.00  0.00     0.274 HD
ATOM     30  H21 UNL     1       0.065   1.437   1.799  1.00  0.00     0.274 HD
ENDBRANCH   5  27
BRANCH   7  31
HETATM   31  O6  UNL     1      -1.554  -1.480   1.409  1.00  0.00    -0.390 OA
ATOM     32  H6  UNL     1      -0.689  -1.867   1.472  1.00  0.00     0.210 HD
ENDBRANCH   7  31
BRANCH   1  33
HETATM   33  O1  UNL     1      -3.370   0.138   1.206  1.00  0.00    -0.381 OA
HETATM   34  C1  UNL     1      -4.592   0.648   1.460  1.00  0.00     0.202 C 
ENDBRANCH   1  33
BRANCH   3  35
HETATM   35  N1  UNL     1      -4.364   1.092  -1.387  1.00  0.00    -0.072 N 
ATOM     36  H13 UNL     1      -4.988   0.316  -1.608  1.00  0.00     0.274 HD
ATOM     37  H12 UNL     1      -4.842   1.435  -0.554  1.00  0.00     0.274 HD
ATOM     38  H11 UNL     1      -4.345   1.790  -2.131  1.00  0.00     0.274 HD
ENDBRANCH   3  35
TORSDOF 10
