REMARK  10 active torsions:
REMARK  status: ('A' for Active; 'I' for Inactive)
REMARK    1  A    between atoms: C3_4  and  O2_5 
REMARK    2  A    between atoms: O2_5  and  C4_6 
REMARK    3  A    between atoms: C4_6  and  C5_7 
REMARK    4  A    between atoms: C5_7  and  O3_8 
REMARK    5  A    between atoms: C6_10  and  N1_11 
REMARK    6  A    between atoms: C8_17  and  N2_18 
REMARK    7  A    between atoms: C9_22  and  C10_23 
REMARK    8  A    between atoms: C10_23  and  C11_24 
REMARK    9  A    between atoms: C13_28  and  N4_29 
REMARK   10  A    between atoms: C14_35  and  O7_36 
ROOT
HETATM    1  C5  UNL     1       0.086  -0.157   2.032  1.00  0.00     0.137 C 
HETATM    2  C6  UNL     1       0.692  -1.495   2.086  1.00  0.00     0.248 C 
HETATM    3  C7  UNL     1      -0.278  -2.430   2.818  1.00  0.00     0.207 C 
HETATM    4  O4  UNL     1      -1.528  -1.848   3.035  1.00  0.00    -0.354 OA
HETATM    5  C8  UNL     1      -2.044  -1.416   1.759  1.00  0.00     0.352 C 
HETATM    6  C9  UNL     1      -1.364  -0.128   1.528  1.00  0.00     0.018 C 
ENDROOT
BRANCH   1   7
HETATM    7  C4  UNL     1       0.869   1.051   1.747  1.00  0.00     0.218 C 
BRANCH   7   8
HETATM    8  O2  UNL     1       1.398   1.391   0.605  1.00  0.00    -0.336 OA
BRANCH   8   9
HETATM    9  C3  UNL     1       2.377   0.912  -0.104  1.00  0.00     0.415 C 
HETATM   10  O1  UNL     1       3.398   1.820  -0.463  1.00  0.00    -0.329 OA
HETATM   11  C2  UNL     1       4.302   0.910  -1.012  1.00  0.00     0.178 C 
HETATM   12  C1  UNL     1       5.330   1.558  -1.888  1.00  0.00     0.045 C 
HETATM   13  C14 UNL     1       3.348   0.025  -1.812  1.00  0.00     0.291 C 
HETATM   14  O6  UNL     1       2.061   0.430  -1.384  1.00  0.00    -0.306 OA
BRANCH  13  15
HETATM   15  O7  UNL     1       3.507   0.161  -3.167  1.00  0.00    -0.368 OA
ATOM     16  H7  UNL     1       2.914  -0.389  -3.665  1.00  0.00     0.212 HD
ENDBRANCH  13  15
ENDBRANCH   8   9
ENDBRANCH   7   8
ENDBRANCH   1   7
BRANCH   1  17
HETATM   17  O3  UNL     1      -0.171   0.031   3.495  1.00  0.00    -0.381 OA
ATOM     18  H3  UNL     1      -0.678  -0.751   3.679  1.00  0.00     0.211 HD
ENDBRANCH   1  17
BRANCH   2  19
HETATM   19  N1  UNL     1       1.221  -2.131   0.963  1.00  0.00    -0.070 N 
ATOM     20  H13 UNL     1       0.490  -2.154   0.252  1.00  0.00     0.274 HD
ATOM     21  H12 UNL     1       1.908  -1.500   0.549  1.00  0.00     0.274 HD
ATOM     22  H11 UNL     1       1.642  -3.060   1.000  1.00  0.00     0.274 HD
ENDBRANCH   2  19
BRANCH   6  23
HETATM   23  C10 UNL     1      -1.633   0.724   0.407  1.00  0.00     0.066 C 
BRANCH  23  24
HETATM   24  C11 UNL     1      -2.482   0.710  -0.569  1.00  0.00     0.140 C 
HETATM   25  N3  UNL     1      -3.531  -0.183  -0.941  1.00  0.00    -0.367 N 
HETATM   26  C12 UNL     1      -4.631   0.651  -1.474  1.00  0.00     0.183 C 
ATOM     27  H3  UNL     1      -3.524  -1.199  -0.856  1.00  0.00     0.161 HD
HETATM   28  C13 UNL     1      -3.819   1.671  -2.228  1.00  0.00     0.344 C 
HETATM   29  O5  UNL     1      -2.582   1.685  -1.613  1.00  0.00    -0.301 OA
BRANCH  28  30
HETATM   30  N4  UNL     1      -3.772   1.230  -3.612  1.00  0.00    -0.051 N 
ATOM     31  H43 UNL     1      -3.421   0.278  -3.719  1.00  0.00     0.277 HD
ATOM     32  H42 UNL     1      -4.696   1.073  -4.016  1.00  0.00     0.277 HD
ATOM     33  H41 UNL     1      -3.222   1.921  -4.123  1.00  0.00     0.277 HD
ENDBRANCH  28  30
ENDBRANCH  23  24
ENDBRANCH   6  23
BRANCH   5  34
HETATM   34  N2  UNL     1      -1.814  -2.488   0.847  1.00  0.00    -0.049 N 
ATOM     35  H23 UNL     1      -0.839  -2.784   0.809  1.00  0.00     0.277 HD
ATOM     36  H22 UNL     1      -2.204  -3.377   1.161  1.00  0.00     0.277 HD
ATOM     37  H21 UNL     1      -2.179  -2.183  -0.055  1.00  0.00     0.277 HD
ENDBRANCH   5  34
TORSDOF 10
