REMARK  8 active torsions:
REMARK  status: ('A' for Active; 'I' for Inactive)
REMARK    1  A    between atoms: N1_2  and  C2_5 
REMARK    2  A    between atoms: C3_6  and  N2_7 
REMARK    3  A    between atoms: C4_11  and  C5_12 
REMARK    4  A    between atoms: C5_12  and  O2_14 
REMARK    5  A    between atoms: O2_14  and  C6_15 
REMARK    6  A    between atoms: C6_15  and  O3_16 
REMARK    7  A    between atoms: N3_18  and  N4_19 
REMARK    8  A    between atoms: C11_29  and  N6_30 
REMARK       I    between atoms: N6_30  and  C12_32 
ROOT
HETATM    1  C2  UNL     1       0.865   0.733   0.399  1.00  0.00     0.248 C 
HETATM    2  C3  UNL     1       1.325  -0.672   0.472  1.00  0.00     0.245 C 
HETATM    3  C4  UNL     1       1.538  -1.146  -0.950  1.00  0.00     0.214 C 
HETATM    4  N3  UNL     1       0.438  -1.922  -1.440  1.00  0.00    -0.191 NA
HETATM    5  C8  UNL     1      -0.683  -1.030  -1.679  1.00  0.00     0.249 C 
HETATM    6  O4  UNL     1      -0.292   0.302  -1.692  1.00  0.00    -0.358 OA
HETATM    7  C9  UNL     1      -0.396   0.793  -0.420  1.00  0.00     0.189 C 
HETATM    8  C10 UNL     1      -1.548   0.095   0.252  1.00  0.00     0.256 C 
HETATM    9  N5  UNL     1      -2.748   0.927   0.189  1.00  0.00    -0.020 N 
ATOM     10  H51 UNL     1      -2.649   1.777  -0.366  1.00  0.00     0.282 HD
ATOM     11  H52 UNL     1      -2.984   1.401   1.061  1.00  0.00     0.282 HD
HETATM   12  C11 UNL     1      -3.783  -0.021  -0.304  1.00  0.00     0.488 C 
HETATM   13  N7  UNL     1      -3.028  -0.706  -1.311  1.00  0.00    -0.018 N 
ATOM     14  H71 UNL     1      -2.908  -0.171  -2.171  1.00  0.00     0.282 HD
ATOM     15  H72 UNL     1      -3.520  -1.495  -1.731  1.00  0.00     0.282 HD
HETATM   16  C14 UNL     1      -1.761  -1.075  -0.657  1.00  0.00     0.268 C 
ENDROOT
BRANCH   3  17
HETATM   17  C5  UNL     1       2.869  -1.793  -1.152  1.00  0.00     0.282 C 
HETATM   18  O1  UNL     1       3.017  -2.856  -1.799  1.00  0.00    -0.263 OA
BRANCH  17  19
HETATM   19  O2  UNL     1       3.962  -1.186  -0.603  1.00  0.00    -0.294 OA
BRANCH  19  20
HETATM   20  C6  UNL     1       5.291  -1.662  -0.710  1.00  0.00     0.347 C 
BRANCH  20  21
HETATM   21  O3  UNL     1       6.088  -0.762   0.009  1.00  0.00    -0.371 OA
HETATM   22  C7  UNL     1       5.985   0.506  -0.509  1.00  0.00     0.204 C 
ENDBRANCH  20  21
ENDBRANCH  19  20
ENDBRANCH  17  19
ENDBRANCH   3  17
BRANCH   2  23
HETATM   23  N2  UNL     1       2.454  -0.923   1.340  1.00  0.00    -0.071 N 
ATOM     24  H23 UNL     1       3.232  -0.316   1.081  1.00  0.00     0.274 HD
ATOM     25  H22 UNL     1       2.255  -0.574   2.278  1.00  0.00     0.274 HD
ATOM     26  H21 UNL     1       2.771  -1.891   1.390  1.00  0.00     0.274 HD
ENDBRANCH   2  23
BRANCH   4  27
HETATM   27  N4  UNL     1       0.039  -2.940  -0.573  1.00  0.00    -0.360 NA
ATOM     28  H42 UNL     1       0.826  -3.566  -0.405  1.00  0.00     0.171 HD
ATOM     29  H41 UNL     1      -0.744  -3.493  -0.922  1.00  0.00     0.171 HD
ENDBRANCH   4  27
BRANCH   1  30
HETATM   30  N1  UNL     1       0.695   1.441   1.627  1.00  0.00    -0.070 N 
HETATM   31  C1  UNL     1       1.344   2.755   1.510  1.00  0.00     0.267 C 
ATOM     32  H12 UNL     1       1.030   0.911   2.432  1.00  0.00     0.277 HD
ATOM     33  H11 UNL     1      -0.284   1.513   1.903  1.00  0.00     0.277 HD
ENDBRANCH   1  30
BRANCH  12  34
HETATM   34  N6  UNL     1      -4.820   0.836  -0.799  1.00  0.00    -0.311 N 
HETATM   35  C12 UNL     1      -5.850   1.260   0.068  1.00  0.00     0.216 C 
HETATM   36  C13 UNL     1      -6.937   2.153  -0.430  1.00  0.00     0.117 C 
HETATM   37  O5  UNL     1      -5.889   0.901   1.297  1.00  0.00    -0.274 OA
ATOM     38  H6  UNL     1      -4.814   1.138  -1.773  1.00  0.00     0.166 HD
ENDBRANCH  12  34
TORSDOF 8
