REMARK  8 active torsions:
REMARK  status: ('A' for Active; 'I' for Inactive)
REMARK    1  A    between atoms: C2_3  and  C3_4 
REMARK    2  A    between atoms: N2_7  and  C6_8 
REMARK    3  A    between atoms: C14_18  and  N4_19 
REMARK    4  A    between atoms: N4_19  and  C15_21 
REMARK    5  A    between atoms: C15_21  and  S2_23 
REMARK    6  A    between atoms: S2_23  and  C16_24 
REMARK    7  A    between atoms: C16_24  and  C17_25 
REMARK    8  A    between atoms: C17_25  and  C19_28 
ROOT
HETATM    1  C17 UNL     1       6.744  -1.282   2.081  1.00  0.00     0.164 C 
HETATM    2  C18 UNL     1       7.976  -1.824   2.772  1.00  0.00     0.071 C 
HETATM    3  N5  UNL     1       8.910  -2.257   3.292  1.00  0.00    -0.196 NA
ENDROOT
BRANCH   1   4
HETATM    4  C16 UNL     1       6.331  -0.126   2.915  1.00  0.00     0.108 C 
BRANCH   4   5
HETATM    5  S2  UNL     1       4.869   0.756   2.432  1.00  0.00    -0.099 SA
BRANCH   5   6
HETATM    6  C15 UNL     1       5.120   1.893   1.121  1.00  0.00     0.139 C 
HETATM    7  S1  UNL     1       6.616   2.571   0.849  1.00  0.00    -0.053 SA
BRANCH   6   8
HETATM    8  N4  UNL     1       4.075   2.362   0.301  1.00  0.00    -0.342 N 
ATOM      9  H4  UNL     1       4.309   3.010  -0.451  1.00  0.00     0.167 HD
BRANCH   8  10
HETATM   10  C14 UNL     1       2.735   1.992   0.457  1.00  0.00     0.035 A 
HETATM   11  C13 UNL     1       2.084   1.737   1.634  1.00  0.00     0.032 A 
HETATM   12  C12 UNL     1       0.743   1.334   1.673  1.00  0.00     0.034 A 
HETATM   13  C11 UNL     1       0.048   1.187   0.496  1.00  0.00     0.060 A 
HETATM   14  N3  UNL     1      -1.226   0.820   0.194  1.00  0.00    -0.344 N 
HETATM   15  C21 UNL     1       0.657   1.432  -0.715  1.00  0.00     0.064 A 
HETATM   16  C2  UNL     1      -1.396   0.838  -1.153  1.00  0.00     0.090 A 
ATOM     17  H3  UNL     1      -1.943   0.570   0.874  1.00  0.00     0.167 HD
HETATM   18  N1  UNL     1      -0.258   1.208  -1.705  1.00  0.00    -0.339 N 
HETATM   19  C1  UNL     1       0.082   1.383  -3.097  1.00  0.00     0.158 C 
HETATM   20  C20 UNL     1       1.968   1.823  -0.707  1.00  0.00     0.061 A 
BRANCH  16  21
HETATM   21  C3  UNL     1      -2.645   0.497  -1.893  1.00  0.00     0.083 C 
HETATM   22  C4  UNL     1      -3.771   1.386  -1.410  1.00  0.00     0.044 C 
HETATM   23  C5  UNL     1      -4.254   0.678  -0.180  1.00  0.00     0.274 C 
HETATM   24  N2  UNL     1      -3.921  -0.704  -0.307  1.00  0.00     0.097 N 
HETATM   25  C10 UNL     1      -3.142  -0.881  -1.513  1.00  0.00     0.285 C 
BRANCH  24  26
HETATM   26  C6  UNL     1      -5.006  -1.617  -0.161  1.00  0.00     0.149 C 
HETATM   27  C7  UNL     1      -4.440  -3.025  -0.359  1.00  0.00     0.048 C 
HETATM   28  C8  UNL     1      -5.509  -1.501   1.278  1.00  0.00     0.048 C 
HETATM   29  C9  UNL     1      -6.111  -1.424  -1.145  1.00  0.00     0.048 C 
ENDBRANCH  24  26
ENDBRANCH  16  21
ENDBRANCH   8  10
ENDBRANCH   6   8
ENDBRANCH   5   6
ENDBRANCH   4   5
ENDBRANCH   1   4
BRANCH   1  30
HETATM   30  C19 UNL     1       7.127  -0.950   0.717  1.00  0.00     0.092 C 
HETATM   31  N6  UNL     1       6.286  -1.007  -0.232  1.00  0.00    -0.392 N 
ATOM     32  H62 UNL     1       5.324  -1.273  -0.020  1.00  0.00     0.156 HD
ATOM     33  H61 UNL     1       6.554  -0.774  -1.188  1.00  0.00     0.156 HD
HETATM   34 CL1  UNL     1       8.776  -0.493   0.354  1.00  0.00    -0.068 Cl
ENDBRANCH   1  30
TORSDOF 8
