REMARK  3 active torsions:
REMARK  status: ('A' for Active; 'I' for Inactive)
REMARK    1  A    between atoms: N2_4  and  N3_6 
REMARK    2  A    between atoms: N3_6  and  C3_8 
REMARK    3  A    between atoms: N4_9  and  C4_10 
ROOT
HETATM    1  C3  UNL     1       1.270   0.447   0.173  1.00  0.00     0.770 A 
HETATM    2  N4  UNL     1       1.663   1.332   1.115  1.00  0.00     0.110 N 
HETATM    3  N9  UNL     1       0.618   1.589   1.883  1.00  0.00    -0.094 N 
ATOM      4  H9  UNL     1       0.615   2.224   2.681  1.00  0.00     0.207 HD
HETATM    5  C5  UNL     1      -0.440   0.882   1.447  1.00  0.00     0.736 A 
HETATM    6  N10 UNL     1      -1.719   0.759   1.839  1.00  0.00    -0.177 N 
ATOM      7  H10 UNL     1      -2.025   1.299   2.648  1.00  0.00     0.185 HD
HETATM    8  C6  UNL     1      -2.620  -0.030   1.233  1.00  0.00     0.116 A 
HETATM    9  N11 UNL     1      -2.189  -0.729   0.174  1.00  0.00    -0.170 N 
HETATM   10  C7  UNL     1      -0.889  -0.652  -0.283  1.00  0.00     0.716 A 
HETATM   11  N12 UNL     1      -0.548  -1.337  -1.288  1.00  0.00    -0.233 N 
ATOM     12 1H12 UNL     1       0.413  -1.280  -1.626  1.00  0.00     0.174 HD
ATOM     13 2H12 UNL     1      -1.195  -1.952  -1.782  1.00  0.00     0.174 HD
HETATM   14  N13 UNL     1      -0.036   0.159   0.369  1.00  0.00     0.204 N 
HETATM   15  C8  UNL     1      -2.911  -1.638  -0.657  1.00  0.00     0.149 C 
HETATM   16  C9  UNL     1      -4.163  -0.928  -1.188  1.00  0.00     0.021 C 
HETATM   17  C10 UNL     1      -5.196  -1.034  -0.114  1.00  0.00     0.002 C 
HETATM   18  C11 UNL     1      -5.068   0.145   0.813  1.00  0.00     0.007 C 
HETATM   19  C12 UNL     1      -3.962  -0.020   1.820  1.00  0.00     0.078 C 
ENDROOT
BRANCH   2  20
HETATM   20  C4  UNL     1       2.962   1.884   1.252  1.00  0.00     0.750 A 
HETATM   21  N5  UNL     1       4.008   1.435   1.951  1.00  0.00    -0.113 N 
HETATM   22  N6  UNL     1       5.001   2.281   1.782  1.00  0.00    -0.213 N 
ATOM     23  H5  UNL     1       4.032   0.586   2.516  1.00  0.00     0.207 HD
HETATM   24  N7  UNL     1       4.622   3.263   0.993  1.00  0.00    -0.213 N 
ATOM     25  H6  UNL     1       5.927   2.189   2.200  1.00  0.00     0.210 HD
HETATM   26  N8  UNL     1       3.368   3.020   0.666  1.00  0.00    -0.113 N 
ATOM     27  H7  UNL     1       5.188   4.057   0.693  1.00  0.00     0.210 HD
ATOM     28  H8  UNL     1       2.794   3.606   0.060  1.00  0.00     0.207 HD
ENDBRANCH   2  20
BRANCH   1  29
HETATM   29  N3  UNL     1       2.020  -0.033  -0.750  1.00  0.00    -0.127 N 
ATOM     30  H3  UNL     1       1.614  -0.696  -1.411  1.00  0.00     0.205 HD
BRANCH  29  31
HETATM   31  N2  UNL     1       3.359   0.308  -0.892  1.00  0.00    -0.277 N 
HETATM   32  C2  UNL     1       4.268  -0.473  -1.331  1.00  0.00     0.104 C 
HETATM   33  C1  UNL     1       5.656   0.005  -1.437  1.00  0.00     0.086 C 
HETATM   34  N1  UNL     1       3.958  -1.784  -1.713  1.00  0.00    -0.087 NA
ATOM     35  H2  UNL     1       3.636   1.253  -0.626  1.00  0.00     0.188 HD
ENDBRANCH  29  31
ENDBRANCH   1  29
TORSDOF 3
