REMARK  2 active torsions:
REMARK  status: ('A' for Active; 'I' for Inactive)
REMARK    1  A    between atoms: N2_8  and  O1_9 
REMARK    2  A    between atoms: C6_11  and  C7_12 
ROOT
HETATM    1  C1  UNL     1      -4.895  -0.503   0.266  1.00  0.00     0.057 C 
HETATM    2  C2  UNL     1      -3.419  -0.349   0.223  1.00  0.00     0.036 A 
HETATM    3  C3  UNL     1      -2.686  -1.134  -0.634  1.00  0.00     0.029 A 
HETATM    4  C4  UNL     1      -3.350  -2.138  -1.522  1.00  0.00     0.069 C 
HETATM    5  N1  UNL     1      -1.341  -0.966  -0.647  1.00  0.00    -0.268 N 
HETATM    6  C5  UNL     1      -0.375  -1.569  -1.359  1.00  0.00     0.212 A 
HETATM    7  S1  UNL     1      -0.654  -2.743  -2.460  1.00  0.00    -0.038 SA
HETATM    8  N2  UNL     1       0.825  -1.043  -1.006  1.00  0.00    -0.189 N 
HETATM    9  C6  UNL     1       0.654  -0.099  -0.067  1.00  0.00     0.162 A 
HETATM   10  C10 UNL     1      -0.729  -0.067   0.145  1.00  0.00     0.194 A 
HETATM   11  O3  UNL     1      -1.456   0.662   0.947  1.00  0.00    -0.254 OA
HETATM   12  C11 UNL     1      -2.754   0.556   1.014  1.00  0.00     0.297 A 
HETATM   13  O4  UNL     1      -3.442   1.284   1.810  1.00  0.00    -0.259 OA
ENDROOT
BRANCH   9  14
HETATM   14  C7  UNL     1       1.655   0.722   0.599  1.00  0.00     0.159 C 
HETATM   15  N3  UNL     1       1.527   1.182   1.828  1.00  0.00    -0.307 N 
HETATM   16  C8  UNL     1       2.702   1.954   2.161  1.00  0.00     0.265 C 
ATOM     17  H3  UNL     1       0.729   1.020   2.443  1.00  0.00     0.170 HD
HETATM   18  O2  UNL     1       3.015   2.230   3.332  1.00  0.00    -0.269 OA
HETATM   19  C9  UNL     1       3.368   2.295   0.876  1.00  0.00     0.309 C 
HETATM   20  N4  UNL     1       4.772   2.027   0.839  1.00  0.00    -0.091 NA
HETATM   21  N7  UNL     1       2.881   1.149   0.070  1.00  0.00    -0.229 N 
HETATM   22  N5  UNL     1       5.027   1.036  -0.099  1.00  0.00    -0.015 NA
HETATM   23  N6  UNL     1       3.863   0.973  -0.876  1.00  0.00    -0.006 NA
ENDBRANCH   9  14
BRANCH   8  24
HETATM   24  O1  UNL     1       2.022  -1.431  -1.538  1.00  0.00    -0.280 OA
ATOM     25  H1  UNL     1       2.862  -1.063  -1.291  1.00  0.00     0.245 HD
ENDBRANCH   8  24
TORSDOF 2
