REMARK  5 active torsions:
REMARK  status: ('A' for Active; 'I' for Inactive)
REMARK    1  A    between atoms: N1_2  and  C2_4 
REMARK    2  A    between atoms: C4_6  and  C5_7 
REMARK    3  A    between atoms: C8_10  and  N2_11 
REMARK    4  A    between atoms: N2_11  and  C9_13 
REMARK    5  A    between atoms: C12_22  and  N6_23 
ROOT
HETATM    1  C2  UNL     1       3.569   0.655  -0.285  1.00  0.00     0.118 A 
HETATM    2  C3  UNL     1       2.223   0.605  -0.379  1.00  0.00     0.081 A 
HETATM    3  C4  UNL     1       1.520  -0.373   0.336  1.00  0.00     0.080 A 
HETATM    4  N5  UNL     1       2.218  -1.212   1.079  1.00  0.00    -0.190 N 
ATOM      5  H5  UNL     1       1.710  -1.926   1.601  1.00  0.00     0.184 HD
HETATM    6  C12 UNL     1       3.579  -1.181   1.190  1.00  0.00     0.679 A 
HETATM    7  N7  UNL     1       4.218  -0.231   0.491  1.00  0.00    -0.177 N 
ATOM      8  H7  UNL     1       5.235  -0.179   0.550  1.00  0.00     0.185 HD
ENDROOT
BRANCH   3   9
HETATM    9  C5  UNL     1       0.073  -0.438   0.244  1.00  0.00     0.075 A 
HETATM   10  C6  UNL     1      -0.667  -1.363   0.913  1.00  0.00     0.037 A 
HETATM   11  C7  UNL     1      -2.064  -1.378   0.786  1.00  0.00     0.052 A 
HETATM   12  C8  UNL     1      -2.702  -0.469  -0.007  1.00  0.00     0.116 A 
HETATM   13  N3  UNL     1      -1.919   0.430  -0.652  1.00  0.00    -0.285 N 
HETATM   14  N4  UNL     1      -0.611   0.442  -0.531  1.00  0.00    -0.297 N 
ATOM     15  H3  UNL     1      -2.362   1.124  -1.254  1.00  0.00     0.188 HD
ATOM     16  H4  UNL     1      -0.083   1.148  -1.045  1.00  0.00     0.187 HD
BRANCH  12  17
HETATM   17  N2  UNL     1      -3.967  -0.478  -0.126  1.00  0.00    -0.371 N 
ATOM     18  H2  UNL     1      -4.469  -1.194   0.399  1.00  0.00     0.161 HD
BRANCH  17  19
HETATM   19  C9  UNL     1      -4.761   0.406  -0.915  1.00  0.00     0.075 C 
HETATM   20  C10 UNL     1      -6.096  -0.275  -1.178  1.00  0.00     0.031 C 
HETATM   21  C11 UNL     1      -5.029   1.732  -0.245  1.00  0.00     0.031 C 
ENDBRANCH  17  19
ENDBRANCH  12  17
ENDBRANCH   3   9
BRANCH   1  22
HETATM   22  N1  UNL     1       4.244   1.535  -0.925  1.00  0.00    -0.380 N 
HETATM   23  C1  UNL     1       3.690   2.534  -1.782  1.00  0.00     0.147 C 
ATOM     24  H1  UNL     1       5.258   1.521  -0.814  1.00  0.00     0.160 HD
ENDBRANCH   1  22
BRANCH   6  25
HETATM   25  N6  UNL     1       4.129  -2.050   1.942  1.00  0.00    -0.230 N 
HETATM   26  C13 UNL     1       5.529  -2.178   2.185  1.00  0.00     0.165 C 
ATOM     27  H6  UNL     1       3.513  -2.713   2.412  1.00  0.00     0.177 HD
ENDBRANCH   6  25
TORSDOF 5
