REMARK  5 active torsions:
REMARK  status: ('A' for Active; 'I' for Inactive)
REMARK    1  A    between atoms: C3_7  and  O1_8 
REMARK    2  A    between atoms: C5_11  and  N3_12 
REMARK    3  A    between atoms: N3_12  and  C6_14 
REMARK    4  A    between atoms: N4_18  and  C10_19 
REMARK    5  A    between atoms: C10_19  and  C11_20 
ROOT
HETATM    1  C11 UNL     1       4.823  -0.689  -0.124  1.00  0.00     0.154 C 
HETATM    2  C12 UNL     1       5.297   0.440   0.687  1.00  0.00     0.060 C 
HETATM    3  N5  UNL     1       5.678   1.335   1.310  1.00  0.00    -0.197 NA
ENDROOT
BRANCH   1   4
HETATM    4  C10 UNL     1       3.585  -1.229   0.524  1.00  0.00     0.286 C 
BRANCH   4   5
HETATM    5  N4  UNL     1       2.576  -0.218   0.588  1.00  0.00     0.089 N 
HETATM    6  C9  UNL     1       1.354  -0.639   1.192  1.00  0.00     0.275 C 
HETATM    7  C8  UNL     1       0.303  -1.040   0.180  1.00  0.00     0.060 C 
HETATM    8  C6  UNL     1      -0.104   0.202  -0.588  1.00  0.00     0.030 C 
HETATM    9  C7  UNL     1      -0.277  -0.087  -2.058  1.00  0.00     0.038 C 
HETATM   10  C14 UNL     1       1.036   1.233  -0.487  1.00  0.00     0.060 C 
HETATM   11  C13 UNL     1       2.341   0.481  -0.631  1.00  0.00     0.275 C 
BRANCH   8  12
HETATM   12  N3  UNL     1      -1.224   0.783   0.038  1.00  0.00    -0.379 N 
ATOM     13  H3  UNL     1      -1.023   1.672   0.496  1.00  0.00     0.160 HD
BRANCH  12  14
HETATM   14  C5  UNL     1      -2.425   0.419   0.142  1.00  0.00     0.056 A 
HETATM   15  C2  UNL     1      -3.287   1.254   0.846  1.00  0.00     0.048 A 
HETATM   16  C1  UNL     1      -2.804   2.537   1.457  1.00  0.00     0.072 C 
HETATM   17  N1  UNL     1      -4.567   0.896   0.973  1.00  0.00    -0.301 N 
HETATM   18  N2  UNL     1      -5.091  -0.209   0.475  1.00  0.00    -0.280 N 
ATOM     19  H1  UNL     1      -5.184   1.521   1.492  1.00  0.00     0.186 HD
HETATM   20  C3  UNL     1      -4.286  -1.039  -0.211  1.00  0.00     0.156 A 
ATOM     21  H2  UNL     1      -6.079  -0.427   0.607  1.00  0.00     0.189 HD
HETATM   22  C4  UNL     1      -2.954  -0.737  -0.385  1.00  0.00     0.088 A 
BRANCH  20  23
HETATM   23  O1  UNL     1      -4.788  -2.233  -0.766  1.00  0.00    -0.345 OA
ATOM     24  H1  UNL     1      -4.219  -2.819  -1.251  1.00  0.00     0.219 HD
ENDBRANCH  20  23
ENDBRANCH  12  14
ENDBRANCH   8  12
ENDBRANCH   4   5
ENDBRANCH   1   4
TORSDOF 5
