REMARK  3 active torsions:
REMARK  status: ('A' for Active; 'I' for Inactive)
REMARK    1  A    between atoms: C2_2  and  N1_3 
REMARK    2  A    between atoms: C6_10  and  N3_11 
REMARK    3  A    between atoms: C11_20  and  N5_21 
ROOT
HETATM    1  N1  UNL     1      -2.501  -0.016  -0.067  1.00  0.00    -0.309 N 
HETATM    2  C3  UNL     1      -2.565  -1.170   0.640  1.00  0.00     0.180 A 
HETATM    3  S1  UNL     1      -3.865  -1.506   1.602  1.00  0.00    -0.040 SA
HETATM    4  N2  UNL     1      -1.587  -2.095   0.599  1.00  0.00    -0.335 N 
ATOM      5  H2  UNL     1      -1.659  -2.957   1.140  1.00  0.00     0.168 HD
HETATM    6  C4  UNL     1      -0.510  -1.853  -0.176  1.00  0.00     0.038 A 
HETATM    7  C5  UNL     1       0.555  -2.866  -0.217  1.00  0.00     0.070 C 
HETATM    8  C6  UNL     1      -0.377  -0.699  -0.924  1.00  0.00     0.101 A 
HETATM    9  C11 UNL     1      -1.414   0.208  -0.838  1.00  0.00     0.132 A 
ENDROOT
BRANCH   8  10
HETATM   10  N3  UNL     1       0.778  -0.485  -1.729  1.00  0.00    -0.330 N 
HETATM   11  C7  UNL     1       1.881  -0.012  -1.274  1.00  0.00     0.172 A 
HETATM   12  C8  UNL     1       2.218   0.382   0.010  1.00  0.00     0.085 A 
HETATM   13  O1  UNL     1       2.936   0.180  -2.030  1.00  0.00    -0.220 OA
HETATM   14  C9  UNL     1       3.513   0.804  -0.062  1.00  0.00     0.033 A 
HETATM   15  C10 UNL     1       4.307   1.321   1.082  1.00  0.00     0.070 C 
HETATM   16  N4  UNL     1       3.913   0.661  -1.336  1.00  0.00    -0.264 N 
ATOM     17  H4  UNL     1       4.838   0.894  -1.697  1.00  0.00     0.194 HD
ATOM     18  H3  UNL     1       0.726  -0.720  -2.720  1.00  0.00     0.168 HD
ENDBRANCH   8  10
BRANCH   9  19
HETATM   19  N5  UNL     1      -1.370   1.294  -1.493  1.00  0.00    -0.383 N 
ATOM     20  H52 UNL     1      -2.136   1.964  -1.429  1.00  0.00     0.157 HD
ATOM     21  H51 UNL     1      -0.550   1.463  -2.075  1.00  0.00     0.157 HD
ENDBRANCH   9  19
BRANCH   1  22
HETATM   22  C2  UNL     1      -3.592   0.878   0.059  1.00  0.00     0.128 C 
HETATM   23  C1  UNL     1      -3.528   1.898   1.129  1.00  0.00     0.027 C 
ENDBRANCH   1  22
TORSDOF 3
