REMARK  16 active torsions:
REMARK  status: ('A' for Active; 'I' for Inactive)
REMARK       I    between atoms: C2_2  and  N1_4 
REMARK    1  A    between atoms: N1_4  and  C3_6 
REMARK    2  A    between atoms: C3_6  and  C4_7 
REMARK    3  A    between atoms: C7_10  and  C8_11 
REMARK    4  A    between atoms: C8_11  and  N2_12 
REMARK       I    between atoms: N2_12  and  C9_14 
REMARK    5  A    between atoms: N4_16  and  C10_18 
REMARK    6  A    between atoms: C10_18  and  C11_19 
REMARK    7  A    between atoms: C11_19  and  N5_20 
REMARK    8  A    between atoms: N5_20  and  C12_23 
REMARK    9  A    between atoms: C12_23  and  C13_24 
REMARK   10  A    between atoms: C13_24  and  O2_25 
REMARK   11  A    between atoms: O2_25  and  C14_26 
REMARK   12  A    between atoms: C14_26  and  C15_27 
REMARK   13  A    between atoms: C15_27  and  N6_28 
REMARK   14  A    between atoms: N6_28  and  C16_30 
REMARK   15  A    between atoms: C16_30  and  C17_31 
REMARK   16  A    between atoms: C17_31  and  N7_32 
ROOT
HETATM    1  N2  UNL     1       2.451   0.209  -1.548  1.00  0.00    -0.360 N 
ATOM      2  H2  UNL     1       3.373   0.581  -1.778  1.00  0.00     0.162 HD
HETATM    3  C9  UNL     1       1.434   0.468  -2.470  1.00  0.00     0.184 C 
HETATM    4  N3  UNL     1       1.795   0.732  -3.843  1.00  0.00    -0.064 NA
HETATM    5  N4  UNL     1       0.201   0.495  -2.225  1.00  0.00    -0.363 N 
ATOM      6  H4  UNL     1      -0.375   0.705  -3.040  1.00  0.00     0.162 HD
ENDROOT
BRANCH   5   7
HETATM    7  C10 UNL     1      -0.546   0.290  -1.033  1.00  0.00     0.150 C 
BRANCH   7   8
HETATM    8  C11 UNL     1      -2.017   0.278  -1.433  1.00  0.00     0.252 C 
BRANCH   8   9
HETATM    9  N5  UNL     1      -2.914   0.071  -0.347  1.00  0.00    -0.072 N 
ATOM     10  H52 UNL     1      -3.853  -0.163  -0.670  1.00  0.00     0.277 HD
ATOM     11  H51 UNL     1      -2.707  -0.792   0.156  1.00  0.00     0.277 HD
BRANCH   9  12
HETATM   12  C12 UNL     1      -2.919   1.219   0.534  1.00  0.00     0.258 C 
BRANCH  12  13
HETATM   13  C13 UNL     1      -3.852   1.023   1.709  1.00  0.00     0.195 C 
BRANCH  13  14
HETATM   14  O2  UNL     1      -5.156   0.814   1.397  1.00  0.00    -0.385 OA
BRANCH  14  15
HETATM   15  C14 UNL     1      -5.784   1.791   0.699  1.00  0.00     0.212 C 
BRANCH  15  16
HETATM   16  C15 UNL     1      -7.234   1.508   0.389  1.00  0.00     0.086 C 
BRANCH  16  17
HETATM   17  N6  UNL     1      -7.492   0.367  -0.371  1.00  0.00    -0.379 N 
ATOM     18  H6  UNL     1      -7.845   0.483  -1.321  1.00  0.00     0.164 HD
BRANCH  17  19
HETATM   19  C16 UNL     1      -7.289  -0.920   0.111  1.00  0.00     0.087 C 
BRANCH  19  20
HETATM   20  C17 UNL     1      -8.185  -1.395   1.216  1.00  0.00     0.274 C 
BRANCH  20  21
HETATM   21  N7  UNL     1      -9.550  -1.355   0.734  1.00  0.00    -0.075 N 
ATOM     22  H73 UNL     1      -9.816  -0.437   0.378  1.00  0.00     0.274 HD
ATOM     23  H72 UNL     1      -9.678  -1.880  -0.131  1.00  0.00     0.274 HD
ATOM     24  H71 UNL     1     -10.159  -1.678   1.485  1.00  0.00     0.274 HD
ENDBRANCH  20  21
ENDBRANCH  19  20
ENDBRANCH  17  19
ENDBRANCH  16  17
ENDBRANCH  15  16
ENDBRANCH  14  15
ENDBRANCH  13  14
ENDBRANCH  12  13
ENDBRANCH   9  12
ENDBRANCH   8   9
ENDBRANCH   7   8
ENDBRANCH   5   7
BRANCH   1  25
HETATM   25  C8  UNL     1       2.352  -0.517  -0.317  1.00  0.00     0.160 C 
BRANCH  25  26
HETATM   26  C7  UNL     1       3.685  -0.692   0.336  1.00  0.00    -0.041 A 
HETATM   27  C6  UNL     1       4.439  -1.782   0.003  1.00  0.00     0.009 A 
HETATM   28  C5  UNL     1       5.683  -1.985   0.586  1.00  0.00     0.009 A 
HETATM   29  C4  UNL     1       6.167  -1.090   1.505  1.00  0.00    -0.041 A 
HETATM   30  C19 UNL     1       5.388   0.004   1.828  1.00  0.00     0.009 A 
HETATM   31  C18 UNL     1       4.145   0.211   1.247  1.00  0.00     0.009 A 
BRANCH  29  32
HETATM   32  C3  UNL     1       7.496  -1.294   2.131  1.00  0.00     0.161 C 
BRANCH  32  33
HETATM   33  N1  UNL     1       8.423  -0.361   1.522  1.00  0.00    -0.357 N 
HETATM   34  C2  UNL     1       8.975  -0.529   0.247  1.00  0.00     0.213 C 
HETATM   35  C1  UNL     1       9.912   0.470  -0.301  1.00  0.00     0.117 C 
HETATM   36  O1  UNL     1       8.681  -1.527  -0.443  1.00  0.00    -0.274 OA
ATOM     37  H1  UNL     1       8.689   0.467   2.054  1.00  0.00     0.162 HD
ENDBRANCH  32  33
ENDBRANCH  29  32
ENDBRANCH  25  26
ENDBRANCH   1  25
TORSDOF 16
