REMARK  3 active torsions:
REMARK  status: ('A' for Active; 'I' for Inactive)
REMARK    1  A    between atoms: O1_2  and  C2_3 
REMARK    2  A    between atoms: C2_3  and  C3_5 
REMARK    3  A    between atoms: C3_5  and  C4_6 
ROOT
HETATM    1  C4  UNL     1       0.960  -0.189  -0.755  1.00  0.00    -0.027 C 
HETATM    2  C5  UNL     1       1.382   0.664  -1.959  1.00  0.00     0.016 C 
HETATM    3  C6  UNL     1       0.971  -1.601  -1.318  1.00  0.00    -0.009 C 
HETATM    4  C7  UNL     1       2.311  -1.940  -1.929  1.00  0.00     0.011 C 
HETATM    5  C8  UNL     1       0.712  -2.543  -0.204  1.00  0.00     0.010 C 
HETATM    6  C9  UNL     1      -0.567  -2.298   0.503  1.00  0.00    -0.008 C 
HETATM    7  C10 UNL     1      -0.360  -2.768   1.951  1.00  0.00     0.011 C 
HETATM    8  C11 UNL     1      -1.145  -0.947   0.418  1.00  0.00    -0.019 C 
HETATM    9  C12 UNL     1      -2.126  -0.849  -0.733  1.00  0.00     0.017 C 
HETATM   10  C13 UNL     1      -1.408   0.416  -1.223  1.00  0.00     0.004 C 
HETATM   11  C14 UNL     1      -2.354   1.535  -1.057  1.00  0.00     0.072 C 
HETATM   12  C15 UNL     1      -1.829   2.909  -1.327  1.00  0.00     0.019 C 
HETATM   13  C16 UNL     1      -3.059   1.577   0.246  1.00  0.00     0.246 C 
HETATM   14  O3  UNL     1      -3.736   2.595   0.372  1.00  0.00    -0.280 OA
HETATM   15  S1  UNL     1      -3.137   0.522   1.604  1.00  0.00     0.210 S 
HETATM   16  O4  UNL     1      -3.161   1.391   2.855  1.00  0.00    -0.220 OA
HETATM   17  O5  UNL     1      -4.492  -0.168   1.588  1.00  0.00    -0.220 OA
HETATM   18  C17 UNL     1      -1.810  -0.588   1.751  1.00  0.00     0.159 C 
HETATM   19  C18 UNL     1      -0.358   0.146  -0.198  1.00  0.00     0.009 C 
ENDROOT
BRANCH   1  20
HETATM   20  C3  UNL     1       2.056  -0.032   0.273  1.00  0.00     0.120 C 
BRANCH  20  21
HETATM   21  C2  UNL     1       2.284   1.358   0.712  1.00  0.00     0.259 C 
HETATM   22  O2  UNL     1       1.678   2.368   0.291  1.00  0.00    -0.265 OA
BRANCH  21  23
HETATM   23  O1  UNL     1       3.256   1.588   1.680  1.00  0.00    -0.326 OA
HETATM   24  C1  UNL     1       3.522   2.920   2.146  1.00  0.00     0.213 C 
ENDBRANCH  21  23
ENDBRANCH  20  21
ENDBRANCH   1  20
TORSDOF 3
