REMARK  4 active torsions:
REMARK  status: ('A' for Active; 'I' for Inactive)
REMARK    1  A    between atoms: C2_2  and  C3_3 
REMARK    2  A    between atoms: C3_3  and  O1_4 
REMARK    3  A    between atoms: O1_4  and  C4_5 
REMARK       I    between atoms: C4_5  and  N1_7 
REMARK    4  A    between atoms: N1_7  and  N2_9 
ROOT
HETATM    1  N2  UNL     1      -0.037   0.819  -0.328  1.00  0.00    -0.303 N 
ATOM      2  H2  UNL     1       0.081   1.688  -0.849  1.00  0.00     0.186 HD
HETATM    3  C5  UNL     1      -1.116   0.140  -0.451  1.00  0.00     0.022 C 
HETATM    4  C6  UNL     1      -2.173   0.642  -1.356  1.00  0.00     0.056 C 
HETATM    5  C7  UNL     1      -3.415  -0.206  -1.218  1.00  0.00     0.010 C 
HETATM    6  C8  UNL     1      -3.704  -0.393   0.235  1.00  0.00    -0.017 C 
HETATM    7  C9  UNL     1      -3.895   1.000   0.839  1.00  0.00     0.010 C 
HETATM    8  C10 UNL     1      -2.623  -1.068   1.006  1.00  0.00     0.030 C 
HETATM    9  C11 UNL     1      -1.295  -1.112   0.293  1.00  0.00     0.129 C 
HETATM   10 CL1  UNL     1      -1.221  -2.539  -0.775  1.00  0.00    -0.119 Cl
ENDROOT
BRANCH   1  11
HETATM   11  N1  UNL     1       0.965   0.374   0.509  1.00  0.00    -0.245 N 
HETATM   12  C4  UNL     1       2.246   0.083  -0.020  1.00  0.00     0.379 C 
HETATM   13  O2  UNL     1       2.451   0.233  -1.241  1.00  0.00    -0.237 OA
ATOM     14  H1  UNL     1       0.784   0.255   1.506  1.00  0.00     0.192 HD
BRANCH  12  15
HETATM   15  O1  UNL     1       3.260  -0.363   0.798  1.00  0.00    -0.299 OA
BRANCH  15  16
HETATM   16  C3  UNL     1       4.517  -0.643   0.265  1.00  0.00     0.207 C 
BRANCH  16  17
HETATM   17  C2  UNL     1       5.184   0.528  -0.363  1.00  0.00    -0.011 C 
HETATM   18  C1  UNL     1       6.343   0.918   0.120  1.00  0.00     0.009 C 
ENDBRANCH  16  17
ENDBRANCH  15  16
ENDBRANCH  12  15
ENDBRANCH   1  11
TORSDOF 4
