REMARK  7 active torsions:
REMARK  status: ('A' for Active; 'I' for Inactive)
REMARK    1  A    between atoms: C4_4  and  N1_5 
REMARK    2  A    between atoms: N2_8  and  C6_9 
REMARK    3  A    between atoms: C6_9  and  C7_10 
REMARK    4  A    between atoms: C7_10  and  C8_11 
REMARK    5  A    between atoms: C8_11  and  C9_12 
REMARK       I    between atoms: C9_12  and  N3_14 
REMARK    6  A    between atoms: C10_16  and  C11_17 
REMARK    7  A    between atoms: C11_17  and  N4_18 
ROOT
HETATM    1  C6  UNL     1       0.410  -0.168  -0.257  1.00  0.00     0.134 C 
ENDROOT
BRANCH   1   2
HETATM    2  N2  UNL     1       1.766   0.344  -0.444  1.00  0.00    -0.297 N 
HETATM    3  C5  UNL     1       2.812  -0.313   0.322  1.00  0.00     0.343 C 
HETATM    4  N1  UNL     1       4.166  -0.028   0.309  1.00  0.00    -0.197 N 
HETATM    5  O1  UNL     1       2.417  -1.259   1.101  1.00  0.00    -0.245 OA
HETATM    6  S2  UNL     1       4.553   1.588  -0.299  1.00  0.00     0.274 S 
HETATM    7  C18 UNL     1       3.323   1.950  -1.484  1.00  0.00     0.107 A 
HETATM    8  O6  UNL     1       4.345   2.511   0.889  1.00  0.00    -0.199 OA
HETATM    9  O7  UNL     1       5.923   1.645  -0.828  1.00  0.00    -0.199 OA
HETATM   10  C13 UNL     1       2.072   1.415  -1.304  1.00  0.00     0.062 A 
HETATM   11  C17 UNL     1       3.571   2.877  -2.478  1.00  0.00     0.028 A 
HETATM   12  C14 UNL     1       1.088   1.881  -2.181  1.00  0.00     0.031 A 
HETATM   13  C15 UNL     1       1.343   2.800  -3.158  1.00  0.00     0.002 A 
HETATM   14  C16 UNL     1       2.600   3.329  -3.340  1.00  0.00     0.002 A 
BRANCH   4  15
HETATM   15  C4  UNL     1       5.209  -0.882   0.643  1.00  0.00     0.116 C 
HETATM   16  C2  UNL     1       5.428  -2.110   0.959  1.00  0.00    -0.071 C 
HETATM   17  C1  UNL     1       4.546  -3.277   1.113  1.00  0.00     0.044 C 
HETATM   18  C3  UNL     1       6.907  -2.518   1.263  1.00  0.00     0.044 C 
ENDBRANCH   4  15
ENDBRANCH   1   2
BRANCH   1  19
HETATM   19  C7  UNL     1      -0.169   0.611   0.884  1.00  0.00     0.029 C 
BRANCH  19  20
HETATM   20  C8  UNL     1      -1.523   0.239   1.339  1.00  0.00     0.105 C 
BRANCH  20  21
HETATM   21  C9  UNL     1      -2.548   0.393   0.312  1.00  0.00     0.221 C 
HETATM   22  O2  UNL     1      -2.313   0.896  -0.790  1.00  0.00    -0.273 OA
HETATM   23  N3  UNL     1      -3.866  -0.051   0.587  1.00  0.00    -0.339 N 
HETATM   24  C10 UNL     1      -4.704   0.776   1.097  1.00  0.00     0.083 C 
ATOM     25  H3  UNL     1      -4.143  -1.011   0.383  1.00  0.00     0.167 HD
BRANCH  24  26
HETATM   26  C11 UNL     1      -6.095   0.300   1.385  1.00  0.00     0.167 C 
BRANCH  26  27
HETATM   27  N4  UNL     1      -6.437  -0.701   0.403  1.00  0.00    -0.350 N 
HETATM   28  C12 UNL     1      -7.656  -0.705  -0.058  1.00  0.00     0.248 C 
HETATM   29  N5  UNL     1      -8.361  -1.502  -1.003  1.00  0.00    -0.225 N 
HETATM   30  O5  UNL     1      -8.818   0.026   0.129  1.00  0.00    -0.181 OA
HETATM   31  S1  UNL     1      -9.802  -1.315  -0.111  1.00  0.00     0.372 S 
ATOM     32  H5  UNL     1      -8.107  -1.987  -1.864  1.00  0.00     0.184 HD
HETATM   33  O3  UNL     1     -11.042  -1.068  -0.917  1.00  0.00    -0.175 OA
HETATM   34  O4  UNL     1      -9.983  -2.221   1.056  1.00  0.00    -0.175 OA
ATOM     35  H4  UNL     1      -5.749  -1.381   0.081  1.00  0.00     0.163 HD
ENDBRANCH  26  27
ENDBRANCH  24  26
ENDBRANCH  20  21
ENDBRANCH  19  20
ENDBRANCH   1  19
TORSDOF 7
