REMARK  19 active torsions:
REMARK  status: ('A' for Active; 'I' for Inactive)
REMARK       I    between atoms: N2_3  and  C2_4 
REMARK       I    between atoms: C2_4  and  N3_5 
REMARK       I    between atoms: C2_4  and  N8_24 
REMARK    1  A    between atoms: N3_5  and  C3_7 
REMARK    2  A    between atoms: C3_7  and  C4_8 
REMARK    3  A    between atoms: C4_8  and  C5_9 
REMARK    4  A    between atoms: C5_9  and  N4_10 
REMARK       I    between atoms: N4_10  and  C6_12 
REMARK    5  A    between atoms: C6_12  and  C7_14 
REMARK    6  A    between atoms: C8_16  and  N5_17 
REMARK    7  A    between atoms: N8_24  and  C10_26 
REMARK    8  A    between atoms: C10_26  and  C11_27 
REMARK    9  A    between atoms: C13_30  and  N9_31 
REMARK   10  A    between atoms: N9_31  and  C14_33 
REMARK   11  A    between atoms: C14_33  and  C15_34 
REMARK   12  A    between atoms: C15_34  and  C16_35 
REMARK   13  A    between atoms: C16_35  and  N10_36 
REMARK   14  A    between atoms: N10_36  and  C17_38 
REMARK   15  A    between atoms: C18_41  and  N12_42 
REMARK   16  A    between atoms: C20_50  and  N15_51 
REMARK   17  A    between atoms: N15_51  and  C21_53 
REMARK   18  A    between atoms: C21_53  and  C22_54 
REMARK   19  A    between atoms: C22_54  and  O2_55 
ROOT
HETATM    1  N1  UNL     1       2.574  -2.632  -1.232  1.00  0.00    -0.156 NA
HETATM    2  C1  UNL     1       3.309  -2.005  -0.619  1.00  0.00     0.271 C 
HETATM    3  N2  UNL     1       4.120  -1.336   0.065  1.00  0.00    -0.294 NA
HETATM    4  C2  UNL     1       4.877  -0.696   0.697  1.00  0.00     0.263 C 
HETATM    5  N3  UNL     1       5.653  -1.274   1.785  1.00  0.00    -0.350 N 
ATOM      6  H3  UNL     1       6.158  -0.673   2.436  1.00  0.00     0.163 HD
HETATM    7  N8  UNL     1       5.094   0.717   0.434  1.00  0.00    -0.344 N 
ATOM      8  H8  UNL     1       5.991   1.029   0.063  1.00  0.00     0.164 HD
ENDROOT
BRANCH   5   9
HETATM    9  C3  UNL     1       5.696  -2.685   1.926  1.00  0.00     0.125 C 
BRANCH   9  10
HETATM   10  C4  UNL     1       6.500  -3.434   0.917  1.00  0.00     0.039 C 
BRANCH  10  11
HETATM   11  C5  UNL     1       7.962  -3.187   0.887  1.00  0.00     0.124 C 
BRANCH  11  12
HETATM   12  N4  UNL     1       8.447  -1.908   0.541  1.00  0.00    -0.356 N 
HETATM   13  C6  UNL     1       8.256  -1.305  -0.708  1.00  0.00     0.262 C 
HETATM   14  O1  UNL     1       7.622  -1.900  -1.605  1.00  0.00    -0.267 OA
ATOM     15  H4  UNL     1       8.970  -1.389   1.246  1.00  0.00     0.162 HD
BRANCH  13  16
HETATM   16  C7  UNL     1       8.783   0.036  -1.027  1.00  0.00     0.117 A 
HETATM   17  S1  UNL     1       9.678   1.115  -0.046  1.00  0.00    -0.045 SA
HETATM   18  C8  UNL     1       9.853   2.381  -1.172  1.00  0.00     0.144 A 
HETATM   19  N6  UNL     1       9.217   1.918  -2.249  1.00  0.00    -0.324 N 
HETATM   20  C9  UNL     1       8.672   0.737  -2.193  1.00  0.00     0.141 A 
ATOM     21  H6  UNL     1       9.159   2.478  -3.100  1.00  0.00     0.169 HD
HETATM   22  N7  UNL     1       7.957   0.155  -3.326  1.00  0.00    -0.081 NA
BRANCH  18  23
HETATM   23  N5  UNL     1      10.460   3.543  -1.040  1.00  0.00    -0.380 N 
ATOM     24  H52 UNL     1      10.946   3.897  -0.216  1.00  0.00     0.158 HD
ATOM     25  H51 UNL     1      10.565   4.301  -1.714  1.00  0.00     0.158 HD
ENDBRANCH  18  23
ENDBRANCH  13  16
ENDBRANCH  11  12
ENDBRANCH  10  11
ENDBRANCH   9  10
ENDBRANCH   5   9
BRANCH   7  26
HETATM   26  C10 UNL     1       4.074   1.664   0.687  1.00  0.00     0.181 C 
BRANCH  26  27
HETATM   27  C11 UNL     1       2.879   1.541  -0.250  1.00  0.00     0.035 A 
HETATM   28  C12 UNL     1       3.059   1.727  -1.606  1.00  0.00     0.080 A 
HETATM   29  S2  UNL     1       1.487   1.522  -2.211  1.00  0.00    -0.064 SA
HETATM   30  C13 UNL     1       0.685   1.215  -0.738  1.00  0.00     0.144 A 
HETATM   31  N17 UNL     1       1.668   1.283   0.160  1.00  0.00    -0.338 N 
ATOM     32  H17 UNL     1       1.476   1.136   1.151  1.00  0.00     0.168 HD
BRANCH  30  33
HETATM   33  N9  UNL     1      -0.588   0.974  -0.562  1.00  0.00    -0.370 N 
ATOM     34  H9  UNL     1      -1.204   0.959  -1.375  1.00  0.00     0.161 HD
BRANCH  33  35
HETATM   35  C14 UNL     1      -1.145   0.731   0.728  1.00  0.00     0.123 C 
BRANCH  35  36
HETATM   36  C15 UNL     1      -2.648   0.948   0.750  1.00  0.00     0.039 C 
BRANCH  36  37
HETATM   37  C16 UNL     1      -3.340   0.024  -0.232  1.00  0.00     0.123 C 
BRANCH  37  38
HETATM   38  N10 UNL     1      -4.764   0.212  -0.240  1.00  0.00    -0.375 N 
ATOM     39  H10 UNL     1      -5.130   0.945  -0.848  1.00  0.00     0.161 HD
BRANCH  38  40
HETATM   40  C17 UNL     1      -5.611  -0.450   0.440  1.00  0.00     0.136 A 
HETATM   41  N11 UNL     1      -5.227  -1.438   1.271  1.00  0.00    -0.176 N 
HETATM   42  C18 UNL     1      -6.186  -2.097   1.953  1.00  0.00     0.679 A 
ATOM     43  H11 UNL     1      -4.242  -1.680   1.381  1.00  0.00     0.186 HD
HETATM   44  N13 UNL     1      -7.491  -1.794   1.824  1.00  0.00    -0.175 N 
HETATM   45  C19 UNL     1      -7.910  -0.817   1.006  1.00  0.00     0.156 A 
ATOM     46  H13 UNL     1      -8.179  -2.321   2.362  1.00  0.00     0.186 HD
HETATM   47  N14 UNL     1      -9.213  -0.524   0.884  1.00  0.00    -0.175 N 
HETATM   48  C24 UNL     1      -6.969  -0.114   0.287  1.00  0.00     0.122 A 
HETATM   49  C20 UNL     1      -9.607   0.477   0.042  1.00  0.00     0.682 A 
ATOM     50  H14 UNL     1      -9.907  -1.047   1.418  1.00  0.00     0.186 HD
HETATM   51  N16 UNL     1      -8.698   1.172  -0.666  1.00  0.00    -0.155 N 
HETATM   52  C23 UNL     1      -7.366   0.900  -0.566  1.00  0.00     0.277 A 
ATOM     53  H16 UNL     1      -9.011   1.916  -1.289  1.00  0.00     0.187 HD
HETATM   54  O3  UNL     1      -6.506   1.526  -1.209  1.00  0.00    -0.266 OA
BRANCH  42  55
HETATM   55  N12 UNL     1      -5.819  -3.059   2.762  1.00  0.00    -0.234 N 
ATOM     56 2H12 UNL     1      -4.830  -3.289   2.860  1.00  0.00     0.174 HD
ATOM     57 1H12 UNL     1      -6.544  -3.557   3.278  1.00  0.00     0.174 HD
ENDBRANCH  42  55
BRANCH  49  58
HETATM   58  N15 UNL     1     -10.866   0.751  -0.069  1.00  0.00    -0.224 N 
ATOM     59  H15 UNL     1     -11.547   0.218   0.472  1.00  0.00     0.177 HD
BRANCH  58  60
HETATM   60  C21 UNL     1     -11.323   1.805  -0.952  1.00  0.00     0.164 C 
BRANCH  60  61
HETATM   61  C22 UNL     1     -12.834   1.889  -0.880  1.00  0.00     0.184 C 
BRANCH  61  62
HETATM   62  O2  UNL     1     -13.243   2.170   0.422  1.00  0.00    -0.399 OA
ATOM     63  H2  UNL     1     -14.190   2.223   0.467  1.00  0.00     0.209 HD
ENDBRANCH  61  62
ENDBRANCH  60  61
ENDBRANCH  58  60
ENDBRANCH  49  58
ENDBRANCH  38  40
ENDBRANCH  37  38
ENDBRANCH  36  37
ENDBRANCH  35  36
ENDBRANCH  33  35
ENDBRANCH  30  33
ENDBRANCH  26  27
ENDBRANCH   7  26
TORSDOF 19
