REMARK  17 active torsions:
REMARK  status: ('A' for Active; 'I' for Inactive)
REMARK    1  A    between atoms: C2_2  and  N8_31 
REMARK       I    between atoms: N1_3  and  C3_5 
REMARK    2  A    between atoms: C3_5  and  C4_7 
REMARK    3  A    between atoms: C4_7  and  N2_8 
REMARK    4  A    between atoms: C4_7  and  C5_12 
REMARK    5  A    between atoms: C5_12  and  C6_13 
REMARK    6  A    between atoms: C9_20  and  N5_21 
REMARK    7  A    between atoms: N8_31  and  C12_33 
REMARK    8  A    between atoms: C12_33  and  C13_34 
REMARK    9  A    between atoms: C13_34  and  C14_35 
REMARK   10  A    between atoms: C14_35  and  N9_36 
REMARK       I    between atoms: N9_36  and  C15_38 
REMARK   11  A    between atoms: C15_38  and  C16_40 
REMARK   12  A    between atoms: C19_43  and  C20_44 
REMARK   13  A    between atoms: C20_44  and  N10_45 
REMARK   14  A    between atoms: N10_45  and  C21_46 
REMARK   15  A    between atoms: C22_49  and  N12_50 
REMARK   16  A    between atoms: C24_56  and  N14_57 
REMARK   17  A    between atoms: C27_60  and  N15_61 
ROOT
HETATM    1  C13 UNL     1       1.300   0.343   0.848  1.00  0.00     0.039 C 
ENDROOT
BRANCH   1   2
HETATM    2  C12 UNL     1       2.785   0.534   1.023  1.00  0.00     0.122 C 
BRANCH   2   3
HETATM    3  N8  UNL     1       3.410   0.841  -0.245  1.00  0.00    -0.380 N 
ATOM      4  H8  UNL     1       2.871   0.903  -1.109  1.00  0.00     0.160 HD
BRANCH   3   5
HETATM    5  C2  UNL     1       4.835   1.054  -0.223  1.00  0.00     0.075 C 
HETATM    6  C1  UNL     1       5.391   2.410  -0.011  1.00  0.00     0.089 C 
HETATM    7  N1  UNL     1       5.594   0.037  -0.394  1.00  0.00    -0.315 N 
HETATM    8  C3  UNL     1       5.065  -1.273  -0.600  1.00  0.00     0.254 C 
ATOM      9  H1  UNL     1       6.606   0.167  -0.383  1.00  0.00     0.170 HD
HETATM   10  O1  UNL     1       4.110  -1.368  -1.409  1.00  0.00    -0.271 OA
BRANCH   8  11
HETATM   11  C4  UNL     1       5.566  -2.485   0.071  1.00  0.00     0.280 C 
BRANCH  11  12
HETATM   12  N2  UNL     1       4.669  -3.590  -0.270  1.00  0.00    -0.066 N 
ATOM     13  H23 UNL     1       3.694  -3.390  -0.049  1.00  0.00     0.275 HD
ATOM     14  H22 UNL     1       4.557  -3.713  -1.276  1.00  0.00     0.275 HD
ATOM     15  H21 UNL     1       5.016  -4.429   0.195  1.00  0.00     0.275 HD
ENDBRANCH  11  12
BRANCH  11  16
HETATM   16  C5  UNL     1       6.937  -2.917  -0.344  1.00  0.00     0.101 C 
BRANCH  16  17
HETATM   17  C6  UNL     1       8.006  -1.943  -0.111  1.00  0.00     0.028 A 
HETATM   18  C7  UNL     1       8.671  -1.927   1.112  1.00  0.00     0.114 A 
HETATM   19  N3  UNL     1       9.657  -1.045   1.329  1.00  0.00    -0.348 N 
HETATM   20  C8  UNL     1      10.021  -0.172   0.394  1.00  0.00     0.153 A 
ATOM     21  H3  UNL     1      10.137  -1.043   2.229  1.00  0.00     0.167 HD
HETATM   22  N4  UNL     1      11.007   0.737   0.563  1.00  0.00    -0.174 N 
HETATM   23  C11 UNL     1       9.380  -0.165  -0.830  1.00  0.00     0.147 A 
HETATM   24  C9  UNL     1      11.367   1.614  -0.393  1.00  0.00     0.680 A 
ATOM     25  H4  UNL     1      11.501   0.760   1.455  1.00  0.00     0.186 HD
HETATM   26  N6  UNL     1      10.758   1.635  -1.578  1.00  0.00    -0.154 N 
HETATM   27  C10 UNL     1       9.780   0.762  -1.798  1.00  0.00     0.290 A 
ATOM     28  H6  UNL     1      11.035   2.303  -2.297  1.00  0.00     0.187 HD
HETATM   29  O2  UNL     1       9.164   0.728  -2.898  1.00  0.00    -0.265 OA
HETATM   30  N7  UNL     1       8.408  -1.045  -1.025  1.00  0.00    -0.351 N 
ATOM     31  H7  UNL     1       7.934  -1.040  -1.928  1.00  0.00     0.166 HD
BRANCH  24  32
HETATM   32  N5  UNL     1      12.322   2.459  -0.163  1.00  0.00    -0.234 N 
ATOM     33  H52 UNL     1      12.788   2.443   0.744  1.00  0.00     0.174 HD
ATOM     34  H51 UNL     1      12.595   3.123  -0.887  1.00  0.00     0.174 HD
ENDBRANCH  24  32
ENDBRANCH  16  17
ENDBRANCH  11  16
ENDBRANCH   8  11
ENDBRANCH   3   5
ENDBRANCH   2   3
ENDBRANCH   1   2
BRANCH   1  35
HETATM   35  C14 UNL     1       0.720   1.618   0.301  1.00  0.00     0.124 C 
BRANCH  35  36
HETATM   36  N9  UNL     1      -0.732   1.542   0.107  1.00  0.00    -0.356 N 
HETATM   37  C15 UNL     1      -1.313   0.606  -0.770  1.00  0.00     0.268 C 
HETATM   38  O3  UNL     1      -0.603  -0.189  -1.421  1.00  0.00    -0.266 OA
ATOM     39  H9  UNL     1      -1.336   2.184   0.621  1.00  0.00     0.162 HD
BRANCH  37  40
HETATM   40  C16 UNL     1      -2.760   0.541  -0.940  1.00  0.00     0.100 A 
HETATM   41  C17 UNL     1      -3.633   1.371  -0.290  1.00  0.00     0.036 A 
HETATM   42  C18 UNL     1      -5.006   1.266  -0.470  1.00  0.00     0.017 A 
HETATM   43  C19 UNL     1      -5.501   0.316  -1.311  1.00  0.00     0.008 A 
HETATM   44  C28 UNL     1      -4.617  -0.515  -1.961  1.00  0.00     0.102 A 
HETATM   45  N17 UNL     1      -3.299  -0.395  -1.772  1.00  0.00    -0.361 N 
ATOM     46  H17 UNL     1      -2.673  -1.028  -2.269  1.00  0.00     0.165 HD
BRANCH  43  47
HETATM   47  C20 UNL     1      -6.993   0.127  -1.552  1.00  0.00     0.197 C 
BRANCH  47  48
HETATM   48  N10 UNL     1      -7.580  -0.761  -0.750  1.00  0.00    -0.396 NA
BRANCH  48  49
HETATM   49  C21 UNL     1      -8.254  -1.372   0.028  1.00  0.00     0.223 A 
HETATM   50  N11 UNL     1      -8.039  -2.701   0.313  1.00  0.00    -0.162 N 
HETATM   51  C22 UNL     1      -8.783  -3.386   1.183  1.00  0.00     0.678 A 
ATOM     52  H11 UNL     1      -7.277  -3.184  -0.162  1.00  0.00     0.187 HD
HETATM   53  N13 UNL     1      -9.794  -2.776   1.825  1.00  0.00    -0.200 N 
HETATM   54  C23 UNL     1     -10.094  -1.480   1.624  1.00  0.00     0.142 A 
ATOM     55  H13 UNL     1     -10.353  -3.314   2.487  1.00  0.00     0.183 HD
HETATM   56  C24 UNL     1      -9.303  -0.801   0.715  1.00  0.00     0.130 A 
BRANCH  51  57
HETATM   57  N12 UNL     1      -8.560  -4.645   1.435  1.00  0.00    -0.234 N 
ATOM     58 2H12 UNL     1      -7.793  -5.108   0.948  1.00  0.00     0.174 HD
ATOM     59 1H12 UNL     1      -9.129  -5.169   2.100  1.00  0.00     0.174 HD
ENDBRANCH  51  57
BRANCH  56  60
HETATM   60  N14 UNL     1      -9.600   0.578   0.489  1.00  0.00    -0.260 N 
HETATM   61  C25 UNL     1     -10.517   0.962  -0.407  1.00  0.00     0.120 A 
HETATM   62  C26 UNL     1     -10.575   2.320  -0.382  1.00  0.00     0.068 A 
HETATM   63  C27 UNL     1      -9.660   2.730   0.559  1.00  0.00     0.115 A 
HETATM   64  N16 UNL     1      -9.089   1.635   1.065  1.00  0.00    -0.279 N 
ATOM     65  H16 UNL     1      -8.368   1.624   1.787  1.00  0.00     0.189 HD
BRANCH  63  66
HETATM   66  N15 UNL     1      -9.409   3.979   0.888  1.00  0.00    -0.384 N 
ATOM     67 2H15 UNL     1      -9.845   4.816   0.501  1.00  0.00     0.157 HD
ATOM     68 1H15 UNL     1      -8.730   4.283   1.586  1.00  0.00     0.157 HD
ENDBRANCH  63  66
ENDBRANCH  56  60
ENDBRANCH  48  49
ENDBRANCH  47  48
ENDBRANCH  43  47
ENDBRANCH  37  40
ENDBRANCH  35  36
ENDBRANCH   1  35
TORSDOF 17
