REMARK  12 active torsions:
REMARK  status: ('A' for Active; 'I' for Inactive)
REMARK    1  A    between atoms: C2_2  and  O1_4 
REMARK    2  A    between atoms: C2_2  and  N1_6 
REMARK       I    between atoms: N1_6  and  C4_8 
REMARK    3  A    between atoms: C4_8  and  C5_10 
REMARK    4  A    between atoms: C5_10  and  N2_11 
REMARK    5  A    between atoms: C5_10  and  C11_19 
REMARK    6  A    between atoms: N2_11  and  O3_12 
REMARK    7  A    between atoms: O3_12  and  C6_13 
REMARK       I    between atoms: C11_19  and  N3_21 
REMARK    8  A    between atoms: N3_21  and  C12_23 
REMARK    9  A    between atoms: C14_25  and  S1_26 
REMARK   10  A    between atoms: S1_26  and  S2_27 
REMARK   11  A    between atoms: C16_32  and  O9_33 
REMARK   12  A    between atoms: C17_35  and  O10_36 
ROOT
HETATM    1  C11 UNL     1      -0.090   0.145  -0.289  1.00  0.00     0.253 C 
HETATM    2  O5  UNL     1       0.100  -0.366  -1.405  1.00  0.00    -0.271 OA
HETATM    3  N3  UNL     1       0.951   0.259   0.639  1.00  0.00    -0.323 N 
ATOM      4  H3  UNL     1       0.694   0.676   1.534  1.00  0.00     0.169 HD
ENDROOT
BRANCH   1   5
HETATM    5  C5  UNL     1      -1.483   0.622   0.003  1.00  0.00     0.290 C 
BRANCH   5   6
HETATM    6  C4  UNL     1      -1.596   2.066  -0.381  1.00  0.00     0.251 C 
HETATM    7  N1  UNL     1      -0.827   3.029   0.317  1.00  0.00    -0.328 N 
ATOM      8  H1  UNL     1      -0.207   2.737   1.072  1.00  0.00     0.165 HD
HETATM    9  O2  UNL     1      -2.375   2.370  -1.318  1.00  0.00    -0.271 OA
BRANCH   7  10
HETATM   10  C2  UNL     1      -0.923   4.447  -0.046  1.00  0.00     0.126 C 
HETATM   11  C1  UNL     1       0.029   5.257   0.787  1.00  0.00     0.070 C 
HETATM   12  C3  UNL     1      -2.326   4.950   0.277  1.00  0.00     0.070 C 
BRANCH  10  13
HETATM   13  O1  UNL     1      -0.657   4.551  -1.395  1.00  0.00    -0.372 OA
ATOM     14  H1  UNL     1      -1.259   4.039  -1.922  1.00  0.00     0.212 HD
ENDBRANCH  10  13
ENDBRANCH   7  10
ENDBRANCH   5   6
BRANCH   5  15
HETATM   15  N2  UNL     1      -2.366  -0.122  -0.924  1.00  0.00    -0.074 NA
BRANCH  15  16
HETATM   16  O3  UNL     1      -2.309  -1.446  -0.648  1.00  0.00    -0.253 OA
BRANCH  16  17
HETATM   17  C6  UNL     1      -3.539  -2.039  -0.487  1.00  0.00     0.283 C 
HETATM   18  C7  UNL     1      -3.785  -3.206  -1.404  1.00  0.00     0.062 C 
HETATM   19  C8  UNL     1      -3.820  -4.506  -0.619  1.00  0.00     0.007 C 
HETATM   20  C9  UNL     1      -4.934  -4.438   0.399  1.00  0.00     0.026 C 
HETATM   21  C10 UNL     1      -4.847  -3.100   1.102  1.00  0.00     0.171 C 
HETATM   22  O4  UNL     1      -3.612  -2.514   0.834  1.00  0.00    -0.359 OA
ENDBRANCH  16  17
ENDBRANCH  15  16
ENDBRANCH   5  15
ENDBRANCH   1   5
BRANCH   3  23
HETATM   23  C12 UNL     1       2.310  -0.121   0.515  1.00  0.00     0.072 A 
HETATM   24  C13 UNL     1       2.896  -0.575  -0.636  1.00  0.00     0.052 A 
HETATM   25  C14 UNL     1       4.259  -0.905  -0.688  1.00  0.00     0.023 A 
HETATM   26  C15 UNL     1       4.973  -0.748   0.480  1.00  0.00     0.059 A 
HETATM   27  C16 UNL     1       4.415  -0.298   1.638  1.00  0.00     0.102 A 
HETATM   28  C17 UNL     1       3.091   0.021   1.681  1.00  0.00     0.126 A 
BRANCH  25  29
HETATM   29  S1  UNL     1       4.949  -1.461  -2.125  1.00  0.00     0.027 SA
BRANCH  29  30
HETATM   30  S2  UNL     1       6.920  -1.928  -2.125  1.00  0.00     0.171 S 
HETATM   31  O6  UNL     1       6.903  -3.368  -2.520  1.00  0.00    -0.586 OA
HETATM   32  O7  UNL     1       7.775  -1.835  -0.930  1.00  0.00    -0.586 OA
HETATM   33  O8  UNL     1       7.528  -0.892  -3.272  1.00  0.00    -0.586 OA
ENDBRANCH  29  30
ENDBRANCH  25  29
BRANCH  27  34
HETATM   34  O9  UNL     1       5.192  -0.158   2.793  1.00  0.00    -0.358 OA
ATOM     35  H9  UNL     1       4.803   0.156   3.601  1.00  0.00     0.217 HD
ENDBRANCH  27  34
BRANCH  28  36
HETATM   36  O10 UNL     1       2.565   0.470   2.871  1.00  0.00    -0.356 OA
ATOM     37  H10 UNL     1       3.091   0.566   3.656  1.00  0.00     0.218 HD
ENDBRANCH  28  36
ENDBRANCH   3  23
TORSDOF 12
