REMARK  5 active torsions:
REMARK  status: ('A' for Active; 'I' for Inactive)
REMARK    1  A    between atoms: C2_2  and  O1_3 
REMARK    2  A    between atoms: O1_3  and  C3_4 
REMARK       I    between atoms: C3_4  and  N1_6 
REMARK    3  A    between atoms: C6_11  and  C7_12 
REMARK    4  A    between atoms: N5_19  and  N6_20 
REMARK    5  A    between atoms: C9_23  and  N7_24 
ROOT
HETATM    1  C3  UNL     1       2.411  -0.145   0.186  1.00  0.00     0.388 C 
HETATM    2  O2  UNL     1       2.900   0.177   1.285  1.00  0.00    -0.236 OA
HETATM    3  N1  UNL     1       1.013  -0.329  -0.041  1.00  0.00    -0.182 N 
HETATM    4  N2  UNL     1       0.462  -0.677  -1.217  1.00  0.00    -0.291 N 
ATOM      5  H2  UNL     1       0.994  -0.845  -2.071  1.00  0.00     0.187 HD
HETATM    6  C4  UNL     1      -0.852  -0.774  -1.131  1.00  0.00     0.040 A 
HETATM    7  C5  UNL     1      -1.822  -1.136  -2.213  1.00  0.00     0.071 C 
HETATM    8  C6  UNL     1      -1.210  -0.481   0.158  1.00  0.00     0.080 A 
HETATM    9  C9  UNL     1      -0.001  -0.202   0.828  1.00  0.00     0.142 A 
ENDROOT
BRANCH   8  10
HETATM   10  C7  UNL     1      -2.529  -0.449   0.757  1.00  0.00     0.162 A 
HETATM   11  N3  UNL     1      -3.119  -1.502   1.339  1.00  0.00    -0.279 N 
HETATM   12  N4  UNL     1      -4.317  -1.170   1.794  1.00  0.00    -0.248 N 
ATOM     13  H3  UNL     1      -2.703  -2.430   1.420  1.00  0.00     0.189 HD
HETATM   14  C8  UNL     1      -4.499   0.128   1.496  1.00  0.00     0.361 A 
ATOM     15  H4  UNL     1      -4.975  -1.781   2.277  1.00  0.00     0.192 HD
HETATM   16  O3  UNL     1      -5.502   0.853   1.745  1.00  0.00    -0.243 OA
HETATM   17  N5  UNL     1      -3.390   0.592   0.848  1.00  0.00    -0.192 N 
BRANCH  17  18
HETATM   18  N6  UNL     1      -3.199   1.888   0.378  1.00  0.00    -0.333 N 
ATOM     19  H62 UNL     1      -2.371   2.235  -0.106  1.00  0.00     0.177 HD
ATOM     20  H61 UNL     1      -3.848   2.672   0.447  1.00  0.00     0.177 HD
ENDBRANCH  17  18
ENDBRANCH   8  10
BRANCH   9  21
HETATM   21  N7  UNL     1       0.028   0.116   2.075  1.00  0.00    -0.383 N 
ATOM     22  H72 UNL     1       0.903   0.318   2.560  1.00  0.00     0.157 HD
ATOM     23  H71 UNL     1      -0.743   0.213   2.736  1.00  0.00     0.157 HD
ENDBRANCH   9  21
BRANCH   1  24
HETATM   24  O1  UNL     1       3.315  -0.326  -0.855  1.00  0.00    -0.303 OA
BRANCH  24  25
HETATM   25  C2  UNL     1       4.708  -0.158  -0.692  1.00  0.00     0.176 C 
HETATM   26  C1  UNL     1       5.075   1.234  -0.249  1.00  0.00     0.034 C 
ENDBRANCH  24  25
ENDBRANCH   1  24
TORSDOF 5
