REMARK  4 active torsions:
REMARK  status: ('A' for Active; 'I' for Inactive)
REMARK    1  A    between atoms: C3_8  and  C4_9 
REMARK    2  A    between atoms: C5_10  and  O2_11 
REMARK    3  A    between atoms: O2_11  and  C6_12 
REMARK       I    between atoms: C6_12  and  N3_14 
REMARK    4  A    between atoms: N3_14  and  N4_16 
ROOT
HETATM    1  C4  UNL     1       0.931   0.817  -0.089  1.00  0.00     0.104 A 
HETATM    2  C5  UNL     1      -0.115   0.686  -0.970  1.00  0.00     0.176 A 
HETATM    3  C7  UNL     1      -0.200   1.564  -2.018  1.00  0.00     0.340 A 
HETATM    4  O4  UNL     1      -1.128   1.519  -2.878  1.00  0.00    -0.255 OA
HETATM    5  O5  UNL     1       0.697   2.524  -2.193  1.00  0.00    -0.190 OA
HETATM    6  N5  UNL     1       1.691   2.667  -1.376  1.00  0.00    -0.221 N 
ATOM      7  H5  UNL     1       2.370   3.413  -1.530  1.00  0.00     0.198 HD
HETATM    8  C8  UNL     1       1.832   1.853  -0.344  1.00  0.00     0.281 A 
HETATM    9  O6  UNL     1       2.785   1.966   0.465  1.00  0.00    -0.265 OA
ENDROOT
BRANCH   1  10
HETATM   10  C3  UNL     1       1.103  -0.066   1.048  1.00  0.00     0.099 A 
HETATM   11  C2  UNL     1       1.794  -1.250   1.122  1.00  0.00     0.060 A 
HETATM   12  C1  UNL     1       2.525  -1.865  -0.012  1.00  0.00     0.072 C 
HETATM   13  N1  UNL     1       1.673  -1.720   2.400  1.00  0.00    -0.244 N 
HETATM   14  O1  UNL     1       0.947  -0.862   3.056  1.00  0.00    -0.156 OA
ATOM     15  H1  UNL     1       2.076  -2.581   2.770  1.00  0.00     0.196 HD
HETATM   16  N2  UNL     1       0.595   0.133   2.271  1.00  0.00    -0.239 N 
ATOM     17  H2  UNL     1       0.024   0.931   2.550  1.00  0.00     0.197 HD
ENDBRANCH   1  10
BRANCH   2  18
HETATM   18  O2  UNL     1      -1.042  -0.310  -0.786  1.00  0.00    -0.253 OA
BRANCH  18  19
HETATM   19  C6  UNL     1      -2.188  -0.163  -0.043  1.00  0.00     0.384 C 
HETATM   20  O3  UNL     1      -2.371   0.978   0.495  1.00  0.00    -0.236 OA
HETATM   21  N3  UNL     1      -3.139  -1.196   0.141  1.00  0.00    -0.252 N 
ATOM     22  H3  UNL     1      -2.984  -2.106  -0.294  1.00  0.00     0.191 HD
BRANCH  21  23
HETATM   23  N4  UNL     1      -4.281  -0.987   0.906  1.00  0.00    -0.341 N 
ATOM     24  H42 UNL     1      -4.421  -0.072   1.334  1.00  0.00     0.177 HD
ATOM     25  H41 UNL     1      -4.966  -1.731   1.039  1.00  0.00     0.177 HD
ENDBRANCH  21  23
ENDBRANCH  18  19
ENDBRANCH   2  18
TORSDOF 4
