REMARK  13 active torsions:
REMARK  status: ('A' for Active; 'I' for Inactive)
REMARK    1  A    between atoms: C2_2  and  C3_3 
REMARK    2  A    between atoms: C3_3  and  N1_4 
REMARK       I    between atoms: N1_4  and  C4_5 
REMARK    3  A    between atoms: C4_5  and  C5_7 
REMARK    4  A    between atoms: C5_7  and  C6_8 
REMARK    5  A    between atoms: C8_13  and  C9_14 
REMARK    6  A    between atoms: C9_14  and  C10_15 
REMARK    7  A    between atoms: C13_20  and  O3_21 
REMARK    8  A    between atoms: C14_23  and  C15_24 
REMARK    9  A    between atoms: C15_24  and  C16_25 
REMARK   10  A    between atoms: C19_31  and  C20_32 
REMARK   11  A    between atoms: C20_32  and  C21_33 
REMARK   12  A    between atoms: C25_40  and  C26_41 
REMARK   13  A    between atoms: C26_41  and  C27_42 
ROOT
HETATM    1  C6  UNL     1       2.979  -0.239   0.079  1.00  0.00     0.164 C 
HETATM    2  N2  UNL     1       2.206   0.744   0.827  1.00  0.00    -0.347 N 
ATOM      3  H2  UNL     1       1.607   0.362   1.558  1.00  0.00     0.163 HD
HETATM    4  C7  UNL     1       2.166   2.124   0.690  1.00  0.00     0.241 C 
HETATM    5  O2  UNL     1       2.258   2.807   1.767  1.00  0.00    -0.271 OA
HETATM    6  C8  UNL     1       2.026   2.938  -0.557  1.00  0.00     0.175 C 
HETATM    7  N3  UNL     1       0.833   3.753  -0.521  1.00  0.00    -0.359 N 
ATOM      8  H3  UNL     1       0.996   4.691  -0.156  1.00  0.00     0.162 HD
HETATM    9  C13 UNL     1      -0.482   3.526  -0.878  1.00  0.00     0.135 C 
HETATM   10  C14 UNL     1      -1.541   2.650  -0.330  1.00  0.00     0.159 C 
HETATM   11  N4  UNL     1      -1.523   1.417  -1.077  1.00  0.00    -0.347 N 
ATOM     12  H4  UNL     1      -0.593   1.056  -1.291  1.00  0.00     0.163 HD
HETATM   13  C18 UNL     1      -2.580   0.642  -1.552  1.00  0.00     0.241 C 
HETATM   14  O4  UNL     1      -2.635   0.370  -2.812  1.00  0.00    -0.271 OA
HETATM   15  C19 UNL     1      -3.704   0.056  -0.776  1.00  0.00     0.177 C 
HETATM   16  N5  UNL     1      -4.201  -1.156  -1.387  1.00  0.00    -0.346 N 
ATOM     17  H5  UNL     1      -5.098  -1.100  -1.870  1.00  0.00     0.163 HD
HETATM   18  C24 UNL     1      -3.566  -2.385  -1.374  1.00  0.00     0.241 C 
HETATM   19  O5  UNL     1      -3.849  -3.211  -2.325  1.00  0.00    -0.271 OA
HETATM   20  C25 UNL     1      -2.580  -2.914  -0.410  1.00  0.00     0.177 C 
HETATM   21  N6  UNL     1      -1.542  -3.578  -1.225  1.00  0.00    -0.347 N 
ATOM     22  H6  UNL     1      -1.867  -4.104  -2.036  1.00  0.00     0.163 HD
HETATM   23  C30 UNL     1      -0.158  -3.563  -1.003  1.00  0.00     0.223 C 
HETATM   24  O6  UNL     1       0.392  -4.697  -0.955  1.00  0.00    -0.273 OA
HETATM   25  C31 UNL     1       0.716  -2.378  -0.826  1.00  0.00     0.085 C 
HETATM   26  C32 UNL     1       1.270  -2.105  -2.206  1.00  0.00     0.020 C 
HETATM   27  C33 UNL     1       1.676  -2.581   0.252  1.00  0.00     0.066 C 
HETATM   28  C34 UNL     1       2.431  -3.913   0.240  1.00  0.00     0.018 C 
HETATM   29  C35 UNL     1       2.651  -1.564   0.608  1.00  0.00     0.154 C 
HETATM   30  O7  UNL     1       3.363  -1.913   1.589  1.00  0.00    -0.295 OA
ENDROOT
BRANCH   1  31
HETATM   31  C5  UNL     1       4.437   0.020   0.404  1.00  0.00     0.152 C 
BRANCH  31  32
HETATM   32  C4  UNL     1       5.323  -0.944  -0.346  1.00  0.00     0.293 C 
HETATM   33  N1  UNL     1       6.719  -0.932  -0.027  1.00  0.00    -0.384 NA
HETATM   34  O1  UNL     1       4.763  -1.656  -1.163  1.00  0.00    -0.257 OA
BRANCH  33  35
HETATM   35  C3  UNL     1       7.985  -0.921   0.263  1.00  0.00     0.185 C 
BRANCH  35  36
HETATM   36  C2  UNL     1       8.581  -2.212   0.800  1.00  0.00     0.021 C 
HETATM   37  C1  UNL     1       9.148  -2.280   1.972  1.00  0.00     0.013 C 
ENDBRANCH  35  36
ENDBRANCH  33  35
ENDBRANCH  31  32
ENDBRANCH   1  31
BRANCH   6  38
HETATM   38  C9  UNL     1       3.270   3.790  -0.589  1.00  0.00     0.038 C 
BRANCH  38  39
HETATM   39  C10 UNL     1       3.498   4.695  -1.711  1.00  0.00    -0.020 C 
HETATM   40  C11 UNL     1       2.516   5.788  -1.975  1.00  0.00     0.009 C 
HETATM   41  C12 UNL     1       3.775   3.986  -3.029  1.00  0.00     0.009 C 
ENDBRANCH  38  39
ENDBRANCH   6  38
BRANCH   9  42
HETATM   42  O3  UNL     1      -0.947   4.190  -1.898  1.00  0.00    -0.348 OA
ATOM     43  H3  UNL     1      -1.851   4.034  -2.144  1.00  0.00     0.219 HD
ENDBRANCH   9  42
BRANCH  10  44
HETATM   44  C15 UNL     1      -1.521   2.349   1.119  1.00  0.00     0.033 C 
BRANCH  44  45
HETATM   45  C16 UNL     1      -1.631   3.564   2.009  1.00  0.00    -0.002 C 
HETATM   46  C17 UNL     1      -1.607   3.070   3.445  1.00  0.00     0.005 C 
ENDBRANCH  44  45
ENDBRANCH  10  44
BRANCH  20  47
HETATM   47  C26 UNL     1      -3.069  -4.011   0.482  1.00  0.00     0.038 C 
BRANCH  47  48
HETATM   48  C27 UNL     1      -4.208  -3.762   1.385  1.00  0.00    -0.020 C 
HETATM   49  C28 UNL     1      -4.381  -5.098   2.176  1.00  0.00     0.009 C 
HETATM   50  C29 UNL     1      -5.550  -3.644   0.663  1.00  0.00     0.009 C 
ENDBRANCH  47  48
ENDBRANCH  20  47
BRANCH  15  51
HETATM   51  C20 UNL     1      -4.799   1.104  -0.699  1.00  0.00     0.038 C 
BRANCH  51  52
HETATM   52  C21 UNL     1      -5.996   0.600   0.089  1.00  0.00    -0.020 C 
HETATM   53  C22 UNL     1      -7.009   1.735   0.078  1.00  0.00     0.009 C 
HETATM   54  C23 UNL     1      -5.585   0.345   1.547  1.00  0.00     0.009 C 
ENDBRANCH  51  52
ENDBRANCH  15  51
TORSDOF 13
