REMARK  14 active torsions:
REMARK  status: ('A' for Active; 'I' for Inactive)
REMARK    1  A    between atoms: C2_2  and  C3_3 
REMARK    2  A    between atoms: C3_3  and  C4_4 
REMARK    3  A    between atoms: C4_4  and  C5_5 
REMARK    4  A    between atoms: C7_10  and  C8_11 
REMARK    5  A    between atoms: C11_17  and  C12_18 
REMARK    6  A    between atoms: C12_18  and  C13_19 
REMARK    7  A    between atoms: C16_24  and  O3_25 
REMARK    8  A    between atoms: C17_27  and  C18_28 
REMARK    9  A    between atoms: C18_28  and  C19_29 
REMARK   10  A    between atoms: C23_40  and  C24_41 
REMARK   11  A    between atoms: C24_41  and  C25_42 
REMARK   12  A    between atoms: C30_49  and  C31_50 
REMARK   13  A    between atoms: C31_50  and  C32_51 
REMARK   14  A    between atoms: C35_56  and  O6_57 
ROOT
HETATM    1  C5  UNL     1       2.526  -1.094   0.350  1.00  0.00     0.159 C 
HETATM    2  N1  UNL     1       2.104  -0.953   1.715  1.00  0.00    -0.347 N 
ATOM      3  H1  UNL     1       2.625  -0.304   2.305  1.00  0.00     0.163 HD
HETATM    4  C6  UNL     1       1.019  -1.647   2.305  1.00  0.00     0.241 C 
HETATM    5  O1  UNL     1       0.667  -1.331   3.464  1.00  0.00    -0.271 OA
HETATM    6  C7  UNL     1       0.225  -2.748   1.673  1.00  0.00     0.176 C 
HETATM    7  N2  UNL     1      -1.035  -2.938   2.350  1.00  0.00    -0.346 N 
ATOM      8  H2  UNL     1      -1.012  -3.584   3.139  1.00  0.00     0.163 HD
HETATM    9  C10 UNL     1      -2.280  -2.367   2.083  1.00  0.00     0.241 C 
HETATM   10  O2  UNL     1      -2.806  -1.631   2.999  1.00  0.00    -0.271 OA
HETATM   11  C11 UNL     1      -3.106  -2.513   0.827  1.00  0.00     0.175 C 
HETATM   12  N3  UNL     1      -2.355  -2.301  -0.369  1.00  0.00    -0.359 N 
ATOM     13  H3  UNL     1      -1.801  -3.103  -0.670  1.00  0.00     0.162 HD
HETATM   14  C16 UNL     1      -2.252  -1.184  -1.193  1.00  0.00     0.135 C 
HETATM   15  C17 UNL     1      -2.205   0.247  -0.905  1.00  0.00     0.164 C 
HETATM   16  N6  UNL     1      -2.299   0.700   0.419  1.00  0.00    -0.347 N 
ATOM     17  H6  UNL     1      -3.131   0.413   0.935  1.00  0.00     0.163 HD
HETATM   18  C22 UNL     1      -1.375   1.509   1.123  1.00  0.00     0.241 C 
HETATM   19  O4  UNL     1      -1.169   1.251   2.329  1.00  0.00    -0.271 OA
HETATM   20  C23 UNL     1      -0.627   2.660   0.512  1.00  0.00     0.179 C 
HETATM   21  N7  UNL     1       0.486   2.968   1.366  1.00  0.00    -0.341 N 
HETATM   22  C28 UNL     1       0.198   3.663   2.635  1.00  0.00     0.153 C 
HETATM   23  C29 UNL     1       1.856   2.680   1.171  1.00  0.00     0.243 C 
HETATM   24  O5  UNL     1       2.579   2.483   2.232  1.00  0.00    -0.271 OA
HETATM   25  C30 UNL     1       2.581   2.577  -0.090  1.00  0.00     0.176 C 
HETATM   26  N8  UNL     1       2.763   1.310  -0.711  1.00  0.00    -0.359 N 
ATOM     27  H8  UNL     1       3.425   1.379  -1.484  1.00  0.00     0.162 HD
HETATM   28  C35 UNL     1       2.303   0.008  -0.573  1.00  0.00     0.135 C 
ENDROOT
BRANCH  15  29
HETATM   29  C18 UNL     1      -3.279   0.906  -1.777  1.00  0.00     0.092 C 
BRANCH  29  30
HETATM   30  C19 UNL     1      -4.636   0.401  -1.495  1.00  0.00     0.028 A 
HETATM   31  C20 UNL     1      -5.545   0.904  -0.557  1.00  0.00     0.114 A 
HETATM   32  N4  UNL     1      -6.669   0.192  -0.597  1.00  0.00    -0.360 N 
HETATM   33  C21 UNL     1      -6.525  -0.759  -1.530  1.00  0.00     0.180 A 
ATOM     34  H4  UNL     1      -7.495   0.344  -0.019  1.00  0.00     0.166 HD
HETATM   35  N5  UNL     1      -5.293  -0.640  -2.081  1.00  0.00    -0.354 N 
ATOM     36  H5  UNL     1      -4.916  -1.236  -2.818  1.00  0.00     0.166 HD
ENDBRANCH  29  30
ENDBRANCH  15  29
BRANCH  14  37
HETATM   37  O3  UNL     1      -2.182  -1.428  -2.473  1.00  0.00    -0.348 OA
ATOM     38  H3  UNL     1      -2.112  -0.666  -3.035  1.00  0.00     0.219 HD
ENDBRANCH  14  37
BRANCH  11  39
HETATM   39  C12 UNL     1      -3.819  -3.839   0.891  1.00  0.00     0.038 C 
BRANCH  39  40
HETATM   40  C13 UNL     1      -4.710  -4.216  -0.221  1.00  0.00    -0.020 C 
HETATM   41  C14 UNL     1      -5.357  -5.596   0.128  1.00  0.00     0.009 C 
HETATM   42  C15 UNL     1      -3.884  -4.570  -1.466  1.00  0.00     0.009 C 
ENDBRANCH  39  40
ENDBRANCH  11  39
BRANCH  20  43
HETATM   43  C24 UNL     1      -1.528   3.870   0.439  1.00  0.00     0.039 C 
BRANCH  43  44
HETATM   44  C25 UNL     1      -0.851   5.042  -0.201  1.00  0.00    -0.020 C 
HETATM   45  C26 UNL     1      -0.422   4.808  -1.630  1.00  0.00     0.009 C 
HETATM   46  C27 UNL     1      -1.700   6.293  -0.150  1.00  0.00     0.009 C 
ENDBRANCH  43  44
ENDBRANCH  20  43
BRANCH   6  47
HETATM   47  C8  UNL     1       0.997  -4.076   1.830  1.00  0.00     0.030 C 
HETATM   48  C9  UNL     1       0.168  -5.152   1.190  1.00  0.00     0.007 C 
ENDBRANCH   6  47
BRANCH  25  49
HETATM   49  C31 UNL     1       3.952   3.240   0.217  1.00  0.00     0.038 C 
BRANCH  49  50
HETATM   50  C32 UNL     1       4.865   3.260  -0.954  1.00  0.00    -0.020 C 
HETATM   51  C33 UNL     1       4.257   4.035  -2.092  1.00  0.00     0.009 C 
HETATM   52  C34 UNL     1       6.095   4.071  -0.503  1.00  0.00     0.009 C 
ENDBRANCH  49  50
ENDBRANCH  25  49
BRANCH  28  53
HETATM   53  O6  UNL     1       1.442  -0.340  -1.517  1.00  0.00    -0.348 OA
ATOM     54  H6  UNL     1       1.296   0.380  -2.120  1.00  0.00     0.219 HD
ENDBRANCH  28  53
BRANCH   1  55
HETATM   55  C4  UNL     1       3.977  -1.574   0.260  1.00  0.00     0.033 C 
BRANCH  55  56
HETATM   56  C3  UNL     1       4.383  -1.727  -1.188  1.00  0.00     0.002 C 
BRANCH  56  57
HETATM   57  C2  UNL     1       5.811  -2.211  -1.318  1.00  0.00    -0.004 C 
HETATM   58  C1  UNL     1       5.999  -3.557  -0.646  1.00  0.00     0.005 C 
ENDBRANCH  56  57
ENDBRANCH  55  56
ENDBRANCH   1  55
TORSDOF 14
