REMARK  16 active torsions:
REMARK  status: ('A' for Active; 'I' for Inactive)
REMARK    1  A    between atoms: C2_2  and  C4_4 
REMARK    2  A    between atoms: C4_4  and  C5_5 
REMARK    3  A    between atoms: C7_10  and  C8_11 
REMARK    4  A    between atoms: N3_13  and  C9_15 
REMARK    5  A    between atoms: N5_18  and  C10_19 
REMARK    6  A    between atoms: C10_19  and  C11_20 
REMARK    7  A    between atoms: C11_20  and  C12_21 
REMARK    8  A    between atoms: C12_21  and  C13_22 
REMARK    9  A    between atoms: C13_22  and  C14_23 
REMARK   10  A    between atoms: C14_23  and  N6_24 
REMARK   11  A    between atoms: C15_28  and  O2_29 
REMARK   12  A    between atoms: C16_31  and  C17_32 
REMARK   13  A    between atoms: C17_32  and  C18_33 
REMARK   14  A    between atoms: C25_45  and  O4_46 
REMARK   15  A    between atoms: C26_48  and  C27_49 
REMARK   16  A    between atoms: C27_49  and  C28_50 
ROOT
HETATM    1  C5  UNL     1      -1.813   2.106  -0.171  1.00  0.00     0.177 C 
HETATM    2  N1  UNL     1      -1.140   1.682  -1.321  1.00  0.00    -0.346 N 
ATOM      3  H1  UNL     1      -1.600   1.984  -2.180  1.00  0.00     0.163 HD
HETATM    4  C6  UNL     1       0.036   0.928  -1.565  1.00  0.00     0.248 C 
HETATM    5  O1  UNL     1      -0.121   0.025  -2.432  1.00  0.00    -0.271 OA
HETATM    6  C7  UNL     1       1.359   1.046  -0.983  1.00  0.00     0.243 C 
HETATM    7  N5  UNL     1       1.942   0.009  -0.204  1.00  0.00    -0.344 N 
HETATM    8  C15 UNL     1       1.532  -1.197   0.310  1.00  0.00     0.138 C 
HETATM    9  C16 UNL     1       0.816  -2.372  -0.244  1.00  0.00     0.159 C 
HETATM   10  N7  UNL     1       0.570  -3.356   0.788  1.00  0.00    -0.347 N 
ATOM     11  H7  UNL     1       1.384  -3.621   1.343  1.00  0.00     0.163 HD
HETATM   12  C21 UNL     1      -0.628  -3.996   1.133  1.00  0.00     0.245 C 
HETATM   13  O3  UNL     1      -0.677  -5.275   1.039  1.00  0.00    -0.271 OA
HETATM   14  C22 UNL     1      -1.889  -3.342   1.615  1.00  0.00     0.105 C 
HETATM   15  C23 UNL     1      -2.816  -4.445   2.212  1.00  0.00     0.048 C 
HETATM   16  C24 UNL     1      -1.607  -2.490   2.811  1.00  0.00     0.048 C 
HETATM   17  N8  UNL     1      -2.686  -2.772   0.576  1.00  0.00    -0.355 N 
ATOM     18  H8  UNL     1      -3.005  -3.479  -0.086  1.00  0.00     0.162 HD
HETATM   19  C25 UNL     1      -3.138  -1.512   0.234  1.00  0.00     0.136 C 
HETATM   20  C26 UNL     1      -3.783  -0.420   0.935  1.00  0.00     0.161 C 
HETATM   21  N9  UNL     1      -2.962   0.565   1.599  1.00  0.00    -0.343 N 
HETATM   22  C31 UNL     1      -3.337   0.848   3.031  1.00  0.00     0.153 C 
HETATM   23  C32 UNL     1      -1.880   1.277   1.029  1.00  0.00     0.243 C 
HETATM   24  O5  UNL     1      -0.803   1.155   1.704  1.00  0.00    -0.271 OA
ENDROOT
BRANCH   7  25
HETATM   25  C10 UNL     1       3.350   0.392   0.168  1.00  0.00     0.126 C 
BRANCH  25  26
HETATM   26  C11 UNL     1       3.348   1.198   1.435  1.00  0.00     0.020 C 
BRANCH  26  27
HETATM   27  C12 UNL     1       4.747   1.599   1.847  1.00  0.00     0.003 C 
BRANCH  27  28
HETATM   28  C13 UNL     1       5.441   2.435   0.812  1.00  0.00     0.027 C 
BRANCH  28  29
HETATM   29  C14 UNL     1       6.829   2.794   1.297  1.00  0.00     0.229 C 
BRANCH  29  30
HETATM   30  N6  UNL     1       7.499   3.601   0.296  1.00  0.00    -0.079 N 
ATOM     31  H63 UNL     1       7.516   3.146  -0.617  1.00  0.00     0.274 HD
ATOM     32  H62 UNL     1       6.956   4.425   0.039  1.00  0.00     0.274 HD
ATOM     33  H61 UNL     1       8.434   3.843   0.623  1.00  0.00     0.274 HD
ENDBRANCH  29  30
ENDBRANCH  28  29
ENDBRANCH  27  28
ENDBRANCH  26  27
ENDBRANCH  25  26
ENDBRANCH   7  25
BRANCH   6  34
HETATM   34  C8  UNL     1       2.291   1.342  -2.158  1.00  0.00     0.127 C 
HETATM   35  N2  UNL     1       2.586   0.352  -3.127  1.00  0.00    -0.085 NA
HETATM   36  N3  UNL     1       2.814   2.511  -2.309  1.00  0.00    -0.325 N 
ATOM     37  H3  UNL     1       2.587   3.229  -1.621  1.00  0.00     0.168 HD
BRANCH  36  38
HETATM   38  C9  UNL     1       3.674   2.857  -3.358  1.00  0.00     0.186 C 
HETATM   39  N4  UNL     1       3.176   2.989  -4.680  1.00  0.00    -0.070 NA
HETATM   40  S1  UNL     1       5.248   3.110  -3.067  1.00  0.00    -0.044 SA
ENDBRANCH  36  38
ENDBRANCH   6  34
BRANCH   8  41
HETATM   41  O2  UNL     1       1.836  -1.359   1.576  1.00  0.00    -0.348 OA
ATOM     42  H2  UNL     1       1.552  -2.193   1.931  1.00  0.00     0.219 HD
ENDBRANCH   8  41
BRANCH   9  43
HETATM   43  C17 UNL     1       1.479  -3.028  -1.405  1.00  0.00     0.037 C 
BRANCH  43  44
HETATM   44  C18 UNL     1       2.844  -3.580  -1.257  1.00  0.00    -0.020 C 
HETATM   45  C19 UNL     1       3.190  -4.121  -2.680  1.00  0.00     0.009 C 
HETATM   46  C20 UNL     1       2.881  -4.821  -0.401  1.00  0.00     0.009 C 
ENDBRANCH  43  44
ENDBRANCH   9  43
BRANCH   1  47
HETATM   47  C4  UNL     1      -1.379   3.523   0.198  1.00  0.00     0.038 C 
BRANCH  47  48
HETATM   48  C2  UNL     1      -1.633   4.578  -0.792  1.00  0.00    -0.020 C 
HETATM   49  C1  UNL     1      -3.079   4.755  -1.184  1.00  0.00     0.009 C 
HETATM   50  C3  UNL     1      -0.705   4.594  -1.945  1.00  0.00     0.009 C 
ENDBRANCH  47  48
ENDBRANCH   1  47
BRANCH  20  51
HETATM   51  C27 UNL     1      -4.925  -0.885   1.837  1.00  0.00     0.037 C 
BRANCH  51  52
HETATM   52  C28 UNL     1      -5.915  -1.563   0.872  1.00  0.00    -0.020 C 
HETATM   53  C29 UNL     1      -7.119  -2.087   1.604  1.00  0.00     0.009 C 
HETATM   54  C30 UNL     1      -6.375  -0.620  -0.197  1.00  0.00     0.009 C 
ENDBRANCH  51  52
ENDBRANCH  20  51
BRANCH  19  55
HETATM   55  O4  UNL     1      -2.933  -1.249  -1.031  1.00  0.00    -0.348 OA
ATOM     56  H4  UNL     1      -3.244  -0.383  -1.266  1.00  0.00     0.219 HD
ENDBRANCH  19  55
TORSDOF 16
