REMARK  3 active torsions:
REMARK  status: ('A' for Active; 'I' for Inactive)
REMARK    1  A    between atoms: C2_2  and  O2_4 
REMARK    2  A    between atoms: O2_4  and  C3_5 
REMARK    3  A    between atoms: C7_9  and  O3_10 
ROOT
HETATM    1  C3  UNL     1       1.145  -0.518   0.921  1.00  0.00     0.157 C 
HETATM    2  C4  UNL     1       0.537   0.724   1.356  1.00  0.00     0.001 C 
HETATM    3  C5  UNL     1      -0.440   1.613   1.088  1.00  0.00    -0.025 C 
HETATM    4  C6  UNL     1      -1.453   1.616   0.006  1.00  0.00     0.067 C 
HETATM    5  C7  UNL     1      -2.471   0.534  -0.002  1.00  0.00     0.084 C 
HETATM    6  C8  UNL     1      -2.498  -0.255  -1.330  1.00  0.00     0.206 C 
HETATM    7  O4  UNL     1      -1.783  -1.471  -1.083  1.00  0.00    -0.383 OA
HETATM    8  C9  UNL     1      -0.906  -0.975  -0.152  1.00  0.00     0.127 C 
HETATM    9  C10 UNL     1       0.205  -1.611   0.438  1.00  0.00     0.068 C 
HETATM   10  C11 UNL     1      -1.931  -0.563   0.853  1.00  0.00     0.072 C 
ENDROOT
BRANCH   1  11
HETATM   11  O2  UNL     1       2.071  -0.221  -0.124  1.00  0.00    -0.312 OA
BRANCH  11  12
HETATM   12  C2  UNL     1       3.427  -0.501  -0.007  1.00  0.00     0.255 C 
HETATM   13  C1  UNL     1       4.413  -0.202  -1.078  1.00  0.00     0.126 C 
HETATM   14  O1  UNL     1       3.784  -1.038   1.088  1.00  0.00    -0.266 OA
ENDBRANCH  11  12
ENDBRANCH   1  11
BRANCH   5  15
HETATM   15  O3  UNL     1      -3.746   0.938   0.353  1.00  0.00    -0.387 OA
ATOM     16  H3  UNL     1      -4.397   0.246   0.348  1.00  0.00     0.210 HD
ENDBRANCH   5  15
TORSDOF 3
