REMARK  2 active torsions:
REMARK  status: ('A' for Active; 'I' for Inactive)
REMARK    1  A    between atoms: O1_2  and  C2_3 
REMARK    2  A    between atoms: C8_9  and  O2_10 
ROOT
HETATM    1  C2  UNL     1       2.114  -0.042  -0.604  1.00  0.00     0.220 C 
HETATM    2  C3  UNL     1       1.988  -1.215   0.376  1.00  0.00     0.051 C 
HETATM    3  C4  UNL     1       0.679  -1.063   1.075  1.00  0.00     0.017 C 
HETATM    4  C5  UNL     1      -0.442  -0.636   0.114  1.00  0.00     0.002 C 
HETATM    5  C6  UNL     1      -1.701  -1.274   0.464  1.00  0.00     0.016 C 
HETATM    6  C7  UNL     1      -2.909  -0.438   0.607  1.00  0.00     0.032 C 
HETATM    7  C8  UNL     1      -2.672   1.000   0.907  1.00  0.00     0.120 C 
HETATM    8  C9  UNL     1      -1.714   1.524  -0.144  1.00  0.00     0.066 C 
HETATM    9  C10 UNL     1      -0.405   0.829  -0.076  1.00  0.00     0.158 C 
HETATM   10  O3  UNL     1       0.258   1.070  -1.303  1.00  0.00    -0.295 OA
HETATM   11  N1  UNL     1       1.001  -0.034  -1.545  1.00  0.00    -0.167 NA
HETATM   12  C11 UNL     1       0.050  -1.095  -1.270  1.00  0.00     0.136 C 
ENDROOT
BRANCH   1  13
HETATM   13  O1  UNL     1       3.332  -0.098  -1.267  1.00  0.00    -0.374 OA
HETATM   14  C1  UNL     1       4.124   0.994  -0.915  1.00  0.00     0.204 C 
ENDBRANCH   1  13
BRANCH   7  15
HETATM   15  O2  UNL     1      -3.892   1.680   0.688  1.00  0.00    -0.395 OA
ATOM     16  H2  UNL     1      -3.741   2.598   0.880  1.00  0.00     0.210 HD
ENDBRANCH   7  15
TORSDOF 2
