REMARK  11 active torsions:
REMARK  status: ('A' for Active; 'I' for Inactive)
REMARK    1  A    between atoms: N1_1  and  C1_5 
REMARK    2  A    between atoms: C1_5  and  C2_6 
REMARK    3  A    between atoms: C2_6  and  N2_7 
REMARK       I    between atoms: N2_7  and  C3_9 
REMARK       I    between atoms: C3_9  and  N5_15 
REMARK    4  A    between atoms: N3_10  and  N4_12 
REMARK    5  A    between atoms: C6_18  and  N6_19 
REMARK    6  A    between atoms: C6_18  and  N7_23 
REMARK    7  A    between atoms: N9_29  and  C10_31 
REMARK    8  A    between atoms: C10_31  and  C11_32 
REMARK    9  A    between atoms: C11_32  and  C12_34 
REMARK   10  A    between atoms: C12_34  and  C13_35 
REMARK   11  A    between atoms: C16_44  and  N13_45 
ROOT
HETATM    1  N7  UNL     1      -0.571   0.923  -0.881  1.00  0.00    -0.292 N 
HETATM    2  C7  UNL     1      -0.213   2.220  -1.128  1.00  0.00     0.188 A 
HETATM    3  N8  UNL     1       1.084   2.357  -0.883  1.00  0.00    -0.346 N 
ATOM      4  H8  UNL     1       1.630   3.213  -0.980  1.00  0.00     0.167 HD
HETATM    5  C8  UNL     1       1.549   1.150  -0.480  1.00  0.00     0.123 A 
HETATM    6  C9  UNL     1       2.785   0.716  -0.106  1.00  0.00     0.148 A 
HETATM    7  N9  UNL     1       3.766   1.541  -0.100  1.00  0.00    -0.367 N 
ATOM      8  H9  UNL     1       3.578   2.504  -0.380  1.00  0.00     0.161 HD
HETATM    9  N12 UNL     1       2.908  -0.579   0.244  1.00  0.00    -0.174 N 
ATOM     10  H12 UNL     1       3.830  -0.912   0.526  1.00  0.00     0.186 HD
HETATM   11  C16 UNL     1       1.893  -1.459   0.245  1.00  0.00     0.683 A 
HETATM   12  N15 UNL     1       0.648  -1.040  -0.127  1.00  0.00    -0.174 N 
ATOM     13  H15 UNL     1      -0.146  -1.680  -0.137  1.00  0.00     0.186 HD
HETATM   14  C21 UNL     1       0.510   0.245  -0.478  1.00  0.00     0.157 A 
ENDROOT
BRANCH   1  15
HETATM   15  C6  UNL     1      -1.928   0.494  -1.066  1.00  0.00     0.206 C 
HETATM   16  C5  UNL     1      -2.788   1.367  -0.138  1.00  0.00     0.082 C 
HETATM   17  C4  UNL     1      -4.182   1.248  -0.650  1.00  0.00     0.145 C 
HETATM   18  N5  UNL     1      -4.552  -0.148  -0.735  1.00  0.00    -0.216 N 
HETATM   19  C3  UNL     1      -5.942  -0.419  -0.721  1.00  0.00     0.690 C 
HETATM   20  C23 UNL     1      -3.628  -1.253  -0.830  1.00  0.00     0.145 C 
HETATM   21  N2  UNL     1      -6.822   0.382   0.026  1.00  0.00    -0.223 N 
HETATM   22  N3  UNL     1      -6.393  -1.403  -1.398  1.00  0.00    -0.139 N 
ATOM     23  H2  UNL     1      -7.390   1.070  -0.469  1.00  0.00     0.177 HD
ATOM     24  H3  UNL     1      -5.732  -1.968  -1.931  1.00  0.00     0.205 HD
HETATM   25  C22 UNL     1      -2.191  -0.912  -0.677  1.00  0.00     0.082 C 
BRANCH  21  26
HETATM   26  C2  UNL     1      -6.963   0.279   1.464  1.00  0.00     0.165 C 
BRANCH  26  27
HETATM   27  C1  UNL     1      -7.982   1.269   1.985  1.00  0.00     0.249 C 
BRANCH  27  28
HETATM   28  N1  UNL     1      -9.278   1.043   1.404  1.00  0.00    -0.078 N 
ATOM     29  H13 UNL     1      -9.237   1.050   0.385  1.00  0.00     0.274 HD
ATOM     30  H12 UNL     1      -9.587   0.081   1.542  1.00  0.00     0.274 HD
ATOM     31  H11 UNL     1      -9.965   1.710   1.755  1.00  0.00     0.274 HD
ENDBRANCH  27  28
ENDBRANCH  26  27
ENDBRANCH  21  26
BRANCH  22  32
HETATM   32  N4  UNL     1      -7.742  -1.743  -1.445  1.00  0.00    -0.331 N 
ATOM     33  H42 UNL     1      -8.389  -1.167  -0.906  1.00  0.00     0.177 HD
ATOM     34  H41 UNL     1      -8.102  -2.529  -1.986  1.00  0.00     0.177 HD
ENDBRANCH  22  32
BRANCH  15  35
HETATM   35  N6  UNL     1      -2.286   0.713  -2.445  1.00  0.00    -0.052 N 
ATOM     36  H63 UNL     1      -3.283   0.567  -2.605  1.00  0.00     0.277 HD
ATOM     37  H62 UNL     1      -2.233   1.700  -2.698  1.00  0.00     0.277 HD
ATOM     38  H61 UNL     1      -1.715   0.134  -3.061  1.00  0.00     0.277 HD
ENDBRANCH  15  35
ENDBRANCH   1  15
BRANCH  11  39
HETATM   39  N13 UNL     1       2.125  -2.805   0.632  1.00  0.00    -0.214 N 
HETATM   40  C17 UNL     1       3.456  -3.221   1.025  1.00  0.00     0.168 C 
HETATM   41  C18 UNL     1       3.472  -4.632   1.545  1.00  0.00     0.252 C 
HETATM   42  N14 UNL     1       2.846  -5.545   0.613  1.00  0.00    -0.072 N 
HETATM   43  C19 UNL     1       1.588  -5.110   0.104  1.00  0.00     0.252 C 
ATOM     44 2H14 UNL     1       3.483  -5.758  -0.154  1.00  0.00     0.277 HD
ATOM     45 1H14 UNL     1       2.757  -6.471   1.031  1.00  0.00     0.277 HD
HETATM   46  C20 UNL     1       1.086  -3.814   0.659  1.00  0.00     0.168 C 
ENDBRANCH  11  39
BRANCH   7  47
HETATM   47  C10 UNL     1       5.108   1.205   0.272  1.00  0.00     0.200 C 
BRANCH  47  48
HETATM   48  C11 UNL     1       5.986   2.385   0.086  1.00  0.00     0.149 C 
HETATM   49  O1  UNL     1       5.522   3.419  -0.320  1.00  0.00    -0.296 OA
BRANCH  48  50
HETATM   50  C12 UNL     1       7.438   2.253   0.412  1.00  0.00     0.138 C 
BRANCH  50  51
HETATM   51  C13 UNL     1       8.081   3.561   0.141  1.00  0.00     0.032 A 
HETATM   52  C14 UNL     1       8.646   3.988  -1.033  1.00  0.00     0.114 A 
HETATM   53  N10 UNL     1       9.101   5.233  -0.810  1.00  0.00    -0.360 N 
HETATM   54  C15 UNL     1       8.842   5.599   0.460  1.00  0.00     0.180 A 
ATOM     55  H10 UNL     1       9.573   5.815  -1.501  1.00  0.00     0.166 HD
HETATM   56  N11 UNL     1       8.212   4.563   1.042  1.00  0.00    -0.354 N 
ATOM     57  H11 UNL     1       7.885   4.536   2.008  1.00  0.00     0.166 HD
ENDBRANCH  50  51
ENDBRANCH  48  50
ENDBRANCH  47  48
ENDBRANCH   7  47
TORSDOF 11
