REMARK  14 active torsions:
REMARK  status: ('A' for Active; 'I' for Inactive)
REMARK    1  A    between atoms: C2_2  and  O1_3 
REMARK    2  A    between atoms: C2_2  and  C3_5 
REMARK    3  A    between atoms: C3_5  and  N1_6 
REMARK       I    between atoms: N1_6  and  C4_8 
REMARK    4  A    between atoms: C4_8  and  C5_10 
REMARK    5  A    between atoms: C5_10  and  N2_11 
REMARK    6  A    between atoms: C5_10  and  C6_15 
REMARK    7  A    between atoms: C6_15  and  C7_16 
REMARK    8  A    between atoms: C6_15  and  N5_25 
REMARK    9  A    between atoms: N7_32  and  C12_33 
REMARK   10  A    between atoms: C14_35  and  N8_36 
REMARK   11  A    between atoms: N8_36  and  N9_38 
REMARK   12  A    between atoms: N9_38  and  N10_39 
REMARK   13  A    between atoms: C16_43  and  S2_44 
REMARK   14  A    between atoms: S2_44  and  N11_45 
ROOT
HETATM    1  N5  UNL     1       0.406   0.769   0.131  1.00  0.00    -0.214 N 
HETATM    2  C10 UNL     1       0.264   1.324  -1.068  1.00  0.00     0.339 A 
HETATM    3  O3  UNL     1      -0.789   1.850  -1.408  1.00  0.00    -0.246 OA
HETATM    4  N6  UNL     1       1.276   1.347  -1.988  1.00  0.00    -0.260 N 
ATOM      5  H6  UNL     1       1.134   1.783  -2.899  1.00  0.00     0.175 HD
HETATM    6  C11 UNL     1       2.460   0.790  -1.680  1.00  0.00     0.335 A 
HETATM    7  O4  UNL     1       3.389   0.809  -2.524  1.00  0.00    -0.246 OA
HETATM    8  N7  UNL     1       2.650   0.218  -0.482  1.00  0.00    -0.240 N 
HETATM    9  C17 UNL     1       1.628   0.221   0.388  1.00  0.00     0.342 A 
HETATM   10  O7  UNL     1       1.796  -0.321   1.538  1.00  0.00    -0.246 OA
ENDROOT
BRANCH   1  11
HETATM   11  C6  UNL     1      -0.627   0.719   1.138  1.00  0.00     0.084 C 
BRANCH  11  12
HETATM   12  C5  UNL     1      -1.248  -0.583   1.408  1.00  0.00     0.326 C 
BRANCH  12  13
HETATM   13  C4  UNL     1      -2.278  -1.127   0.548  1.00  0.00     0.254 C 
HETATM   14  N1  UNL     1      -3.348  -1.872   1.151  1.00  0.00    -0.357 N 
ATOM     15  H1  UNL     1      -3.345  -1.983   2.165  1.00  0.00     0.162 HD
HETATM   16  O2  UNL     1      -2.343  -1.023  -0.701  1.00  0.00    -0.271 OA
BRANCH  14  17
HETATM   17  C3  UNL     1      -4.421  -2.469   0.409  1.00  0.00     0.153 C 
BRANCH  17  18
HETATM   18  C2  UNL     1      -5.290  -1.490  -0.332  1.00  0.00     0.132 C 
HETATM   19  C1  UNL     1      -5.980  -0.649   0.747  1.00  0.00     0.041 C 
BRANCH  18  20
HETATM   20  O1  UNL     1      -6.268  -2.220  -1.029  1.00  0.00    -0.394 OA
ATOM     21  H1  UNL     1      -5.840  -2.741  -1.698  1.00  0.00     0.210 HD
ENDBRANCH  18  20
ENDBRANCH  17  18
ENDBRANCH  14  17
ENDBRANCH  12  13
BRANCH  12  22
HETATM   22  N2  UNL     1      -1.733  -0.700   2.797  1.00  0.00    -0.061 N 
ATOM     23  H23 UNL     1      -2.644  -0.265   2.940  1.00  0.00     0.275 HD
ATOM     24  H22 UNL     1      -2.001  -1.652   3.048  1.00  0.00     0.275 HD
ATOM     25  H21 UNL     1      -1.007  -0.317   3.403  1.00  0.00     0.275 HD
ENDBRANCH  12  22
ENDBRANCH  11  12
BRANCH  11  26
HETATM   26  C7  UNL     1      -1.551   1.883   1.117  1.00  0.00     0.049 A 
HETATM   27  C8  UNL     1      -1.324   3.155   1.586  1.00  0.00     0.111 A 
HETATM   28  N3  UNL     1      -2.279   4.024   1.483  1.00  0.00    -0.345 N 
HETATM   29  C9  UNL     1      -3.436   3.649   0.931  1.00  0.00     0.142 A 
ATOM     30  H3  UNL     1      -2.150   4.979   1.818  1.00  0.00     0.167 HD
HETATM   31  N4  UNL     1      -4.518   4.370   0.736  1.00  0.00    -0.380 N 
HETATM   32  S1  UNL     1      -3.151   2.005   0.545  1.00  0.00    -0.051 SA
ATOM     33  H42 UNL     1      -4.688   5.349   0.966  1.00  0.00     0.158 HD
ATOM     34  H41 UNL     1      -5.402   4.084   0.314  1.00  0.00     0.158 HD
ENDBRANCH  11  26
ENDBRANCH   1  11
BRANCH   8  35
HETATM   35  C12 UNL     1       3.888  -0.389  -0.102  1.00  0.00     0.147 C 
HETATM   36  C13 UNL     1       5.005   0.623  -0.121  1.00  0.00     0.063 C 
HETATM   37  C14 UNL     1       6.140  -0.105  -0.798  1.00  0.00     0.140 C 
HETATM   38  C15 UNL     1       5.578  -1.353  -1.344  1.00  0.00     0.023 C 
HETATM   39  C16 UNL     1       4.323  -1.514  -0.957  1.00  0.00     0.079 C 
BRANCH  37  40
HETATM   40  N8  UNL     1       6.840   0.700  -1.774  1.00  0.00    -0.244 N 
ATOM     41  H8  UNL     1       7.245   0.251  -2.595  1.00  0.00     0.197 HD
BRANCH  40  42
HETATM   42  N9  UNL     1       6.957   1.916  -1.633  1.00  0.00    -0.248 NA
BRANCH  42  43
HETATM   43  N10 UNL     1       6.796   3.126  -1.790  1.00  0.00    -0.261 N 
ATOM     44 2H10 UNL     1       6.103   3.049  -2.534  1.00  0.00     0.193 HD
ATOM     45 1H10 UNL     1       6.893   4.135  -1.673  1.00  0.00     0.193 HD
ENDBRANCH  42  43
ENDBRANCH  40  42
ENDBRANCH  37  40
BRANCH  39  46
HETATM   46  S2  UNL     1       3.332  -2.881  -1.395  1.00  0.00     0.254 S 
HETATM   47  O5  UNL     1       4.188  -4.124  -1.597  1.00  0.00    -0.201 OA
HETATM   48  O6  UNL     1       2.372  -3.239  -0.281  1.00  0.00    -0.201 OA
BRANCH  46  49
HETATM   49  N11 UNL     1       2.479  -2.586  -2.840  1.00  0.00    -0.324 N 
ATOM     50 2H11 UNL     1       2.549  -1.717  -3.369  1.00  0.00     0.169 HD
ATOM     51 1H11 UNL     1       1.900  -3.385  -3.096  1.00  0.00     0.169 HD
ENDBRANCH  46  49
ENDBRANCH  39  46
ENDBRANCH   8  35
TORSDOF 14
