REMARK  9 active torsions:
REMARK  status: ('A' for Active; 'I' for Inactive)
REMARK    1  A    between atoms: S1_2  and  C2_5 
REMARK    2  A    between atoms: C2_5  and  C3_6 
REMARK    3  A    between atoms: C4_7  and  C5_8 
REMARK    4  A    between atoms: C8_18  and  C9_19 
REMARK    5  A    between atoms: N3_23  and  C12_24 
REMARK    6  A    between atoms: C12_24  and  C13_25 
REMARK    7  A    between atoms: C13_25  and  C14_26 
REMARK    8  A    between atoms: C14_26  and  C15_27 
REMARK    9  A    between atoms: C15_27  and  C16_28 
ROOT
HETATM    1  C3  UNL     1      -5.613   0.900  -0.231  1.00  0.00     0.071 C 
HETATM    2  C4  UNL     1      -5.707   0.631   1.069  1.00  0.00     0.157 C 
HETATM    3  N1  UNL     1      -4.406   0.167   1.474  1.00  0.00    -0.213 N 
HETATM    4  C6  UNL     1      -3.662  -0.522   2.469  1.00  0.00     0.275 C 
HETATM    5  O5  UNL     1      -3.922  -0.528   3.688  1.00  0.00    -0.269 OA
HETATM    6  C7  UNL     1      -2.545  -1.219   1.805  1.00  0.00     0.330 C 
HETATM    7  N2  UNL     1      -1.263  -1.013   2.412  1.00  0.00    -0.024 N 
ATOM      8  H21 UNL     1      -0.989  -1.695   3.119  1.00  0.00     0.281 HD
ATOM      9  H22 UNL     1      -1.190  -0.213   3.041  1.00  0.00     0.281 HD
HETATM   10  C8  UNL     1      -0.421  -0.962   1.204  1.00  0.00     0.436 C 
HETATM   11  N8  UNL     1      -1.113   0.018   0.428  1.00  0.00    -0.018 N 
ATOM     12  H81 UNL     1      -0.729   0.186  -0.502  1.00  0.00     0.282 HD
ATOM     13  H82 UNL     1      -1.006   0.980   0.748  1.00  0.00     0.282 HD
HETATM   14  C18 UNL     1      -2.479  -0.498   0.453  1.00  0.00     0.344 C 
HETATM   15  N9  UNL     1      -3.460   0.534   0.501  1.00  0.00    -0.095 NA
HETATM   16  N10 UNL     1      -4.270   0.629  -0.634  1.00  0.00    -0.300 N 
ATOM     17  H10 UNL     1      -3.952   0.522  -1.597  1.00  0.00     0.182 HD
ENDROOT
BRANCH  10  18
HETATM   18  C9  UNL     1       0.975  -0.646   1.505  1.00  0.00     0.089 A 
HETATM   19  C10 UNL     1       1.733  -1.199   2.511  1.00  0.00     0.106 A 
HETATM   20  C11 UNL     1       3.007  -0.649   2.481  1.00  0.00     0.263 A 
HETATM   21  O6  UNL     1       3.972  -0.925   3.266  1.00  0.00    -0.267 OA
HETATM   22  N3  UNL     1       3.001   0.225   1.462  1.00  0.00    -0.257 N 
HETATM   23  N7  UNL     1       1.798   0.219   0.894  1.00  0.00    -0.296 N 
ATOM     24  H7  UNL     1       1.535   0.798   0.096  1.00  0.00     0.187 HD
BRANCH  22  25
HETATM   25  C12 UNL     1       4.153   1.018   1.073  1.00  0.00     0.152 C 
BRANCH  25  26
HETATM   26  C13 UNL     1       4.980   0.339   0.003  1.00  0.00     0.022 C 
BRANCH  26  27
HETATM   27  C14 UNL     1       5.535  -0.986   0.397  1.00  0.00     0.008 C 
BRANCH  27  28
HETATM   28  C15 UNL     1       6.342  -1.615  -0.698  1.00  0.00     0.066 C 
BRANCH  28  29
HETATM   29  C16 UNL     1       7.554  -0.836  -1.087  1.00  0.00     0.069 A 
HETATM   30  N4  UNL     1       8.083   0.279  -0.619  1.00  0.00    -0.296 N 
HETATM   31  N5  UNL     1       9.138   0.766  -1.116  1.00  0.00    -0.279 N 
ATOM     32  H4  UNL     1       7.631   0.758   0.160  1.00  0.00     0.187 HD
HETATM   33  C17 UNL     1       9.721   0.129  -2.137  1.00  0.00     0.158 A 
ATOM     34  H5  UNL     1       9.537   1.628  -0.745  1.00  0.00     0.189 HD
HETATM   35  N6  UNL     1      10.813   0.478  -2.779  1.00  0.00    -0.379 N 
HETATM   36  S2  UNL     1       8.682  -1.208  -2.354  1.00  0.00    -0.038 SA
ATOM     37  H62 UNL     1      11.434   1.277  -2.649  1.00  0.00     0.158 HD
ATOM     38  H61 UNL     1      11.258  -0.008  -3.558  1.00  0.00     0.158 HD
ENDBRANCH  28  29
ENDBRANCH  27  28
ENDBRANCH  26  27
ENDBRANCH  25  26
ENDBRANCH  22  25
ENDBRANCH  10  18
BRANCH   2  39
HETATM   39  C5  UNL     1      -6.850   0.755   1.921  1.00  0.00     0.230 C 
HETATM   40  O3  UNL     1      -6.727   0.440   3.157  1.00  0.00    -0.643 OA
HETATM   41  O4  UNL     1      -8.102   1.179   1.587  1.00  0.00    -0.643 OA
ENDBRANCH   2  39
BRANCH   1  42
HETATM   42  C2  UNL     1      -6.646   1.397  -1.151  1.00  0.00     0.200 C 
BRANCH  42  43
HETATM   43  S1  UNL     1      -6.926   0.233  -2.474  1.00  0.00     0.146 S 
HETATM   44  C1  UNL     1      -8.183   0.839  -3.582  1.00  0.00     0.161 C 
HETATM   45  O1  UNL     1      -7.430  -1.050  -1.879  1.00  0.00    -0.228 OA
HETATM   46  O2  UNL     1      -5.655  -0.030  -3.207  1.00  0.00    -0.228 OA
ENDBRANCH  42  43
ENDBRANCH   1  42
TORSDOF 9
