REMARK  7 active torsions:
REMARK  status: ('A' for Active; 'I' for Inactive)
REMARK       I    between atoms: C1_2  and  N1_3 
REMARK    1  A    between atoms: C1_2  and  C13_23 
REMARK    2  A    between atoms: N1_3  and  C2_5 
REMARK    3  A    between atoms: C2_5  and  C3_6 
REMARK    4  A    between atoms: N2_9  and  C6_10 
REMARK    5  A    between atoms: C6_10  and  O2_11 
REMARK    6  A    between atoms: C6_10  and  C7_13 
REMARK    7  A    between atoms: C10_16  and  N3_17 
ROOT
HETATM    1  C3  UNL     1       0.672  -0.628  -0.884  1.00  0.00     0.006 C 
HETATM    2  C4  UNL     1       0.559  -1.105   0.513  1.00  0.00     0.026 C 
HETATM    3  C5  UNL     1      -0.685  -1.842   0.884  1.00  0.00     0.125 C 
HETATM    4  N2  UNL     1      -1.865  -1.202   0.185  1.00  0.00    -0.360 N 
HETATM    5  C11 UNL     1      -1.713  -1.284  -1.232  1.00  0.00     0.125 C 
HETATM    6  C12 UNL     1      -0.622  -0.262  -1.567  1.00  0.00     0.026 C 
ENDROOT
BRANCH   1   7
HETATM    7  C2  UNL     1       1.554   0.615  -0.917  1.00  0.00     0.127 C 
BRANCH   7   8
HETATM    8  N1  UNL     1       2.875   0.331  -0.417  1.00  0.00    -0.356 N 
HETATM    9  C1  UNL     1       3.834   1.347  -0.367  1.00  0.00     0.258 C 
HETATM   10  O1  UNL     1       3.559   2.499  -0.751  1.00  0.00    -0.267 OA
ATOM     11  H1  UNL     1       3.110  -0.610  -0.100  1.00  0.00     0.162 HD
BRANCH   9  12
HETATM   12  C13 UNL     1       5.180   1.021   0.152  1.00  0.00     0.074 A 
HETATM   13  C14 UNL     1       5.639  -0.183   0.609  1.00  0.00     0.027 A 
HETATM   14  C15 UNL     1       6.904  -0.243   1.034  1.00  0.00     0.033 A 
HETATM   15  C16 UNL     1       7.644   0.907   0.979  1.00  0.00     0.075 A 
HETATM   16 CL1  UNL     1       9.335   1.134   1.468  1.00  0.00    -0.076 Cl
HETATM   17  S1  UNL     1       6.546   2.038   0.333  1.00  0.00    -0.072 SA
ENDBRANCH   9  12
ENDBRANCH   7   8
ENDBRANCH   1   7
BRANCH   4  18
HETATM   18  C6  UNL     1      -2.881  -0.671   0.957  1.00  0.00     0.173 C 
BRANCH  18  19
HETATM   19  O2  UNL     1      -2.724  -0.825   2.262  1.00  0.00    -0.344 OA
ATOM     20  H2  UNL     1      -3.422  -0.460   2.793  1.00  0.00     0.219 HD
ENDBRANCH  18  19
BRANCH  18  21
HETATM   21  C7  UNL     1      -4.065   0.019   0.521  1.00  0.00     0.128 A 
HETATM   22  C8  UNL     1      -4.546   0.413  -0.693  1.00  0.00     0.046 A 
HETATM   23  C9  UNL     1      -5.784   1.061  -0.535  1.00  0.00     0.066 A 
HETATM   24  C10 UNL     1      -5.988   1.020   0.811  1.00  0.00     0.215 A 
HETATM   25  O5  UNL     1      -5.007   0.426   1.412  1.00  0.00    -0.284 OA
BRANCH  24  26
HETATM   26  N3  UNL     1      -7.146   1.569   1.466  1.00  0.00    -0.090 N 
HETATM   27  O3  UNL     1      -7.263   1.495   2.694  1.00  0.00    -0.530 OA
HETATM   28  O4  UNL     1      -8.126   2.175   0.756  1.00  0.00    -0.530 OA
ENDBRANCH  24  26
ENDBRANCH  18  21
ENDBRANCH   4  18
TORSDOF 7
