REMARK  13 active torsions:
REMARK  status: ('A' for Active; 'I' for Inactive)
REMARK       I    between atoms: C1_4  and  N3_6 
REMARK    1  A    between atoms: N3_6  and  C2_8 
REMARK    2  A    between atoms: C3_9  and  C4_10 
REMARK    3  A    between atoms: C4_10  and  N4_11 
REMARK    4  A    between atoms: C5_18  and  O1_19 
REMARK    5  A    between atoms: O1_19  and  C6_20 
REMARK    6  A    between atoms: C6_20  and  C7_21 
REMARK    7  A    between atoms: C7_21  and  O2_22 
REMARK    8  A    between atoms: O2_22  and  C8_23 
REMARK    9  A    between atoms: C8_23  and  C9_24 
REMARK   10  A    between atoms: C9_24  and  C10_25 
REMARK   11  A    between atoms: C10_25  and  N6_26 
REMARK   12  A    between atoms: C11_30  and  O3_31 
REMARK   13  A    between atoms: C12_33  and  O4_34 
ROOT
HETATM    1  C2  UNL     1      -2.234  -0.655   0.212  1.00  0.00     0.148 C 
HETATM    2  C3  UNL     1      -1.009  -0.223   0.895  1.00  0.00     0.239 C 
HETATM    3  N5  UNL     1      -0.095   0.418  -0.026  1.00  0.00    -0.038 N 
ATOM      4  H51 UNL     1       0.843   0.462   0.372  1.00  0.00     0.281 HD
ATOM      5  H52 UNL     1      -0.298   1.415  -0.097  1.00  0.00     0.281 HD
HETATM    6  C5  UNL     1      -0.064  -0.190  -1.337  1.00  0.00     0.353 C 
HETATM    7  C11 UNL     1      -1.388   0.051  -2.058  1.00  0.00     0.205 C 
HETATM    8  C12 UNL     1      -2.540   0.029  -1.101  1.00  0.00     0.176 C 
ENDROOT
BRANCH   6   9
HETATM    9  O1  UNL     1       0.271  -1.477  -1.224  1.00  0.00    -0.355 OA
BRANCH   9  10
HETATM   10  C6  UNL     1       1.406  -2.015  -1.674  1.00  0.00     0.197 C 
BRANCH  10  11
HETATM   11  C7  UNL     1       2.617  -1.504  -0.948  1.00  0.00     0.193 C 
BRANCH  11  12
HETATM   12  O2  UNL     1       2.754  -0.155  -1.080  1.00  0.00    -0.389 OA
BRANCH  12  13
HETATM   13  C8  UNL     1       3.845   0.393  -0.447  1.00  0.00     0.169 C 
BRANCH  13  14
HETATM   14  C9  UNL     1       3.871   0.185   1.035  1.00  0.00     0.053 C 
BRANCH  14  15
HETATM   15  C10 UNL     1       5.122   0.841   1.607  1.00  0.00     0.231 C 
BRANCH  15  16
HETATM   16  N6  UNL     1       5.154   2.258   1.344  1.00  0.00    -0.079 N 
ATOM     17  H63 UNL     1       5.056   2.452   0.348  1.00  0.00     0.274 HD
ATOM     18  H62 UNL     1       4.308   2.717   1.681  1.00  0.00     0.274 HD
ATOM     19  H61 UNL     1       5.991   2.697   1.727  1.00  0.00     0.274 HD
ENDBRANCH  15  16
ENDBRANCH  14  15
ENDBRANCH  13  14
ENDBRANCH  12  13
ENDBRANCH  11  12
ENDBRANCH  10  11
ENDBRANCH   9  10
ENDBRANCH   6   9
BRANCH   7  20
HETATM   20  O3  UNL     1      -1.356   1.265  -2.736  1.00  0.00    -0.389 OA
ATOM     21  H3  UNL     1      -2.180   1.415  -3.185  1.00  0.00     0.210 HD
ENDBRANCH   7  20
BRANCH   2  22
HETATM   22  C4  UNL     1      -1.184   0.572   2.155  1.00  0.00     0.265 C 
BRANCH  22  23
HETATM   23  N4  UNL     1      -1.883   1.788   2.046  1.00  0.00    -0.077 N 
ATOM     24  H43 UNL     1      -1.445   2.371   1.333  1.00  0.00     0.274 HD
ATOM     25  H42 UNL     1      -2.794   1.621   1.618  1.00  0.00     0.274 HD
ATOM     26  H41 UNL     1      -2.002   2.329   2.903  1.00  0.00     0.274 HD
ENDBRANCH  22  23
ENDBRANCH   2  22
BRANCH   8  27
HETATM   27  O4  UNL     1      -2.916   1.334  -0.800  1.00  0.00    -0.391 OA
ATOM     28  H4  UNL     1      -3.108   1.764  -1.625  1.00  0.00     0.210 HD
ENDBRANCH   8  27
BRANCH   1  29
HETATM   29  N3  UNL     1      -3.400  -0.768   1.047  1.00  0.00    -0.356 N 
HETATM   30  C1  UNL     1      -4.632  -1.168   0.496  1.00  0.00     0.182 C 
HETATM   31  N1  UNL     1      -4.713  -2.384   0.089  1.00  0.00    -0.374 N 
HETATM   32  N2  UNL     1      -5.760  -0.333   0.365  1.00  0.00    -0.064 NA
ATOM     33  H12 UNL     1      -5.606  -2.674  -0.310  1.00  0.00     0.158 HD
ATOM     34  H11 UNL     1      -3.897  -2.988   0.184  1.00  0.00     0.158 HD
ATOM     35  H3  UNL     1      -3.334  -0.557   2.043  1.00  0.00     0.162 HD
ENDBRANCH   1  29
TORSDOF 13
