REMARK  13 active torsions:
REMARK  status: ('A' for Active; 'I' for Inactive)
REMARK    1  A    between atoms: C1_4  and  C2_6 
REMARK    2  A    between atoms: C2_6  and  N3_7 
REMARK    3  A    between atoms: N3_7  and  C3_9 
REMARK    4  A    between atoms: C3_9  and  C4_10 
REMARK    5  A    between atoms: C4_10  and  C5_11 
REMARK    6  A    between atoms: C5_11  and  N4_12 
REMARK    7  A    between atoms: N4_12  and  C6_15 
REMARK    8  A    between atoms: C6_15  and  C7_16 
REMARK    9  A    between atoms: C8_18  and  C9_19 
REMARK   10  A    between atoms: C9_19  and  N5_20 
REMARK   11  A    between atoms: C10_24  and  O2_25 
REMARK   12  A    between atoms: C11_27  and  O3_28 
REMARK   13  A    between atoms: C12_30  and  N6_31 
ROOT
HETATM    1  C7  UNL     1      -1.760  -0.311  -0.361  1.00  0.00     0.180 C 
HETATM    2  O1  UNL     1      -2.421   0.909  -0.558  1.00  0.00    -0.372 OA
HETATM    3  C8  UNL     1      -3.733   0.805  -0.925  1.00  0.00     0.178 C 
HETATM    4  C10 UNL     1      -4.228  -0.600  -0.886  1.00  0.00     0.179 C 
HETATM    5  C11 UNL     1      -3.907  -1.325   0.402  1.00  0.00     0.182 C 
HETATM    6  C12 UNL     1      -2.413  -1.158   0.657  1.00  0.00     0.244 C 
ENDROOT
BRANCH   1   7
HETATM    7  C6  UNL     1      -0.365   0.082   0.011  1.00  0.00     0.266 C 
BRANCH   7   8
HETATM    8  N4  UNL     1       0.575  -0.954   0.271  1.00  0.00    -0.072 N 
ATOM      9  H42 UNL     1       0.510  -1.719  -0.400  1.00  0.00     0.277 HD
ATOM     10  H41 UNL     1       0.349  -1.486   1.111  1.00  0.00     0.277 HD
BRANCH   8  11
HETATM   11  C5  UNL     1       1.941  -0.351   0.324  1.00  0.00     0.237 C 
BRANCH  11  12
HETATM   12  C4  UNL     1       2.337  -0.021  -1.070  1.00  0.00     0.071 C 
BRANCH  12  13
HETATM   13  C3  UNL     1       3.573   0.729  -1.275  1.00  0.00     0.057 C 
BRANCH  13  14
HETATM   14  N3  UNL     1       4.828   0.328  -0.866  1.00  0.00    -0.396 N 
ATOM     15  H3  UNL     1       5.511   0.010  -1.553  1.00  0.00     0.159 HD
BRANCH  14  16
HETATM   16  C2  UNL     1       5.170   0.358   0.522  1.00  0.00     0.191 C 
BRANCH  16  17
HETATM   17  C1  UNL     1       6.668   0.123   0.599  1.00  0.00     0.104 C 
HETATM   18  N1  UNL     1       7.118  -0.846   1.282  1.00  0.00    -0.390 N 
ATOM     19  H12 UNL     1       8.124  -1.004   1.334  1.00  0.00     0.157 HD
ATOM     20  H11 UNL     1       6.511  -1.491   1.788  1.00  0.00     0.157 HD
HETATM   21  N2  UNL     1       7.513   1.021  -0.106  1.00  0.00    -0.086 NA
ENDBRANCH  16  17
ENDBRANCH  14  16
ENDBRANCH  13  14
ENDBRANCH  12  13
ENDBRANCH  11  12
ENDBRANCH   8  11
ENDBRANCH   7   8
ENDBRANCH   1   7
BRANCH   6  22
HETATM   22  N6  UNL     1      -1.855  -2.520   0.590  1.00  0.00    -0.070 N 
ATOM     23  H63 UNL     1      -1.923  -2.920  -0.346  1.00  0.00     0.274 HD
ATOM     24  H62 UNL     1      -0.839  -2.526   0.677  1.00  0.00     0.274 HD
ATOM     25  H61 UNL     1      -2.306  -3.105   1.293  1.00  0.00     0.274 HD
ENDBRANCH   6  22
BRANCH   3  26
HETATM   26  C9  UNL     1      -4.523   1.787  -0.111  1.00  0.00     0.264 C 
BRANCH  26  27
HETATM   27  N5  UNL     1      -5.930   1.814  -0.385  1.00  0.00    -0.077 N 
ATOM     28  H53 UNL     1      -6.091   1.973  -1.380  1.00  0.00     0.274 HD
ATOM     29  H52 UNL     1      -6.325   0.879  -0.287  1.00  0.00     0.274 HD
ATOM     30  H51 UNL     1      -6.467   2.482   0.168  1.00  0.00     0.274 HD
ENDBRANCH  26  27
ENDBRANCH   3  26
BRANCH   5  31
HETATM   31  O3  UNL     1      -4.685  -0.883   1.467  1.00  0.00    -0.391 OA
ATOM     32  H3  UNL     1      -4.483  -1.338   2.276  1.00  0.00     0.210 HD
ENDBRANCH   5  31
BRANCH   4  33
HETATM   33  O2  UNL     1      -5.540  -0.684  -1.268  1.00  0.00    -0.390 OA
ATOM     34  H2  UNL     1      -5.856  -1.580  -1.243  1.00  0.00     0.210 HD
ENDBRANCH   4  33
TORSDOF 13
