REMARK  3 active torsions:
REMARK  status: ('A' for Active; 'I' for Inactive)
REMARK    1  A    between atoms: N3_6  and  O1_7 
REMARK    2  A    between atoms: C6_11  and  C7_12 
REMARK    3  A    between atoms: N4_21  and  O2_22 
ROOT
HETATM    1  N1  UNL     1      -6.408  -0.833   0.421  1.00  0.00    -0.190 NA
HETATM    2  C1  UNL     1      -5.272  -0.621   0.331  1.00  0.00     0.123 C 
HETATM    3  C2  UNL     1      -3.874  -0.349   0.241  1.00  0.00     0.186 A 
HETATM    4  C3  UNL     1      -3.460   0.966   0.185  1.00  0.00     0.184 A 
HETATM    5  N2  UNL     1      -4.349   2.065   0.215  1.00  0.00    -0.077 NA
HETATM    6  N3  UNL     1      -2.161   1.204   0.101  1.00  0.00    -0.206 N 
HETATM    7  C4  UNL     1      -1.253   0.187   0.068  1.00  0.00     0.094 A 
HETATM    8  C5  UNL     1       0.084   0.463  -0.022  1.00  0.00     0.046 A 
HETATM    9  C6  UNL     1       1.022  -0.549  -0.058  1.00  0.00    -0.024 A 
HETATM   10  C13 UNL     1       0.636  -1.866  -0.005  1.00  0.00     0.014 A 
HETATM   11  C14 UNL     1      -0.708  -2.148   0.085  1.00  0.00     0.035 A 
HETATM   12  C15 UNL     1      -1.657  -1.129   0.122  1.00  0.00     0.093 A 
HETATM   13  N4  UNL     1      -2.976  -1.368   0.209  1.00  0.00    -0.209 N 
ENDROOT
BRANCH  13  14
HETATM   14  O2  UNL     1      -3.390  -2.686   0.263  1.00  0.00    -0.281 OA
ATOM     15  H2  UNL     1      -2.762  -3.399   0.241  1.00  0.00     0.245 HD
ENDBRANCH  13  14
BRANCH   6  16
HETATM   16  O1  UNL     1      -1.689   2.493   0.043  1.00  0.00    -0.281 OA
ATOM     17  H1  UNL     1      -0.756   2.664  -0.017  1.00  0.00     0.245 HD
ENDBRANCH   6  16
BRANCH   9  18
HETATM   18  C7  UNL     1       2.438  -0.155  -0.157  1.00  0.00    -0.026 A 
HETATM   19  C8  UNL     1       3.377  -0.930  -0.805  1.00  0.00     0.012 A 
HETATM   20  C9  UNL     1       4.705  -0.521  -0.875  1.00  0.00     0.001 A 
HETATM   21  C10 UNL     1       5.138   0.660  -0.309  1.00  0.00     0.000 A 
HETATM   22  C11 UNL     1       4.198   1.431   0.337  1.00  0.00     0.001 A 
HETATM   23  C12 UNL     1       2.877   1.025   0.408  1.00  0.00     0.012 A 
ENDBRANCH   9  18
TORSDOF 3
