REMARK  8 active torsions:
REMARK  status: ('A' for Active; 'I' for Inactive)
REMARK    1  A    between atoms: C1_2  and  C2_4 
REMARK    2  A    between atoms: C8_13  and  C9_14 
REMARK    3  A    between atoms: C9_14  and  O3_15 
REMARK    4  A    between atoms: C9_14  and  N2_17 
REMARK    5  A    between atoms: N2_17  and  C10_19 
REMARK    6  A    between atoms: C10_19  and  C11_20 
REMARK    7  A    between atoms: N3_25  and  S1_26 
REMARK    8  A    between atoms: S1_26  and  C15_29 
ROOT
HETATM    1  C2  UNL     1       0.529   3.370  -0.807  1.00  0.00     0.292 C 
HETATM    2  N1  UNL     1      -0.812   3.187  -1.276  1.00  0.00    -0.056 N 
ATOM      3  H11 UNL     1      -1.035   2.355  -1.822  1.00  0.00     0.278 HD
ATOM      4  H12 UNL     1      -1.163   3.794  -2.017  1.00  0.00     0.278 HD
HETATM    5  C3  UNL     1      -1.348   3.315   0.025  1.00  0.00     0.196 C 
HETATM    6  C4  UNL     1      -2.273   2.161   0.412  1.00  0.00     0.060 C 
HETATM    7  C5  UNL     1      -1.483   1.143   1.122  1.00  0.00     0.106 C 
HETATM    8  C6  UNL     1       0.009   1.632   1.049  1.00  0.00     0.049 C 
HETATM    9  C7  UNL     1      -0.001   3.010   0.584  1.00  0.00     0.066 C 
HETATM   10  C8  UNL     1       0.271   0.521   0.127  1.00  0.00     0.177 C 
HETATM   11  N3  UNL     1      -1.061   0.013   0.535  1.00  0.00    -0.288 N 
ENDROOT
BRANCH  10  12
HETATM   12  C9  UNL     1       1.299  -0.467   0.465  1.00  0.00     0.140 C 
BRANCH  12  13
HETATM   13  O3  UNL     1       1.398  -0.820   1.724  1.00  0.00    -0.348 OA
ATOM     14  H3  UNL     1       2.064  -1.461   1.943  1.00  0.00     0.219 HD
ENDBRANCH  12  13
BRANCH  12  15
HETATM   15  N2  UNL     1       2.141  -1.060  -0.432  1.00  0.00    -0.346 N 
ATOM     16  H2  UNL     1       1.946  -0.503  -1.264  1.00  0.00     0.167 HD
BRANCH  15  17
HETATM   17  C10 UNL     1       3.075  -1.920  -0.925  1.00  0.00     0.127 C 
BRANCH  17  18
HETATM   18  C11 UNL     1       4.409  -2.109  -0.363  1.00  0.00     0.090 A 
HETATM   19  C12 UNL     1       5.594  -1.727  -1.012  1.00  0.00     0.040 A 
HETATM   20  C13 UNL     1       6.621  -2.091  -0.169  1.00  0.00     0.027 A 
HETATM   21  C14 UNL     1       5.988  -2.663   0.920  1.00  0.00     0.142 A 
HETATM   22  O4  UNL     1       4.715  -2.662   0.793  1.00  0.00    -0.321 OA
ENDBRANCH  17  18
ENDBRANCH  15  17
ENDBRANCH  12  15
ENDBRANCH  10  12
BRANCH  11  23
HETATM   23  S1  UNL     1      -1.344  -1.566   0.756  1.00  0.00     0.265 S 
HETATM   24  O5  UNL     1      -1.130  -2.003   2.252  1.00  0.00    -0.200 OA
HETATM   25  O6  UNL     1      -0.445  -2.543   0.017  1.00  0.00    -0.200 OA
BRANCH  23  26
HETATM   26  C15 UNL     1      -2.998  -2.112   0.420  1.00  0.00     0.123 A 
HETATM   27  C16 UNL     1      -3.988  -2.020   1.361  1.00  0.00     0.059 A 
HETATM   28 CL1  UNL     1      -3.707  -1.287   2.918  1.00  0.00    -0.083 Cl
HETATM   29  C17 UNL     1      -5.242  -2.531   1.109  1.00  0.00     0.025 A 
HETATM   30  C18 UNL     1      -5.544  -3.152  -0.117  1.00  0.00     0.003 A 
HETATM   31  C19 UNL     1      -4.543  -3.246  -1.052  1.00  0.00     0.025 A 
HETATM   32  C20 UNL     1      -3.298  -2.720  -0.753  1.00  0.00     0.059 A 
HETATM   33 CL2  UNL     1      -2.040  -2.879  -2.001  1.00  0.00    -0.083 Cl
ENDBRANCH  23  26
ENDBRANCH  11  23
BRANCH   1  34
HETATM   34  C1  UNL     1       0.843   4.838  -0.754  1.00  0.00     0.205 C 
HETATM   35  O1  UNL     1       0.880   5.465   0.322  1.00  0.00    -0.646 OA
HETATM   36  O2  UNL     1       1.092   5.546  -1.950  1.00  0.00    -0.646 OA
ENDBRANCH   1  34
TORSDOF 8
