REMARK  4 active torsions:
REMARK  status: ('A' for Active; 'I' for Inactive)
REMARK    1  A    between atoms: O1_2  and  C2_3 
REMARK    2  A    between atoms: C4_5  and  O2_6 
REMARK    3  A    between atoms: C5_8  and  C6_9 
REMARK    4  A    between atoms: C9_12  and  O3_13 
ROOT
HETATM    1  C2  UNL     1       1.483   0.717  -0.349  1.00  0.00     0.133 C 
HETATM    2  C3  UNL     1       0.519   1.706  -0.936  1.00  0.00     0.065 C 
HETATM    3  C4  UNL     1      -0.918   1.281  -0.841  1.00  0.00     0.127 C 
HETATM    4  C5  UNL     1      -1.149   0.290   0.297  1.00  0.00     0.048 C 
HETATM    5  C9  UNL     1      -0.381  -0.957  -0.099  1.00  0.00     0.135 C 
HETATM    6  C10 UNL     1       1.050  -0.698  -0.420  1.00  0.00     0.005 C 
HETATM    7  C11 UNL     1       1.878  -1.502   0.593  1.00  0.00     0.020 C 
HETATM    8  C12 UNL     1       1.359  -1.314  -1.776  1.00  0.00     0.020 C 
ENDROOT
BRANCH   4   9
HETATM    9  C6  UNL     1      -2.620  -0.073   0.249  1.00  0.00    -0.006 A 
HETATM   10  C7  UNL     1      -3.181  -1.024   1.239  1.00  0.00     0.005 A 
HETATM   11  C8  UNL     1      -3.585   0.459   1.220  1.00  0.00     0.005 A 
ENDBRANCH   4   9
BRANCH   3  12
HETATM   12  O2  UNL     1      -1.391   0.711  -2.022  1.00  0.00    -0.395 OA
ATOM     13  H2  UNL     1      -2.300   0.442  -1.962  1.00  0.00     0.210 HD
ENDBRANCH   3  12
BRANCH   5  14
HETATM   14  O3  UNL     1      -0.554  -1.911   0.900  1.00  0.00    -0.394 OA
ATOM     15  H3  UNL     1      -0.073  -2.692   0.652  1.00  0.00     0.210 HD
ENDBRANCH   5  14
BRANCH   1  16
HETATM   16  O1  UNL     1       1.866   1.022   0.941  1.00  0.00    -0.390 OA
HETATM   17  C1  UNL     1       3.209   1.325   1.071  1.00  0.00     0.202 C 
ENDBRANCH   1  16
TORSDOF 4
