REMARK  4 active torsions:
REMARK  status: ('A' for Active; 'I' for Inactive)
REMARK    1  A    between atoms: C2_2  and  O1_3 
REMARK    2  A    between atoms: C2_2  and  C3_6 
REMARK    3  A    between atoms: C5_10  and  S1_11 
REMARK    4  A    between atoms: S1_11  and  C6_12 
ROOT
HETATM    1  C3  UNL     1      -3.194   0.110   0.292  1.00  0.00     0.076 A 
HETATM    2  C4  UNL     1      -2.456   1.256   0.417  1.00  0.00     0.119 A 
HETATM    3  N1  UNL     1      -1.164   0.891   0.395  1.00  0.00    -0.345 N 
ATOM      4  H1  UNL     1      -0.374   1.531   0.474  1.00  0.00     0.167 HD
HETATM    5  C5  UNL     1      -1.063  -0.466   0.251  1.00  0.00     0.144 A 
HETATM    6  N2  UNL     1      -2.324  -0.956   0.187  1.00  0.00    -0.336 N 
ATOM      7  H2  UNL     1      -2.584  -1.937   0.080  1.00  0.00     0.168 HD
ENDROOT
BRANCH   5   8
HETATM    8  S1  UNL     1       0.448  -1.451   0.272  1.00  0.00    -0.089 SA
BRANCH   8   9
HETATM    9  C6  UNL     1       1.845  -0.283   0.256  1.00  0.00     0.055 C 
HETATM   10  C7  UNL     1       2.125   0.191  -1.134  1.00  0.00     0.015 C 
HETATM   11  C8  UNL     1       3.620   0.056  -1.415  1.00  0.00     0.001 C 
HETATM   12  C9  UNL     1       4.444   0.792  -0.354  1.00  0.00     0.000 C 
HETATM   13  C10 UNL     1       3.976   0.523   1.045  1.00  0.00     0.001 C 
HETATM   14  C11 UNL     1       3.058  -0.701   1.018  1.00  0.00     0.015 C 
ENDBRANCH   8   9
ENDBRANCH   5   8
BRANCH   1  15
HETATM   15  C2  UNL     1      -4.634  -0.042   0.382  1.00  0.00     0.174 C 
HETATM   16  C1  UNL     1      -5.224  -0.387  -0.957  1.00  0.00     0.071 C 
HETATM   17 CL1  UNL     1      -5.312   1.422   1.132  1.00  0.00    -0.082 Cl
BRANCH  15  18
HETATM   18  O1  UNL     1      -4.835  -1.173   1.250  1.00  0.00    -0.370 OA
ATOM     19  H1  UNL     1      -4.462  -0.955   2.096  1.00  0.00     0.212 HD
ENDBRANCH  15  18
ENDBRANCH   1  15
TORSDOF 4
