REMARK  7 active torsions:
REMARK  status: ('A' for Active; 'I' for Inactive)
REMARK    1  A    between atoms: C2_2  and  O1_3 
REMARK    2  A    between atoms: O1_3  and  C3_4 
REMARK       I    between atoms: C3_4  and  N1_6 
REMARK    3  A    between atoms: N1_6  and  C4_7 
REMARK    4  A    between atoms: N1_6  and  C13_22 
REMARK    5  A    between atoms: C5_10  and  N3_11 
REMARK       I    between atoms: N3_11  and  C6_13 
REMARK    6  A    between atoms: C8_17  and  C9_18 
REMARK    7  A    between atoms: C13_22  and  C15_24 
ROOT
HETATM    1  C4  UNL     1       0.239  -0.211  -0.256  1.00  0.00     0.128 A 
HETATM    2  N2  UNL     1       0.955  -0.628  -1.296  1.00  0.00    -0.321 N 
ATOM      3  H2  UNL     1       0.497  -1.026  -2.116  1.00  0.00     0.169 HD
HETATM    4  C5  UNL     1       2.266  -0.517  -1.247  1.00  0.00     0.153 A 
HETATM    5  S1  UNL     1       2.566   0.184   0.271  1.00  0.00    -0.054 SA
HETATM    6  C8  UNL     1       0.925   0.309   0.796  1.00  0.00     0.035 A 
ENDROOT
BRANCH   1   7
HETATM    7  N1  UNL     1      -1.225  -0.334  -0.215  1.00  0.00    -0.274 N 
HETATM    8  C3  UNL     1      -2.065   0.769  -0.485  1.00  0.00     0.368 C 
HETATM    9  O2  UNL     1      -3.308   0.614  -0.397  1.00  0.00    -0.238 OA
BRANCH   8  10
HETATM   10  O1  UNL     1      -1.615   2.025  -0.846  1.00  0.00    -0.304 OA
BRANCH  10  11
HETATM   11  C2  UNL     1      -2.556   3.038  -1.087  1.00  0.00     0.176 C 
HETATM   12  C1  UNL     1      -3.506   2.670  -2.221  1.00  0.00     0.034 C 
ENDBRANCH  10  11
ENDBRANCH   8  10
BRANCH   7  13
HETATM   13  C13 UNL     1      -1.815  -1.620   0.082  1.00  0.00     0.092 C 
HETATM   14  C14 UNL     1      -1.475  -2.618  -1.012  1.00  0.00     0.033 C 
BRANCH  13  15
HETATM   15  C15 UNL     1      -1.502  -2.156   1.445  1.00  0.00     0.021 C 
HETATM   16  C16 UNL     1      -2.186  -3.499   1.597  1.00  0.00     0.007 C 
ENDBRANCH  13  15
ENDBRANCH   7  13
ENDBRANCH   1   7
BRANCH   6  17
HETATM   17  C9  UNL     1       0.450   0.901   2.103  1.00  0.00     0.030 C 
HETATM   18  C10 UNL     1       1.563   1.004   3.111  1.00  0.00     0.010 C 
HETATM   19  C11 UNL     1       1.683   2.475   2.924  1.00  0.00     0.001 C 
HETATM   20  C12 UNL     1       0.466   2.426   2.038  1.00  0.00     0.010 C 
ENDBRANCH   6  17
BRANCH   4  21
HETATM   21  N3  UNL     1       3.125  -0.875  -2.184  1.00  0.00    -0.307 N 
HETATM   22  C6  UNL     1       4.508  -0.698  -1.997  1.00  0.00     0.219 C 
HETATM   23  C7  UNL     1       5.436  -1.185  -3.028  1.00  0.00     0.117 C 
HETATM   24  O3  UNL     1       4.935  -0.137  -0.975  1.00  0.00    -0.274 OA
ATOM     25  H3  UNL     1       2.782  -1.284  -3.053  1.00  0.00     0.171 HD
ENDBRANCH   4  21
TORSDOF 7
