REMARK  4 active torsions:
REMARK  status: ('A' for Active; 'I' for Inactive)
REMARK    1  A    between atoms: O1_1  and  N1_3 
REMARK    2  A    between atoms: C1_5  and  O2_6 
REMARK    3  A    between atoms: C1_5  and  C2_8 
REMARK    4  A    between atoms: C3_9  and  C4_10 
ROOT
HETATM    1  C2  UNL     1       2.238   0.215  -0.162  1.00  0.00    -0.021 C 
HETATM    2  C3  UNL     1       1.069   0.033  -0.346  1.00  0.00    -0.093 C 
ENDROOT
BRANCH   1   3
HETATM    3  C1  UNL     1       3.637   0.414   0.074  1.00  0.00     0.217 C 
HETATM    4  N1  UNL     1       4.393  -0.458   0.642  1.00  0.00    -0.240 N 
ATOM      5  H1  UNL     1       3.985  -1.343   0.944  1.00  0.00     0.197 HD
BRANCH   4   6
HETATM    6  O1  UNL     1       5.724  -0.237   0.853  1.00  0.00    -0.287 OA
ATOM      7  H1  UNL     1       6.282  -0.881   1.273  1.00  0.00     0.244 HD
ENDBRANCH   4   6
BRANCH   3   8
HETATM    8  O2  UNL     1       4.210   1.606  -0.328  1.00  0.00    -0.338 OA
ATOM      9  H2  UNL     1       3.652   2.250  -0.748  1.00  0.00     0.220 HD
ENDBRANCH   3   8
ENDBRANCH   1   3
BRANCH   2  10
HETATM   10  C4  UNL     1      -0.346  -0.194  -0.553  1.00  0.00     0.065 C 
HETATM   11  C5  UNL     1      -1.060   1.123  -0.348  1.00  0.00     0.017 C 
HETATM   12  C6  UNL     1      -2.418   0.956   0.256  1.00  0.00     0.001 C 
HETATM   13  C7  UNL     1      -3.122  -0.298  -0.146  1.00  0.00     0.000 C 
HETATM   14  C8  UNL     1      -2.295  -1.540  -0.014  1.00  0.00     0.001 C 
HETATM   15  C9  UNL     1      -0.926  -1.155   0.493  1.00  0.00     0.017 C 
ENDBRANCH   2  10
TORSDOF 4
