REMARK  1 active torsions:
REMARK  status: ('A' for Active; 'I' for Inactive)
REMARK    1  A    between atoms: C9_12  and  O1_13 
ROOT
HETATM    1  N1  UNL     1       2.913   1.269   0.099  1.00  0.00    -0.403 N 
ATOM      2  H11 UNL     1       3.705   1.017  -0.492  1.00  0.00     0.155 HD
ATOM      3  H12 UNL     1       2.977   2.192   0.528  1.00  0.00     0.155 HD
HETATM    4  C1  UNL     1       1.947   0.479   0.266  1.00  0.00     0.009 C 
HETATM    5  C2  UNL     1       0.788   0.847   1.131  1.00  0.00     0.059 C 
HETATM    6  C3  UNL     1      -0.389   1.003   0.198  1.00  0.00    -0.005 C 
HETATM    7  C4  UNL     1      -1.680   0.857   0.950  1.00  0.00     0.005 C 
HETATM    8  C5  UNL     1      -2.423  -0.276   0.314  1.00  0.00     0.001 C 
HETATM    9  C6  UNL     1      -1.848  -0.349  -1.064  1.00  0.00     0.005 C 
HETATM   10  C7  UNL     1      -0.391   0.095  -0.957  1.00  0.00    -0.007 C 
HETATM   11  C8  UNL     1       0.469  -1.099  -0.900  1.00  0.00     0.042 C 
HETATM   12  C9  UNL     1       1.853  -0.875  -0.363  1.00  0.00     0.163 C 
ENDROOT
BRANCH  12  13
HETATM   13  O1  UNL     1       2.070  -1.798   0.677  1.00  0.00    -0.390 OA
ATOM     14  H1  UNL     1       2.010  -2.658   0.278  1.00  0.00     0.210 HD
ENDBRANCH  12  13
TORSDOF 1
