REMARK  11 active torsions:
REMARK  status: ('A' for Active; 'I' for Inactive)
REMARK    1  A    between atoms: C2_2  and  C3_3 
REMARK    2  A    between atoms: C3_3  and  C4_4 
REMARK    3  A    between atoms: C4_4  and  N1_5 
REMARK    4  A    between atoms: N1_5  and  C5_6 
REMARK    5  A    between atoms: N1_5  and  C8_9 
REMARK    6  A    between atoms: C5_6  and  C6_7 
REMARK    7  A    between atoms: C17_19  and  O2_20 
REMARK    8  A    between atoms: C23_27  and  C24_28 
REMARK    9  A    between atoms: C24_28  and  O3_31 
REMARK   10  A    between atoms: C29_35  and  N2_37 
REMARK   11  A    between atoms: N2_37  and  S1_39 
ROOT
HETATM    1  C8  UNL     1       2.666  -0.029   0.572  1.00  0.00     0.095 C 
HETATM    2  C9  UNL     1       2.974   1.403   0.437  1.00  0.00     0.104 C 
HETATM    3  C10 UNL     1       1.779   2.092  -0.183  1.00  0.00     0.140 C 
HETATM    4  O1  UNL     1       2.019   2.728  -1.156  1.00  0.00    -0.297 OA
HETATM    5  C11 UNL     1       0.497   1.873   0.514  1.00  0.00     0.046 C 
HETATM    6  C12 UNL     1       0.690   2.444   1.927  1.00  0.00     0.026 C 
HETATM    7  C13 UNL     1       0.228   0.404   0.581  1.00  0.00     0.010 C 
HETATM    8  C14 UNL     1       1.375  -0.267   1.306  1.00  0.00     0.032 C 
HETATM    9  C15 UNL     1      -1.077   0.120   1.217  1.00  0.00    -0.002 C 
HETATM   10  C16 UNL     1      -1.433  -1.289   1.503  1.00  0.00     0.038 C 
HETATM   11  C17 UNL     1      -1.612  -2.099   0.239  1.00  0.00     0.127 C 
HETATM   12  C18 UNL     1      -2.492  -1.504  -0.802  1.00  0.00    -0.008 C 
HETATM   13  C19 UNL     1      -1.760  -1.882  -2.146  1.00  0.00     0.019 C 
HETATM   14  C20 UNL     1      -2.490  -0.019  -0.839  1.00  0.00     0.001 C 
HETATM   15  C21 UNL     1      -3.798   0.297  -1.487  1.00  0.00     0.006 C 
HETATM   16  C22 UNL     1      -4.332  -1.023  -2.039  1.00  0.00     0.009 C 
HETATM   17  C23 UNL     1      -3.831  -2.060  -1.014  1.00  0.00     0.030 C 
HETATM   18  C27 UNL     1      -2.191   0.709   0.419  1.00  0.00    -0.003 C 
HETATM   19  C28 UNL     1      -1.988   2.160   0.285  1.00  0.00     0.038 C 
HETATM   20  C29 UNL     1      -0.656   2.682  -0.079  1.00  0.00     0.051 C 
HETATM   21  C30 UNL     1      -0.543   2.785  -1.603  1.00  0.00     0.040 C 
ENDROOT
BRANCH   1  22
HETATM   22  N1  UNL     1       3.731  -0.898   0.997  1.00  0.00    -0.369 N 
BRANCH  22  23
HETATM   23  C4  UNL     1       4.108  -1.907   0.140  1.00  0.00     0.063 C 
BRANCH  23  24
HETATM   24  C3  UNL     1       5.241  -1.831  -0.785  1.00  0.00     0.044 C 
BRANCH  24  25
HETATM   25  C2  UNL     1       5.215  -0.794  -1.861  1.00  0.00     0.001 C 
HETATM   26  C1  UNL     1       6.486  -0.915  -2.726  1.00  0.00     0.005 C 
ENDBRANCH  24  25
ENDBRANCH  23  24
ENDBRANCH  22  23
BRANCH  22  27
HETATM   27  C5  UNL     1       4.481  -0.452   2.073  1.00  0.00     0.063 C 
BRANCH  27  28
HETATM   28  C6  UNL     1       4.630  -1.378   3.225  1.00  0.00     0.040 C 
HETATM   29  C7  UNL     1       5.335  -2.671   3.001  1.00  0.00     0.010 C 
ENDBRANCH  27  28
ENDBRANCH  22  27
ENDBRANCH   1  22
BRANCH  20  30
HETATM   30  N2  UNL     1      -0.500   4.005   0.426  1.00  0.00    -0.309 N 
ATOM     31  H2  UNL     1       0.334   4.231   0.968  1.00  0.00     0.173 HD
BRANCH  30  32
HETATM   32  S1  UNL     1      -1.630   5.189   0.162  1.00  0.00     0.223 S 
HETATM   33  C31 UNL     1      -1.934   5.644  -1.527  1.00  0.00     0.185 C 
HETATM   34  O4  UNL     1      -1.067   6.469   0.795  1.00  0.00    -0.206 OA
HETATM   35  O5  UNL     1      -2.962   5.017   0.813  1.00  0.00    -0.206 OA
ENDBRANCH  30  32
ENDBRANCH  20  30
BRANCH  11  36
HETATM   36  O2  UNL     1      -1.845  -3.436   0.487  1.00  0.00    -0.395 OA
ATOM     37  H2  UNL     1      -1.957  -3.945  -0.307  1.00  0.00     0.210 HD
ENDBRANCH  11  36
BRANCH  17  38
HETATM   38  C24 UNL     1      -4.876  -2.312  -0.075  1.00  0.00     0.055 C 
HETATM   39  C25 UNL     1      -6.051  -2.958  -0.868  1.00  0.00     0.045 C 
HETATM   40  C26 UNL     1      -5.642  -1.169   0.566  1.00  0.00     0.045 C 
BRANCH  38  41
HETATM   41  O3  UNL     1      -4.659  -3.229   0.931  1.00  0.00    -0.390 OA
ATOM     42  H3  UNL     1      -5.355  -3.397   1.556  1.00  0.00     0.210 HD
ENDBRANCH  38  41
ENDBRANCH  17  38
TORSDOF 11
