REMARK  12 active torsions:
REMARK  status: ('A' for Active; 'I' for Inactive)
REMARK    1  A    between atoms: N1_1  and  C1_5 
REMARK    2  A    between atoms: C1_5  and  C2_6 
REMARK    3  A    between atoms: C2_6  and  N2_7 
REMARK    4  A    between atoms: N2_7  and  C3_9 
REMARK    5  A    between atoms: C3_9  and  C4_10 
REMARK       I    between atoms: C4_10  and  N3_12 
REMARK    6  A    between atoms: N3_12  and  C5_14 
REMARK    7  A    between atoms: C6_18  and  N5_19 
REMARK       I    between atoms: N5_19  and  C7_21 
REMARK    8  A    between atoms: C7_21  and  C8_23 
REMARK    9  A    between atoms: C8_23  and  N6_24 
REMARK   10  A    between atoms: N6_24  and  C9_26 
REMARK   11  A    between atoms: C9_26  and  C10_27 
REMARK   12  A    between atoms: C10_27  and  N7_28 
REMARK       I    between atoms: N7_28  and  C11_30 
ROOT
HETATM    1  C5  UNL     1       1.525   1.190   1.817  1.00  0.00     0.339 A 
HETATM    2  N4  UNL     1       0.780   2.393   2.020  1.00  0.00    -0.026 N 
ATOM      3  H41 UNL     1       0.846   3.339   1.645  1.00  0.00     0.282 HD
ATOM      4  H42 UNL     1       0.690   3.048   2.796  1.00  0.00     0.282 HD
HETATM    5  C6  UNL     1       0.065   1.206   1.624  1.00  0.00     0.339 A 
ENDROOT
BRANCH   5   6
HETATM    6  N5  UNL     1      -0.508   1.149   0.298  1.00  0.00    -0.329 N 
HETATM    7  C7  UNL     1      -1.697   0.405   0.088  1.00  0.00     0.236 C 
HETATM    8  O2  UNL     1      -2.207  -0.180   1.079  1.00  0.00    -0.272 OA
ATOM      9  H5  UNL     1      -0.062   1.638  -0.478  1.00  0.00     0.164 HD
BRANCH   7  10
HETATM   10  C8  UNL     1      -2.280   0.348  -1.269  1.00  0.00     0.217 C 
BRANCH  10  11
HETATM   11  N6  UNL     1      -3.471  -0.433  -1.340  1.00  0.00    -0.412 N 
ATOM     12  H6  UNL     1      -3.505  -1.322  -1.839  1.00  0.00     0.153 HD
BRANCH  11  13
HETATM   13  C9  UNL     1      -4.614   0.102  -0.671  1.00  0.00     0.134 C 
BRANCH  13  14
HETATM   14  C10 UNL     1      -5.753  -0.907  -0.868  1.00  0.00     0.143 C 
BRANCH  14  15
HETATM   15  N7  UNL     1      -6.962  -0.443  -0.219  1.00  0.00    -0.344 N 
HETATM   16  C11 UNL     1      -8.116  -1.247  -0.292  1.00  0.00     0.328 C 
HETATM   17  N8  UNL     1      -9.302  -0.826   0.325  1.00  0.00    -0.040 NA
HETATM   18  O3  UNL     1      -8.083  -2.333  -0.906  1.00  0.00    -0.251 OA
ATOM     19  H7  UNL     1      -6.977   0.447   0.280  1.00  0.00     0.163 HD
ENDBRANCH  14  15
ENDBRANCH  13  14
ENDBRANCH  11  13
ENDBRANCH  10  11
ENDBRANCH   7  10
ENDBRANCH   5   6
BRANCH   1  20
HETATM   20  N3  UNL     1       2.310   1.033   0.601  1.00  0.00    -0.329 N 
HETATM   21  C4  UNL     1       3.508   0.282   0.654  1.00  0.00     0.236 C 
HETATM   22  O1  UNL     1       3.860  -0.226   1.739  1.00  0.00    -0.272 OA
ATOM     23  H3  UNL     1       2.002   1.457  -0.274  1.00  0.00     0.164 HD
BRANCH  21  24
HETATM   24  C3  UNL     1       4.310   0.110  -0.551  1.00  0.00     0.217 C 
BRANCH  24  25
HETATM   25  N2  UNL     1       5.502  -0.656  -0.426  1.00  0.00    -0.412 N 
ATOM     26  H2  UNL     1       5.598  -1.572  -0.864  1.00  0.00     0.153 HD
BRANCH  25  27
HETATM   27  C2  UNL     1       6.555  -0.079   0.342  1.00  0.00     0.141 C 
BRANCH  27  28
HETATM   28  C1  UNL     1       7.725  -1.049   0.340  1.00  0.00     0.248 C 
BRANCH  28  29
HETATM   29  N1  UNL     1       8.224  -1.326  -0.972  1.00  0.00    -0.078 N 
ATOM     30  H13 UNL     1       7.477  -1.657  -1.582  1.00  0.00     0.274 HD
ATOM     31  H12 UNL     1       8.467  -0.463  -1.458  1.00  0.00     0.274 HD
ATOM     32  H11 UNL     1       9.009  -1.977  -0.973  1.00  0.00     0.274 HD
ENDBRANCH  28  29
ENDBRANCH  27  28
ENDBRANCH  25  27
ENDBRANCH  24  25
ENDBRANCH  21  24
ENDBRANCH   1  20
TORSDOF 12
