REMARK  12 active torsions:
REMARK  status: ('A' for Active; 'I' for Inactive)
REMARK       I    between atoms: C1_4  and  N3_6 
REMARK    1  A    between atoms: N3_6  and  N4_8 
REMARK    2  A    between atoms: N4_8  and  C2_9 
REMARK    3  A    between atoms: C2_9  and  C3_10 
REMARK    4  A    between atoms: C3_10  and  N5_11 
REMARK    5  A    between atoms: N5_11  and  C4_13 
REMARK    6  A    between atoms: C4_13  and  C5_14 
REMARK    7  A    between atoms: C6_16  and  C7_17 
REMARK    8  A    between atoms: C7_17  and  N6_18 
REMARK       I    between atoms: N6_18  and  C8_19 
REMARK    9  A    between atoms: C8_19  and  C9_21 
REMARK   10  A    between atoms: C9_21  and  N7_22 
REMARK   11  A    between atoms: N7_22  and  C10_24 
REMARK   12  A    between atoms: C11_26  and  N8_27 
ROOT
HETATM    1  C5  UNL     1      -0.365  -1.233   0.649  1.00  0.00     0.173 C 
HETATM    2  O1  UNL     1      -1.661  -1.597   0.466  1.00  0.00    -0.368 OA
HETATM    3  C6  UNL     1      -1.889  -0.295  -0.030  1.00  0.00     0.207 C 
HETATM    4  C11 UNL     1      -0.504  -0.287  -0.564  1.00  0.00     0.248 C 
ENDROOT
BRANCH   1   5
HETATM    5  C4  UNL     1       0.839  -2.122   0.282  1.00  0.00     0.147 C 
BRANCH   5   6
HETATM    6  N5  UNL     1       1.958  -1.193   0.554  1.00  0.00    -0.417 N 
ATOM      7  H5  UNL     1       1.807  -0.341   1.094  1.00  0.00     0.153 HD
BRANCH   6   8
HETATM    8  C3  UNL     1       3.242  -1.510   0.050  1.00  0.00     0.131 C 
BRANCH   8   9
HETATM    9  C2  UNL     1       4.080  -0.288   0.458  1.00  0.00     0.154 C 
BRANCH   9  10
HETATM   10  N4  UNL     1       5.458  -0.395   0.052  1.00  0.00    -0.137 NA
BRANCH  10  11
HETATM   11  N3  UNL     1       6.148   0.670   0.649  1.00  0.00    -0.278 N 
HETATM   12  C1  UNL     1       6.919   1.683   0.034  1.00  0.00     0.197 C 
HETATM   13  N1  UNL     1       6.426   2.771  -0.349  1.00  0.00    -0.373 N 
HETATM   14  N2  UNL     1       8.369   1.543  -0.032  1.00  0.00    -0.063 NA
ATOM     15  H12 UNL     1       6.982   3.502  -0.793  1.00  0.00     0.158 HD
ATOM     16  H11 UNL     1       5.412   2.869  -0.303  1.00  0.00     0.158 HD
ATOM     17  H3  UNL     1       6.085   0.721   1.666  1.00  0.00     0.185 HD
ENDBRANCH  10  11
ENDBRANCH   9  10
ENDBRANCH   8   9
ENDBRANCH   6   8
ENDBRANCH   5   6
ENDBRANCH   1   5
BRANCH   4  18
HETATM   18  N8  UNL     1      -0.259  -1.015  -1.756  1.00  0.00    -0.070 N 
ATOM     19  H83 UNL     1       0.642  -1.492  -1.739  1.00  0.00     0.274 HD
ATOM     20  H82 UNL     1      -0.857  -1.838  -1.837  1.00  0.00     0.274 HD
ATOM     21  H81 UNL     1      -0.351  -0.390  -2.557  1.00  0.00     0.274 HD
ENDBRANCH   4  18
BRANCH   3  22
HETATM   22  C7  UNL     1      -3.048   0.019  -0.866  1.00  0.00     0.193 C 
BRANCH  22  23
HETATM   23  N6  UNL     1      -4.251   0.077  -0.311  1.00  0.00    -0.384 NA
HETATM   24  C8  UNL     1      -5.523   0.124   0.283  1.00  0.00     0.308 C 
HETATM   25  O2  UNL     1      -5.886  -0.778   1.051  1.00  0.00    -0.255 OA
BRANCH  24  26
HETATM   26  C9  UNL     1      -6.343   1.349  -0.031  1.00  0.00     0.241 C 
BRANCH  26  27
HETATM   27  N7  UNL     1      -7.416   1.457   1.003  1.00  0.00    -0.358 N 
ATOM     28  H7  UNL     1      -7.455   2.268   1.621  1.00  0.00     0.162 HD
BRANCH  27  29
HETATM   29  C10 UNL     1      -8.336   0.471   1.114  1.00  0.00     0.348 C 
HETATM   30  O3  UNL     1      -8.523  -0.608   0.521  1.00  0.00    -0.284 OA
ENDBRANCH  27  29
ENDBRANCH  26  27
ENDBRANCH  24  26
ENDBRANCH  22  23
ENDBRANCH   3  22
TORSDOF 12
