REMARK  6 active torsions:
REMARK  status: ('A' for Active; 'I' for Inactive)
REMARK    1  A    between atoms: C2_3  and  N3_7 
REMARK    2  A    between atoms: N3_7  and  C3_9 
REMARK    3  A    between atoms: C4_10  and  N4_11 
REMARK    4  A    between atoms: C9_21  and  C10_22 
REMARK    5  A    between atoms: C11_28  and  N9_29 
REMARK    6  A    between atoms: N10_32  and  N11_33 
ROOT
HETATM    1  N1  UNL     1      -0.719   3.913   1.388  1.00  0.00    -0.188 NA
HETATM    2  C1  UNL     1      -1.231   3.487   0.437  1.00  0.00     0.136 C 
HETATM    3  C2  UNL     1      -1.881   2.972  -0.735  1.00  0.00     0.182 C 
HETATM    4  N2  UNL     1      -3.009   3.514  -1.058  1.00  0.00    -0.377 N 
ATOM      5  H21 UNL     1      -3.471   3.148  -1.891  1.00  0.00     0.158 HD
ATOM      6  H22 UNL     1      -3.422   4.271  -0.513  1.00  0.00     0.158 HD
ENDROOT
BRANCH   3   7
HETATM    7  N3  UNL     1      -1.305   1.916  -1.496  1.00  0.00    -0.326 N 
ATOM      8  H3  UNL     1      -1.745   1.621  -2.368  1.00  0.00     0.168 HD
BRANCH   7   9
HETATM    9  C3  UNL     1      -0.137   1.280  -1.054  1.00  0.00     0.149 A 
HETATM   10  C4  UNL     1      -0.212   0.172  -0.234  1.00  0.00     0.138 A 
HETATM   11  N6  UNL     1       0.948  -0.384   0.148  1.00  0.00    -0.323 N 
HETATM   12  C9  UNL     1       2.152   0.100  -0.239  1.00  0.00     0.164 A 
ATOM     13  H6  UNL     1       0.922  -1.204   0.754  1.00  0.00     0.169 HD
HETATM   14  N10 UNL     1       2.244   1.174  -1.035  1.00  0.00    -0.206 N 
HETATM   15  C12 UNL     1       1.110   1.772  -1.448  1.00  0.00     0.298 A 
HETATM   16  O2  UNL     1       1.213   2.773  -2.190  1.00  0.00    -0.263 OA
BRANCH  10  17
HETATM   17  N4  UNL     1      -1.488  -0.337   0.173  1.00  0.00    -0.362 N 
HETATM   18  C5  UNL     1      -2.440  -0.788  -0.826  1.00  0.00     0.152 C 
HETATM   19  C6  UNL     1      -3.216  -1.991  -0.395  1.00  0.00     0.252 C 
HETATM   20  N5  UNL     1      -2.720  -2.604   0.811  1.00  0.00    -0.072 N 
HETATM   21  C7  UNL     1      -2.603  -1.679   1.908  1.00  0.00     0.252 C 
ATOM     22  H52 UNL     1      -3.292  -3.407   1.072  1.00  0.00     0.277 HD
ATOM     23  H51 UNL     1      -1.834  -3.078   0.640  1.00  0.00     0.277 HD
HETATM   24  C8  UNL     1      -1.876  -0.423   1.563  1.00  0.00     0.152 C 
ENDBRANCH  10  17
BRANCH  12  25
HETATM   25  C10 UNL     1       3.383  -0.532   0.197  1.00  0.00     0.147 A 
HETATM   26  N7  UNL     1       4.612  -0.113  -0.142  1.00  0.00    -0.234 N 
HETATM   27  O1  UNL     1       5.481  -0.892   0.412  1.00  0.00    -0.155 OA
ATOM     28  H7  UNL     1       4.825   0.687  -0.738  1.00  0.00     0.197 HD
HETATM   29  N8  UNL     1       4.887  -1.813   1.107  1.00  0.00    -0.224 N 
HETATM   30  C11 UNL     1       3.559  -1.635   1.008  1.00  0.00     0.154 A 
ATOM     31  H8  UNL     1       5.351  -2.549   1.639  1.00  0.00     0.198 HD
BRANCH  30  32
HETATM   32  N9  UNL     1       2.584  -2.292   1.517  1.00  0.00    -0.382 N 
ATOM     33  H92 UNL     1       1.576  -2.157   1.442  1.00  0.00     0.157 HD
ATOM     34  H91 UNL     1       2.714  -3.107   2.116  1.00  0.00     0.157 HD
ENDBRANCH  30  32
ENDBRANCH  12  25
BRANCH  14  35
HETATM   35  N11 UNL     1       3.491   1.693  -1.448  1.00  0.00    -0.334 N 
ATOM     36 2H11 UNL     1       4.350   1.240  -1.135  1.00  0.00     0.177 HD
ATOM     37 1H11 UNL     1       3.561   2.511  -2.054  1.00  0.00     0.177 HD
ENDBRANCH  14  35
ENDBRANCH   7   9
ENDBRANCH   3   7
TORSDOF 6
