REMARK  8 active torsions:
REMARK  status: ('A' for Active; 'I' for Inactive)
REMARK    1  A    between atoms: O1_2  and  C2_3 
REMARK    2  A    between atoms: C4_5  and  C5_6 
REMARK       I    between atoms: C5_6  and  N1_8 
REMARK    3  A    between atoms: N1_8  and  C6_10 
REMARK    4  A    between atoms: C13_21  and  O3_22 
REMARK    5  A    between atoms: O3_22  and  C14_23 
REMARK    6  A    between atoms: C14_23  and  C15_24 
REMARK    7  A    between atoms: C20_29  and  O4_30 
REMARK    8  A    between atoms: O4_30  and  C21_31 
ROOT
HETATM    1  C2  UNL     1       0.878   2.013  -0.482  1.00  0.00     0.105 A 
HETATM    2  C3  UNL     1       1.911   1.109  -0.591  1.00  0.00     0.057 A 
HETATM    3  C4  UNL     1       1.701  -0.234  -0.796  1.00  0.00     0.037 A 
HETATM    4  C12 UNL     1       0.375  -0.673  -0.895  1.00  0.00     0.057 A 
HETATM    5  C13 UNL     1      -0.672   0.200  -0.790  1.00  0.00     0.105 A 
HETATM    6  C20 UNL     1      -0.441   1.584  -0.579  1.00  0.00     0.136 A 
ENDROOT
BRANCH   3   7
HETATM    7  C5  UNL     1       2.801  -1.194  -0.900  1.00  0.00     0.256 C 
HETATM    8  O2  UNL     1       2.553  -2.253  -1.490  1.00  0.00    -0.267 OA
HETATM    9  N1  UNL     1       4.049  -0.904  -0.353  1.00  0.00    -0.320 N 
ATOM     10  H1  UNL     1       4.130   0.001   0.111  1.00  0.00     0.169 HD
BRANCH   9  11
HETATM   11  C6  UNL     1       5.220  -1.701  -0.357  1.00  0.00     0.080 A 
HETATM   12  C7  UNL     1       5.322  -2.933  -0.932  1.00  0.00     0.078 A 
HETATM   13  C8  UNL     1       6.506  -3.676  -0.907  1.00  0.00     0.160 A 
HETATM   14  F1  UNL     1       6.544  -4.902  -1.502  1.00  0.00    -0.203 F 
HETATM   15  C9  UNL     1       7.611  -3.153  -0.283  1.00  0.00     0.196 A 
HETATM   16  F2  UNL     1       8.740  -3.907  -0.281  1.00  0.00    -0.199 F 
HETATM   17  C10 UNL     1       7.536  -1.918   0.303  1.00  0.00     0.198 A 
HETATM   18  F3  UNL     1       8.658  -1.449   0.908  1.00  0.00    -0.199 F 
HETATM   19  C11 UNL     1       6.362  -1.206   0.266  1.00  0.00     0.184 A 
HETATM   20  F4  UNL     1       6.328   0.018   0.861  1.00  0.00    -0.200 F 
ENDBRANCH   9  11
ENDBRANCH   3   7
BRANCH   1  21
HETATM   21  O1  UNL     1       1.150   3.366  -0.275  1.00  0.00    -0.353 OA
HETATM   22  C1  UNL     1       2.491   3.773  -0.182  1.00  0.00     0.210 C 
ENDBRANCH   1  21
BRANCH   5  23
HETATM   23  O3  UNL     1      -1.962  -0.253  -0.887  1.00  0.00    -0.348 OA
BRANCH  23  24
HETATM   24  C14 UNL     1      -2.502  -1.489  -1.054  1.00  0.00     0.180 C 
BRANCH  24  25
HETATM   25  C15 UNL     1      -2.291  -2.517   0.002  1.00  0.00     0.010 C 
HETATM   26  C16 UNL     1      -3.002  -3.807  -0.440  1.00  0.00     0.007 C 
HETATM   27  C17 UNL     1      -3.401  -4.504   0.835  1.00  0.00     0.000 C 
HETATM   28  C18 UNL     1      -3.755  -3.369   1.750  1.00  0.00     0.000 C 
HETATM   29  C19 UNL     1      -2.976  -2.166   1.309  1.00  0.00     0.007 C 
ENDBRANCH  24  25
ENDBRANCH  23  24
ENDBRANCH   5  23
BRANCH   6  30
HETATM   30  O4  UNL     1      -1.417   2.392  -0.483  1.00  0.00    -0.340 OA
BRANCH  30  31
HETATM   31  C21 UNL     1      -2.423   3.228  -0.409  1.00  0.00     0.133 C 
HETATM   32  C22 UNL     1      -3.714   2.706   0.179  1.00  0.00     0.058 C 
HETATM   33  C23 UNL     1      -4.332   3.574   1.209  1.00  0.00     0.170 C 
HETATM   34  O5  UNL     1      -4.201   4.917   1.082  1.00  0.00    -0.391 OA
HETATM   35  C24 UNL     1      -3.386   5.384   0.089  1.00  0.00     0.170 C 
HETATM   36  C25 UNL     1      -2.079   4.596   0.233  1.00  0.00     0.058 C 
ENDBRANCH  30  31
ENDBRANCH   6  30
TORSDOF 8
