REMARK  10 active torsions:
REMARK  status: ('A' for Active; 'I' for Inactive)
REMARK    1  A    between atoms: C2_3  and  C3_4 
REMARK       I    between atoms: C3_4  and  N2_6 
REMARK    2  A    between atoms: N2_6  and  C4_8 
REMARK    3  A    between atoms: C4_8  and  C5_9 
REMARK    4  A    between atoms: C6_11  and  O3_12 
REMARK    5  A    between atoms: O3_12  and  C7_13 
REMARK    6  A    between atoms: C12_18  and  N3_19 
REMARK       I    between atoms: N3_19  and  C13_21 
REMARK    7  A    between atoms: C13_21  and  C14_23 
REMARK    8  A    between atoms: C17_30  and  O5_31 
REMARK    9  A    between atoms: C18_33  and  O6_34 
REMARK   10  A    between atoms: C19_36  and  O7_37 
ROOT
HETATM    1  N1  UNL     1       4.317   0.289  -6.725  1.00  0.00    -0.197 NA
HETATM    2  C1  UNL     1       4.502   0.673  -5.646  1.00  0.00     0.068 C 
HETATM    3  C2  UNL     1       4.724   1.179  -4.288  1.00  0.00     0.226 C 
ENDROOT
BRANCH   3   4
HETATM    4  C3  UNL     1       3.480   0.927  -3.473  1.00  0.00     0.230 C 
HETATM    5  O1  UNL     1       2.487   0.372  -3.979  1.00  0.00    -0.273 OA
HETATM    6  N2  UNL     1       3.464   1.337  -2.120  1.00  0.00    -0.358 N 
ATOM      7  H2  UNL     1       4.296   1.790  -1.741  1.00  0.00     0.162 HD
BRANCH   6   8
HETATM    8  C4  UNL     1       2.350   1.150  -1.263  1.00  0.00     0.157 C 
BRANCH   8   9
HETATM    9  C5  UNL     1       1.899  -0.249  -1.019  1.00  0.00     0.173 C 
HETATM   10  O2  UNL     1       0.824  -0.195  -0.176  1.00  0.00    -0.349 OA
HETATM   11  C6  UNL     1       0.993  -0.495   1.132  1.00  0.00     0.292 C 
HETATM   12  C17 UNL     1       2.378  -0.314   1.695  1.00  0.00     0.204 C 
HETATM   13  C18 UNL     1       3.432  -0.937   0.846  1.00  0.00     0.183 C 
HETATM   14  C19 UNL     1       2.969  -1.192  -0.550  1.00  0.00     0.180 C 
BRANCH  11  15
HETATM   15  O3  UNL     1       0.039   0.195   1.868  1.00  0.00    -0.351 OA
BRANCH  15  16
HETATM   16  C7  UNL     1      -0.875  -0.564   2.522  1.00  0.00     0.147 C 
HETATM   17  C8  UNL     1      -0.969  -0.288   4.008  1.00  0.00     0.034 C 
HETATM   18  C9  UNL     1      -1.867  -1.374   4.576  1.00  0.00     0.003 C 
HETATM   19  C10 UNL     1      -3.271  -1.224   4.047  1.00  0.00     0.002 C 
HETATM   20  C11 UNL     1      -3.307  -1.163   2.539  1.00  0.00     0.028 C 
HETATM   21  C12 UNL     1      -2.247  -0.254   1.964  1.00  0.00     0.113 C 
BRANCH  21  22
HETATM   22  N3  UNL     1      -2.332  -0.334   0.535  1.00  0.00    -0.351 N 
HETATM   23  C13 UNL     1      -2.685   0.754  -0.297  1.00  0.00     0.259 C 
HETATM   24  O4  UNL     1      -2.942   1.856   0.230  1.00  0.00    -0.270 OA
ATOM     25  H3  UNL     1      -2.126  -1.229   0.092  1.00  0.00     0.163 HD
BRANCH  23  26
HETATM   26  C14 UNL     1      -2.748   0.587  -1.738  1.00  0.00     0.338 C 
HETATM   27  N4  UNL     1      -3.114   1.751  -2.475  1.00  0.00    -0.053 N 
HETATM   28  C15 UNL     1      -4.534   1.910  -2.487  1.00  0.00     0.244 C 
ATOM     29  H42 UNL     1      -2.642   2.585  -2.126  1.00  0.00     0.279 HD
ATOM     30  H41 UNL     1      -2.726   1.740  -3.418  1.00  0.00     0.279 HD
HETATM   31  C16 UNL     1      -5.132   0.637  -3.110  1.00  0.00     0.104 C 
HETATM   32  S1  UNL     1      -4.070  -0.590  -2.239  1.00  0.00    -0.125 SA
ENDBRANCH  23  26
ENDBRANCH  21  22
ENDBRANCH  15  16
ENDBRANCH  11  15
BRANCH  12  33
HETATM   33  O5  UNL     1       2.364  -0.952   2.960  1.00  0.00    -0.388 OA
ATOM     34  H5  UNL     1       3.238  -0.838   3.315  1.00  0.00     0.210 HD
ENDBRANCH  12  33
BRANCH  13  35
HETATM   35  O6  UNL     1       4.635  -0.205   0.870  1.00  0.00    -0.390 OA
ATOM     36  H6  UNL     1       5.307  -0.602   0.329  1.00  0.00     0.210 HD
ENDBRANCH  13  35
BRANCH  14  37
HETATM   37  O7  UNL     1       4.056  -1.268  -1.376  1.00  0.00    -0.390 OA
ATOM     38  H7  UNL     1       4.733  -1.865  -1.079  1.00  0.00     0.210 HD
ENDBRANCH  14  37
ENDBRANCH   8   9
ENDBRANCH   6   8
ENDBRANCH   3   4
TORSDOF 10
