REMARK  12 active torsions:
REMARK  status: ('A' for Active; 'I' for Inactive)
REMARK    1  A    between atoms: C3_3  and  N1_4 
REMARK    2  A    between atoms: N1_4  and  C4_7 
REMARK    3  A    between atoms: C5_8  and  O1_9 
REMARK    4  A    between atoms: C6_12  and  O3_13 
REMARK    5  A    between atoms: O3_13  and  C7_14 
REMARK    6  A    between atoms: C8_15  and  N2_16 
REMARK    7  A    between atoms: C10_21  and  N3_22 
REMARK    8  A    between atoms: C11_26  and  O4_27 
REMARK    9  A    between atoms: O4_27  and  C12_28 
REMARK   10  A    between atoms: C19_35  and  O5_36 
REMARK   11  A    between atoms: C20_38  and  N4_39 
REMARK   12  A    between atoms: C21_43  and  O6_44 
ROOT
HETATM    1  C1  UNL     1      -5.794  -0.113  -3.527  1.00  0.00     0.013 C 
HETATM    2  C2  UNL     1      -6.052  -0.881  -2.628  1.00  0.00    -0.090 C 
HETATM    3  C3  UNL     1      -6.344  -1.818  -1.518  1.00  0.00     0.325 C 
ENDROOT
BRANCH   3   4
HETATM    4  N1  UNL     1      -5.942  -1.245  -0.275  1.00  0.00    -0.054 N 
ATOM      5  H12 UNL     1      -6.406  -0.350  -0.121  1.00  0.00     0.278 HD
ATOM      6  H11 UNL     1      -6.328  -1.771   0.509  1.00  0.00     0.278 HD
BRANCH   4   7
HETATM    7  C4  UNL     1      -4.487  -1.108  -0.145  1.00  0.00     0.272 C 
HETATM    8  C5  UNL     1      -3.907  -2.475  -0.174  1.00  0.00     0.293 C 
HETATM    9  O2  UNL     1      -2.586  -2.548   0.252  1.00  0.00    -0.327 OA
HETATM   10  C6  UNL     1      -2.109  -1.268   0.615  1.00  0.00     0.296 C 
HETATM   11  C20 UNL     1      -2.957  -0.766   1.736  1.00  0.00     0.269 C 
HETATM   12  C21 UNL     1      -4.260  -0.292   1.070  1.00  0.00     0.191 C 
BRANCH   8  13
HETATM   13  O1  UNL     1      -4.740  -3.408   0.432  1.00  0.00    -0.369 OA
ATOM     14  H1  UNL     1      -4.369  -4.282   0.413  1.00  0.00     0.212 HD
ENDBRANCH   8  13
BRANCH  10  15
HETATM   15  O3  UNL     1      -0.762  -1.230   0.752  1.00  0.00    -0.349 OA
BRANCH  15  16
HETATM   16  C7  UNL     1      -0.086  -0.592  -0.292  1.00  0.00     0.186 C 
HETATM   17  C8  UNL     1       0.648  -1.720  -0.983  1.00  0.00     0.217 C 
HETATM   18  C9  UNL     1       1.836  -1.269  -1.767  1.00  0.00     0.071 C 
HETATM   19  C10 UNL     1       1.895   0.198  -1.998  1.00  0.00     0.217 C 
HETATM   20  C11 UNL     1       1.909   0.902  -0.675  1.00  0.00     0.183 C 
HETATM   21  C19 UNL     1       0.796   0.467   0.234  1.00  0.00     0.180 C 
BRANCH  17  22
HETATM   22  N2  UNL     1       1.023  -2.735  -0.019  1.00  0.00    -0.072 N 
ATOM     23  H23 UNL     1       1.562  -2.346   0.754  1.00  0.00     0.274 HD
ATOM     24  H22 UNL     1       0.220  -3.071   0.513  1.00  0.00     0.274 HD
ATOM     25  H21 UNL     1       1.518  -3.496  -0.485  1.00  0.00     0.274 HD
ENDBRANCH  17  22
BRANCH  19  26
HETATM   26  N3  UNL     1       0.815   0.603  -2.849  1.00  0.00    -0.072 N 
ATOM     27  H33 UNL     1       0.800   0.078  -3.724  1.00  0.00     0.274 HD
ATOM     28  H32 UNL     1      -0.091   0.309  -2.484  1.00  0.00     0.274 HD
ATOM     29  H31 UNL     1       0.855   1.610  -3.008  1.00  0.00     0.274 HD
ENDBRANCH  19  26
BRANCH  20  30
HETATM   30  O4  UNL     1       3.165   0.794  -0.070  1.00  0.00    -0.376 OA
BRANCH  30  31
HETATM   31  C12 UNL     1       3.833   2.020  -0.009  1.00  0.00     0.122 C 
HETATM   32  C13 UNL     1       3.987   2.425   1.437  1.00  0.00     0.032 C 
HETATM   33  C14 UNL     1       4.770   1.441   2.247  1.00  0.00     0.002 C 
HETATM   34  C15 UNL     1       6.177   1.363   1.671  1.00  0.00     0.000 C 
HETATM   35  C16 UNL     1       6.280   0.289   0.627  1.00  0.00     0.000 C 
HETATM   36  C17 UNL     1       5.874   0.733  -0.737  1.00  0.00     0.002 C 
HETATM   37  C18 UNL     1       5.110   2.029  -0.777  1.00  0.00     0.032 C 
ENDBRANCH  30  31
ENDBRANCH  20  30
BRANCH  21  38
HETATM   38  O5  UNL     1       0.091   1.655   0.540  1.00  0.00    -0.390 OA
ATOM     39  H5  UNL     1       0.659   2.337   0.879  1.00  0.00     0.210 HD
ENDBRANCH  21  38
ENDBRANCH  15  16
ENDBRANCH  10  15
BRANCH  11  40
HETATM   40  N4  UNL     1      -2.428   0.308   2.505  1.00  0.00    -0.068 N 
ATOM     41  H43 UNL     1      -1.507   0.053   2.860  1.00  0.00     0.275 HD
ATOM     42  H42 UNL     1      -2.183   1.082   1.888  1.00  0.00     0.275 HD
ATOM     43  H41 UNL     1      -3.008   0.651   3.271  1.00  0.00     0.275 HD
ENDBRANCH  11  40
BRANCH  12  44
HETATM   44  O6  UNL     1      -4.121   1.063   0.882  1.00  0.00    -0.386 OA
HETATM   45  C22 UNL     1      -4.961   1.834   1.668  1.00  0.00     0.202 C 
ENDBRANCH  12  44
ENDBRANCH   4   7
ENDBRANCH   3   4
TORSDOF 12
