REMARK  9 active torsions:
REMARK  status: ('A' for Active; 'I' for Inactive)
REMARK    1  A    between atoms: C2_2  and  N1_3 
REMARK       I    between atoms: N1_3  and  C3_5 
REMARK    2  A    between atoms: C3_5  and  C4_7 
REMARK    3  A    between atoms: C4_7  and  O2_10 
REMARK    4  A    between atoms: O2_10  and  C7_11 
REMARK       I    between atoms: C7_11  and  N2_13 
REMARK    5  A    between atoms: C10_16  and  C11_17 
REMARK    6  A    between atoms: C11_17  and  N3_18 
REMARK    7  A    between atoms: C14_21  and  N4_22 
REMARK    8  A    between atoms: N4_22  and  C15_25 
REMARK    9  A    between atoms: C15_25  and  C16_26 
ROOT
HETATM    1  C7  UNL     1      -2.251  -0.555  -0.115  1.00  0.00     0.364 C 
HETATM    2  O3  UNL     1      -2.173   0.313  -1.017  1.00  0.00    -0.238 OA
HETATM    3  N2  UNL     1      -1.061  -0.923   0.606  1.00  0.00    -0.327 N 
HETATM    4  C8  UNL     1      -1.024  -1.905   1.663  1.00  0.00     0.129 C 
HETATM    5  C9  UNL     1       0.379  -2.407   1.629  1.00  0.00     0.031 C 
HETATM    6  C10 UNL     1       1.216  -1.237   1.158  1.00  0.00     0.043 C 
HETATM    7  C18 UNL     1       0.250  -0.389   0.398  1.00  0.00     0.138 C 
ENDROOT
BRANCH   6   8
HETATM    8  C11 UNL     1       2.296  -1.785   0.283  1.00  0.00     0.064 C 
BRANCH   8   9
HETATM    9  N3  UNL     1       3.187  -0.843  -0.262  1.00  0.00    -0.391 N 
HETATM   10  C12 UNL     1       4.216  -1.356  -1.095  1.00  0.00     0.124 C 
HETATM   11  C13 UNL     1       5.478  -0.570  -0.728  1.00  0.00     0.054 C 
HETATM   12  C14 UNL     1       4.844   0.742  -0.268  1.00  0.00     0.205 C 
HETATM   13  C17 UNL     1       3.657   0.210   0.543  1.00  0.00     0.154 C 
BRANCH  12  14
HETATM   14  N4  UNL     1       5.728   1.524   0.549  1.00  0.00    -0.061 N 
ATOM     15  H42 UNL     1       5.271   2.337   0.963  1.00  0.00     0.278 HD
ATOM     16  H41 UNL     1       5.982   1.056   1.419  1.00  0.00     0.278 HD
BRANCH  14  17
HETATM   17  C15 UNL     1       6.881   1.876  -0.261  1.00  0.00     0.349 C 
BRANCH  17  18
HETATM   18  C16 UNL     1       7.871   2.719   0.552  1.00  0.00     0.411 C 
HETATM   19  F1  UNL     1       8.327   2.052   1.654  1.00  0.00    -0.169 F 
HETATM   20  F2  UNL     1       7.258   3.906   0.836  1.00  0.00    -0.169 F 
HETATM   21  F3  UNL     1       8.963   2.932  -0.277  1.00  0.00    -0.169 F 
ENDBRANCH  17  18
ENDBRANCH  14  17
ENDBRANCH  12  14
ENDBRANCH   8   9
ENDBRANCH   6   8
BRANCH   1  22
HETATM   22  O2  UNL     1      -3.465  -1.128   0.161  1.00  0.00    -0.283 OA
BRANCH  22  23
HETATM   23  C4  UNL     1      -4.638  -0.797  -0.507  1.00  0.00     0.145 C 
HETATM   24  C5  UNL     1      -5.821  -1.641  -0.010  1.00  0.00     0.057 C 
HETATM   25  C6  UNL     1      -4.456  -1.157  -1.973  1.00  0.00     0.057 C 
BRANCH  23  26
HETATM   26  C3  UNL     1      -5.065   0.608  -0.387  1.00  0.00     0.252 C 
HETATM   27  N1  UNL     1      -6.235   1.051  -1.069  1.00  0.00    -0.359 N 
ATOM     28  H1  UNL     1      -6.759   0.382  -1.633  1.00  0.00     0.162 HD
HETATM   29  O1  UNL     1      -4.429   1.451   0.305  1.00  0.00    -0.270 OA
BRANCH  27  30
HETATM   30  C2  UNL     1      -6.704   2.412  -0.989  1.00  0.00     0.118 C 
HETATM   31  C1  UNL     1      -7.043   2.861   0.405  1.00  0.00     0.026 C 
ENDBRANCH  27  30
ENDBRANCH  23  26
ENDBRANCH  22  23
ENDBRANCH   1  22
TORSDOF 9
