REMARK  5 active torsions:
REMARK  status: ('A' for Active; 'I' for Inactive)
REMARK    1  A    between atoms: C2_2  and  C12_23 
REMARK    2  A    between atoms: N1_3  and  N2_5 
REMARK       I    between atoms: N2_5  and  C3_7 
REMARK    3  A    between atoms: C3_7  and  C4_9 
REMARK    4  A    between atoms: C8_13  and  N3_14 
REMARK       I    between atoms: N3_14  and  C9_16 
REMARK    5  A    between atoms: C9_16  and  C10_18 
ROOT
HETATM    1  C4  UNL     1      -0.791   0.639  -0.091  1.00  0.00     0.035 A 
HETATM    2  C5  UNL     1      -0.779   1.578  -1.091  1.00  0.00     0.017 A 
HETATM    3  C6  UNL     1      -1.912   1.767  -1.880  1.00  0.00     0.003 A 
HETATM    4  C7  UNL     1      -3.021   0.998  -1.629  1.00  0.00     0.029 A 
HETATM    5  C8  UNL     1      -3.073   0.032  -0.621  1.00  0.00     0.035 A 
HETATM    6  C11 UNL     1      -1.955  -0.123   0.123  1.00  0.00     0.046 A 
ENDROOT
BRANCH   1   7
HETATM    7  C3  UNL     1       0.386   0.426   0.749  1.00  0.00     0.270 C 
HETATM    8  N2  UNL     1       1.558   1.187   0.639  1.00  0.00    -0.266 N 
ATOM      9  H2  UNL     1       1.618   1.933  -0.054  1.00  0.00     0.190 HD
HETATM   10  O1  UNL     1       0.341  -0.501   1.626  1.00  0.00    -0.266 OA
BRANCH   8  11
HETATM   11  N1  UNL     1       2.639   0.926   1.473  1.00  0.00    -0.305 N 
HETATM   12  C2  UNL     1       3.814   0.673   1.033  1.00  0.00     0.018 C 
HETATM   13  C1  UNL     1       4.906   0.406   1.989  1.00  0.00     0.066 C 
ATOM     14  H1  UNL     1       2.489   0.937   2.482  1.00  0.00     0.186 HD
BRANCH  12  15
HETATM   15  C12 UNL     1       4.060   0.650  -0.419  1.00  0.00     0.124 C 
HETATM   16  C13 UNL     1       4.557  -0.728  -0.801  1.00  0.00     0.033 C 
HETATM   17 CL4  UNL     1       5.297   1.826  -0.916  1.00  0.00    -0.119 Cl
ENDBRANCH  12  15
ENDBRANCH   8  11
ENDBRANCH   1   7
BRANCH   5  18
HETATM   18  N3  UNL     1      -4.256  -0.700  -0.452  1.00  0.00    -0.323 N 
HETATM   19  C9  UNL     1      -4.565  -1.674   0.495  1.00  0.00     0.277 C 
HETATM   20  O2  UNL     1      -3.767  -2.036   1.369  1.00  0.00    -0.268 OA
ATOM     21  H3  UNL     1      -4.998  -0.489  -1.119  1.00  0.00     0.169 HD
BRANCH  19  22
HETATM   22  C10 UNL     1      -5.905  -2.365   0.525  1.00  0.00     0.269 C 
HETATM   23 CL1  UNL     1      -6.191  -3.224  -1.015  1.00  0.00    -0.073 Cl
HETATM   24 CL2  UNL     1      -5.951  -3.579   1.816  1.00  0.00    -0.073 Cl
HETATM   25 CL3  UNL     1      -7.209  -1.199   0.827  1.00  0.00    -0.073 Cl
ENDBRANCH  19  22
ENDBRANCH   5  18
TORSDOF 5
