REMARK  9 active torsions:
REMARK  status: ('A' for Active; 'I' for Inactive)
REMARK    1  A    between atoms: C2_2  and  C3_3 
REMARK    2  A    between atoms: C3_3  and  C5_5 
REMARK    3  A    between atoms: C12_15  and  C13_16 
REMARK    4  A    between atoms: C13_16  and  N2_17 
REMARK    5  A    between atoms: C17_26  and  C18_27 
REMARK    6  A    between atoms: C18_27  and  C20_29 
REMARK    7  A    between atoms: C23_34  and  C24_35 
REMARK    8  A    between atoms: C24_35  and  C26_37 
REMARK    9  A    between atoms: C28_41  and  O6_42 
ROOT
HETATM    1  C5  UNL     1       1.912  -1.734   0.619  1.00  0.00     0.162 C 
HETATM    2  N1  UNL     1       1.294  -2.927  -0.014  1.00  0.00    -0.349 N 
ATOM      3  H1  UNL     1       1.617  -3.160  -0.953  1.00  0.00     0.163 HD
HETATM    4  C6  UNL     1       0.330  -3.757   0.528  1.00  0.00     0.219 C 
HETATM    5  O1  UNL     1       0.629  -5.008   0.616  1.00  0.00    -0.274 OA
HETATM    6  C7  UNL     1      -1.008  -3.389   1.021  1.00  0.00     0.115 C 
HETATM    7  C8  UNL     1      -2.057  -3.390  -0.105  1.00  0.00    -0.021 C 
HETATM    8  C9  UNL     1      -2.644  -4.822   0.037  1.00  0.00     0.019 C 
HETATM    9  C10 UNL     1      -1.378  -3.478  -1.434  1.00  0.00     0.019 C 
HETATM   10  C11 UNL     1      -3.046  -2.356   0.133  1.00  0.00    -0.010 C 
HETATM   11  C12 UNL     1      -3.445  -1.302  -0.789  1.00  0.00    -0.029 C 
HETATM   12  C14 UNL     1      -2.676   0.009  -0.709  1.00  0.00     0.158 C 
HETATM   13  C15 UNL     1      -2.001   0.350  -2.052  1.00  0.00     0.045 C 
HETATM   14  O2  UNL     1      -1.730   0.085   0.261  1.00  0.00    -0.310 OA
HETATM   15  C16 UNL     1      -1.393   0.886   1.285  1.00  0.00     0.289 C 
HETATM   16  O3  UNL     1      -1.319   0.298   2.434  1.00  0.00    -0.262 OA
HETATM   17  C17 UNL     1      -1.089   2.318   1.339  1.00  0.00     0.235 C 
HETATM   18  O4  UNL     1       0.126   2.711   0.875  1.00  0.00    -0.304 OA
HETATM   19  C22 UNL     1       1.430   2.697   1.101  1.00  0.00     0.283 C 
HETATM   20  O5  UNL     1       2.105   3.412   1.941  1.00  0.00    -0.263 OA
HETATM   21  C23 UNL     1       2.338   1.782   0.347  1.00  0.00     0.187 C 
HETATM   22  N3  UNL     1       1.718   0.698  -0.327  1.00  0.00    -0.359 N 
ATOM     23  H3  UNL     1       0.893   0.969  -0.862  1.00  0.00     0.162 HD
HETATM   24  C28 UNL     1       2.010  -0.665  -0.405  1.00  0.00     0.135 C 
ENDROOT
BRANCH  11  25
HETATM   25  C13 UNL     1      -3.703  -1.600  -2.222  1.00  0.00     0.266 C 
BRANCH  25  26
HETATM   26  N2  UNL     1      -4.787  -2.581  -2.403  1.00  0.00    -0.076 N 
ATOM     27  H23 UNL     1      -4.602  -3.435  -1.877  1.00  0.00     0.274 HD
ATOM     28  H22 UNL     1      -5.639  -2.280  -1.930  1.00  0.00     0.274 HD
ATOM     29  H21 UNL     1      -4.964  -2.786  -3.386  1.00  0.00     0.274 HD
ENDBRANCH  25  26
ENDBRANCH  11  25
BRANCH  17  30
HETATM   30  C18 UNL     1      -2.135   3.205   0.630  1.00  0.00     0.021 C 
HETATM   31  C19 UNL     1      -1.584   4.631   0.815  1.00  0.00     0.013 C 
BRANCH  30  32
HETATM   32  C20 UNL     1      -3.439   3.234   1.414  1.00  0.00     0.003 C 
HETATM   33  C21 UNL     1      -3.274   3.772   2.791  1.00  0.00     0.005 C 
ENDBRANCH  30  32
ENDBRANCH  17  30
BRANCH   1  34
HETATM   34  C3  UNL     1       3.249  -2.251   1.105  1.00  0.00     0.012 C 
HETATM   35  C4  UNL     1       3.919  -1.312   2.064  1.00  0.00     0.012 C 
BRANCH  34  36
HETATM   36  C2  UNL     1       4.146  -2.765   0.024  1.00  0.00     0.002 C 
HETATM   37  C1  UNL     1       5.330  -3.527   0.582  1.00  0.00     0.005 C 
ENDBRANCH  34  36
ENDBRANCH   1  34
BRANCH  24  38
HETATM   38  O6  UNL     1       2.439  -1.130  -1.541  1.00  0.00    -0.348 OA
ATOM     39  H6  UNL     1       2.502  -0.445  -2.197  1.00  0.00     0.219 HD
ENDBRANCH  24  38
BRANCH  21  40
HETATM   40  C24 UNL     1       3.089   2.691  -0.660  1.00  0.00     0.014 C 
HETATM   41  C25 UNL     1       3.859   3.727   0.072  1.00  0.00     0.012 C 
BRANCH  40  42
HETATM   42  C26 UNL     1       2.126   3.295  -1.643  1.00  0.00     0.002 C 
HETATM   43  C27 UNL     1       2.804   4.187  -2.643  1.00  0.00     0.005 C 
ENDBRANCH  40  42
ENDBRANCH  21  40
TORSDOF 9
