REMARK  7 active torsions:
REMARK  status: ('A' for Active; 'I' for Inactive)
REMARK    1  A    between atoms: C2_2  and  N1_3 
REMARK       I    between atoms: N1_3  and  C3_5 
REMARK    2  A    between atoms: C3_5  and  C4_7 
REMARK    3  A    between atoms: C6_9  and  N2_10 
REMARK    4  A    between atoms: N2_10  and  C7_12 
REMARK    5  A    between atoms: C13_18  and  C14_19 
REMARK       I    between atoms: N3_26  and  C18_27 
REMARK       I    between atoms: C18_27  and  N4_29 
REMARK    6  A    between atoms: N4_29  and  C19_31 
REMARK    7  A    between atoms: C19_31  and  C20_32 
ROOT
HETATM    1  C4  UNL     1      -2.059   0.390  -1.155  1.00  0.00     0.183 C 
HETATM    2  C5  UNL     1      -0.526   0.477  -1.025  1.00  0.00     0.061 C 
HETATM    3  C6  UNL     1      -0.258  -0.090   0.326  1.00  0.00     0.097 C 
HETATM    4  C17 UNL     1      -1.245  -1.248   0.349  1.00  0.00     0.153 C 
HETATM    5  N3  UNL     1      -2.409  -0.701  -0.310  1.00  0.00    -0.319 N 
HETATM    6  C18 UNL     1      -3.700  -1.257  -0.085  1.00  0.00     0.319 C 
HETATM    7  O2  UNL     1      -4.663  -0.740  -0.701  1.00  0.00    -0.247 OA
HETATM    8  N4  UNL     1      -3.963  -2.340   0.774  1.00  0.00    -0.337 N 
ATOM      9  H4  UNL     1      -3.188  -2.767   1.282  1.00  0.00     0.164 HD
ENDROOT
BRANCH   3  10
HETATM   10  N2  UNL     1       1.014  -0.597   0.520  1.00  0.00    -0.411 N 
ATOM     11  H2  UNL     1       1.106  -1.603   0.658  1.00  0.00     0.154 HD
BRANCH  10  12
HETATM   12  C7  UNL     1       2.193   0.175   0.541  1.00  0.00     0.078 C 
HETATM   13  C8  UNL     1       2.508   0.840  -0.726  1.00  0.00     0.034 C 
HETATM   14  C9  UNL     1       4.003   1.113  -0.908  1.00  0.00    -0.041 C 
HETATM   15  C10 UNL     1       4.209   1.933  -2.139  1.00  0.00     0.015 C 
HETATM   16  C11 UNL     1       4.532   1.731   0.344  1.00  0.00     0.010 C 
HETATM   17  C16 UNL     1       4.617  -0.274  -0.996  1.00  0.00     0.027 C 
HETATM   18  C12 UNL     1       5.326   0.637   1.032  1.00  0.00     0.019 C 
HETATM   19  C13 UNL     1       4.617  -0.609   0.484  1.00  0.00     0.060 C 
HETATM   20  C15 UNL     1       3.291  -0.686   1.116  1.00  0.00     0.043 C 
BRANCH  19  21
HETATM   21  C14 UNL     1       5.398  -1.866   0.775  1.00  0.00     0.395 C 
HETATM   22  F1  UNL     1       4.704  -2.923   0.256  1.00  0.00    -0.170 F 
HETATM   23  F2  UNL     1       5.440  -2.019   2.150  1.00  0.00    -0.170 F 
HETATM   24  F3  UNL     1       6.665  -1.808   0.217  1.00  0.00    -0.170 F 
ENDBRANCH  19  21
ENDBRANCH  10  12
ENDBRANCH   3  10
BRANCH   1  25
HETATM   25  C3  UNL     1      -2.572   1.706  -0.767  1.00  0.00     0.240 C 
HETATM   26  N1  UNL     1      -3.300   2.031   0.380  1.00  0.00    -0.360 N 
ATOM     27  H1  UNL     1      -3.521   1.295   1.050  1.00  0.00     0.162 HD
HETATM   28  O1  UNL     1      -2.313   2.657  -1.583  1.00  0.00    -0.271 OA
BRANCH  26  29
HETATM   29  C2  UNL     1      -3.744   3.363   0.643  1.00  0.00     0.118 C 
HETATM   30  C1  UNL     1      -2.551   4.283   0.723  1.00  0.00     0.026 C 
ENDBRANCH  26  29
ENDBRANCH   1  25
BRANCH   8  31
HETATM   31  C19 UNL     1      -5.290  -2.865   0.959  1.00  0.00     0.185 C 
BRANCH  31  32
HETATM   32  C20 UNL     1      -5.739  -3.719  -0.176  1.00  0.00     0.069 A 
HETATM   33  C21 UNL     1      -6.557  -3.304  -1.187  1.00  0.00     0.145 A 
HETATM   34  N5  UNL     1      -6.702  -4.393  -1.995  1.00  0.00    -0.251 N 
HETATM   35  O3  UNL     1      -6.028  -5.367  -1.503  1.00  0.00    -0.157 OA
ATOM     36  H5  UNL     1      -7.256  -4.427  -2.851  1.00  0.00     0.196 HD
HETATM   37  N6  UNL     1      -5.428  -5.013  -0.407  1.00  0.00    -0.243 N 
ATOM     38  H6  UNL     1      -4.832  -5.603   0.173  1.00  0.00     0.196 HD
ENDBRANCH  31  32
ENDBRANCH   8  31
TORSDOF 7
