REMARK  11 active torsions:
REMARK  status: ('A' for Active; 'I' for Inactive)
REMARK    1  A    between atoms: C3_3  and  O1_4 
REMARK    2  A    between atoms: C4_6  and  C5_7 
REMARK       I    between atoms: C5_7  and  N1_9 
REMARK    3  A    between atoms: N1_9  and  N2_11 
REMARK    4  A    between atoms: C6_14  and  N3_15 
REMARK    5  A    between atoms: N3_15  and  C7_17 
REMARK    6  A    between atoms: C8_22  and  C9_23 
REMARK    7  A    between atoms: C10_24  and  C11_25 
REMARK    8  A    between atoms: C10_24  and  C12_28 
REMARK    9  A    between atoms: C11_25  and  O3_26 
REMARK   10  A    between atoms: C12_28  and  O4_29 
REMARK   11  A    between atoms: N8_38  and  O6_39 
ROOT
HETATM    1  C1  UNL     1      -2.792  -3.390   0.755  1.00  0.00     0.017 C 
HETATM    2  C2  UNL     1      -3.317  -2.339   0.488  1.00  0.00    -0.053 C 
HETATM    3  C3  UNL     1      -3.979  -1.033   0.184  1.00  0.00     0.243 C 
HETATM    4  C4  UNL     1      -3.145   0.054   0.795  1.00  0.00     0.218 C 
HETATM    5  C6  UNL     1      -2.104   0.478  -0.151  1.00  0.00     0.117 C 
HETATM    6  N7  UNL     1      -2.198   0.299  -1.416  1.00  0.00    -0.339 N 
ATOM      7  H7  UNL     1      -1.431   0.621  -2.006  1.00  0.00     0.168 HD
HETATM    8  C14 UNL     1      -3.327  -0.332  -2.054  1.00  0.00     0.213 C 
HETATM    9  N8  UNL     1      -4.235  -0.977  -1.196  1.00  0.00    -0.207 N 
ENDROOT
BRANCH   3  10
HETATM   10  O1  UNL     1      -5.250  -1.033   0.825  1.00  0.00    -0.358 OA
ATOM     11  H1  UNL     1      -5.671  -0.203   0.632  1.00  0.00     0.213 HD
ENDBRANCH   3  10
BRANCH   4  12
HETATM   12  C5  UNL     1      -3.934   1.184   1.346  1.00  0.00     0.253 C 
HETATM   13  O2  UNL     1      -3.784   1.440   2.591  1.00  0.00    -0.271 OA
HETATM   14  N1  UNL     1      -4.820   1.991   0.643  1.00  0.00    -0.276 N 
ATOM     15  H1  UNL     1      -4.978   1.830  -0.352  1.00  0.00     0.189 HD
BRANCH  14  16
HETATM   16  N2  UNL     1      -5.498   3.029   1.305  1.00  0.00    -0.343 N 
ATOM     17  H22 UNL     1      -5.329   3.176   2.300  1.00  0.00     0.176 HD
ATOM     18  H21 UNL     1      -6.148   3.621   0.789  1.00  0.00     0.176 HD
ENDBRANCH  14  16
ENDBRANCH   4  12
BRANCH   9  19
HETATM   19  O6  UNL     1      -5.497  -0.720  -1.510  1.00  0.00    -0.283 OA
ATOM     20  H6  UNL     1      -5.670  -0.682  -2.443  1.00  0.00     0.245 HD
ENDBRANCH   9  19
BRANCH   5  21
HETATM   21  N3  UNL     1      -0.954   1.129   0.382  1.00  0.00    -0.178 N 
ATOM     22  H3  UNL     1      -1.090   2.021   0.858  1.00  0.00     0.185 HD
BRANCH  21  23
HETATM   23  C7  UNL     1       0.370   0.620   0.295  1.00  0.00     0.701 A 
HETATM   24  N4  UNL     1       1.414   1.308   0.831  1.00  0.00    -0.131 N 
HETATM   25  N5  UNL     1       2.649   0.861   0.755  1.00  0.00    -0.281 N 
ATOM     26  H4  UNL     1       1.235   2.194   1.304  1.00  0.00     0.205 HD
HETATM   27  C8  UNL     1       3.020  -0.278   0.165  1.00  0.00     0.117 A 
ATOM     28  H5  UNL     1       3.381   1.430   1.180  1.00  0.00     0.187 HD
HETATM   29  C13 UNL     1       1.940  -0.993  -0.392  1.00  0.00     0.287 A 
HETATM   30  O5  UNL     1       2.214  -2.082  -0.967  1.00  0.00    -0.265 OA
HETATM   31  N6  UNL     1       0.680  -0.538  -0.314  1.00  0.00    -0.153 N 
ATOM     32  H6  UNL     1      -0.069  -1.090  -0.731  1.00  0.00     0.187 HD
BRANCH  27  33
HETATM   33  C9  UNL     1       4.363  -0.787   0.060  1.00  0.00     0.044 C 
HETATM   34  C10 UNL     1       5.393  -0.097  -0.330  1.00  0.00    -0.031 C 
BRANCH  34  35
HETATM   35  C11 UNL     1       5.307   1.323  -0.722  1.00  0.00     0.200 C 
BRANCH  35  36
HETATM   36  O3  UNL     1       5.730   1.496  -2.056  1.00  0.00    -0.397 OA
ATOM     37  H3  UNL     1       5.675   2.410  -2.308  1.00  0.00     0.209 HD
ENDBRANCH  35  36
ENDBRANCH  34  35
BRANCH  34  38
HETATM   38  C12 UNL     1       6.756  -0.774  -0.392  1.00  0.00     0.200 C 
BRANCH  38  39
HETATM   39  O4  UNL     1       6.583  -2.080   0.012  1.00  0.00    -0.397 OA
ATOM     40  H4  UNL     1       7.433  -2.502  -0.027  1.00  0.00     0.209 HD
ENDBRANCH  38  39
ENDBRANCH  34  38
ENDBRANCH  27  33
ENDBRANCH  21  23
ENDBRANCH   5  21
TORSDOF 11
