REMARK  2 active torsions:
REMARK  status: ('A' for Active; 'I' for Inactive)
REMARK    1  A    between atoms: C9_9  and  C10_10 
REMARK    2  A    between atoms: C11_11  and  C12_12 
ROOT
HETATM    1  C10 UNL     1      -0.726   1.213  -1.155  1.00  0.00     0.024 A 
HETATM    2  C11 UNL     1       0.523   1.518  -0.681  1.00  0.00    -0.009 A 
HETATM    3  C21 UNL     1       1.063   2.752  -0.941  1.00  0.00     0.002 A 
HETATM    4  C22 UNL     1       2.308   3.138  -0.477  1.00  0.00     0.014 A 
HETATM    5  C23 UNL     1       2.845   4.380  -0.720  1.00  0.00     0.001 A 
HETATM    6  C24 UNL     1       2.122   5.316  -1.467  1.00  0.00     0.002 A 
HETATM    7  C25 UNL     1       0.879   4.958  -1.941  1.00  0.00     0.030 A 
HETATM    8  C26 UNL     1       0.380   3.716  -1.679  1.00  0.00     0.044 A 
HETATM    9  N2  UNL     1      -0.834   3.397  -2.131  1.00  0.00    -0.346 N 
ATOM     10  H2  UNL     1      -1.360   4.081  -2.675  1.00  0.00     0.167 HD
HETATM   11  C27 UNL     1      -1.380   2.187  -1.883  1.00  0.00     0.113 A 
HETATM   12  S1  UNL     1      -2.888   1.922  -2.499  1.00  0.00    -0.059 SA
ENDROOT
BRANCH   1  13
HETATM   13  C9  UNL     1      -1.392  -0.051  -0.960  1.00  0.00    -0.015 A 
HETATM   14  C8  UNL     1      -1.271  -1.106  -1.822  1.00  0.00     0.014 A 
HETATM   15  C7  UNL     1      -1.905  -2.301  -1.623  1.00  0.00     0.013 A 
HETATM   16  C6  UNL     1      -2.702  -2.454  -0.509  1.00  0.00    -0.025 A 
HETATM   17  C5  UNL     1      -3.334  -3.652  -0.315  1.00  0.00     0.012 A 
HETATM   18  C30 UNL     1      -2.868  -1.401   0.417  1.00  0.00    -0.013 A 
HETATM   19  C4  UNL     1      -4.122  -3.838   0.763  1.00  0.00     0.001 A 
HETATM   20  C3  UNL     1      -4.284  -2.824   1.659  1.00  0.00     0.007 A 
HETATM   21  C2  UNL     1      -3.660  -1.553   1.524  1.00  0.00    -0.050 A 
HETATM   22  C1  UNL     1      -3.880  -0.519   2.513  1.00  0.00     0.049 C 
HETATM   23  C28 UNL     1      -2.200  -0.191   0.178  1.00  0.00    -0.039 A 
HETATM   24  C29 UNL     1      -2.355   0.898   1.113  1.00  0.00     0.050 C 
ENDBRANCH   1  13
BRANCH   2  25
HETATM   25  C12 UNL     1       1.218   0.530   0.115  1.00  0.00     0.031 C 
HETATM   26  C13 UNL     1       2.217  -0.229  -0.262  1.00  0.00     0.045 A 
HETATM   27  C14 UNL     1       2.896  -0.309  -1.541  1.00  0.00     0.257 A 
HETATM   28  C20 UNL     1       2.887  -1.189   0.649  1.00  0.00     0.006 A 
HETATM   29  O1  UNL     1       2.628   0.341  -2.573  1.00  0.00    -0.267 OA
HETATM   30  N1  UNL     1       3.940  -1.292  -1.382  1.00  0.00    -0.322 N 
HETATM   31  C15 UNL     1       3.900  -1.795  -0.058  1.00  0.00     0.046 A 
ATOM     32  H1  UNL     1       4.600  -1.578  -2.105  1.00  0.00     0.169 HD
HETATM   33  C16 UNL     1       4.681  -2.751   0.600  1.00  0.00     0.030 A 
HETATM   34  C17 UNL     1       4.408  -3.045   1.918  1.00  0.00     0.002 A 
HETATM   35  C18 UNL     1       3.402  -2.446   2.626  1.00  0.00     0.001 A 
HETATM   36  C19 UNL     1       2.630  -1.502   1.976  1.00  0.00     0.015 A 
ENDBRANCH   2  25
TORSDOF 2
