REMARK  9 active torsions:
REMARK  status: ('A' for Active; 'I' for Inactive)
REMARK    1  A    between atoms: C2_2  and  N1_4 
REMARK    2  A    between atoms: C2_2  and  C4_8 
REMARK    3  A    between atoms: C6_10  and  C7_11 
REMARK    4  A    between atoms: C15_19  and  C16_20 
REMARK    5  A    between atoms: C16_20  and  C17_21 
REMARK    6  A    between atoms: C17_21  and  C18_22 
REMARK    7  A    between atoms: C18_22  and  C19_23 
REMARK    8  A    between atoms: C19_23  and  C20_24 
REMARK    9  A    between atoms: C25_29  and  O1_30 
ROOT
HETATM    1  C16 UNL     1      -1.379   0.222   0.037  1.00  0.00    -0.052 C 
ENDROOT
BRANCH   1   2
HETATM    2  C15 UNL     1      -2.759   0.623   0.070  1.00  0.00     0.027 A 
HETATM    3  C4  UNL     1      -3.764  -0.314   0.059  1.00  0.00    -0.004 A 
HETATM    4  C5  UNL     1      -5.068   0.127   0.093  1.00  0.00     0.023 A 
HETATM    5  C6  UNL     1      -5.431   1.454   0.137  1.00  0.00    -0.025 A 
HETATM    6  C13 UNL     1      -4.410   2.403   0.148  1.00  0.00     0.014 A 
HETATM    7  C14 UNL     1      -3.109   1.955   0.114  1.00  0.00     0.022 A 
BRANCH   3   8
HETATM    8  C2  UNL     1      -3.463  -1.786   0.012  1.00  0.00     0.145 C 
HETATM    9  C1  UNL     1      -2.776  -2.162  -1.279  1.00  0.00     0.051 C 
HETATM   10  C3  UNL     1      -4.764  -2.546   0.067  1.00  0.00     0.051 C 
BRANCH   8  11
HETATM   11  N1  UNL     1      -2.677  -2.184   1.164  1.00  0.00    -0.067 N 
ATOM     12  H13 UNL     1      -2.450  -3.178   1.137  1.00  0.00     0.275 HD
ATOM     13  H12 UNL     1      -1.731  -1.806   1.120  1.00  0.00     0.275 HD
ATOM     14  H11 UNL     1      -3.141  -1.930   2.036  1.00  0.00     0.275 HD
ENDBRANCH   8  11
ENDBRANCH   3   8
BRANCH   5  15
HETATM   15  C7  UNL     1      -6.815   1.913   0.172  1.00  0.00    -0.026 A 
HETATM   16  C8  UNL     1      -7.809   1.198  -0.459  1.00  0.00     0.012 A 
HETATM   17  C9  UNL     1      -9.134   1.635  -0.428  1.00  0.00     0.001 A 
HETATM   18  C10 UNL     1      -9.492   2.780   0.226  1.00  0.00     0.000 A 
HETATM   19  C11 UNL     1      -8.495   3.498   0.859  1.00  0.00     0.001 A 
HETATM   20  C12 UNL     1      -7.195   3.066   0.826  1.00  0.00     0.012 A 
ENDBRANCH   5  15
ENDBRANCH   1   2
BRANCH   1  21
HETATM   21  C17 UNL     1      -0.215  -0.103  -0.008  1.00  0.00    -0.009 C 
BRANCH  21  22
HETATM   22  C18 UNL     1       1.159  -0.470  -0.079  1.00  0.00    -0.009 C 
BRANCH  22  23
HETATM   23  C19 UNL     1       2.332  -0.766  -0.153  1.00  0.00    -0.053 C 
BRANCH  23  24
HETATM   24  C20 UNL     1       3.708  -1.131  -0.259  1.00  0.00     0.019 A 
HETATM   25  C21 UNL     1       4.122  -2.363  -0.718  1.00  0.00     0.021 A 
HETATM   26  C22 UNL     1       5.458  -2.690  -0.810  1.00  0.00     0.014 A 
HETATM   27  C23 UNL     1       6.415  -1.756  -0.431  1.00  0.00    -0.022 A 
HETATM   28  C24 UNL     1       7.753  -2.067  -0.517  1.00  0.00     0.049 A 
HETATM   29  C32 UNL     1       6.052  -0.508   0.035  1.00  0.00    -0.013 A 
HETATM   30  C25 UNL     1       8.730  -1.175  -0.154  1.00  0.00     0.077 A 
HETATM   31  C26 UNL     1       8.375   0.071   0.311  1.00  0.00     0.008 A 
HETATM   32  C27 UNL     1       9.344   0.990   0.685  1.00  0.00     0.015 A 
HETATM   33  C31 UNL     1       7.024   0.407   0.407  1.00  0.00    -0.012 A 
HETATM   34  C28 UNL     1       8.924   2.214   1.141  1.00  0.00     0.001 A 
HETATM   35  C29 UNL     1       7.601   2.555   1.239  1.00  0.00     0.001 A 
HETATM   36  C30 UNL     1       6.625   1.637   0.866  1.00  0.00     0.013 A 
HETATM   37  C33 UNL     1       4.695  -0.219   0.112  1.00  0.00     0.034 A 
BRANCH  30  38
HETATM   38  O1  UNL     1      10.082  -1.521  -0.253  1.00  0.00    -0.360 OA
ATOM     39  H1  UNL     1      10.759  -0.903  -0.002  1.00  0.00     0.217 HD
ENDBRANCH  30  38
ENDBRANCH  23  24
ENDBRANCH  22  23
ENDBRANCH  21  22
ENDBRANCH   1  21
TORSDOF 9
