REMARK  4 active torsions:
REMARK  status: ('A' for Active; 'I' for Inactive)
REMARK    1  A    between atoms: C2_2  and  C3_3 
REMARK    2  A    between atoms: C3_3  and  C4_4 
REMARK    3  A    between atoms: C8_9  and  C9_10 
REMARK    4  A    between atoms: C9_10  and  N1_11 
ROOT
HETATM    1  C3  UNL     1      -0.983  -0.164  -0.009  1.00  0.00     0.167 C 
HETATM    2  O1  UNL     1      -0.484  -0.405   1.285  1.00  0.00    -0.352 OA
HETATM    3  C7  UNL     1       0.652   0.440   1.335  1.00  0.00     0.205 C 
HETATM    4  C8  UNL     1       1.220   0.140  -0.016  1.00  0.00     0.166 C 
HETATM    5  O2  UNL     1       0.065   0.217  -0.802  1.00  0.00    -0.346 OA
ENDROOT
BRANCH   1   6
HETATM    6  C2  UNL     1      -1.568  -1.451  -0.566  1.00  0.00     0.064 C 
HETATM    7  C1  UNL     1      -0.527  -2.508  -0.757  1.00  0.00     0.010 C 
ENDBRANCH   1   6
BRANCH   1   8
HETATM    8  C4  UNL     1      -2.054   0.887   0.175  1.00  0.00     0.040 C 
HETATM    9  C5  UNL     1      -3.057   0.281   1.162  1.00  0.00     0.015 C 
HETATM   10  C6  UNL     1      -2.775   1.223  -1.090  1.00  0.00     0.015 C 
ENDBRANCH   1   8
BRANCH   4  11
HETATM   11  C9  UNL     1       2.243   1.115  -0.506  1.00  0.00     0.147 C 
BRANCH  11  12
HETATM   12  N1  UNL     1       3.456   1.105   0.244  1.00  0.00    -0.423 N 
HETATM   13  C10 UNL     1       4.260  -0.068   0.130  1.00  0.00     0.139 C 
ATOM     14  H1  UNL     1       3.733   1.893   0.829  1.00  0.00     0.152 HD
ENDBRANCH  11  12
ENDBRANCH   4  11
TORSDOF 4
