REMARK  0 active torsions:
REMARK  status: ('A' for Active; 'I' for Inactive)
ROOT
HETATM    1  C1  UNL     1       1.839   0.267   0.233  1.00  0.00     0.004 C 
HETATM    2  C2  UNL     1       0.651   0.035   1.184  1.00  0.00     0.029 C 
HETATM    3  C3  UNL     1      -0.177  -0.006  -0.032  1.00  0.00     0.061 C 
HETATM    4  C4  UNL     1       1.004  -0.533  -0.782  1.00  0.00     0.029 C 
HETATM    5  C5  UNL     1      -1.456  -0.673  -0.080  1.00  0.00     0.158 C 
HETATM    6  N1  UNL     1      -1.810   0.339  -1.090  1.00  0.00    -0.146 NA
HETATM    7  N2  UNL     1      -0.810   1.163  -0.507  1.00  0.00    -0.137 NA
ENDROOT
TORSDOF 0
