REMARK  1 active torsions:
REMARK  status: ('A' for Active; 'I' for Inactive)
REMARK    1  A    between atoms: C4_4  and  O1_5 
ROOT
HETATM    1  C1  UNL     1       2.399   1.207   0.924  1.00  0.00     0.018 C 
HETATM    2  C2  UNL     1       1.442   0.519  -0.062  1.00  0.00    -0.017 C 
HETATM    3  C3  UNL     1       1.262   1.410  -1.213  1.00  0.00     0.018 C 
HETATM    4  C4  UNL     1       2.145  -0.742  -0.504  1.00  0.00     0.126 C 
HETATM    5  C5  UNL     1       1.250  -1.567  -1.358  1.00  0.00     0.033 C 
HETATM    6  C6  UNL     1      -0.100  -1.814  -0.825  1.00  0.00     0.013 C 
HETATM    7  C7  UNL     1      -0.726  -0.772   0.000  1.00  0.00    -0.023 C 
HETATM    8  C8  UNL     1      -1.571  -1.458   1.074  1.00  0.00     0.017 C 
HETATM    9  C9  UNL     1      -1.700   0.033  -0.842  1.00  0.00     0.101 C 
HETATM   10  C10 UNL     1      -2.669  -0.916  -1.446  1.00  0.00     0.064 C 
HETATM   11  N1  UNL     1      -3.418  -1.650  -1.935  1.00  0.00    -0.197 NA
HETATM   12  C11 UNL     1      -2.515   0.996  -0.024  1.00  0.00     0.020 C 
HETATM   13  C12 UNL     1      -1.889   1.415   1.249  1.00  0.00     0.002 C 
HETATM   14  C13 UNL     1      -0.399   1.361   1.283  1.00  0.00     0.006 C 
HETATM   15  C14 UNL     1       0.225   0.147   0.713  1.00  0.00     0.005 C 
ENDROOT
BRANCH   4  16
HETATM   16  O1  UNL     1       2.685  -1.451   0.550  1.00  0.00    -0.395 OA
ATOM     17  H1  UNL     1       3.127  -2.244   0.272  1.00  0.00     0.210 HD
ENDBRANCH   4  16
TORSDOF 1
