REMARK  5 active torsions:
REMARK  status: ('A' for Active; 'I' for Inactive)
REMARK    1  A    between atoms: C2_2  and  C3_3 
REMARK    2  A    between atoms: C3_3  and  N1_4 
REMARK    3  A    between atoms: N1_4  and  C4_6 
REMARK    4  A    between atoms: C5_9  and  C6_10 
REMARK    5  A    between atoms: C6_10  and  N3_12 
ROOT
HETATM    1  C4  UNL     1      -0.974  -0.346  -0.091  1.00  0.00     0.144 A 
HETATM    2  N2  UNL     1       0.034   0.391   0.380  1.00  0.00    -0.334 N 
ATOM      3  H2  UNL     1      -0.028   0.826   1.301  1.00  0.00     0.168 HD
HETATM    4  C5  UNL     1       1.092   0.545  -0.351  1.00  0.00     0.079 A 
HETATM    5  C9  UNL     1       1.123  -0.060  -1.580  1.00  0.00     0.086 A 
HETATM    6  S2  UNL     1      -0.403  -0.836  -1.621  1.00  0.00    -0.064 SA
ENDROOT
BRANCH   1   7
HETATM    7  N1  UNL     1      -2.120  -0.634   0.461  1.00  0.00    -0.370 N 
ATOM      8  H1  UNL     1      -2.355  -0.282   1.389  1.00  0.00     0.161 HD
BRANCH   7   9
HETATM    9  C3  UNL     1      -3.061  -1.474  -0.282  1.00  0.00     0.121 C 
BRANCH   9  10
HETATM   10  C2  UNL     1      -4.487  -1.171   0.104  1.00  0.00     0.015 C 
HETATM   11  C1  UNL     1      -4.847   0.277  -0.180  1.00  0.00     0.006 C 
ENDBRANCH   9  10
ENDBRANCH   7   9
ENDBRANCH   1   7
BRANCH   4  12
HETATM   12  C6  UNL     1       2.277   1.345   0.074  1.00  0.00     0.125 C 
HETATM   13  S1  UNL     1       2.156   2.954   0.268  1.00  0.00    -0.058 SA
BRANCH  12  14
HETATM   14  N3  UNL     1       3.512   0.690   0.308  1.00  0.00    -0.379 N 
HETATM   15  C7  UNL     1       3.683  -0.741   0.152  1.00  0.00     0.150 C 
HETATM   16  C8  UNL     1       4.641   1.485   0.718  1.00  0.00     0.150 C 
ENDBRANCH  12  14
ENDBRANCH   4  12
TORSDOF 5
