REMARK  5 active torsions:
REMARK  status: ('A' for Active; 'I' for Inactive)
REMARK    1  A    between atoms: C1_2  and  O2_3 
REMARK    2  A    between atoms: C1_2  and  C3_6 
REMARK    3  A    between atoms: O2_3  and  C2_4 
REMARK       I    between atoms: N1_9  and  C6_10 
REMARK    4  A    between atoms: C6_10  and  C7_12 
REMARK    5  A    between atoms: C7_12  and  C8_13 
ROOT
HETATM    1  C3  UNL     1       2.711   0.469  -0.957  1.00  0.00     0.188 C 
HETATM    2  C4  UNL     1       2.735   1.981  -0.792  1.00  0.00     0.055 C 
HETATM    3  C5  UNL     1       1.952   1.672   0.463  1.00  0.00     0.129 C 
HETATM    4  N1  UNL     1       1.473   0.465  -0.196  1.00  0.00    -0.338 N 
HETATM    5  C6  UNL     1       0.314  -0.346  -0.124  1.00  0.00     0.220 C 
HETATM    6  O3  UNL     1       0.204  -1.354  -0.855  1.00  0.00    -0.273 OA
ENDROOT
BRANCH   1   7
HETATM    7  C1  UNL     1       3.863  -0.119  -0.228  1.00  0.00     0.283 C 
HETATM    8  O1  UNL     1       3.789  -0.580   0.939  1.00  0.00    -0.263 OA
BRANCH   7   9
HETATM    9  O2  UNL     1       5.092  -0.164  -0.868  1.00  0.00    -0.305 OA
BRANCH   9  10
HETATM   10  C2  UNL     1       6.228  -0.720  -0.204  1.00  0.00     0.293 C 
HETATM   11 CL1  UNL     1       5.862  -2.403   0.187  1.00  0.00    -0.101 Cl
ENDBRANCH   9  10
ENDBRANCH   7   9
ENDBRANCH   1   7
BRANCH   5  12
HETATM   12  C7  UNL     1      -0.754  -0.000   0.808  1.00  0.00     0.107 C 
BRANCH  12  13
HETATM   13  C8  UNL     1      -1.917  -0.968   0.758  1.00  0.00    -0.006 C 
HETATM   14  C9  UNL     1      -2.486  -0.966  -0.612  1.00  0.00     0.005 C 
HETATM   15  C10 UNL     1      -3.964  -0.881  -0.700  1.00  0.00     0.000 C 
HETATM   16  C11 UNL     1      -4.616   0.045   0.259  1.00  0.00     0.000 C 
HETATM   17  C12 UNL     1      -3.683   0.606   1.302  1.00  0.00     0.000 C 
HETATM   18  C13 UNL     1      -2.884  -0.565   1.837  1.00  0.00     0.005 C 
ENDBRANCH  12  13
ENDBRANCH   5  12
TORSDOF 5
