REMARK  5 active torsions:
REMARK  status: ('A' for Active; 'I' for Inactive)
REMARK    1  A    between atoms: C1_2  and  N1_3 
REMARK    2  A    between atoms: C3_10  and  C4_11 
REMARK    3  A    between atoms: N4_12  and  N5_14 
REMARK       I    between atoms: N5_14  and  C5_16 
REMARK    4  A    between atoms: C5_16  and  C6_18 
REMARK    5  A    between atoms: C6_18  and  N6_19 
ROOT
HETATM    1  N5  UNL     1      -1.192   0.636   1.307  1.00  0.00    -0.269 N 
ATOM      2  H5  UNL     1      -1.585  -0.072   1.927  1.00  0.00     0.190 HD
HETATM    3  C5  UNL     1       0.049   0.409   0.664  1.00  0.00     0.255 C 
HETATM    4  O3  UNL     1       0.566   1.260  -0.108  1.00  0.00    -0.270 OA
ENDROOT
BRANCH   3   5
HETATM    5  C6  UNL     1       0.740  -0.884   0.929  1.00  0.00     0.255 C 
BRANCH   5   6
HETATM    6  N6  UNL     1       1.987  -0.991   0.219  1.00  0.00    -0.263 N 
HETATM    7  N7  UNL     1       2.370  -1.442  -0.963  1.00  0.00    -0.277 N 
HETATM    8  C7  UNL     1       3.637  -1.106  -0.660  1.00  0.00     0.181 A 
ATOM      9  H7  UNL     1       1.903  -1.865  -1.765  1.00  0.00     0.189 HD
HETATM   10  C8  UNL     1       3.248  -0.636   0.566  1.00  0.00     0.174 A 
HETATM   11  N10 UNL     1       5.022  -1.036  -1.013  1.00  0.00    -0.277 N 
HETATM   12  N8  UNL     1       4.203  -0.085   1.480  1.00  0.00    -0.289 N 
HETATM   13  C9  UNL     1       5.577  -0.016   1.129  1.00  0.00     0.340 A 
ATOM     14  H8  UNL     1       3.894   0.260   2.389  1.00  0.00     0.172 HD
HETATM   15  O4  UNL     1       6.458   0.454   1.884  1.00  0.00    -0.245 OA
HETATM   16  N9  UNL     1       5.986  -0.506  -0.153  1.00  0.00    -0.250 N 
ATOM     17  H9  UNL     1       6.966  -0.468  -0.433  1.00  0.00     0.192 HD
ATOM     18  H10 UNL     1       5.315  -1.386  -1.925  1.00  0.00     0.189 HD
ENDBRANCH   5   6
ENDBRANCH   3   5
BRANCH   1  19
HETATM   19  N4  UNL     1      -1.868   1.820   1.091  1.00  0.00    -0.306 N 
HETATM   20  C4  UNL     1      -2.947   1.975   0.448  1.00  0.00     0.157 C 
ATOM     21  H4  UNL     1      -1.453   2.661   1.493  1.00  0.00     0.186 HD
BRANCH  20  22
HETATM   22  C3  UNL     1      -3.627   0.871  -0.161  1.00  0.00     0.150 A 
HETATM   23  N1  UNL     1      -4.761   0.862  -0.866  1.00  0.00    -0.209 N 
HETATM   24  N2  UNL     1      -4.979  -0.395  -1.215  1.00  0.00    -0.241 N 
HETATM   25  C2  UNL     1      -4.023  -1.196  -0.759  1.00  0.00     0.341 A 
ATOM     26  H2  UNL     1      -5.779  -0.709  -1.764  1.00  0.00     0.192 HD
HETATM   27  O2  UNL     1      -3.975  -2.448  -0.943  1.00  0.00    -0.245 OA
HETATM   28  N3  UNL     1      -3.164  -0.414  -0.094  1.00  0.00    -0.291 N 
ATOM     29  H3  UNL     1      -2.314  -0.722   0.379  1.00  0.00     0.172 HD
BRANCH  23  30
HETATM   30  C1  UNL     1      -5.601   1.953  -1.200  1.00  0.00     0.378 C 
HETATM   31  O1  UNL     1      -5.404   3.126  -0.877  1.00  0.00    -0.281 OA
ENDBRANCH  23  30
ENDBRANCH  20  22
ENDBRANCH   1  19
TORSDOF 5
