REMARK  9 active torsions:
REMARK  status: ('A' for Active; 'I' for Inactive)
REMARK    1  A    between atoms: C2_2  and  O1_3 
REMARK    2  A    between atoms: C2_2  and  C3_5 
REMARK    3  A    between atoms: C3_5  and  N1_6 
REMARK       I    between atoms: N1_6  and  C4_8 
REMARK    4  A    between atoms: C4_8  and  C5_10 
REMARK    5  A    between atoms: C5_10  and  N2_11 
REMARK    6  A    between atoms: C5_10  and  C10_24 
REMARK       I    between atoms: N2_11  and  C6_13 
REMARK    7  A    between atoms: C6_13  and  C7_15 
REMARK    8  A    between atoms: C7_15  and  N3_16 
REMARK    9  A    between atoms: C7_15  and  C9_21 
REMARK       I    between atoms: N3_16  and  C8_18 
ROOT
HETATM    1  C5  UNL     1       0.437  -0.925  -0.078  1.00  0.00     0.231 C 
ENDROOT
BRANCH   1   2
HETATM    2  C4  UNL     1       1.334   0.165   0.303  1.00  0.00     0.244 C 
HETATM    3  N1  UNL     1       2.572   0.428  -0.321  1.00  0.00    -0.357 N 
ATOM      4  H1  UNL     1       2.884  -0.162  -1.092  1.00  0.00     0.162 HD
HETATM    5  O2  UNL     1       0.986   0.951   1.273  1.00  0.00    -0.271 OA
BRANCH   3   6
HETATM    6  C3  UNL     1       3.421   1.550   0.132  1.00  0.00     0.153 C 
BRANCH   6   7
HETATM    7  C2  UNL     1       4.648   1.561  -0.718  1.00  0.00     0.132 C 
HETATM    8  C1  UNL     1       5.647   2.597  -0.314  1.00  0.00     0.041 C 
BRANCH   7   9
HETATM    9  O1  UNL     1       5.277   0.308  -0.519  1.00  0.00    -0.394 OA
ATOM     10  H1  UNL     1       4.642  -0.350  -0.776  1.00  0.00     0.210 HD
ENDBRANCH   7   9
ENDBRANCH   6   7
ENDBRANCH   3   6
ENDBRANCH   1   2
BRANCH   1  11
HETATM   11  N2  UNL     1      -0.832  -0.839   0.663  1.00  0.00    -0.342 N 
HETATM   12  C6  UNL     1      -2.069  -0.686   0.044  1.00  0.00     0.252 C 
HETATM   13  O3  UNL     1      -2.114  -0.617  -1.214  1.00  0.00    -0.271 OA
ATOM     14  H2  UNL     1      -0.803  -0.894   1.681  1.00  0.00     0.163 HD
BRANCH  12  15
HETATM   15  C7  UNL     1      -3.348  -0.601   0.791  1.00  0.00     0.279 C 
BRANCH  15  16
HETATM   16  N3  UNL     1      -4.480  -0.465  -0.134  1.00  0.00    -0.323 N 
HETATM   17  C8  UNL     1      -5.508  -1.430  -0.215  1.00  0.00     0.329 C 
HETATM   18  N4  UNL     1      -6.575  -1.256  -1.120  1.00  0.00    -0.040 NA
HETATM   19  O4  UNL     1      -5.501  -2.460   0.510  1.00  0.00    -0.251 OA
ATOM     20  H3  UNL     1      -4.526   0.355  -0.739  1.00  0.00     0.165 HD
ENDBRANCH  15  16
BRANCH  15  21
HETATM   21  C9  UNL     1      -3.346   0.542   1.724  1.00  0.00     0.206 C 
HETATM   22  O5  UNL     1      -4.222   1.417   1.623  1.00  0.00    -0.646 OA
HETATM   23  O6  UNL     1      -2.380   0.633   2.696  1.00  0.00    -0.646 OA
ENDBRANCH  15  21
ENDBRANCH  12  15
ENDBRANCH   1  11
BRANCH   1  24
HETATM   24  C10 UNL     1       1.028  -2.310   0.148  1.00  0.00     0.217 C 
HETATM   25 CL1  UNL     1       1.453  -2.547   1.867  1.00  0.00    -0.081 Cl
HETATM   26 CL2  UNL     1       2.349  -2.655  -0.935  1.00  0.00    -0.081 Cl
HETATM   27 CL3  UNL     1      -0.308  -3.445  -0.249  1.00  0.00    -0.081 Cl
ENDBRANCH   1  24
TORSDOF 9
