REMARK  5 active torsions:
REMARK  status: ('A' for Active; 'I' for Inactive)
REMARK    1  A    between atoms: O1_2  and  C2_3 
REMARK    2  A    between atoms: C4_5  and  C5_6 
REMARK    3  A    between atoms: C17_21  and  O5_22 
REMARK    4  A    between atoms: C18_24  and  O6_25 
REMARK    5  A    between atoms: O6_25  and  C19_26 
ROOT
HETATM    1  C2  UNL     1      -2.609   0.101  -0.388  1.00  0.00     0.195 C 
HETATM    2  C3  UNL     1      -1.440   1.029  -0.835  1.00  0.00     0.083 C 
HETATM    3  C4  UNL     1      -1.123   2.215  -0.051  1.00  0.00    -0.064 C 
HETATM    4  C8  UNL     1      -0.444   1.899   1.049  1.00  0.00     0.019 C 
HETATM    5  C9  UNL     1      -0.322   0.499   1.007  1.00  0.00     0.017 C 
HETATM    6  C10 UNL     1       0.393  -0.344   1.904  1.00  0.00     0.162 C 
HETATM    7  O2  UNL     1       1.105   0.118   2.731  1.00  0.00    -0.292 OA
HETATM    8  C11 UNL     1       0.351  -1.842   1.933  1.00  0.00     0.118 C 
HETATM    9  C12 UNL     1      -0.162  -2.388   0.569  1.00  0.00     0.164 C 
HETATM   10  O3  UNL     1      -1.032  -1.752  -0.044  1.00  0.00    -0.344 OA
HETATM   11  C13 UNL     1      -2.194  -1.360  -0.366  1.00  0.00     0.191 C 
HETATM   12  C14 UNL     1      -3.242  -2.089   0.479  1.00  0.00     0.073 C 
HETATM   13  C15 UNL     1      -3.265  -3.436  -0.209  1.00  0.00     0.032 C 
HETATM   14  C16 UNL     1      -2.726  -3.170  -1.569  1.00  0.00     0.171 C 
HETATM   15  O4  UNL     1      -2.479  -1.819  -1.691  1.00  0.00    -0.353 OA
HETATM   16  C17 UNL     1       1.127  -2.607  -0.180  1.00  0.00     0.180 C 
HETATM   17  C18 UNL     1       1.745  -1.388  -0.824  1.00  0.00     0.176 C 
HETATM   18  C24 UNL     1       0.528  -0.516  -1.228  1.00  0.00     0.016 C 
HETATM   19  C25 UNL     1      -0.244   0.214  -0.467  1.00  0.00    -0.035 C 
ENDROOT
BRANCH  17  20
HETATM   20  O6  UNL     1       2.593  -0.625  -0.133  1.00  0.00    -0.374 OA
BRANCH  20  21
HETATM   21  C19 UNL     1       3.837  -0.418  -0.656  1.00  0.00     0.122 C 
HETATM   22  C20 UNL     1       4.875  -0.888   0.331  1.00  0.00     0.032 C 
HETATM   23  C21 UNL     1       4.796   0.197   1.400  1.00  0.00     0.002 C 
HETATM   24  C22 UNL     1       4.760   1.453   0.582  1.00  0.00     0.002 C 
HETATM   25  C23 UNL     1       4.183   1.067  -0.764  1.00  0.00     0.032 C 
ENDBRANCH  20  21
ENDBRANCH  17  20
BRANCH  16  26
HETATM   26  O5  UNL     1       2.049  -3.190   0.646  1.00  0.00    -0.390 OA
ATOM     27  H5  UNL     1       2.862  -3.328   0.174  1.00  0.00     0.210 HD
ENDBRANCH  16  26
BRANCH   1  28
HETATM   28  O1  UNL     1      -3.619   0.269  -1.361  1.00  0.00    -0.384 OA
HETATM   29  C1  UNL     1      -4.746   0.906  -0.895  1.00  0.00     0.202 C 
ENDBRANCH   1  28
BRANCH   3  30
HETATM   30  C5  UNL     1      -1.476   3.663  -0.363  1.00  0.00     0.007 C 
HETATM   31  C6  UNL     1      -0.847   4.070  -1.688  1.00  0.00     0.014 C 
HETATM   32  C7  UNL     1      -0.975   4.597   0.684  1.00  0.00     0.014 C 
ENDBRANCH   3  30
TORSDOF 5
