REMARK  4 active torsions:
REMARK  status: ('A' for Active; 'I' for Inactive)
REMARK    1  A    between atoms: O1_1  and  C1_3 
REMARK    2  A    between atoms: C1_3  and  C2_4 
REMARK    3  A    between atoms: C4_7  and  C5_8 
REMARK    4  A    between atoms: C5_8  and  C6_9 
ROOT
HETATM    1  C2  UNL     1      -2.539  -0.046  -0.166  1.00  0.00     0.115 C 
HETATM    2  C3  UNL     1      -2.430   1.463  -0.212  1.00  0.00     0.107 C 
HETATM    3  S1  UNL     1      -0.594   1.542  -0.410  1.00  0.00    -0.115 SA
HETATM    4  C4  UNL     1      -0.298  -0.055   0.329  1.00  0.00     0.043 C 
HETATM    5  N1  UNL     1      -1.403  -0.641   0.335  1.00  0.00    -0.380 N 
ATOM      6  H1  UNL     1      -1.464  -1.583   0.721  1.00  0.00     0.160 HD
ENDROOT
BRANCH   4   7
HETATM    7  C5  UNL     1       0.975  -0.565   0.823  1.00  0.00     0.069 C 
BRANCH   7   8
HETATM    8  C6  UNL     1       2.042  -0.860  -0.168  1.00  0.00    -0.009 C 
HETATM    9  C7  UNL     1       2.540   0.264  -1.006  1.00  0.00     0.005 C 
HETATM   10  C8  UNL     1       3.415   0.670   0.188  1.00  0.00     0.001 C 
HETATM   11  C9  UNL     1       3.411  -0.824   0.542  1.00  0.00     0.005 C 
ENDBRANCH   7   8
ENDBRANCH   4   7
BRANCH   1  12
HETATM   12  C1  UNL     1      -3.705  -0.455   0.748  1.00  0.00     0.189 C 
BRANCH  12  13
HETATM   13  O1  UNL     1      -4.879   0.124   0.282  1.00  0.00    -0.399 OA
ATOM     14  H1  UNL     1      -5.600  -0.129   0.847  1.00  0.00     0.209 HD
ENDBRANCH  12  13
ENDBRANCH   1  12
TORSDOF 4
