REMARK  4 active torsions:
REMARK  status: ('A' for Active; 'I' for Inactive)
REMARK    1  A    between atoms: S1_2  and  C2_3 
REMARK    2  A    between atoms: C2_3  and  C3_4 
REMARK    3  A    between atoms: C3_4  and  N1_5 
REMARK    4  A    between atoms: N1_5  and  C4_7 
ROOT
HETATM    1  C4  UNL     1      -0.897   0.364  -0.812  1.00  0.00     0.113 C 
HETATM    2  C5  UNL     1      -1.579  -0.892  -0.239  1.00  0.00     0.015 C 
HETATM    3  C6  UNL     1      -3.063  -0.811  -0.521  1.00  0.00     0.033 C 
HETATM    4  C7  UNL     1      -3.466   0.633  -0.440  1.00  0.00     0.168 C 
HETATM    5  O1  UNL     1      -2.664   1.457   0.283  1.00  0.00    -0.384 OA
HETATM    6  C8  UNL     1      -1.332   1.043   0.422  1.00  0.00     0.144 C 
HETATM    7  C9  UNL     1      -1.402  -0.279   1.134  1.00  0.00     0.041 C 
ENDROOT
BRANCH   1   8
HETATM    8  N1  UNL     1       0.400   0.129  -1.194  1.00  0.00    -0.394 N 
ATOM      9  H1  UNL     1       0.600   0.241  -2.188  1.00  0.00     0.159 HD
BRANCH   8  10
HETATM   10  C3  UNL     1       1.465  -0.239  -0.404  1.00  0.00     0.066 C 
BRANCH  10  11
HETATM   11  C2  UNL     1       2.047   0.748   0.567  1.00  0.00     0.117 C 
BRANCH  11  12
HETATM   12  S1  UNL     1       3.448  -0.123   1.391  1.00  0.00    -0.168 SA
HETATM   13  C1  UNL     1       4.768  -0.446   0.212  1.00  0.00     0.090 C 
ENDBRANCH  11  12
ENDBRANCH  10  11
ENDBRANCH   8  10
ENDBRANCH   1   8
TORSDOF 4
