REMARK  12 active torsions:
REMARK  status: ('A' for Active; 'I' for Inactive)
REMARK    1  A    between atoms: C2_2  and  O1_3 
REMARK    2  A    between atoms: O1_3  and  C3_4 
REMARK    3  A    between atoms: C3_4  and  C4_6 
REMARK    4  A    between atoms: C5_7  and  N1_8 
REMARK    5  A    between atoms: N1_8  and  C6_10 
REMARK    6  A    between atoms: C6_10  and  N2_12 
REMARK    7  A    between atoms: N2_12  and  N3_14 
REMARK       I    between atoms: N3_14  and  C7_16 
REMARK    8  A    between atoms: C9_21  and  C10_22 
REMARK    9  A    between atoms: C10_22  and  C11_24 
REMARK   10  A    between atoms: N5_28  and  C13_29 
REMARK   11  A    between atoms: C13_29  and  O6_30 
REMARK   12  A    between atoms: O6_30  and  C14_31 
ROOT
HETATM    1  C4  UNL     1       0.218  -0.468   0.087  1.00  0.00     0.103 A 
HETATM    2  C5  UNL     1       1.229   0.328  -0.366  1.00  0.00     0.096 A 
HETATM    3  S2  UNL     1       0.500   1.905  -0.400  1.00  0.00    -0.067 SA
HETATM    4  C8  UNL     1      -1.032   1.493   0.173  1.00  0.00     0.068 A 
HETATM    5  C9  UNL     1      -2.293   2.029   0.509  1.00  0.00     0.114 A 
HETATM    6  N4  UNL     1      -2.970   1.005   0.914  1.00  0.00    -0.287 N 
ATOM      7  H4  UNL     1      -3.937   1.048   1.235  1.00  0.00     0.188 HD
HETATM    8  N5  UNL     1      -2.230  -0.144   0.859  1.00  0.00    -0.242 N 
HETATM    9  C15 UNL     1      -0.991   0.133   0.388  1.00  0.00     0.096 A 
ENDROOT
BRANCH   2  10
HETATM   10  N1  UNL     1       2.653   0.139  -0.506  1.00  0.00    -0.325 N 
ATOM     11  H1  UNL     1       3.109   0.591  -1.299  1.00  0.00     0.169 HD
BRANCH  10  12
HETATM   12  C6  UNL     1       3.456  -0.609   0.351  1.00  0.00     0.191 C 
HETATM   13  S1  UNL     1       2.965  -1.187   1.810  1.00  0.00    -0.039 SA
BRANCH  12  14
HETATM   14  N2  UNL     1       4.835  -0.786   0.060  1.00  0.00    -0.271 N 
ATOM     15  H2  UNL     1       5.429  -1.333   0.684  1.00  0.00     0.189 HD
BRANCH  14  16
HETATM   16  N3  UNL     1       5.366  -0.203  -1.088  1.00  0.00    -0.241 N 
HETATM   17  C7  UNL     1       6.123   0.989  -1.008  1.00  0.00     0.303 C 
HETATM   18  O3  UNL     1       6.321   1.529   0.109  1.00  0.00    -0.628 OA
HETATM   19  O4  UNL     1       6.665   1.595  -2.137  1.00  0.00    -0.628 OA
ATOM     20  H3  UNL     1       5.207  -0.640  -1.996  1.00  0.00     0.193 HD
ENDBRANCH  14  16
ENDBRANCH  12  14
ENDBRANCH  10  12
ENDBRANCH   2  10
BRANCH   1  21
HETATM   21  C3  UNL     1       0.360  -1.954  -0.085  1.00  0.00     0.298 C 
HETATM   22  O2  UNL     1      -0.400  -2.802   0.328  1.00  0.00    -0.259 OA
BRANCH  21  23
HETATM   23  O1  UNL     1       1.452  -2.487  -0.805  1.00  0.00    -0.318 OA
BRANCH  23  24
HETATM   24  C2  UNL     1       1.631  -3.871  -1.023  1.00  0.00     0.174 C 
HETATM   25  C1  UNL     1       1.766  -4.691   0.213  1.00  0.00     0.034 C 
ENDBRANCH  23  24
ENDBRANCH  21  23
ENDBRANCH   1  21
BRANCH   8  26
HETATM   26  C13 UNL     1      -2.852  -1.343   1.300  1.00  0.00     0.254 C 
BRANCH  26  27
HETATM   27  O6  UNL     1      -3.514  -2.083   0.340  1.00  0.00    -0.315 OA
BRANCH  27  28
HETATM   28  C14 UNL     1      -4.542  -1.427  -0.289  1.00  0.00     0.399 C 
HETATM   29  F1  UNL     1      -5.097  -2.308  -1.215  1.00  0.00    -0.227 F 
ENDBRANCH  27  28
ENDBRANCH  26  27
ENDBRANCH   8  26
BRANCH   5  30
HETATM   30  C10 UNL     1      -2.595   3.445   0.369  1.00  0.00     0.178 C 
HETATM   31  O5  UNL     1      -1.751   4.273  -0.059  1.00  0.00    -0.291 OA
BRANCH  30  32
HETATM   32  C11 UNL     1      -3.934   3.969   0.734  1.00  0.00     0.081 C 
HETATM   33  C12 UNL     1      -3.990   5.458   0.496  1.00  0.00     0.013 C 
ENDBRANCH  30  32
ENDBRANCH   5  30
TORSDOF 12
