REMARK  6 active torsions:
REMARK  status: ('A' for Active; 'I' for Inactive)
REMARK    1  A    between atoms: C4_8  and  C5_9 
REMARK    2  A    between atoms: C5_9  and  C6_10 
REMARK    3  A    between atoms: C7_11  and  O2_12 
REMARK    4  A    between atoms: N2_17  and  C10_18 
REMARK    5  A    between atoms: C10_18  and  C11_19 
REMARK    6  A    between atoms: C12_20  and  C13_21 
ROOT
HETATM    1  C6  UNL     1      -1.497  -1.006  -0.203  1.00  0.00     0.086 A 
HETATM    2  C7  UNL     1      -1.503  -1.981   0.773  1.00  0.00     0.112 A 
HETATM    3  C8  UNL     1      -0.376  -2.739   1.076  1.00  0.00     0.063 A 
HETATM    4 BR1  UNL     1      -0.437  -4.059   2.418  1.00  0.00    -0.046 Br
HETATM    5  C9  UNL     1       0.764  -2.450   0.330  1.00  0.00     0.133 A 
HETATM    6  N2  UNL     1       0.752  -1.497  -0.616  1.00  0.00    -0.289 N 
HETATM    7  N3  UNL     1      -0.333  -0.792  -0.884  1.00  0.00    -0.291 N 
HETATM    8  C15 UNL     1      -0.352   0.236  -1.908  1.00  0.00     0.178 C 
ENDROOT
BRANCH   1   9
HETATM    9  C5  UNL     1      -2.714  -0.250  -0.473  1.00  0.00     0.051 C 
BRANCH   9  10
HETATM   10  C4  UNL     1      -3.093   0.839   0.138  1.00  0.00     0.041 A 
HETATM   11  C2  UNL     1      -4.274   1.524  -0.164  1.00  0.00     0.059 A 
HETATM   12  C1  UNL     1      -5.162   1.198  -1.076  1.00  0.00     0.046 C 
HETATM   13  N1  UNL     1      -4.315   2.582   0.668  1.00  0.00    -0.260 N 
HETATM   14  O1  UNL     1      -3.270   2.592   1.437  1.00  0.00    -0.225 OA
ATOM     15  H1  UNL     1      -5.061   3.277   0.690  1.00  0.00     0.195 HD
HETATM   16  C3  UNL     1      -2.496   1.545   1.148  1.00  0.00     0.177 A 
HETATM   17  S1  UNL     1      -1.083   1.146   1.853  1.00  0.00    -0.049 SA
ENDBRANCH   9  10
ENDBRANCH   1   9
BRANCH   2  18
HETATM   18  O2  UNL     1      -2.703  -2.190   1.463  1.00  0.00    -0.357 OA
ATOM     19  H2  UNL     1      -2.707  -2.861   2.135  1.00  0.00     0.217 HD
ENDBRANCH   2  18
BRANCH   6  20
HETATM   20  C10 UNL     1       1.957  -1.226  -1.370  1.00  0.00     0.242 C 
BRANCH  20  21
HETATM   21  C11 UNL     1       2.768  -0.190  -0.700  1.00  0.00    -0.085 C 
HETATM   22  C12 UNL     1       3.443   0.644  -0.150  1.00  0.00    -0.105 C 
BRANCH  22  23
HETATM   23  C13 UNL     1       4.277   1.641   0.533  1.00  0.00     0.089 C 
HETATM   24  C14 UNL     1       5.692   1.603   0.038  1.00  0.00     0.018 C 
ENDBRANCH  22  23
ENDBRANCH  20  21
ENDBRANCH   6  20
TORSDOF 6
