REMARK  2 active torsions:
REMARK  status: ('A' for Active; 'I' for Inactive)
REMARK    1  A    between atoms: C1_2  and  C2_3 
REMARK       I    between atoms: C1_2  and  N1_5 
REMARK    2  A    between atoms: C5_8  and  C6_9 
REMARK       I    between atoms: C6_9  and  N2_11 
ROOT
HETATM    1  C6  UNL     1       0.308  -1.978   0.229  1.00  0.00     0.224 C 
HETATM    2  O2  UNL     1       0.353  -3.255   0.141  1.00  0.00    -0.273 OA
HETATM    3  N2  UNL     1      -0.965  -1.376   0.127  1.00  0.00    -0.351 N 
HETATM    4  C7  UNL     1      -2.204  -2.092  -0.064  1.00  0.00     0.126 C 
HETATM    5  C8  UNL     1      -3.314  -1.123   0.138  1.00  0.00     0.031 C 
HETATM    6  C9  UNL     1      -2.700   0.221   0.313  1.00  0.00    -0.020 C 
HETATM    7  C10 UNL     1      -3.174   1.153  -0.808  1.00  0.00     0.039 C 
HETATM    8  C11 UNL     1      -4.647   1.390  -0.557  1.00  0.00     0.233 C 
HETATM    9  N3  UNL     1      -4.746   2.366   0.512  1.00  0.00    -0.075 N 
ATOM     10  H31 UNL     1      -5.628   2.274   1.017  1.00  0.00     0.277 HD
ATOM     11  H32 UNL     1      -4.870   3.309   0.142  1.00  0.00     0.277 HD
HETATM   12  C12 UNL     1      -3.617   2.300   1.412  1.00  0.00     0.233 C 
HETATM   13  C13 UNL     1      -3.104   0.890   1.609  1.00  0.00     0.039 C 
HETATM   14  C14 UNL     1      -1.229   0.040   0.191  1.00  0.00     0.135 C 
ENDROOT
BRANCH   1  15
HETATM   15  C5  UNL     1       1.578  -1.222   0.431  1.00  0.00     0.081 C 
HETATM   16  C4  UNL     1       1.848  -0.215  -0.646  1.00  0.00     0.034 C 
HETATM   17  C3  UNL     1       3.291  -0.062  -1.020  1.00  0.00     0.126 C 
HETATM   18  N1  UNL     1       4.166  -0.376   0.064  1.00  0.00    -0.351 N 
HETATM   19  C1  UNL     1       5.269   0.479   0.337  1.00  0.00     0.229 C 
HETATM   20  C16 UNL     1       3.956  -1.539   0.875  1.00  0.00     0.126 C 
HETATM   21  O1  UNL     1       6.046   0.185   1.276  1.00  0.00    -0.273 OA
HETATM   22  C15 UNL     1       2.711  -2.257   0.443  1.00  0.00     0.034 C 
BRANCH  19  23
HETATM   23  C2  UNL     1       5.508   1.683  -0.456  1.00  0.00     0.188 C 
HETATM   24 BR1  UNL     1       6.038   1.217  -2.259  1.00  0.00    -0.087 Br
ENDBRANCH  19  23
ENDBRANCH   1  15
TORSDOF 2
