REMARK  8 active torsions:
REMARK  status: ('A' for Active; 'I' for Inactive)
REMARK    1  A    between atoms: C2_2  and  C3_3 
REMARK    2  A    between atoms: C3_3  and  C4_4 
REMARK    3  A    between atoms: C4_4  and  C6_6 
REMARK    4  A    between atoms: C6_6  and  C8_8 
REMARK    5  A    between atoms: C8_8  and  S1_9 
REMARK    6  A    between atoms: S1_9  and  C9_10 
REMARK       I    between atoms: N2_15  and  C11_17 
REMARK    7  A    between atoms: C11_17  and  O2_19 
REMARK    8  A    between atoms: O2_19  and  C12_20 
ROOT
HETATM    1  C9  UNL     1       0.434  -1.086   0.901  1.00  0.00     0.099 A 
HETATM    2  N1  UNL     1       1.135  -1.127   2.037  1.00  0.00    -0.318 N 
ATOM      3  H1  UNL     1       2.021  -1.603   2.205  1.00  0.00     0.175 HD
HETATM    4  S2  UNL     1       0.240  -0.228   3.119  1.00  0.00     0.006 SA
HETATM    5  C10 UNL     1      -1.081   0.220   2.085  1.00  0.00     0.118 A 
HETATM    6  N2  UNL     1      -2.082   0.931   2.424  1.00  0.00    -0.294 N 
ATOM      7  H2  UNL     1      -2.023   1.220   3.401  1.00  0.00     0.172 HD
HETATM    8  C11 UNL     1      -3.208   1.407   1.829  1.00  0.00     0.366 C 
HETATM    9  O1  UNL     1      -3.217   2.632   1.434  1.00  0.00    -0.238 OA
HETATM   10  C16 UNL     1      -0.728  -0.385   0.910  1.00  0.00     0.113 A 
HETATM   11  C17 UNL     1      -1.610  -0.251  -0.277  1.00  0.00     0.105 C 
HETATM   12  N3  UNL     1      -2.301  -0.125  -1.199  1.00  0.00    -0.191 NA
ENDROOT
BRANCH   1  13
HETATM   13  S1  UNL     1       1.019  -1.938  -0.616  1.00  0.00    -0.110 SA
BRANCH  13  14
HETATM   14  C8  UNL     1       2.625  -2.633  -0.341  1.00  0.00     0.089 C 
BRANCH  14  15
HETATM   15  C6  UNL     1       3.771  -1.701  -0.221  1.00  0.00     0.019 C 
HETATM   16  C7  UNL     1       4.995  -2.589   0.107  1.00  0.00     0.015 C 
BRANCH  15  17
HETATM   17  C4  UNL     1       4.084  -0.860  -1.377  1.00  0.00    -0.081 C 
HETATM   18  C5  UNL     1       3.422  -0.925  -2.499  1.00  0.00     0.015 C 
BRANCH  17  19
HETATM   19  C3  UNL     1       5.209   0.115  -1.262  1.00  0.00     0.060 C 
BRANCH  19  20
HETATM   20  C2  UNL     1       5.386   0.865  -2.531  1.00  0.00    -0.033 C 
HETATM   21  C1  UNL     1       5.257   2.176  -2.529  1.00  0.00     0.007 C 
ENDBRANCH  19  20
ENDBRANCH  17  19
ENDBRANCH  15  17
ENDBRANCH  14  15
ENDBRANCH  13  14
ENDBRANCH   1  13
BRANCH   8  22
HETATM   22  O2  UNL     1      -4.389   0.736   1.584  1.00  0.00    -0.294 OA
BRANCH  22  23
HETATM   23  C12 UNL     1      -5.544   1.225   1.001  1.00  0.00     0.061 C 
HETATM   24  C13 UNL     1      -6.538   0.051   0.967  1.00  0.00     0.046 C 
HETATM   25  C14 UNL     1      -5.433   1.752  -0.391  1.00  0.00     0.046 C 
HETATM   26  C15 UNL     1      -6.209   2.313   1.830  1.00  0.00     0.046 C 
ENDBRANCH  22  23
ENDBRANCH   8  22
TORSDOF 8
