REMARK  1 active torsions:
REMARK  status: ('A' for Active; 'I' for Inactive)
REMARK    1  A    between atoms: C2_3  and  O1_4 
ROOT
HETATM    1  N1  UNL     1       2.584   1.222   0.838  1.00  0.00    -0.194 NA
HETATM    2  C1  UNL     1       1.719   0.595   0.363  1.00  0.00     0.097 C 
HETATM    3  C2  UNL     1       0.620  -0.180  -0.233  1.00  0.00     0.146 A 
HETATM    4  C3  UNL     1      -0.364  -0.710   0.778  1.00  0.00     0.053 A 
HETATM    5  C4  UNL     1      -1.402   0.276   0.294  1.00  0.00     0.008 A 
HETATM    6  C5  UNL     1      -0.449   0.715  -0.797  1.00  0.00     0.053 A 
ENDROOT
BRANCH   3   7
HETATM    7  O1  UNL     1       1.067  -1.146  -1.163  1.00  0.00    -0.376 OA
ATOM      8  H1  UNL     1       0.357  -1.647  -1.548  1.00  0.00     0.211 HD
ENDBRANCH   3   7
TORSDOF 1
