REMARK  2 active torsions:
REMARK  status: ('A' for Active; 'I' for Inactive)
REMARK    1  A    between atoms: N1_1  and  N2_4 
REMARK    2  A    between atoms: N2_4  and  C1_5 
ROOT
HETATM    1  C1  UNL     1       1.571  -0.071  -0.200  1.00  0.00     0.136 A 
HETATM    2  C2  UNL     1       0.322  -0.720  -0.132  1.00  0.00     0.180 A 
HETATM    3  N3  UNL     1      -0.979  -1.041  -0.029  1.00  0.00    -0.330 N 
ATOM      4  H3  UNL     1      -1.350  -1.990  -0.073  1.00  0.00     0.165 HD
HETATM    5  C3  UNL     1      -1.722   0.067   0.141  1.00  0.00     0.317 A 
HETATM    6  O1  UNL     1      -2.992   0.121   0.273  1.00  0.00    -0.247 OA
HETATM    7  N4  UNL     1      -0.862   1.101   0.145  1.00  0.00    -0.330 N 
ATOM      8  H4  UNL     1      -1.138   2.076   0.258  1.00  0.00     0.165 HD
HETATM    9  C4  UNL     1       0.401   0.691  -0.017  1.00  0.00     0.180 A 
ENDROOT
BRANCH   1  10
HETATM   10  N2  UNL     1       2.820  -0.131  -0.330  1.00  0.00    -0.337 NA
BRANCH  10  11
HETATM   11  N1  UNL     1       4.036  -0.112  -0.044  1.00  0.00    -0.280 N 
ATOM     12  H12 UNL     1       3.917   0.078   0.951  1.00  0.00     0.191 HD
ATOM     13  H11 UNL     1       5.049  -0.161  -0.149  1.00  0.00     0.191 HD
ENDBRANCH  10  11
ENDBRANCH   1  10
TORSDOF 2
