REMARK  4 active torsions:
REMARK  status: ('A' for Active; 'I' for Inactive)
REMARK    1  A    between atoms: C4_4  and  C5_5 
REMARK    2  A    between atoms: C5_5  and  N1_6 
REMARK    3  A    between atoms: N1_6  and  C6_8 
REMARK    4  A    between atoms: C9_17  and  C10_18 
ROOT
HETATM    1  C6  UNL     1       0.044   0.863   0.813  1.00  0.00     0.133 A 
HETATM    2  N2  UNL     1      -0.581   1.055   1.989  1.00  0.00    -0.337 N 
ATOM      3  H2  UNL     1      -1.516   1.460   2.031  1.00  0.00     0.168 HD
HETATM    4  C7  UNL     1       0.072   0.693   3.108  1.00  0.00     0.183 A 
HETATM    5  N3  UNL     1       1.305   0.155   3.081  1.00  0.00    -0.337 N 
ATOM      6  H3  UNL     1       1.756  -0.102   3.959  1.00  0.00     0.168 HD
HETATM    7  C8  UNL     1       1.959  -0.052   1.919  1.00  0.00     0.138 A 
HETATM    8  N4  UNL     1       3.147  -0.547   1.569  1.00  0.00    -0.330 N 
ATOM      9  H4  UNL     1       3.845  -0.897   2.225  1.00  0.00     0.168 HD
HETATM   10  C9  UNL     1       3.297  -0.522   0.247  1.00  0.00     0.087 A 
HETATM   11  N5  UNL     1       2.162   0.008  -0.244  1.00  0.00    -0.339 N 
ATOM     12  H5  UNL     1       1.973   0.158  -1.235  1.00  0.00     0.167 HD
HETATM   13  C13 UNL     1       1.309   0.313   0.754  1.00  0.00     0.122 A 
ENDROOT
BRANCH   1  14
HETATM   14  N1  UNL     1      -0.513   1.182  -0.294  1.00  0.00    -0.370 N 
ATOM     15  H1  UNL     1       0.021   1.006  -1.145  1.00  0.00     0.161 HD
BRANCH  14  16
HETATM   16  C5  UNL     1      -1.805   1.759  -0.455  1.00  0.00     0.160 C 
BRANCH  16  17
HETATM   17  C4  UNL     1      -2.869   0.737  -0.662  1.00  0.00    -0.041 A 
HETATM   18  C3  UNL     1      -2.517  -0.593  -0.676  1.00  0.00     0.009 A 
HETATM   19  C2  UNL     1      -3.446  -1.598  -0.862  1.00  0.00     0.001 A 
HETATM   20  C1  UNL     1      -4.767  -1.241  -1.038  1.00  0.00     0.000 A 
HETATM   21  C15 UNL     1      -5.135   0.089  -1.026  1.00  0.00     0.001 A 
HETATM   22  C14 UNL     1      -4.191   1.072  -0.838  1.00  0.00     0.009 A 
ENDBRANCH  16  17
ENDBRANCH  14  16
ENDBRANCH   1  14
BRANCH  10  23
HETATM   23  C10 UNL     1       4.484  -0.987  -0.538  1.00  0.00     0.053 A 
HETATM   24  C11 UNL     1       4.230  -1.546  -1.923  1.00  0.00     0.013 A 
HETATM   25  C12 UNL     1       4.900  -0.234  -1.746  1.00  0.00     0.013 A 
ENDBRANCH  10  23
TORSDOF 4
