REMARK  3 active torsions:
REMARK  status: ('A' for Active; 'I' for Inactive)
REMARK    1  A    between atoms: C2_2  and  C3_4 
REMARK    2  A    between atoms: C3_4  and  C4_5 
REMARK    3  A    between atoms: C4_5  and  N1_6 
ROOT
HETATM    1  N1  UNL     1      -0.826   0.015  -0.518  1.00  0.00     0.115 N 
HETATM    2  C5  UNL     1      -1.206   0.678   0.701  1.00  0.00     0.302 C 
HETATM    3  C6  UNL     1      -2.720   0.552   0.684  1.00  0.00     0.264 C 
HETATM    4  N2  UNL     1      -3.003  -0.629  -0.073  1.00  0.00    -0.047 N 
ATOM      5  H21 UNL     1      -3.755  -0.495  -0.749  1.00  0.00     0.279 HD
ATOM      6  H22 UNL     1      -3.449  -1.358   0.484  1.00  0.00     0.279 HD
HETATM    7  C7  UNL     1      -1.769  -1.069  -0.688  1.00  0.00     0.502 C 
ENDROOT
BRANCH   1   8
HETATM    8  C4  UNL     1       0.518  -0.501  -0.418  1.00  0.00     0.279 C 
BRANCH   8   9
HETATM    9  C3  UNL     1       1.524   0.643  -0.374  1.00  0.00     0.076 C 
BRANCH   9  10
HETATM   10  C2  UNL     1       2.918   0.128  -0.268  1.00  0.00    -0.019 C 
HETATM   11  C1  UNL     1       3.790   0.428  -1.204  1.00  0.00     0.027 C 
HETATM   12 BR1  UNL     1       3.455  -0.964   1.205  1.00  0.00    -0.057 Br
ENDBRANCH   9  10
ENDBRANCH   8   9
ENDBRANCH   1   8
TORSDOF 3
