REMARK  3 active torsions:
REMARK  status: ('A' for Active; 'I' for Inactive)
REMARK    1  A    between atoms: C4_4  and  C5_5 
REMARK    2  A    between atoms: C7_7  and  C8_9 
REMARK       I    between atoms: C8_9  and  N1_11 
REMARK    3  A    between atoms: N1_11  and  C9_13 
ROOT
HETATM    1  C1  UNL     1       5.287   2.097  -1.495  1.00  0.00     0.017 C 
HETATM    2  C2  UNL     1       4.648   1.275  -0.886  1.00  0.00    -0.090 C 
HETATM    3  C3  UNL     1       3.891   0.301  -0.155  1.00  0.00     0.060 C 
HETATM    4  C4  UNL     1       2.602   0.143  -0.391  1.00  0.00    -0.013 C 
ENDROOT
BRANCH   4   5
HETATM    5  C5  UNL     1       1.864  -0.869   0.382  1.00  0.00     0.016 C 
HETATM    6  C6  UNL     1       0.772  -1.600  -0.415  1.00  0.00     0.062 C 
HETATM    7  C7  UNL     1      -0.030  -1.575   0.874  1.00  0.00     0.184 C 
HETATM    8  F1  UNL     1       0.330  -2.600   1.743  1.00  0.00    -0.233 F 
HETATM    9  C12 UNL     1       0.703  -0.303   1.215  1.00  0.00     0.062 C 
BRANCH   7  10
HETATM   10  C8  UNL     1      -1.461  -1.349   0.744  1.00  0.00     0.258 C 
HETATM   11  O1  UNL     1      -2.276  -2.159   1.263  1.00  0.00    -0.270 OA
HETATM   12  N1  UNL     1      -1.937  -0.219   0.035  1.00  0.00    -0.354 N 
ATOM     13  H1  UNL     1      -1.263   0.424  -0.380  1.00  0.00     0.163 HD
BRANCH  12  14
HETATM   14  C9  UNL     1      -3.364   0.053  -0.120  1.00  0.00     0.084 A 
HETATM   15  C10 UNL     1      -3.861   0.915  -1.200  1.00  0.00     0.027 A 
HETATM   16  C11 UNL     1      -3.730   1.535   0.159  1.00  0.00     0.027 A 
ENDBRANCH  12  14
ENDBRANCH   7  10
ENDBRANCH   4   5
TORSDOF 3
