REMARK  10 active torsions:
REMARK  status: ('A' for Active; 'I' for Inactive)
REMARK    1  A    between atoms: C2_2  and  C3_3 
REMARK    2  A    between atoms: C3_3  and  C4_5 
REMARK    3  A    between atoms: C4_5  and  C5_6 
REMARK    4  A    between atoms: C5_6  and  C6_7 
REMARK    5  A    between atoms: C5_6  and  C8_9 
REMARK    6  A    between atoms: C9_10  and  O2_11 
REMARK    7  A    between atoms: N1_13  and  C10_14 
REMARK    8  A    between atoms: C10_14  and  C11_15 
REMARK    9  A    between atoms: C11_15  and  O3_16 
REMARK   10  A    between atoms: C13_23  and  C14_24 
ROOT
HETATM    1  C8  UNL     1      -1.572   0.866  -0.002  1.00  0.00     0.050 A 
HETATM    2  C9  UNL     1      -1.819   2.226  -0.114  1.00  0.00     0.158 A 
HETATM    3  N1  UNL     1      -0.941   3.200   0.101  1.00  0.00    -0.300 N 
HETATM    4  C12 UNL     1       0.304   2.905   0.458  1.00  0.00     0.202 A 
HETATM    5  S1  UNL     1       1.418   4.061   0.728  1.00  0.00    -0.038 SA
HETATM    6  N2  UNL     1       0.647   1.585   0.596  1.00  0.00    -0.229 N 
HETATM    7  N3  UNL     1       1.827   1.057   0.876  1.00  0.00    -0.295 N 
ATOM      8  H3  UNL     1       2.662   1.605   1.082  1.00  0.00     0.187 HD
HETATM    9  C13 UNL     1       1.796  -0.263   0.858  1.00  0.00     0.033 A 
HETATM   10  C21 UNL     1       0.457  -0.578   0.539  1.00  0.00     0.059 A 
HETATM   11  C22 UNL     1      -0.235   0.597   0.380  1.00  0.00     0.076 A 
ENDROOT
BRANCH   1  12
HETATM   12  C5  UNL     1      -2.494  -0.221  -0.429  1.00  0.00    -0.038 C 
BRANCH  12  13
HETATM   13  C4  UNL     1      -2.735  -1.342   0.466  1.00  0.00     0.117 C 
BRANCH  13  14
HETATM   14  C3  UNL     1      -2.723  -2.723  -0.011  1.00  0.00     0.130 C 
HETATM   15  O1  UNL     1      -1.833  -3.545   0.330  1.00  0.00    -0.298 OA
BRANCH  14  16
HETATM   16  C2  UNL     1      -3.738  -3.339  -0.943  1.00  0.00     0.074 C 
HETATM   17  C1  UNL     1      -5.025  -3.705  -0.248  1.00  0.00     0.013 C 
ENDBRANCH  14  16
ENDBRANCH  13  14
ENDBRANCH  12  13
BRANCH  12  18
HETATM   18  C6  UNL     1      -3.300   0.097  -1.597  1.00  0.00    -0.022 C 
HETATM   19  C7  UNL     1      -4.750   0.361  -1.531  1.00  0.00     0.036 C 
ENDBRANCH  12  18
ENDBRANCH   1  12
BRANCH   2  20
HETATM   20  O2  UNL     1      -3.090   2.627  -0.476  1.00  0.00    -0.345 OA
ATOM     21  H2  UNL     1      -3.259   3.559  -0.553  1.00  0.00     0.219 HD
ENDBRANCH   2  20
BRANCH   3  22
HETATM   22  C10 UNL     1      -1.316   4.599  -0.005  1.00  0.00     0.159 C 
BRANCH  22  23
HETATM   23  C11 UNL     1      -1.732   5.195   1.292  1.00  0.00     0.184 C 
BRANCH  23  24
HETATM   24  O3  UNL     1      -2.809   4.654   1.915  1.00  0.00    -0.399 OA
ATOM     25  H3  UNL     1      -3.075   5.035   2.744  1.00  0.00     0.209 HD
ENDBRANCH  23  24
ENDBRANCH  22  23
ENDBRANCH   3  22
BRANCH   9  26
HETATM   26  C14 UNL     1       2.921  -1.271   1.022  1.00  0.00     0.042 C 
HETATM   27  C15 UNL     1       3.939  -0.706   1.939  1.00  0.00     0.037 C 
HETATM   28  C16 UNL     1       5.310  -1.274   1.851  1.00  0.00     0.169 C 
HETATM   29  O4  UNL     1       5.589  -1.966   0.677  1.00  0.00    -0.381 OA
HETATM   30  C17 UNL     1       4.976  -1.433  -0.432  1.00  0.00     0.054 C 
HETATM   31  C18 UNL     1       5.506  -2.202  -1.663  1.00  0.00     0.045 C 
HETATM   32  C19 UNL     1       5.298   0.023  -0.679  1.00  0.00     0.045 C 
HETATM   33  C20 UNL     1       3.475  -1.578  -0.368  1.00  0.00     0.048 C 
ENDBRANCH   9  26
TORSDOF 10
