REMARK  2 active torsions:
REMARK  status: ('A' for Active; 'I' for Inactive)
REMARK    1  A    between atoms: C2_2  and  N1_3 
REMARK    2  A    between atoms: C2_2  and  C4_8 
ROOT
HETATM    1  C4  UNL     1      -0.553  -0.534  -0.079  1.00  0.00     0.018 C 
HETATM    2  C5  UNL     1      -1.128   0.175  -1.287  1.00  0.00     0.017 C 
HETATM    3  C6  UNL     1      -2.326   0.893  -0.696  1.00  0.00     0.059 C 
HETATM    4  C7  UNL     1      -3.233  -0.150  -0.090  1.00  0.00     0.011 C 
HETATM    5  C8  UNL     1      -2.575  -0.552   1.236  1.00  0.00     0.011 C 
HETATM    6  C9  UNL     1      -1.188   0.103   1.094  1.00  0.00     0.064 C 
HETATM    7  C10 UNL     1      -1.690   1.457   0.569  1.00  0.00     0.251 C 
HETATM    8  F1  UNL     1      -0.734   2.372   0.371  1.00  0.00    -0.206 F 
HETATM    9  F2  UNL     1      -2.684   1.859   1.453  1.00  0.00    -0.206 F 
ENDROOT
BRANCH   1  10
HETATM   10  C2  UNL     1       0.930  -0.643  -0.063  1.00  0.00     0.084 C 
HETATM   11  C1  UNL     1       1.465  -1.412  -1.266  1.00  0.00     0.032 C 
BRANCH  10  12
HETATM   12  N1  UNL     1       1.663   0.577   0.012  1.00  0.00    -0.362 N 
HETATM   13  C3  UNL     1       2.892   0.536   0.401  1.00  0.00     0.197 C 
HETATM   14  N2  UNL     1       3.578  -0.651   0.767  1.00  0.00    -0.067 NA
HETATM   15  N3  UNL     1       3.610   1.760   0.471  1.00  0.00    -0.067 NA
ATOM     16  H1  UNL     1       1.225   1.464  -0.237  1.00  0.00     0.162 HD
ENDBRANCH  10  12
ENDBRANCH   1  10
TORSDOF 2
