REMARK  2 active torsions:
REMARK  status: ('A' for Active; 'I' for Inactive)
REMARK    1  A    between atoms: O1_1  and  C1_3 
REMARK    2  A    between atoms: C5_8  and  C6_9 
ROOT
HETATM    1  C1  UNL     1       3.442   0.275  -0.716  1.00  0.00     0.159 C 
HETATM    2  C2  UNL     1       2.043   0.015  -1.224  1.00  0.00     0.046 C 
HETATM    3  C3  UNL     1       1.118   0.285  -0.036  1.00  0.00    -0.008 C 
HETATM    4  C4  UNL     1       0.938   1.733   0.106  1.00  0.00     0.085 C 
HETATM    5  S1  UNL     1      -0.859   1.979   0.172  1.00  0.00    -0.159 SA
HETATM    6  C5  UNL     1      -1.276   0.350  -0.546  1.00  0.00     0.081 C 
HETATM    7  C11 UNL     1      -0.117  -0.470  -0.155  1.00  0.00     0.032 C 
HETATM    8  C12 UNL     1       1.984  -0.204   1.134  1.00  0.00     0.133 C 
HETATM    9 CL2  UNL     1       1.463   0.565   2.649  1.00  0.00    -0.121 Cl
HETATM   10  C13 UNL     1       3.392   0.136   0.781  1.00  0.00     0.156 C 
HETATM   11 CL3  UNL     1       4.531  -1.159   1.251  1.00  0.00    -0.097 Cl
HETATM   12 CL4  UNL     1       3.958   1.628   1.574  1.00  0.00    -0.097 Cl
ENDROOT
BRANCH   1  13
HETATM   13  O1  UNL     1       4.372  -0.593  -1.296  1.00  0.00    -0.392 OA
ATOM     14  H1  UNL     1       5.252  -0.430  -0.977  1.00  0.00     0.210 HD
ENDBRANCH   1  13
BRANCH   6  15
HETATM   15  C6  UNL     1      -2.581  -0.089  -0.077  1.00  0.00    -0.040 A 
HETATM   16  C7  UNL     1      -2.892  -0.345   1.240  1.00  0.00     0.025 A 
HETATM   17  C8  UNL     1      -4.151  -0.758   1.616  1.00  0.00     0.089 A 
HETATM   18  N1  UNL     1      -5.110  -0.918   0.664  1.00  0.00    -0.357 N 
HETATM   19  C9  UNL     1      -4.860  -0.683  -0.633  1.00  0.00     0.103 A 
ATOM     20  H1  UNL     1      -6.042  -1.224   0.943  1.00  0.00     0.166 HD
HETATM   21 CL1  UNL     1      -6.150  -0.910  -1.814  1.00  0.00    -0.065 Cl
HETATM   22  C10 UNL     1      -3.602  -0.272  -0.987  1.00  0.00     0.050 A 
ENDBRANCH   6  15
TORSDOF 2
