REMARK  11 active torsions:
REMARK  status: ('A' for Active; 'I' for Inactive)
REMARK    1  A    between atoms: N1_1  and  C1_5 
REMARK    2  A    between atoms: C1_5  and  C2_6 
REMARK    3  A    between atoms: C2_6  and  C3_7 
REMARK    4  A    between atoms: C2_6  and  C21_32 
REMARK    5  A    between atoms: C3_7  and  N2_8 
REMARK    6  A    between atoms: N3_10  and  C5_12 
REMARK    7  A    between atoms: C9_16  and  C10_17 
REMARK    8  A    between atoms: C21_32  and  O3_33 
REMARK    9  A    between atoms: C21_32  and  C29_45 
REMARK   10  A    between atoms: O3_33  and  N4_34 
REMARK   11  A    between atoms: C22_36  and  C23_37 
ROOT
HETATM    1  C2  UNL     1      -1.464  -1.734  -1.633  1.00  0.00     0.065 C 
ENDROOT
BRANCH   1   2
HETATM    2  C1  UNL     1      -1.458  -2.080  -3.090  1.00  0.00     0.238 C 
BRANCH   2   3
HETATM    3  N1  UNL     1      -1.228  -3.477  -3.362  1.00  0.00    -0.079 N 
ATOM      4  H13 UNL     1      -0.366  -3.791  -2.916  1.00  0.00     0.274 HD
ATOM      5  H12 UNL     1      -1.902  -4.055  -2.860  1.00  0.00     0.274 HD
ATOM      6  H11 UNL     1      -1.224  -3.713  -4.354  1.00  0.00     0.274 HD
ENDBRANCH   2   3
ENDBRANCH   1   2
BRANCH   1   7
HETATM    7  C3  UNL     1      -0.220  -2.008  -0.903  1.00  0.00     0.134 C 
BRANCH   7   8
HETATM    8  N2  UNL     1       1.018  -1.429  -1.332  1.00  0.00    -0.354 N 
HETATM    9  C4  UNL     1       1.739  -0.430  -0.613  1.00  0.00     0.143 C 
HETATM   10  N3  UNL     1       1.342   0.560   0.105  1.00  0.00    -0.337 N 
HETATM   11  S1  UNL     1       3.514  -0.826  -0.904  1.00  0.00    -0.086 SA
ATOM     12  H3  UNL     1       0.346   0.734   0.237  1.00  0.00     0.168 HD
HETATM   13  C17 UNL     1       3.156  -2.263  -1.955  1.00  0.00     0.093 C 
HETATM   14  C18 UNL     1       4.061  -2.396  -3.112  1.00  0.00     0.158 C 
HETATM   15  C20 UNL     1       1.826  -1.686  -2.510  1.00  0.00     0.115 C 
HETATM   16  S2  UNL     1       3.679  -0.924  -4.072  1.00  0.00     0.147 S 
HETATM   17  O1  UNL     1       3.345  -1.241  -5.477  1.00  0.00    -0.228 OA
HETATM   18  O2  UNL     1       4.811   0.013  -3.912  1.00  0.00    -0.228 OA
HETATM   19  C19 UNL     1       2.225  -0.385  -3.160  1.00  0.00     0.166 C 
BRANCH  10  20
HETATM   20  C5  UNL     1       2.303   1.408   0.711  1.00  0.00     0.034 A 
HETATM   21  C6  UNL     1       2.261   2.789   0.473  1.00  0.00     0.029 A 
HETATM   22  C7  UNL     1       3.197   3.610   1.054  1.00  0.00     0.003 A 
HETATM   23  C8  UNL     1       4.177   3.078   1.874  1.00  0.00     0.012 A 
HETATM   24  C9  UNL     1       4.242   1.716   2.128  1.00  0.00    -0.024 A 
HETATM   25  C16 UNL     1       3.285   0.928   1.525  1.00  0.00     0.041 A 
BRANCH  24  26
HETATM   26  C10 UNL     1       5.269   1.145   2.988  1.00  0.00    -0.026 A 
HETATM   27  C11 UNL     1       6.531   1.712   3.056  1.00  0.00     0.012 A 
HETATM   28  C12 UNL     1       7.527   1.191   3.870  1.00  0.00     0.001 A 
HETATM   29  C13 UNL     1       7.282   0.086   4.636  1.00  0.00     0.000 A 
HETATM   30  C14 UNL     1       6.038  -0.498   4.587  1.00  0.00     0.001 A 
HETATM   31  C15 UNL     1       5.056   0.032   3.773  1.00  0.00     0.012 A 
ENDBRANCH  24  26
ENDBRANCH  10  20
ENDBRANCH   7   8
ENDBRANCH   1   7
BRANCH   1  32
HETATM   32  C21 UNL     1      -2.264  -0.502  -1.285  1.00  0.00     0.192 C 
BRANCH  32  33
HETATM   33  O3  UNL     1      -2.383  -0.212   0.049  1.00  0.00    -0.270 OA
BRANCH  33  34
HETATM   34  N4  UNL     1      -1.992   0.537   0.985  1.00  0.00    -0.276 N 
HETATM   35  C22 UNL     1      -2.245   1.233   1.959  1.00  0.00     0.125 C 
ATOM     36  H4  UNL     1      -0.979   0.586   0.880  1.00  0.00     0.193 HD
BRANCH  35  37
HETATM   37  C23 UNL     1      -3.546   1.536   2.581  1.00  0.00    -0.017 A 
HETATM   38  C24 UNL     1      -3.627   2.352   3.687  1.00  0.00     0.016 A 
HETATM   39  C25 UNL     1      -4.836   2.640   4.280  1.00  0.00     0.045 A 
HETATM   40  C26 UNL     1      -5.981   2.086   3.736  1.00  0.00     0.140 A 
HETATM   41  F1  UNL     1      -7.223   2.329   4.275  1.00  0.00    -0.204 F 
HETATM   42  C27 UNL     1      -5.910   1.272   2.633  1.00  0.00     0.085 A 
HETATM   43  N5  UNL     1      -7.121   0.697   2.073  1.00  0.00    -0.099 NA
HETATM   44  C28 UNL     1      -4.690   1.005   2.066  1.00  0.00     0.042 A 
ENDBRANCH  35  37
ENDBRANCH  33  34
ENDBRANCH  32  33
BRANCH  32  45
HETATM   45  C29 UNL     1      -3.606  -0.520  -1.883  1.00  0.00    -0.026 A 
HETATM   46  C30 UNL     1      -4.600  -1.318  -1.399  1.00  0.00     0.010 A 
HETATM   47  C31 UNL     1      -5.855  -1.304  -1.969  1.00  0.00     0.001 A 
HETATM   48  C32 UNL     1      -6.120  -0.478  -3.039  1.00  0.00     0.000 A 
HETATM   49  C33 UNL     1      -5.131   0.337  -3.545  1.00  0.00     0.001 A 
HETATM   50  C34 UNL     1      -3.890   0.289  -2.943  1.00  0.00     0.010 A 
ENDBRANCH  32  45
ENDBRANCH   1  32
TORSDOF 11
