REMARK  1 active torsions:
REMARK  status: ('A' for Active; 'I' for Inactive)
REMARK    1  A    between atoms: N4_10  and  C4_11 
ROOT
HETATM    1  N1  UNL     1       0.645   1.605  -1.449  1.00  0.00    -0.062 NA
HETATM    2  C1  UNL     1      -0.396   0.674  -1.146  1.00  0.00     0.211 C 
HETATM    3  N2  UNL     1      -1.298   0.371  -2.018  1.00  0.00    -0.271 N 
ATOM      4  H2  UNL     1      -1.276   0.797  -2.944  1.00  0.00     0.189 HD
HETATM    5  N3  UNL     1      -2.298  -0.536  -1.693  1.00  0.00    -0.266 N 
ATOM      6  H3  UNL     1      -3.016  -0.785  -2.373  1.00  0.00     0.190 HD
HETATM    7  C2  UNL     1      -2.299  -1.112  -0.386  1.00  0.00     0.254 C 
HETATM    8  O1  UNL     1      -2.812  -2.233  -0.228  1.00  0.00    -0.270 OA
HETATM    9  C3  UNL     1      -1.675  -0.324   0.737  1.00  0.00     0.238 C 
HETATM   10  N4  UNL     1      -0.382   0.100   0.148  1.00  0.00    -0.295 N 
ENDROOT
BRANCH  10  11
HETATM   11  C4  UNL     1       0.820  -0.086   0.863  1.00  0.00     0.143 A 
HETATM   12  C5  UNL     1       2.142   0.002   0.525  1.00  0.00     0.158 A 
HETATM   13  N5  UNL     1       2.937  -0.263   1.579  1.00  0.00    -0.294 N 
HETATM   14  N6  UNL     1       2.124  -0.517   2.579  1.00  0.00    -0.241 N 
ATOM     15  H5  UNL     1       3.957  -0.266   1.597  1.00  0.00     0.187 HD
HETATM   16  N7  UNL     1       0.863  -0.421   2.190  1.00  0.00    -0.270 N 
ATOM     17  H6  UNL     1       2.423  -0.755   3.525  1.00  0.00     0.208 HD
ATOM     18  H7  UNL     1       0.049  -0.573   2.786  1.00  0.00     0.190 HD
ENDBRANCH  10  11
TORSDOF 1
