REMARK  0 active torsions:
REMARK  status: ('A' for Active; 'I' for Inactive)
ROOT
HETATM    1  O1  UNL     1       3.101  -0.418  -0.116  1.00  0.00    -0.247 OA
HETATM    2  C1  UNL     1       1.855  -0.220  -0.067  1.00  0.00     0.328 A 
HETATM    3  N1  UNL     1       1.357   1.027   0.040  1.00  0.00    -0.273 N 
ATOM      4  H1  UNL     1       2.011   1.809   0.081  1.00  0.00     0.173 HD
HETATM    5  C2  UNL     1       0.040   1.292   0.096  1.00  0.00     0.281 A 
HETATM    6  O2  UNL     1      -0.379   2.478   0.197  1.00  0.00    -0.265 OA
HETATM    7  C3  UNL     1      -0.863   0.246   0.042  1.00  0.00     0.160 A 
HETATM    8  N2  UNL     1      -2.208   0.169   0.073  1.00  0.00    -0.276 N 
ATOM      9  H2  UNL     1      -2.849   0.959   0.150  1.00  0.00     0.184 HD
HETATM   10  N3  UNL     1      -2.558  -1.108  -0.014  1.00  0.00    -0.020 NA
HETATM   11  N4  UNL     1      -1.455  -1.857  -0.100  1.00  0.00    -0.267 N 
ATOM     12  H4  UNL     1      -1.430  -2.874  -0.177  1.00  0.00     0.186 HD
HETATM   13  C4  UNL     1      -0.369  -1.035  -0.068  1.00  0.00     0.156 A 
HETATM   14  N5  UNL     1       0.963  -1.230  -0.119  1.00  0.00    -0.291 N 
ATOM     15  H5  UNL     1       1.313  -2.185  -0.201  1.00  0.00     0.172 HD
ENDROOT
TORSDOF 0
