REMARK  12 active torsions:
REMARK  status: ('A' for Active; 'I' for Inactive)
REMARK    1  A    between atoms: C2_2  and  C3_3 
REMARK    2  A    between atoms: C3_3  and  O1_4 
REMARK    3  A    between atoms: C3_3  and  N1_6 
REMARK    4  A    between atoms: C4_8  and  O2_9 
REMARK    5  A    between atoms: C4_8  and  N2_11 
REMARK    6  A    between atoms: N2_11  and  C5_13 
REMARK    7  A    between atoms: C5_13  and  C6_14 
REMARK    8  A    between atoms: C5_13  and  C8_22 
REMARK    9  A    between atoms: C6_14  and  C7_15 
REMARK   10  A    between atoms: C7_15  and  N3_16 
REMARK   11  A    between atoms: C7_15  and  O3_20 
REMARK       I    between atoms: C8_22  and  N4_24 
REMARK   12  A    between atoms: N4_24  and  N5_26 
ROOT
HETATM    1  N2  UNL     1      -0.496  -0.024   0.500  1.00  0.00    -0.343 N 
ATOM      2  H2  UNL     1       0.036  -0.302  -0.325  1.00  0.00     0.164 HD
ENDROOT
BRANCH   1   3
HETATM    3  C4  UNL     1       0.099   0.747   1.468  1.00  0.00     0.219 C 
HETATM    4  N1  UNL     1       1.342   1.287   1.633  1.00  0.00    -0.303 N 
ATOM      5  H1  UNL     1       1.359   1.797   2.516  1.00  0.00     0.171 HD
BRANCH   4   6
HETATM    6  C3  UNL     1       2.578   1.394   1.044  1.00  0.00     0.150 C 
BRANCH   6   7
HETATM    7  C2  UNL     1       3.247   0.908  -0.114  1.00  0.00     0.010 C 
HETATM    8  C1  UNL     1       2.643  -0.044  -1.083  1.00  0.00     0.054 C 
HETATM    9  C9  UNL     1       4.533   1.264  -0.412  1.00  0.00     0.110 A 
HETATM   10  C10 UNL     1       5.462   0.915  -1.484  1.00  0.00     0.264 A 
HETATM   11  C11 UNL     1       5.566   2.110   0.129  1.00  0.00     0.264 A 
HETATM   12  O5  UNL     1       5.416   0.160  -2.517  1.00  0.00    -0.267 OA
HETATM   13  N6  UNL     1       6.464   1.743  -0.948  1.00  0.00    -0.289 N 
ATOM     14  H6  UNL     1       7.420   1.984  -1.208  1.00  0.00     0.172 HD
HETATM   15  O6  UNL     1       5.751   2.890   1.108  1.00  0.00    -0.267 OA
ENDBRANCH   6   7
BRANCH   6  16
HETATM   16  O1  UNL     1       3.370   2.190   1.790  1.00  0.00    -0.346 OA
ATOM     17  H1  UNL     1       2.923   2.514   2.563  1.00  0.00     0.219 HD
ENDBRANCH   6  16
ENDBRANCH   4   6
BRANCH   3  18
HETATM   18  O2  UNL     1      -0.769   1.013   2.462  1.00  0.00    -0.332 OA
ATOM     19  H2  UNL     1      -1.634   0.637   2.347  1.00  0.00     0.220 HD
ENDBRANCH   3  18
ENDBRANCH   1   3
BRANCH   1  20
HETATM   20  C5  UNL     1      -1.946  -0.467   0.651  1.00  0.00     0.183 C 
BRANCH  20  21
HETATM   21  C6  UNL     1      -2.654   0.140  -0.495  1.00  0.00     0.096 C 
BRANCH  21  22
HETATM   22  C7  UNL     1      -4.099  -0.091  -0.650  1.00  0.00     0.318 C 
BRANCH  22  23
HETATM   23  N3  UNL     1      -4.622   0.605  -1.849  1.00  0.00    -0.053 N 
ATOM     24  H33 UNL     1      -4.400   1.600  -1.833  1.00  0.00     0.277 HD
ATOM     25  H32 UNL     1      -4.107   0.344  -2.690  1.00  0.00     0.277 HD
ATOM     26  H31 UNL     1      -5.624   0.445  -1.956  1.00  0.00     0.277 HD
ENDBRANCH  22  23
BRANCH  22  27
HETATM   27  O3  UNL     1      -4.888   0.306   0.392  1.00  0.00    -0.370 OA
ATOM     28  H3  UNL     1      -5.821   0.157   0.292  1.00  0.00     0.212 HD
ENDBRANCH  22  27
ENDBRANCH  21  22
ENDBRANCH  20  21
BRANCH  20  29
HETATM   29  C8  UNL     1      -1.895  -1.923   0.718  1.00  0.00     0.258 C 
HETATM   30  O4  UNL     1      -0.803  -2.544   0.546  1.00  0.00    -0.269 OA
HETATM   31  N4  UNL     1      -3.054  -2.690   0.977  1.00  0.00    -0.275 N 
ATOM     32  H4  UNL     1      -3.956  -2.238   1.126  1.00  0.00     0.189 HD
BRANCH  31  33
HETATM   33  N5  UNL     1      -2.934  -4.084   1.024  1.00  0.00    -0.343 N 
ATOM     34  H52 UNL     1      -2.025  -4.520   0.873  1.00  0.00     0.176 HD
ATOM     35  H51 UNL     1      -3.770  -4.637   1.211  1.00  0.00     0.176 HD
ENDBRANCH  31  33
ENDBRANCH  20  29
ENDBRANCH   1  20
TORSDOF 12
