REMARK  9 active torsions:
REMARK  status: ('A' for Active; 'I' for Inactive)
REMARK    1  A    between atoms: C2_2  and  C3_3 
REMARK    2  A    between atoms: C2_2  and  S1_28 
REMARK    3  A    between atoms: C3_3  and  C4_4 
REMARK    4  A    between atoms: C4_4  and  N1_5 
REMARK    5  A    between atoms: C4_4  and  C5_9 
REMARK       I    between atoms: C5_9  and  N2_11 
REMARK    6  A    between atoms: N2_11  and  N3_13 
REMARK       I    between atoms: N3_13  and  C6_15 
REMARK    7  A    between atoms: C6_15  and  C7_17 
REMARK    8  A    between atoms: S1_28  and  N7_29 
REMARK    9  A    between atoms: N7_29  and  N8_30 
ROOT
HETATM    1  C5  UNL     1       0.650  -1.046  -0.171  1.00  0.00     0.266 C 
HETATM    2  O1  UNL     1       0.589  -2.260  -0.481  1.00  0.00    -0.269 OA
HETATM    3  N2  UNL     1      -0.235  -0.551   0.817  1.00  0.00    -0.265 N 
ATOM      4  H2  UNL     1      -0.163   0.439   1.051  1.00  0.00     0.190 HD
ENDROOT
BRANCH   3   5
HETATM    5  N3  UNL     1      -1.186  -1.287   1.492  1.00  0.00    -0.261 N 
HETATM    6  C6  UNL     1      -2.554  -0.978   1.387  1.00  0.00     0.304 C 
HETATM    7  O2  UNL     1      -2.912  -0.018   0.668  1.00  0.00    -0.263 OA
ATOM      8  H3  UNL     1      -0.892  -2.069   2.077  1.00  0.00     0.190 HD
BRANCH   6   9
HETATM    9  C7  UNL     1      -3.590  -1.736   2.088  1.00  0.00     0.184 A 
HETATM   10  N4  UNL     1      -3.284  -2.783   2.886  1.00  0.00    -0.290 N 
HETATM   11  C8  UNL     1      -4.256  -3.462   3.517  1.00  0.00     0.329 A 
ATOM     12  H4  UNL     1      -2.310  -3.059   3.010  1.00  0.00     0.172 HD
HETATM   13  O3  UNL     1      -3.905  -4.439   4.256  1.00  0.00    -0.246 OA
HETATM   14  N5  UNL     1      -5.555  -3.143   3.391  1.00  0.00    -0.260 N 
HETATM   15  C9  UNL     1      -5.860  -2.104   2.599  1.00  0.00     0.329 A 
ATOM     16  H5  UNL     1      -6.280  -3.670   3.878  1.00  0.00     0.175 HD
HETATM   17  O4  UNL     1      -7.088  -1.787   2.467  1.00  0.00    -0.246 OA
HETATM   18  N6  UNL     1      -4.892  -1.422   1.966  1.00  0.00    -0.290 N 
ATOM     19  H6  UNL     1      -5.154  -0.636   1.370  1.00  0.00     0.172 HD
ENDBRANCH   6   9
ENDBRANCH   3   5
BRANCH   1  20
HETATM   20  C4  UNL     1       1.627  -0.191  -0.836  1.00  0.00     0.277 C 
BRANCH  20  21
HETATM   21  C3  UNL     1       1.021   1.057  -1.436  1.00  0.00     0.059 C 
BRANCH  21  22
HETATM   22  C2  UNL     1       2.075   1.964  -1.954  1.00  0.00     0.065 C 
HETATM   23  C1  UNL     1       1.685   3.252  -2.583  1.00  0.00     0.022 C 
BRANCH  22  24
HETATM   24  S1  UNL     1       3.643   1.627  -1.868  1.00  0.00    -0.037 SA
BRANCH  24  25
HETATM   25  N7  UNL     1       4.611   2.886  -2.557  1.00  0.00    -0.073 NA
BRANCH  25  26
HETATM   26  N8  UNL     1       5.950   2.542  -2.660  1.00  0.00    -0.338 N 
ATOM     27  H82 UNL     1       6.311   1.638  -2.357  1.00  0.00     0.173 HD
ATOM     28  H81 UNL     1       6.520   3.284  -3.066  1.00  0.00     0.173 HD
ENDBRANCH  25  26
ENDBRANCH  24  25
ENDBRANCH  22  24
ENDBRANCH  21  22
ENDBRANCH  20  21
BRANCH  20  29
HETATM   29  N1  UNL     1       2.392  -0.929  -1.795  1.00  0.00    -0.066 N 
ATOM     30  H13 UNL     1       1.837  -1.148  -2.622  1.00  0.00     0.275 HD
ATOM     31  H12 UNL     1       3.105  -0.343  -2.230  1.00  0.00     0.275 HD
ATOM     32  H11 UNL     1       2.801  -1.771  -1.390  1.00  0.00     0.275 HD
ENDBRANCH  20  29
ENDBRANCH   1  20
TORSDOF 9
