REMARK  5 active torsions:
REMARK  status: ('A' for Active; 'I' for Inactive)
REMARK    1  A    between atoms: C2_2  and  O2_4 
REMARK    2  A    between atoms: O2_4  and  C3_5 
REMARK    3  A    between atoms: C3_5  and  C4_6 
REMARK    4  A    between atoms: C4_6  and  C6_8 
REMARK    5  A    between atoms: C15_17  and  O3_18 
ROOT
HETATM    1  C6  UNL     1       2.556  -0.815   0.361  1.00  0.00    -0.008 C 
HETATM    2  C7  UNL     1       2.709   0.600  -0.095  1.00  0.00     0.006 C 
HETATM    3  C8  UNL     1       1.306   1.161   0.009  1.00  0.00     0.010 C 
HETATM    4  C9  UNL     1       0.421  -0.023  -0.116  1.00  0.00    -0.036 C 
HETATM    5  C10 UNL     1       1.237  -1.230  -0.311  1.00  0.00     0.015 C 
HETATM    6  C11 UNL     1      -0.730   0.192  -1.112  1.00  0.00     0.015 C 
HETATM    7  C12 UNL     1      -1.422   0.844   0.013  1.00  0.00    -0.004 C 
HETATM    8  C13 UNL     1      -2.869   0.791   0.181  1.00  0.00     0.001 C 
HETATM    9  C14 UNL     1      -3.532   1.774  -0.769  1.00  0.00     0.037 C 
HETATM   10  C15 UNL     1      -4.932   1.997  -0.178  1.00  0.00     0.118 C 
HETATM   11  C16 UNL     1      -5.653   0.687  -0.213  1.00  0.00     0.032 C 
HETATM   12  C17 UNL     1      -4.939  -0.302   0.716  1.00  0.00     0.012 C 
HETATM   13  C18 UNL     1      -3.518  -0.544   0.174  1.00  0.00    -0.040 C 
HETATM   14  C19 UNL     1      -3.672  -1.190  -1.153  1.00  0.00     0.015 C 
HETATM   15  C20 UNL     1      -2.825  -1.419   1.192  1.00  0.00     0.010 C 
HETATM   16  C21 UNL     1      -1.332  -1.472   0.982  1.00  0.00     0.006 C 
HETATM   17  C22 UNL     1      -0.690  -0.122   0.940  1.00  0.00    -0.002 C 
ENDROOT
BRANCH   1  18
HETATM   18  C4  UNL     1       3.673  -1.731  -0.035  1.00  0.00     0.010 C 
HETATM   19  C5  UNL     1       3.851  -1.851  -1.521  1.00  0.00     0.012 C 
BRANCH  18  20
HETATM   20  C3  UNL     1       4.961  -1.213   0.556  1.00  0.00     0.183 C 
BRANCH  20  21
HETATM   21  O2  UNL     1       5.357   0.028   0.070  1.00  0.00    -0.321 OA
BRANCH  21  22
HETATM   22  C2  UNL     1       6.502   0.644   0.500  1.00  0.00     0.254 C 
HETATM   23  C1  UNL     1       6.938   1.961  -0.003  1.00  0.00     0.126 C 
HETATM   24  O1  UNL     1       7.239   0.087   1.366  1.00  0.00    -0.266 OA
ENDBRANCH  21  22
ENDBRANCH  20  21
ENDBRANCH  18  20
ENDBRANCH   1  18
BRANCH  10  25
HETATM   25  O3  UNL     1      -5.608   3.010  -0.800  1.00  0.00    -0.396 OA
ATOM     26  H3  UNL     1      -6.474   3.148  -0.434  1.00  0.00     0.210 HD
ENDBRANCH  10  25
TORSDOF 5
