REMARK  6 active torsions:
REMARK  status: ('A' for Active; 'I' for Inactive)
REMARK    1  A    between atoms: C2_2  and  O1_3 
REMARK    2  A    between atoms: O1_3  and  C3_4 
REMARK    3  A    between atoms: C3_4  and  C4_5 
REMARK    4  A    between atoms: N1_6  and  C5_8 
REMARK    5  A    between atoms: C8_11  and  C9_12 
REMARK    6  A    between atoms: C14_18  and  O3_19 
ROOT
HETATM    1  C5  UNL     1       0.812   0.986  -0.303  1.00  0.00     0.090 C 
HETATM    2  C6  UNL     1       0.734  -0.290  -1.108  1.00  0.00     0.010 C 
HETATM    3  C7  UNL     1       0.148  -1.333  -0.227  1.00  0.00     0.019 C 
HETATM    4  C8  UNL     1      -1.377  -1.373  -0.378  1.00  0.00     0.065 C 
HETATM    5  C11 UNL     1      -1.985  -0.035  -0.390  1.00  0.00    -0.016 C 
HETATM    6  C12 UNL     1      -3.454  -0.018  -0.614  1.00  0.00     0.014 C 
HETATM    7  C13 UNL     1      -3.760   1.471  -0.483  1.00  0.00     0.033 C 
HETATM    8  C14 UNL     1      -2.793   2.012   0.502  1.00  0.00     0.127 C 
HETATM    9  C15 UNL     1      -1.613   1.021   0.558  1.00  0.00    -0.003 C 
HETATM   10  C16 UNL     1      -1.281   0.721   1.951  1.00  0.00     0.019 C 
HETATM   11  C17 UNL     1      -0.569   1.516  -0.372  1.00  0.00     0.025 C 
HETATM   12  C18 UNL     1      -1.302   0.777  -1.486  1.00  0.00     0.003 C 
HETATM   13  C19 UNL     1      -0.225   0.033  -2.208  1.00  0.00     0.012 C 
ENDROOT
BRANCH   1  14
HETATM   14  N1  UNL     1       1.791   1.903  -0.817  1.00  0.00    -0.395 N 
HETATM   15  C4  UNL     1       3.036   1.720  -0.781  1.00  0.00     0.082 C 
ATOM     16  H1  UNL     1       1.452   2.766  -1.242  1.00  0.00     0.159 HD
BRANCH  15  17
HETATM   17  C3  UNL     1       3.704   0.540  -0.210  1.00  0.00     0.211 C 
BRANCH  17  18
HETATM   18  O1  UNL     1       4.774   0.862   0.616  1.00  0.00    -0.387 OA
BRANCH  18  19
HETATM   19  C2  UNL     1       5.307  -0.345   1.083  1.00  0.00     0.163 C 
HETATM   20  C1  UNL     1       5.784  -1.215  -0.053  1.00  0.00     0.033 C 
ENDBRANCH  18  19
ENDBRANCH  17  18
ENDBRANCH  15  17
ENDBRANCH   1  14
BRANCH   4  21
HETATM   21  C9  UNL     1      -1.924  -2.379   0.545  1.00  0.00     0.128 C 
HETATM   22  C10 UNL     1      -3.310  -2.859   0.658  1.00  0.00     0.091 C 
HETATM   23  O2  UNL     1      -1.129  -2.907   1.343  1.00  0.00    -0.298 OA
ENDBRANCH   4  21
BRANCH   8  24
HETATM   24  O3  UNL     1      -3.360   2.178   1.763  1.00  0.00    -0.395 OA
ATOM     25  H3  UNL     1      -2.740   2.525   2.394  1.00  0.00     0.210 HD
ENDBRANCH   8  24
TORSDOF 6
