REMARK  4 active torsions:
REMARK  status: ('A' for Active; 'I' for Inactive)
REMARK    1  A    between atoms: N1_2  and  N2_4 
REMARK    2  A    between atoms: N2_4  and  C3_6 
REMARK    3  A    between atoms: C3_6  and  N3_8 
REMARK    4  A    between atoms: N3_8  and  C4_10 
ROOT
HETATM    1  C4  UNL     1      -0.234  -0.003  -0.260  1.00  0.00     0.033 C 
HETATM    2  C5  UNL     1      -0.771   0.203   1.153  1.00  0.00     0.035 C 
HETATM    3  C6  UNL     1      -2.137   0.740   1.254  1.00  0.00    -0.012 C 
HETATM    4  C7  UNL     1      -3.217  -0.319   1.298  1.00  0.00     0.005 C 
HETATM    5  C8  UNL     1      -2.805  -1.569   0.553  1.00  0.00     0.005 C 
HETATM    6  C9  UNL     1      -2.282  -1.281  -0.815  1.00  0.00    -0.012 C 
HETATM    7  C10 UNL     1      -2.838  -0.070  -1.473  1.00  0.00     0.009 C 
HETATM    8  C11 UNL     1      -2.159   1.212  -1.143  1.00  0.00    -0.012 C 
HETATM    9  C12 UNL     1      -2.518   1.750   0.216  1.00  0.00     0.009 C 
HETATM   10  C13 UNL     1      -0.631   1.104  -1.175  1.00  0.00     0.035 C 
HETATM   11  C14 UNL     1      -0.767  -1.296  -0.797  1.00  0.00     0.035 C 
ENDROOT
BRANCH   1  12
HETATM   12  N3  UNL     1       1.202  -0.074  -0.179  1.00  0.00    -0.357 N 
ATOM     13  H3  UNL     1       1.594   0.037   0.756  1.00  0.00     0.162 HD
BRANCH  12  14
HETATM   14  C3  UNL     1       2.139  -0.274  -1.206  1.00  0.00     0.182 C 
HETATM   15  S1  UNL     1       1.777  -0.481  -2.773  1.00  0.00    -0.040 SA
BRANCH  14  16
HETATM   16  N2  UNL     1       3.519  -0.305  -0.879  1.00  0.00    -0.296 N 
ATOM     17  H2  UNL     1       4.225  -0.449  -1.601  1.00  0.00     0.183 HD
BRANCH  16  18
HETATM   18  N1  UNL     1       3.886  -0.134   0.454  1.00  0.00    -0.238 NA
HETATM   19  C1  UNL     1       4.125   1.227   0.821  1.00  0.00     0.135 C 
HETATM   20  C2  UNL     1       4.880  -1.059   0.905  1.00  0.00     0.135 C 
ENDBRANCH  16  18
ENDBRANCH  14  16
ENDBRANCH  12  14
ENDBRANCH   1  12
TORSDOF 4
