REMARK  4 active torsions:
REMARK  status: ('A' for Active; 'I' for Inactive)
REMARK    1  A    between atoms: C2_2  and  C4_4 
REMARK    2  A    between atoms: C4_4  and  N1_5 
REMARK    3  A    between atoms: C8_10  and  C10_12 
REMARK    4  A    between atoms: C10_12  and  O1_13 
ROOT
HETATM    1  N1  UNL     1       1.373   0.353  -0.593  1.00  0.00    -0.408 N 
HETATM    2  C5  UNL     1       0.512   1.294  -1.218  1.00  0.00     0.147 C 
HETATM    3  C6  UNL     1      -0.830   0.772  -1.588  1.00  0.00     0.292 C 
HETATM    4  N2  UNL     1      -1.172  -0.489  -1.006  1.00  0.00     0.097 N 
HETATM    5  C7  UNL     1      -2.609  -0.562  -0.796  1.00  0.00     0.284 C 
HETATM    6  C8  UNL     1      -2.890  -0.125   0.601  1.00  0.00     0.006 C 
HETATM    7  C9  UNL     1      -3.435  -1.253   1.463  1.00  0.00     0.019 C 
HETATM    8  C11 UNL     1      -1.539   0.240   1.140  1.00  0.00     0.050 C 
HETATM    9  C12 UNL     1      -0.648  -0.698   0.315  1.00  0.00     0.241 C 
HETATM   10  C13 UNL     1       0.797  -0.401   0.468  1.00  0.00     0.152 C 
ENDROOT
BRANCH   1  11
HETATM   11  C4  UNL     1       2.698   0.816  -0.353  1.00  0.00     0.120 C 
BRANCH  11  12
HETATM   12  C2  UNL     1       3.572  -0.229   0.316  1.00  0.00    -0.005 C 
HETATM   13  C1  UNL     1       4.969   0.291   0.557  1.00  0.00     0.011 C 
HETATM   14  C3  UNL     1       3.712  -1.425  -0.620  1.00  0.00     0.011 C 
ENDBRANCH  11  12
ENDBRANCH   1  11
BRANCH   6  15
HETATM   15  C10 UNL     1      -3.880   0.994   0.637  1.00  0.00     0.175 C 
BRANCH  15  16
HETATM   16  O1  UNL     1      -5.063   0.546   0.051  1.00  0.00    -0.400 OA
ATOM     17  H1  UNL     1      -5.692   1.257   0.074  1.00  0.00     0.209 HD
ENDBRANCH  15  16
ENDBRANCH   6  15
TORSDOF 4
