REMARK  3 active torsions:
REMARK  status: ('A' for Active; 'I' for Inactive)
REMARK    1  A    between atoms: O1_1  and  C1_3 
REMARK    2  A    between atoms: C4_6  and  C5_7 
REMARK    3  A    between atoms: C5_7  and  N1_8 
ROOT
HETATM    1  C5  UNL     1      -1.056  -0.869  -0.103  1.00  0.00     0.038 A 
HETATM    2  C13 UNL     1      -1.242  -2.336   0.295  1.00  0.00     0.034 A 
HETATM    3  C14 UNL     1      -1.340  -1.939  -1.131  1.00  0.00     0.034 A 
ENDROOT
BRANCH   1   4
HETATM    4  C4  UNL     1      -2.168  -0.002   0.396  1.00  0.00     0.043 C 
HETATM    5  C1  UNL     1      -2.321   1.348  -0.279  1.00  0.00     0.124 C 
HETATM    6  C2  UNL     1      -3.827   1.197  -0.027  1.00  0.00     0.033 C 
HETATM    7  C3  UNL     1      -3.562  -0.317  -0.101  1.00  0.00     0.012 C 
BRANCH   5   8
HETATM    8  O1  UNL     1      -1.817   2.417   0.419  1.00  0.00    -0.395 OA
ATOM      9  H1  UNL     1      -0.885   2.510   0.263  1.00  0.00     0.210 HD
ENDBRANCH   5   8
ENDBRANCH   1   4
BRANCH   1  10
HETATM   10  N1  UNL     1       0.239  -0.315   0.004  1.00  0.00    -0.376 N 
HETATM   11  C6  UNL     1       0.762  -0.023   1.267  1.00  0.00     0.089 C 
HETATM   12  C7  UNL     1       2.127  -0.649   1.446  1.00  0.00     0.316 C 
HETATM   13  N2  UNL     1       2.933  -0.658   0.274  1.00  0.00     0.095 N 
HETATM   14  C8  UNL     1       3.604   0.589   0.012  1.00  0.00     0.273 C 
HETATM   15  C12 UNL     1       2.292  -1.101  -0.929  1.00  0.00     0.297 C 
HETATM   16  C9  UNL     1       2.875   1.550  -0.824  1.00  0.00     0.032 C 
HETATM   17  C10 UNL     1       1.525   1.212  -1.284  1.00  0.00     0.029 C 
HETATM   18  C11 UNL     1       1.068  -0.211  -1.114  1.00  0.00     0.112 C 
ENDBRANCH   1  10
TORSDOF 3
