REMARK  16 active torsions:
REMARK  status: ('A' for Active; 'I' for Inactive)
REMARK    1  A    between atoms: N1_1  and  C1_5 
REMARK    2  A    between atoms: C1_5  and  C2_6 
REMARK    3  A    between atoms: C2_6  and  C3_7 
REMARK    4  A    between atoms: C3_7  and  C4_8 
REMARK    5  A    between atoms: C4_8  and  C5_9 
REMARK    6  A    between atoms: C5_9  and  C6_10 
REMARK    7  A    between atoms: C5_9  and  N4_20 
REMARK    8  A    between atoms: C6_10  and  C7_11 
REMARK    9  A    between atoms: C7_11  and  C8_12 
REMARK   10  A    between atoms: C8_12  and  C9_13 
REMARK       I    between atoms: N4_20  and  C12_22 
REMARK   11  A    between atoms: C12_22  and  C13_24 
REMARK   12  A    between atoms: N5_28  and  C17_29 
REMARK   13  A    between atoms: C17_29  and  O2_30 
REMARK   14  A    between atoms: C17_29  and  C18_32 
REMARK   15  A    between atoms: C18_32  and  N6_33 
REMARK   16  A    between atoms: C18_32  and  C19_37 
ROOT
HETATM    1  N4  UNL     1      -0.918  -0.140   1.017  1.00  0.00    -0.355 N 
ATOM      2  H4  UNL     1      -1.100   0.164   1.974  1.00  0.00     0.162 HD
HETATM    3  C12 UNL     1       0.199   0.409   0.349  1.00  0.00     0.251 C 
HETATM    4  O1  UNL     1       0.455   0.061  -0.824  1.00  0.00    -0.271 OA
ENDROOT
BRANCH   1   5
HETATM    5  C5  UNL     1      -1.832  -1.119   0.422  1.00  0.00     0.084 C 
BRANCH   5   6
HETATM    6  C4  UNL     1      -1.688  -2.364   1.184  1.00  0.00     0.025 C 
BRANCH   6   7
HETATM    7  C3  UNL     1      -2.307  -3.642   0.860  1.00  0.00     0.004 C 
BRANCH   7   8
HETATM    8  C2  UNL     1      -3.789  -3.758   0.859  1.00  0.00     0.027 C 
BRANCH   8   9
HETATM    9  C1  UNL     1      -4.163  -5.241   0.575  1.00  0.00     0.229 C 
BRANCH   9  10
HETATM   10  N1  UNL     1      -3.605  -6.098   1.599  1.00  0.00    -0.079 N 
ATOM     11  H13 UNL     1      -2.598  -5.970   1.697  1.00  0.00     0.274 HD
ATOM     12  H12 UNL     1      -3.884  -5.806   2.536  1.00  0.00     0.274 HD
ATOM     13  H11 UNL     1      -3.850  -7.070   1.413  1.00  0.00     0.274 HD
ENDBRANCH   9  10
ENDBRANCH   8   9
ENDBRANCH   7   8
ENDBRANCH   6   7
ENDBRANCH   5   6
BRANCH   5  14
HETATM   14  C6  UNL     1      -3.212  -0.574   0.328  1.00  0.00     0.025 C 
BRANCH  14  15
HETATM   15  C7  UNL     1      -3.162   0.779  -0.471  1.00  0.00     0.008 C 
BRANCH  15  16
HETATM   16  C8  UNL     1      -4.582   1.292  -0.538  1.00  0.00     0.058 C 
BRANCH  16  17
HETATM   17  C9  UNL     1      -4.694   2.560  -1.261  1.00  0.00     0.025 A 
HETATM   18  C10 UNL     1      -4.914   2.691  -2.616  1.00  0.00     0.113 A 
HETATM   19  N2  UNL     1      -4.960   3.985  -2.926  1.00  0.00    -0.360 N 
HETATM   20  C11 UNL     1      -4.770   4.665  -1.774  1.00  0.00     0.180 A 
ATOM     21  H2  UNL     1      -5.109   4.385  -3.852  1.00  0.00     0.166 HD
HETATM   22  N3  UNL     1      -4.608   3.795  -0.756  1.00  0.00    -0.355 N 
ATOM     23  H3  UNL     1      -4.449   4.036   0.222  1.00  0.00     0.166 HD
ENDBRANCH  16  17
ENDBRANCH  15  16
ENDBRANCH  14  15
ENDBRANCH   5  14
ENDBRANCH   1   5
BRANCH   3  24
HETATM   24  C13 UNL     1       1.098   1.400   0.996  1.00  0.00     0.317 C 
HETATM   25  C14 UNL     1       0.360   2.740   1.150  1.00  0.00     0.047 C 
HETATM   26  C15 UNL     1       1.523   3.695   1.283  1.00  0.00     0.033 C 
HETATM   27  C16 UNL     1       2.762   2.912   0.940  1.00  0.00     0.277 C 
HETATM   28  N5  UNL     1       2.202   1.786   0.173  1.00  0.00     0.133 N 
BRANCH  28  29
HETATM   29  C17 UNL     1       3.200   0.741   0.040  1.00  0.00     0.394 C 
BRANCH  29  30
HETATM   30  O2  UNL     1       3.795   0.590   1.313  1.00  0.00    -0.366 OA
ATOM     31  H2  UNL     1       4.448  -0.094   1.226  1.00  0.00     0.212 HD
ENDBRANCH  29  30
BRANCH  29  32
HETATM   32  C18 UNL     1       4.231   1.226  -0.956  1.00  0.00     0.291 C 
BRANCH  32  33
HETATM   33  N6  UNL     1       3.586   1.380  -2.269  1.00  0.00    -0.065 N 
ATOM     34  H63 UNL     1       3.119   0.527  -2.576  1.00  0.00     0.275 HD
ATOM     35  H62 UNL     1       2.766   1.985  -2.232  1.00  0.00     0.275 HD
ATOM     36  H61 UNL     1       4.281   1.707  -2.940  1.00  0.00     0.275 HD
ENDBRANCH  32  33
BRANCH  32  37
HETATM   37  C19 UNL     1       5.346   0.256  -1.106  1.00  0.00     0.036 C 
HETATM   38  C20 UNL     1       6.620   0.504  -0.852  1.00  0.00     0.002 C 
HETATM   39  C21 UNL     1       7.447  -0.685  -1.111  1.00  0.00     0.048 C 
HETATM   40  C22 UNL     1       6.439  -1.804  -1.167  1.00  0.00     0.123 C 
HETATM   41  N7  UNL     1       5.217  -1.086  -1.545  1.00  0.00    -0.391 N 
ATOM     42  H7  UNL     1       4.416  -1.482  -2.037  1.00  0.00     0.159 HD
ENDBRANCH  32  37
ENDBRANCH  29  32
ENDBRANCH  28  29
ENDBRANCH   3  24
TORSDOF 16
