REMARK  16 active torsions:
REMARK  status: ('A' for Active; 'I' for Inactive)
REMARK    1  A    between atoms: C2_2  and  C3_3 
REMARK    2  A    between atoms: C3_3  and  C4_4 
REMARK    3  A    between atoms: C4_4  and  C5_5 
REMARK    4  A    between atoms: C5_5  and  C6_6 
REMARK    5  A    between atoms: C6_6  and  C7_7 
REMARK    6  A    between atoms: C8_8  and  C9_9 
REMARK    7  A    between atoms: C9_9  and  C10_10 
REMARK    8  A    between atoms: C10_10  and  O1_11 
REMARK    9  A    between atoms: C13_17  and  C14_18 
REMARK   10  A    between atoms: C16_20  and  O2_21 
REMARK   11  A    between atoms: C17_23  and  O3_24 
REMARK   12  A    between atoms: C18_26  and  N2_27 
REMARK   13  A    between atoms: N2_27  and  C19_30 
REMARK   14  A    between atoms: C19_30  and  C20_31 
REMARK   15  A    between atoms: C21_34  and  C22_35 
REMARK   16  A    between atoms: C22_35  and  O5_36 
ROOT
HETATM    1  C10 UNL     1      -0.158   1.052   0.569  1.00  0.00     0.128 C 
HETATM    2  C11 UNL     1      -0.621   2.439   0.259  1.00  0.00     0.027 C 
HETATM    3  N1  UNL     1       0.014   3.523   0.345  1.00  0.00    -0.398 N 
ATOM      4  H1  UNL     1      -0.523   4.347   0.073  1.00  0.00     0.158 HD
HETATM    5  C12 UNL     1       1.329   3.799   0.748  1.00  0.00     0.145 C 
HETATM    6  C13 UNL     1      -2.040   2.321  -0.162  1.00  0.00     0.073 C 
HETATM    7  C16 UNL     1      -2.211   0.904  -0.511  1.00  0.00     0.123 C 
HETATM    8  C17 UNL     1      -3.621   0.383  -0.329  1.00  0.00     0.189 C 
HETATM    9  C18 UNL     1      -3.669  -0.929   0.361  1.00  0.00     0.248 C 
HETATM   10  C21 UNL     1      -2.444  -1.760   0.268  1.00  0.00     0.179 C 
HETATM   11  O6  UNL     1      -1.265  -1.087   0.152  1.00  0.00    -0.370 OA
HETATM   12  C23 UNL     1      -1.374   0.205   0.542  1.00  0.00     0.200 C 
ENDROOT
BRANCH   1  13
HETATM   13  C9  UNL     1       0.984   0.637  -0.284  1.00  0.00     0.073 C 
BRANCH  13  14
HETATM   14  C8  UNL     1       1.578  -0.644   0.092  1.00  0.00    -0.027 C 
HETATM   15  C7  UNL     1       2.857  -0.703   0.451  1.00  0.00    -0.031 C 
BRANCH  15  16
HETATM   16  C6  UNL     1       3.530  -1.950   0.843  1.00  0.00     0.027 C 
BRANCH  16  17
HETATM   17  C5  UNL     1       4.685  -2.253  -0.059  1.00  0.00     0.004 C 
BRANCH  17  18
HETATM   18  C4  UNL     1       5.717  -1.169  -0.037  1.00  0.00     0.000 C 
BRANCH  18  19
HETATM   19  C3  UNL     1       6.831  -1.587  -0.984  1.00  0.00    -0.000 C 
BRANCH  19  20
HETATM   20  C2  UNL     1       7.920  -0.524  -1.012  1.00  0.00    -0.005 C 
HETATM   21  C1  UNL     1       7.357   0.808  -1.485  1.00  0.00     0.005 C 
ENDBRANCH  19  20
ENDBRANCH  18  19
ENDBRANCH  17  18
ENDBRANCH  16  17
ENDBRANCH  15  16
ENDBRANCH  13  14
ENDBRANCH   1  13
BRANCH   1  22
HETATM   22  O1  UNL     1       0.294   1.146   1.914  1.00  0.00    -0.381 OA
ATOM     23  H1  UNL     1      -0.437   1.412   2.460  1.00  0.00     0.211 HD
ENDBRANCH   1  22
BRANCH   6  24
HETATM   24  C14 UNL     1      -2.385   3.283  -1.273  1.00  0.00     0.009 C 
HETATM   25  C15 UNL     1      -2.169   4.708  -0.856  1.00  0.00     0.006 C 
ENDBRANCH   6  24
BRANCH   7  26
HETATM   26  O2  UNL     1      -1.704   0.547  -1.756  1.00  0.00    -0.384 OA
ATOM     27  H2  UNL     1      -1.815  -0.369  -1.982  1.00  0.00     0.210 HD
ENDBRANCH   7  26
BRANCH   8  28
HETATM   28  O3  UNL     1      -4.352   1.339   0.411  1.00  0.00    -0.390 OA
ATOM     29  H3  UNL     1      -5.237   1.012   0.525  1.00  0.00     0.210 HD
ENDBRANCH   8  28
BRANCH  10  30
HETATM   30  C22 UNL     1      -2.497  -2.795  -0.862  1.00  0.00     0.198 C 
BRANCH  30  31
HETATM   31  O5  UNL     1      -1.371  -3.626  -0.646  1.00  0.00    -0.398 OA
ATOM     32  H5  UNL     1      -1.404  -4.267  -1.346  1.00  0.00     0.209 HD
ENDBRANCH  30  31
ENDBRANCH  10  30
BRANCH   9  33
HETATM   33  N2  UNL     1      -4.793  -1.758  -0.090  1.00  0.00    -0.058 N 
ATOM     34  H22 UNL     1      -4.706  -1.985  -1.081  1.00  0.00     0.278 HD
ATOM     35  H21 UNL     1      -4.734  -2.699   0.300  1.00  0.00     0.278 HD
BRANCH  33  36
HETATM   36  C19 UNL     1      -6.061  -1.164   0.191  1.00  0.00     0.331 C 
BRANCH  36  37
HETATM   37  C20 UNL     1      -7.128  -2.072  -0.299  1.00  0.00     0.256 C 
HETATM   38  N3  UNL     1      -6.792  -3.301  -0.927  1.00  0.00    -0.061 NA
HETATM   39  O4  UNL     1      -8.349  -1.786  -0.176  1.00  0.00    -0.275 OA
ENDBRANCH  36  37
ENDBRANCH  33  36
ENDBRANCH   9  33
TORSDOF 16
