REMARK  9 active torsions:
REMARK  status: ('A' for Active; 'I' for Inactive)
REMARK    1  A    between atoms: C2_2  and  N1_3 
REMARK    2  A    between atoms: N1_3  and  C3_5 
REMARK    3  A    between atoms: C3_5  and  N2_7 
REMARK    4  A    between atoms: N2_7  and  N3_9 
REMARK    5  A    between atoms: C4_11  and  C5_12 
REMARK    6  A    between atoms: C5_12  and  C6_13 
REMARK    7  A    between atoms: C6_13  and  C7_14 
REMARK    8  A    between atoms: C14_22  and  O1_23 
REMARK    9  A    between atoms: C19_29  and  O2_30 
ROOT
HETATM    1  C7  UNL     1      -0.571   0.175  -0.634  1.00  0.00    -0.035 C 
HETATM    2  C8  UNL     1       0.154   0.957  -1.677  1.00  0.00     0.016 C 
HETATM    3  C9  UNL     1      -0.380  -1.315  -0.829  1.00  0.00     0.012 C 
HETATM    4  C10 UNL     1      -1.777  -1.913  -0.976  1.00  0.00     0.032 C 
HETATM    5  C11 UNL     1      -2.561  -0.751  -1.455  1.00  0.00     0.071 C 
HETATM    6 CL1  UNL     1      -2.360  -0.464  -3.179  1.00  0.00    -0.113 Cl
HETATM    7  C12 UNL     1      -4.013  -0.828  -1.177  1.00  0.00    -0.025 A 
HETATM    8  C13 UNL     1      -4.655  -2.031  -0.982  1.00  0.00     0.046 A 
HETATM    9  C14 UNL     1      -6.001  -1.985  -0.731  1.00  0.00     0.066 A 
HETATM   10  C15 UNL     1      -6.716  -0.812  -0.669  1.00  0.00     0.037 A 
HETATM   11  C16 UNL     1      -6.037   0.377  -0.869  1.00  0.00     0.010 A 
HETATM   12  C17 UNL     1      -4.678   0.383  -1.126  1.00  0.00    -0.047 A 
HETATM   13  C18 UNL     1      -4.010   1.691  -1.333  1.00  0.00     0.071 C 
HETATM   14  C19 UNL     1      -2.561   1.708  -0.921  1.00  0.00     0.129 C 
HETATM   15  C20 UNL     1      -2.036   0.372  -0.591  1.00  0.00     0.051 C 
ENDROOT
BRANCH   1  16
HETATM   16  C6  UNL     1      -0.020   0.572   0.741  1.00  0.00     0.014 C 
BRANCH  16  17
HETATM   17  C5  UNL     1       1.451   0.295   0.867  1.00  0.00     0.047 C 
BRANCH  17  18
HETATM   18  C4  UNL     1       1.862   0.717   2.226  1.00  0.00     0.080 C 
HETATM   19  N3  UNL     1       3.098   0.639   2.553  1.00  0.00    -0.314 N 
ATOM     20  H3  UNL     1       3.404   0.925   3.483  1.00  0.00     0.185 HD
BRANCH  19  21
HETATM   21  N2  UNL     1       4.019   0.161   1.627  1.00  0.00    -0.277 N 
ATOM     22  H2  UNL     1       3.707  -0.469   0.888  1.00  0.00     0.189 HD
BRANCH  21  23
HETATM   23  C3  UNL     1       5.391   0.537   1.693  1.00  0.00     0.186 C 
HETATM   24  S1  UNL     1       5.843   1.548   2.893  1.00  0.00    -0.040 SA
BRANCH  23  25
HETATM   25  N1  UNL     1       6.350   0.059   0.755  1.00  0.00    -0.366 N 
ATOM     26  H1  UNL     1       6.069  -0.573   0.005  1.00  0.00     0.161 HD
BRANCH  25  27
HETATM   27  C2  UNL     1       7.718   0.478   0.879  1.00  0.00     0.117 C 
HETATM   28  C1  UNL     1       8.553  -0.151  -0.222  1.00  0.00     0.026 C 
ENDBRANCH  25  27
ENDBRANCH  23  25
ENDBRANCH  21  23
ENDBRANCH  19  21
ENDBRANCH  17  18
ENDBRANCH  16  17
ENDBRANCH   1  16
BRANCH  14  29
HETATM   29  O2  UNL     1      -2.477   2.516   0.239  1.00  0.00    -0.395 OA
ATOM     30  H2  UNL     1      -1.563   2.527   0.499  1.00  0.00     0.210 HD
ENDBRANCH  14  29
BRANCH   9  31
HETATM   31  O1  UNL     1      -6.687  -3.177  -0.529  1.00  0.00    -0.361 OA
ATOM     32  H1  UNL     1      -7.620  -3.145  -0.355  1.00  0.00     0.217 HD
ENDBRANCH   9  31
TORSDOF 9
