REMARK  9 active torsions:
REMARK  status: ('A' for Active; 'I' for Inactive)
REMARK    1  A    between atoms: N1_1  and  C1_4 
REMARK    2  A    between atoms: N2_5  and  C2_6 
REMARK    3  A    between atoms: C7_13  and  O1_14 
REMARK    4  A    between atoms: N4_16  and  C8_17 
REMARK    5  A    between atoms: N7_23  and  C11_25 
REMARK    6  A    between atoms: C11_25  and  C12_26 
REMARK    7  A    between atoms: C12_26  and  N8_27 
REMARK    8  A    between atoms: N8_27  and  C13_29 
REMARK    9  A    between atoms: N9_36  and  N10_37 
ROOT
HETATM    1  C8  UNL     1       2.144   0.239  -0.413  1.00  0.00     0.126 A 
HETATM    2  C9  UNL     1       1.246   1.276  -0.539  1.00  0.00     0.142 A 
HETATM    3  N5  UNL     1       0.020   0.851  -0.231  1.00  0.00    -0.298 N 
ATOM      4  H5  UNL     1      -0.831   1.413  -0.241  1.00  0.00     0.186 HD
HETATM    5  N6  UNL     1       0.107  -0.439   0.092  1.00  0.00    -0.195 N 
HETATM    6  C10 UNL     1      -0.623  -1.496   0.484  1.00  0.00     0.269 A 
HETATM    7  N7  UNL     1      -1.886  -1.555   0.704  1.00  0.00    -0.351 N 
ATOM      8  H7  UNL     1      -2.268  -2.453   1.000  1.00  0.00     0.163 HD
HETATM    9  O3  UNL     1       0.202  -2.533   0.622  1.00  0.00    -0.175 OA
HETATM   10  N9  UNL     1       1.413  -2.163   0.330  1.00  0.00    -0.137 N 
HETATM   11  C18 UNL     1       1.403  -0.851  -0.010  1.00  0.00     0.206 A 
ENDROOT
BRANCH   1  12
HETATM   12  N4  UNL     1       3.549   0.290  -0.650  1.00  0.00    -0.119 N 
HETATM   13  C1  UNL     1       4.539   0.303   0.278  1.00  0.00     0.693 A 
HETATM   14  N2  UNL     1       5.733   0.354  -0.326  1.00  0.00    -0.139 N 
HETATM   15  C6  UNL     1       5.486   0.373  -1.638  1.00  0.00     0.173 A 
HETATM   16  C7  UNL     1       4.120   0.334  -1.866  1.00  0.00     0.180 A 
BRANCH  13  17
HETATM   17  N1  UNL     1       4.314   0.269   1.557  1.00  0.00    -0.233 N 
ATOM     18  H12 UNL     1       5.058   0.279   2.255  1.00  0.00     0.174 HD
ATOM     19  H11 UNL     1       3.404   0.230   2.017  1.00  0.00     0.174 HD
ENDBRANCH  13  17
BRANCH  14  20
HETATM   20  C2  UNL     1       7.044   0.383   0.265  1.00  0.00     0.128 A 
HETATM   21  C3  UNL     1       7.680  -0.671   0.880  1.00  0.00     0.051 A 
HETATM   22  C4  UNL     1       8.904  -0.216   1.302  1.00  0.00     0.021 A 
HETATM   23  C5  UNL     1       9.024   1.110   0.952  1.00  0.00     0.090 A 
HETATM   24  N3  UNL     1       7.880   1.433   0.328  1.00  0.00    -0.351 N 
ATOM     25  H3  UNL     1       7.672   2.357  -0.050  1.00  0.00     0.166 HD
ENDBRANCH  14  20
BRANCH  16  26
HETATM   26  O1  UNL     1       3.476   0.338  -3.118  1.00  0.00    -0.344 OA
ATOM     27  H1  UNL     1       2.539   0.311  -3.274  1.00  0.00     0.219 HD
ENDBRANCH  16  26
ENDBRANCH   1  12
BRANCH  10  28
HETATM   28  N10 UNL     1       2.572  -2.958   0.351  1.00  0.00    -0.317 N 
ATOM     29 2H10 UNL     1       2.580  -3.945   0.607  1.00  0.00     0.179 HD
ATOM     30 1H10 UNL     1       3.523  -2.668   0.122  1.00  0.00     0.179 HD
ENDBRANCH  10  28
BRANCH   7  31
HETATM   31  C11 UNL     1      -2.801  -0.466   0.568  1.00  0.00     0.142 C 
BRANCH  31  32
HETATM   32  C12 UNL     1      -3.582  -0.510  -0.730  1.00  0.00     0.134 C 
BRANCH  32  33
HETATM   33  N8  UNL     1      -4.492   0.585  -0.858  1.00  0.00    -0.413 N 
ATOM     34  H8  UNL     1      -4.366   1.323  -1.551  1.00  0.00     0.153 HD
BRANCH  33  35
HETATM   35  C13 UNL     1      -5.594   0.572   0.057  1.00  0.00     0.100 C 
HETATM   36  C14 UNL     1      -6.515  -0.611  -0.099  1.00  0.00     0.029 C 
HETATM   37  C15 UNL     1      -7.590  -0.481   0.957  1.00  0.00     0.028 C 
HETATM   38  C16 UNL     1      -8.263   0.874   0.761  1.00  0.00     0.167 C 
HETATM   39  O2  UNL     1      -7.760   1.555  -0.328  1.00  0.00    -0.389 OA
HETATM   40  C17 UNL     1      -6.416   1.831  -0.174  1.00  0.00     0.192 C 
ENDBRANCH  33  35
ENDBRANCH  32  33
ENDBRANCH  31  32
ENDBRANCH   7  31
TORSDOF 9
