REMARK  4 active torsions:
REMARK  status: ('A' for Active; 'I' for Inactive)
REMARK    1  A    between atoms: N1_1  and  C1_5 
REMARK    2  A    between atoms: C1_5  and  C2_6 
REMARK    3  A    between atoms: C2_6  and  N2_7 
REMARK    4  A    between atoms: N2_7  and  C3_9 
ROOT
HETATM    1  C3  UNL     1       0.347  -0.475  -0.099  1.00  0.00     0.144 A 
HETATM    2  N3  UNL     1      -0.146   0.748  -0.356  1.00  0.00    -0.262 N 
ATOM      3  H3  UNL     1       0.416   1.556  -0.623  1.00  0.00     0.191 HD
HETATM    4  N4  UNL     1      -1.474   0.759  -0.214  1.00  0.00    -0.184 N 
HETATM    5  N5  UNL     1      -2.361   1.716  -0.360  1.00  0.00    -0.229 N 
ATOM      6  H5  UNL     1      -2.035   2.644  -0.631  1.00  0.00     0.194 HD
HETATM    7  C4  UNL     1      -3.663   1.532  -0.171  1.00  0.00     0.343 A 
HETATM    8  O1  UNL     1      -4.526   2.444  -0.308  1.00  0.00    -0.245 OA
HETATM    9  N6  UNL     1      -4.113   0.301   0.190  1.00  0.00    -0.272 N 
ATOM     10  H6  UNL     1      -5.110   0.142   0.338  1.00  0.00     0.174 HD
HETATM   11  C5  UNL     1      -3.240  -0.701   0.350  1.00  0.00     0.281 A 
HETATM   12  O2  UNL     1      -3.655  -1.824   0.680  1.00  0.00    -0.265 OA
HETATM   13  C6  UNL     1      -1.903  -0.474   0.146  1.00  0.00     0.171 A 
HETATM   14  C7  UNL     1      -0.753  -1.250   0.218  1.00  0.00     0.127 A 
HETATM   15  N7  UNL     1      -0.782  -2.634   0.572  1.00  0.00    -0.096 NA
ENDROOT
BRANCH   1  16
HETATM   16  N2  UNL     1       1.545  -0.910  -0.119  1.00  0.00    -0.372 N 
ATOM     17  H2  UNL     1       1.688  -1.892   0.115  1.00  0.00     0.161 HD
BRANCH  16  18
HETATM   18  C2  UNL     1       2.704  -0.139  -0.441  1.00  0.00     0.148 C 
BRANCH  18  19
HETATM   19  C1  UNL     1       3.544   0.010   0.806  1.00  0.00     0.249 C 
BRANCH  19  20
HETATM   20  N1  UNL     1       4.740   0.773   0.590  1.00  0.00    -0.078 N 
ATOM     21  H13 UNL     1       5.290   0.380  -0.174  1.00  0.00     0.274 HD
ATOM     22  H12 UNL     1       4.522   1.684   0.187  1.00  0.00     0.274 HD
ATOM     23  H11 UNL     1       5.307   0.874   1.432  1.00  0.00     0.274 HD
ENDBRANCH  19  20
ENDBRANCH  18  19
ENDBRANCH  16  18
ENDBRANCH   1  16
TORSDOF 4
