REMARK  3 active torsions:
REMARK  status: ('A' for Active; 'I' for Inactive)
REMARK    1  A    between atoms: O1_1  and  C1_3 
REMARK    2  A    between atoms: C8_10  and  C9_11 
REMARK    3  A    between atoms: C9_11  and  N1_12 
ROOT
HETATM    1  C1  UNL     1      -1.328  -0.878   0.989  1.00  0.00     0.059 C 
HETATM    2  C2  UNL     1      -1.405   0.553   1.533  1.00  0.00     0.042 C 
HETATM    3  C3  UNL     1      -1.226   1.519   0.417  1.00  0.00    -0.011 C 
HETATM    4  C4  UNL     1      -2.179   1.356  -0.719  1.00  0.00     0.009 C 
HETATM    5  C5  UNL     1      -2.061  -0.076  -1.244  1.00  0.00    -0.011 C 
HETATM    6  C6  UNL     1      -2.378  -0.985  -0.080  1.00  0.00     0.042 C 
HETATM    7  C7  UNL     1      -0.649  -0.363  -1.705  1.00  0.00     0.016 C 
HETATM    8  C8  UNL     1       0.361  -0.096  -0.594  1.00  0.00    -0.019 C 
HETATM    9  C12 UNL     1       0.186   1.312  -0.145  1.00  0.00     0.016 C 
HETATM   10  C13 UNL     1       0.069  -1.113   0.477  1.00  0.00     0.049 C 
ENDROOT
BRANCH   8  11
HETATM   11  C9  UNL     1       1.744  -0.250  -1.171  1.00  0.00     0.159 C 
BRANCH  11  12
HETATM   12  N1  UNL     1       2.789  -0.023  -0.216  1.00  0.00    -0.286 N 
HETATM   13  C10 UNL     1       3.329  -0.978   0.552  1.00  0.00     0.201 A 
HETATM   14  N2  UNL     1       4.267  -0.392   1.309  1.00  0.00    -0.346 N 
HETATM   15  C11 UNL     1       4.319   0.915   1.023  1.00  0.00     0.198 A 
ATOM     16  H2  UNL     1       4.851  -0.868   1.997  1.00  0.00     0.167 HD
HETATM   17  N3  UNL     1       3.398   1.104   0.083  1.00  0.00    -0.293 N 
ATOM     18  H3  UNL     1       3.191   2.004  -0.349  1.00  0.00     0.188 HD
ENDBRANCH  11  12
ENDBRANCH   8  11
BRANCH   1  19
HETATM   19  O1  UNL     1      -1.625  -1.785   1.991  1.00  0.00    -0.390 OA
ATOM     20  H1  UNL     1      -1.577  -2.672   1.654  1.00  0.00     0.210 HD
ENDBRANCH   1  19
TORSDOF 3
