REMARK  6 active torsions:
REMARK  status: ('A' for Active; 'I' for Inactive)
REMARK    1  A    between atoms: O1_2  and  C2_3 
REMARK    2  A    between atoms: C2_3  and  C3_5 
REMARK    3  A    between atoms: C12_15  and  O4_16 
REMARK    4  A    between atoms: C15_20  and  C16_21 
REMARK    5  A    between atoms: C16_21  and  O5_22 
REMARK    6  A    between atoms: O5_22  and  C17_23 
ROOT
HETATM    1  C3  UNL     1      -0.774  -0.687   0.619  1.00  0.00     0.024 C 
HETATM    2  C4  UNL     1      -1.559   0.361   0.554  1.00  0.00    -0.065 C 
HETATM    3  C5  UNL     1      -2.868   0.307   1.224  1.00  0.00     0.044 C 
HETATM    4  C6  UNL     1      -1.196   1.611  -0.163  1.00  0.00     0.037 C 
HETATM    5  C7  UNL     1      -2.302   2.342  -0.863  1.00  0.00     0.060 C 
HETATM    6  C8  UNL     1      -2.629   3.630  -0.184  1.00  0.00     0.018 C 
HETATM    7  C9  UNL     1      -1.322   2.472  -2.008  1.00  0.00     0.136 C 
HETATM    8  O3  UNL     1      -1.121   3.305  -2.851  1.00  0.00    -0.297 OA
HETATM    9  C10 UNL     1      -0.816   1.171  -1.568  1.00  0.00     0.071 C 
HETATM   10  C11 UNL     1       0.633   0.854  -1.692  1.00  0.00     0.033 C 
HETATM   11  C12 UNL     1       0.726  -0.492  -2.397  1.00  0.00     0.124 C 
HETATM   12  C13 UNL     1       0.499  -1.532  -1.321  1.00  0.00     0.042 C 
HETATM   13  C14 UNL     1       0.615  -0.846  -0.002  1.00  0.00     0.034 C 
HETATM   14  C15 UNL     1       1.242   0.464  -0.339  1.00  0.00     0.026 C 
ENDROOT
BRANCH  14  15
HETATM   15  C16 UNL     1       2.721   0.183  -0.610  1.00  0.00     0.184 C 
BRANCH  15  16
HETATM   16  O5  UNL     1       3.324  -0.185   0.641  1.00  0.00    -0.321 OA
BRANCH  16  17
HETATM   17  C17 UNL     1       4.652  -0.502   0.748  1.00  0.00     0.254 C 
HETATM   18  C18 UNL     1       5.252  -0.880   2.055  1.00  0.00     0.126 C 
HETATM   19  O6  UNL     1       5.377  -0.473  -0.276  1.00  0.00    -0.266 OA
ENDBRANCH  16  17
ENDBRANCH  15  16
ENDBRANCH  14  15
BRANCH  11  20
HETATM   20  O4  UNL     1      -0.344  -0.638  -3.303  1.00  0.00    -0.395 OA
ATOM     21  H4  UNL     1      -0.286  -1.478  -3.743  1.00  0.00     0.210 HD
ENDBRANCH  11  20
BRANCH   1  22
HETATM   22  C2  UNL     1      -1.229  -1.848   1.346  1.00  0.00     0.289 C 
HETATM   23  O2  UNL     1      -0.412  -2.852   1.376  1.00  0.00    -0.260 OA
BRANCH  22  24
HETATM   24  O1  UNL     1      -2.427  -1.991   2.000  1.00  0.00    -0.323 OA
HETATM   25  C1  UNL     1      -2.728  -3.200   2.672  1.00  0.00     0.213 C 
ENDBRANCH  22  24
ENDBRANCH   1  22
TORSDOF 6
