REMARK  1 active torsions:
REMARK  status: ('A' for Active; 'I' for Inactive)
REMARK       I    between atoms: C2_2  and  N1_4 
REMARK    1  A    between atoms: N1_4  and  C3_6 
ROOT
HETATM    1  C3  UNL     1      -0.156  -0.627   0.002  1.00  0.00     0.088 C 
HETATM    2  C4  UNL     1       0.328  -0.266  -1.354  1.00  0.00     0.051 C 
HETATM    3  C5  UNL     1       1.780  -0.092  -1.524  1.00  0.00     0.170 C 
HETATM    4  O2  UNL     1       2.525  -0.094  -0.365  1.00  0.00    -0.386 OA
HETATM    5  C6  UNL     1       1.821   0.690   0.571  1.00  0.00     0.119 C 
HETATM    6  C7  UNL     1       2.743   1.188   1.661  1.00  0.00     0.039 C 
HETATM    7  C8  UNL     1       0.737  -0.173   1.124  1.00  0.00     0.056 C 
ENDROOT
BRANCH   1   8
HETATM    8  N1  UNL     1      -1.497  -0.116   0.253  1.00  0.00    -0.357 N 
HETATM    9  C2  UNL     1      -2.599  -0.964   0.526  1.00  0.00     0.213 C 
HETATM   10  C1  UNL     1      -3.936  -0.409   0.774  1.00  0.00     0.117 C 
HETATM   11  O1  UNL     1      -2.444  -2.211   0.559  1.00  0.00    -0.274 OA
ATOM     12  H1  UNL     1      -1.649   0.892   0.231  1.00  0.00     0.162 HD
ENDBRANCH   1   8
TORSDOF 1
