REMARK  7 active torsions:
REMARK  status: ('A' for Active; 'I' for Inactive)
REMARK    1  A    between atoms: C2_2  and  C4_4 
REMARK    2  A    between atoms: C2_2  and  C5_7 
REMARK    3  A    between atoms: C7_12  and  O3_13 
REMARK    4  A    between atoms: O3_13  and  C8_14 
REMARK    5  A    between atoms: C8_14  and  C9_15 
REMARK    6  A    between atoms: C12_19  and  C13_20 
REMARK    7  A    between atoms: N3_23  and  C16_24 
ROOT
HETATM    1  C5  UNL     1      -5.058   0.651   0.385  1.00  0.00    -0.009 A 
HETATM    2  C6  UNL     1      -4.160   1.634   0.824  1.00  0.00     0.126 A 
HETATM    3  N1  UNL     1      -2.890   1.142   0.662  1.00  0.00    -0.261 N 
HETATM    4  N2  UNL     1      -1.775   1.676   1.155  1.00  0.00    -0.271 N 
ATOM      5  H2  UNL     1      -1.794   2.633   1.508  1.00  0.00     0.189 HD
HETATM    6  C7  UNL     1      -0.638   0.990   1.198  1.00  0.00     0.201 A 
HETATM    7  C22 UNL     1      -0.738  -0.358   0.693  1.00  0.00     0.209 A 
HETATM    8  F1  UNL     1       0.394  -1.153   0.811  1.00  0.00    -0.198 F 
HETATM    9  C23 UNL     1      -1.838  -0.887   0.179  1.00  0.00     0.188 A 
HETATM   10  F2  UNL     1      -1.912  -2.161  -0.251  1.00  0.00    -0.200 F 
HETATM   11  C24 UNL     1      -2.996  -0.061   0.150  1.00  0.00     0.108 A 
HETATM   12  C25 UNL     1      -4.305  -0.421  -0.079  1.00  0.00     0.007 A 
HETATM   13  C26 UNL     1      -4.811  -1.523  -0.838  1.00  0.00    -0.067 C 
HETATM   14  C27 UNL     1      -5.097  -1.093  -2.317  1.00  0.00     0.035 C 
HETATM   15  C28 UNL     1      -6.075  -2.145  -2.685  1.00  0.00     0.005 C 
HETATM   16  C29 UNL     1      -5.532  -3.364  -1.929  1.00  0.00     0.005 C 
HETATM   17  C30 UNL     1      -5.502  -2.701  -0.495  1.00  0.00     0.035 C 
ENDROOT
BRANCH   6  18
HETATM   18  O3  UNL     1       0.545   1.323   1.571  1.00  0.00    -0.326 OA
BRANCH  18  19
HETATM   19  C8  UNL     1       1.740   1.685   1.956  1.00  0.00     0.242 C 
BRANCH  19  20
HETATM   20  C9  UNL     1       2.089   2.620   0.839  1.00  0.00     0.083 A 
HETATM   21  O4  UNL     1       1.482   3.759   0.666  1.00  0.00    -0.324 OA
HETATM   22  C10 UNL     1       2.033   4.377  -0.382  1.00  0.00     0.143 A 
HETATM   23  C11 UNL     1       3.040   3.583  -0.878  1.00  0.00     0.034 A 
HETATM   24  C12 UNL     1       3.067   2.444  -0.094  1.00  0.00    -0.020 A 
BRANCH  24  25
HETATM   25  C13 UNL     1       3.816   1.267  -0.415  1.00  0.00     0.024 C 
HETATM   26  C14 UNL     1       5.083   1.714  -1.130  1.00  0.00     0.029 C 
HETATM   27  C15 UNL     1       6.255   1.377  -0.093  1.00  0.00     0.118 C 
HETATM   28  N3  UNL     1       6.399  -0.014  -0.178  1.00  0.00    -0.406 N 
HETATM   29  C20 UNL     1       5.174  -0.712  -0.232  1.00  0.00     0.118 C 
HETATM   30  C21 UNL     1       4.125   0.175   0.473  1.00  0.00     0.029 C 
BRANCH  28  31
HETATM   31  C16 UNL     1       7.595  -0.643  -0.431  1.00  0.00     0.104 C 
HETATM   32  C17 UNL     1       8.516  -0.779   0.736  1.00  0.00     0.053 C 
HETATM   33  C18 UNL     1       8.128  -2.174   1.215  1.00  0.00     0.169 C 
HETATM   34  O5  UNL     1       7.568  -2.864   0.150  1.00  0.00    -0.389 OA
HETATM   35  C19 UNL     1       7.489  -2.056  -0.937  1.00  0.00     0.192 C 
ENDBRANCH  28  31
ENDBRANCH  24  25
ENDBRANCH  19  20
ENDBRANCH  18  19
ENDBRANCH   6  18
BRANCH   1  36
HETATM   36  C2  UNL     1      -6.430   0.557   0.810  1.00  0.00     0.070 C 
HETATM   37  C1  UNL     1      -7.532   0.388  -0.079  1.00  0.00     0.032 C 
HETATM   38  C3  UNL     1      -6.748   1.800   1.657  1.00  0.00     0.032 C 
BRANCH  36  39
HETATM   39  C4  UNL     1      -6.469  -0.461   2.004  1.00  0.00     0.185 C 
HETATM   40  O1  UNL     1      -7.519  -0.946   2.298  1.00  0.00    -0.647 OA
HETATM   41  O2  UNL     1      -5.237  -0.707   2.593  1.00  0.00    -0.647 OA
ENDBRANCH  36  39
ENDBRANCH   1  36
TORSDOF 7
