REMARK  10 active torsions:
REMARK  status: ('A' for Active; 'I' for Inactive)
REMARK    1  A    between atoms: C2_2  and  N1_4 
REMARK    2  A    between atoms: C2_2  and  N2_8 
REMARK    3  A    between atoms: N2_8  and  C4_9 
REMARK    4  A    between atoms: N2_8  and  C6_12 
REMARK    5  A    between atoms: C4_9  and  C5_10 
REMARK    6  A    between atoms: C6_12  and  C7_13 
REMARK    7  A    between atoms: C7_13  and  C8_14 
REMARK    8  A    between atoms: C8_14  and  C9_15 
REMARK    9  A    between atoms: C9_15  and  C10_16 
REMARK   10  A    between atoms: C12_18  and  C13_19 
ROOT
HETATM    1  C13 UNL     1       3.739   1.720   0.380  1.00  0.00     0.059 A 
HETATM    2  N3  UNL     1       3.563   3.080   0.347  1.00  0.00    -0.351 N 
ATOM      3  H3  UNL     1       2.632   3.453   0.531  1.00  0.00     0.166 HD
HETATM    4  C14 UNL     1       4.541   3.931   0.088  1.00  0.00     0.182 A 
HETATM    5  N4  UNL     1       5.788   3.524  -0.163  1.00  0.00    -0.338 N 
ATOM      6  H4  UNL     1       6.532   4.194  -0.359  1.00  0.00     0.168 HD
HETATM    7  C15 UNL     1       6.027   2.209  -0.149  1.00  0.00     0.120 A 
HETATM    8  N5  UNL     1       7.148   1.491  -0.378  1.00  0.00    -0.341 N 
ATOM      9  H5  UNL     1       8.059   1.893  -0.599  1.00  0.00     0.167 HD
HETATM   10  C16 UNL     1       6.900   0.180  -0.276  1.00  0.00     0.046 A 
HETATM   11  C17 UNL     1       7.697  -0.934  -0.442  1.00  0.00     0.053 A 
HETATM   12  C18 UNL     1       7.173  -2.199  -0.306  1.00  0.00     0.046 A 
HETATM   13  C19 UNL     1       8.054  -3.322  -0.487  1.00  0.00     0.099 C 
HETATM   14  N6  UNL     1       8.755  -4.228  -0.612  1.00  0.00    -0.191 NA
HETATM   15  C20 UNL     1       5.840  -2.359  -0.002  1.00  0.00     0.024 A 
HETATM   16  C21 UNL     1       5.011  -1.244   0.172  1.00  0.00     0.016 A 
HETATM   17  C22 UNL     1       5.559   0.007   0.034  1.00  0.00     0.007 A 
HETATM   18  C23 UNL     1       5.020   1.273   0.118  1.00  0.00     0.048 A 
ENDROOT
BRANCH   1  19
HETATM   19  C12 UNL     1       2.615   0.883   0.710  1.00  0.00     0.009 A 
HETATM   20  C11 UNL     1       1.514   0.794  -0.086  1.00  0.00     0.039 A 
HETATM   21  C10 UNL     1       0.378   0.072   0.304  1.00  0.00     0.062 A 
HETATM   22  C25 UNL     1       0.398  -0.553   1.522  1.00  0.00     0.117 A 
HETATM   23  N7  UNL     1       1.495  -0.463   2.311  1.00  0.00    -0.351 N 
HETATM   24  N8  UNL     1      -0.649  -1.217   1.881  1.00  0.00    -0.384 N 
HETATM   25  C24 UNL     1       2.585   0.231   1.935  1.00  0.00     0.103 A 
ATOM     26  H7  UNL     1       1.495  -0.934   3.216  1.00  0.00     0.166 HD
ATOM     27  H82 UNL     1      -1.475  -1.285   1.287  1.00  0.00     0.157 HD
ATOM     28  H81 UNL     1      -0.634  -1.683   2.788  1.00  0.00     0.157 HD
BRANCH  21  29
HETATM   29  C9  UNL     1      -0.792  -0.030  -0.516  1.00  0.00    -0.063 C 
BRANCH  29  30
HETATM   30  C8  UNL     1      -1.792  -0.137  -1.206  1.00  0.00    -0.099 C 
BRANCH  30  31
HETATM   31  C7  UNL     1      -2.985  -0.279  -2.064  1.00  0.00     0.124 C 
BRANCH  31  32
HETATM   32  C6  UNL     1      -4.092   0.509  -1.487  1.00  0.00     0.287 C 
BRANCH  32  33
HETATM   33  N2  UNL     1      -4.550   0.216  -0.182  1.00  0.00     0.126 N 
BRANCH  33  34
HETATM   34  C2  UNL     1      -5.217  -1.087  -0.073  1.00  0.00     0.311 C 
HETATM   35  C1  UNL     1      -5.755  -1.213   1.345  1.00  0.00     0.081 C 
HETATM   36  C3  UNL     1      -6.374  -1.247  -1.013  1.00  0.00     0.081 C 
BRANCH  34  37
HETATM   37  N1  UNL     1      -4.306  -2.184  -0.254  1.00  0.00    -0.043 N 
ATOM     38  H13 UNL     1      -3.574  -2.226   0.456  1.00  0.00     0.277 HD
ATOM     39  H12 UNL     1      -4.722  -3.094  -0.057  1.00  0.00     0.277 HD
ATOM     40  H11 UNL     1      -3.945  -2.100  -1.204  1.00  0.00     0.277 HD
ENDBRANCH  34  37
ENDBRANCH  33  34
BRANCH  33  41
HETATM   41  C4  UNL     1      -5.633   1.178   0.099  1.00  0.00     0.290 C 
BRANCH  41  42
HETATM   42  C5  UNL     1      -5.171   2.604   0.126  1.00  0.00     0.145 C 
HETATM   43 CL1  UNL     1      -3.905   2.817   1.367  1.00  0.00    -0.129 Cl
ENDBRANCH  41  42
ENDBRANCH  33  41
ENDBRANCH  32  33
ENDBRANCH  31  32
ENDBRANCH  30  31
ENDBRANCH  29  30
ENDBRANCH  21  29
ENDBRANCH   1  19
TORSDOF 10
