REMARK  10 active torsions:
REMARK  status: ('A' for Active; 'I' for Inactive)
REMARK    1  A    between atoms: C2_2  and  C3_3 
REMARK    2  A    between atoms: C2_2  and  C25_34 
REMARK    3  A    between atoms: C4_4  and  C5_5 
REMARK    4  A    between atoms: C7_7  and  C8_8 
REMARK    5  A    between atoms: C9_9  and  C10_10 
REMARK    6  A    between atoms: C10_10  and  O1_11 
REMARK    7  A    between atoms: C12_14  and  O2_15 
REMARK    8  A    between atoms: C18_23  and  C19_24 
REMARK    9  A    between atoms: C20_26  and  O4_27 
REMARK   10  A    between atoms: C25_34  and  O5_35 
ROOT
HETATM    1  C5  UNL     1       0.187  -0.323   0.436  1.00  0.00     0.051 C 
HETATM    2  C6  UNL     1      -0.113   0.812   1.468  1.00  0.00     0.058 C 
HETATM    3  C7  UNL     1       1.135   1.985   0.854  1.00  0.00    -0.058 C 
HETATM    4  C11 UNL     1       0.855   1.630  -0.250  1.00  0.00     0.019 C 
HETATM    5  C12 UNL     1      -0.105   0.637  -0.699  1.00  0.00     0.094 C 
HETATM    6  C13 UNL     1       0.037   0.318  -2.087  1.00  0.00     0.021 C 
HETATM    7  C14 UNL     1      -0.149   1.663  -2.847  1.00  0.00     0.013 C 
HETATM    8  C15 UNL     1      -0.820  -0.590  -2.849  1.00  0.00     0.010 C 
HETATM    9  C16 UNL     1      -2.285  -0.604  -2.595  1.00  0.00     0.034 C 
HETATM   10  C17 UNL     1      -2.507  -1.431  -1.291  1.00  0.00     0.141 C 
HETATM   11  O3  UNL     1      -1.494  -1.338  -0.594  1.00  0.00    -0.368 OA
HETATM   12  C18 UNL     1      -0.922  -1.346   0.609  1.00  0.00     0.114 C 
HETATM   13  C20 UNL     1      -1.938  -1.147   1.657  1.00  0.00     0.155 C 
HETATM   14  C21 UNL     1      -3.184  -1.947   1.380  1.00  0.00     0.040 C 
HETATM   15  C22 UNL     1      -4.238  -1.306   0.532  1.00  0.00     0.005 C 
HETATM   16  C23 UNL     1      -4.884  -0.075   1.083  1.00  0.00     0.011 C 
HETATM   17  C24 UNL     1      -3.921  -1.207  -0.928  1.00  0.00     0.115 C 
HETATM   18 CL2  UNL     1      -4.654   0.280  -1.653  1.00  0.00    -0.122 Cl
ENDROOT
BRANCH   1  19
HETATM   19  C4  UNL     1       1.550  -0.597   0.811  1.00  0.00    -0.010 C 
HETATM   20  C3  UNL     1       2.524  -1.561   0.414  1.00  0.00     0.001 C 
BRANCH  20  21
HETATM   21  C2  UNL     1       3.615  -1.336  -0.268  1.00  0.00    -0.061 C 
HETATM   22  C1  UNL     1       4.512  -2.549  -0.583  1.00  0.00     0.045 C 
BRANCH  21  23
HETATM   23  C25 UNL     1       4.187  -0.077  -0.759  1.00  0.00     0.198 C 
BRANCH  23  24
HETATM   24  O5  UNL     1       5.483   0.022  -0.153  1.00  0.00    -0.397 OA
ATOM     25  H5  UNL     1       5.853   0.837  -0.471  1.00  0.00     0.209 HD
ENDBRANCH  23  24
ENDBRANCH  21  23
ENDBRANCH  20  21
ENDBRANCH   1  19
BRANCH   5  26
HETATM   26  O2  UNL     1      -1.335   1.299  -0.549  1.00  0.00    -0.384 OA
ATOM     27  H2  UNL     1      -1.518   1.901  -1.261  1.00  0.00     0.211 HD
ENDBRANCH   5  26
BRANCH  12  28
HETATM   28  C19 UNL     1      -0.467  -2.777   0.769  1.00  0.00     0.156 C 
HETATM   29 CL1  UNL     1       0.276  -3.525  -0.645  1.00  0.00    -0.127 Cl
ENDBRANCH  12  28
BRANCH   3  30
HETATM   30  C8  UNL     1       1.473   2.411   2.183  1.00  0.00     0.005 C 
HETATM   31  C9  UNL     1       2.320   3.464   2.324  1.00  0.00    -0.001 C 
BRANCH  31  32
HETATM   32  C10 UNL     1       2.915   4.214   1.233  1.00  0.00     0.191 C 
BRANCH  32  33
HETATM   33  O1  UNL     1       2.549   5.580   1.279  1.00  0.00    -0.397 OA
ATOM     34  H1  UNL     1       2.938   6.071   0.565  1.00  0.00     0.209 HD
ENDBRANCH  32  33
ENDBRANCH  31  32
ENDBRANCH   3  30
BRANCH  13  35
HETATM   35  O4  UNL     1      -2.373   0.035   2.081  1.00  0.00    -0.392 OA
ATOM     36  H4  UNL     1      -3.028   0.163   2.757  1.00  0.00     0.210 HD
ENDBRANCH  13  35
TORSDOF 10
