REMARK  9 active torsions:
REMARK  status: ('A' for Active; 'I' for Inactive)
REMARK    1  A    between atoms: C2_2  and  C3_3 
REMARK    2  A    between atoms: C3_3  and  C4_4 
REMARK    3  A    between atoms: C3_3  and  N1_7 
REMARK    4  A    between atoms: C4_4  and  O1_5 
REMARK    5  A    between atoms: N1_7  and  C5_9 
REMARK    6  A    between atoms: C7_11  and  C8_12 
REMARK    7  A    between atoms: C11_19  and  C12_20 
REMARK    8  A    between atoms: C15_23  and  C16_24 
REMARK    9  A    between atoms: C16_24  and  N4_25 
ROOT
HETATM    1  C8  UNL     1      -2.052   0.043   0.120  1.00  0.00     0.048 A 
HETATM    2  C9  UNL     1      -1.951   0.905  -0.984  1.00  0.00     0.063 A 
HETATM    3  C10 UNL     1      -0.618   1.172  -1.232  1.00  0.00     0.079 A 
HETATM    4  N2  UNL     1       0.277   1.860  -1.963  1.00  0.00    -0.298 N 
ATOM      5  H2  UNL     1       0.067   2.476  -2.748  1.00  0.00     0.187 HD
HETATM    6  N3  UNL     1       1.500   1.589  -1.472  1.00  0.00    -0.302 N 
ATOM      7  H3  UNL     1       2.367   1.981  -1.839  1.00  0.00     0.186 HD
HETATM    8  C11 UNL     1       1.431   0.734  -0.434  1.00  0.00     0.059 A 
HETATM    9  C22 UNL     1       0.087   0.468  -0.280  1.00  0.00     0.085 A 
HETATM   10  N5  UNL     1      -0.801  -0.193   0.504  1.00  0.00    -0.352 N 
ATOM     11  H5  UNL     1      -0.542  -0.793   1.287  1.00  0.00     0.166 HD
ENDROOT
BRANCH   1  12
HETATM   12  C7  UNL     1      -3.332  -0.363   0.685  1.00  0.00     0.034 A 
HETATM   13  C6  UNL     1      -4.507   0.164   0.232  1.00  0.00     0.065 A 
HETATM   14  C5  UNL     1      -5.778  -0.075   0.758  1.00  0.00     0.102 A 
HETATM   15  N6  UNL     1      -5.834  -0.941   1.847  1.00  0.00    -0.350 N 
HETATM   16  C24 UNL     1      -4.679  -1.452   2.279  1.00  0.00     0.133 A 
ATOM     17  H6  UNL     1      -6.720  -1.175   2.295  1.00  0.00     0.166 HD
HETATM   18  C23 UNL     1      -3.432  -1.225   1.774  1.00  0.00     0.144 A 
HETATM   19  F1  UNL     1      -2.337  -1.842   2.320  1.00  0.00    -0.204 F 
BRANCH  14  20
HETATM   20  N1  UNL     1      -6.800   0.476   0.311  1.00  0.00    -0.370 N 
ATOM     21  H1  UNL     1      -6.506   1.075  -0.461  1.00  0.00     0.161 HD
BRANCH  20  22
HETATM   22  C3  UNL     1      -8.145   0.607   0.429  1.00  0.00     0.106 C 
BRANCH  22  23
HETATM   23  C2  UNL     1      -8.985  -0.637   0.553  1.00  0.00     0.023 C 
HETATM   24  C1  UNL     1      -8.835  -1.538  -0.665  1.00  0.00     0.007 C 
ENDBRANCH  22  23
BRANCH  22  25
HETATM   25  C4  UNL     1      -8.669   1.335  -0.843  1.00  0.00     0.189 C 
BRANCH  25  26
HETATM   26  O1  UNL     1     -10.025   1.527  -0.808  1.00  0.00    -0.399 OA
ATOM     27  H1  UNL     1     -10.345   1.971  -1.584  1.00  0.00     0.209 HD
ENDBRANCH  25  26
ENDBRANCH  22  25
ENDBRANCH  20  22
ENDBRANCH  14  20
ENDBRANCH   1  12
BRANCH   8  28
HETATM   28  C12 UNL     1       2.579   0.123   0.241  1.00  0.00     0.040 C 
HETATM   29  C13 UNL     1       2.919   0.803   1.558  1.00  0.00     0.011 C 
HETATM   30  C14 UNL     1       4.284   0.050   1.764  1.00  0.00     0.007 C 
HETATM   31  C15 UNL     1       4.983   0.461   0.492  1.00  0.00     0.015 C 
HETATM   32  C21 UNL     1       3.872   0.579  -0.528  1.00  0.00     0.017 C 
BRANCH  31  33
HETATM   33  C16 UNL     1       5.995  -0.520  -0.015  1.00  0.00     0.277 C 
BRANCH  33  34
HETATM   34  N4  UNL     1       6.688  -0.026  -1.231  1.00  0.00     0.092 N 
HETATM   35  C17 UNL     1       7.387  -1.112  -1.893  1.00  0.00     0.298 C 
HETATM   36  C18 UNL     1       8.525  -1.642  -1.082  1.00  0.00     0.198 C 
HETATM   37  O2  UNL     1       9.471  -0.618  -0.921  1.00  0.00    -0.388 OA
HETATM   38  C19 UNL     1       8.904   0.402  -0.207  1.00  0.00     0.198 C 
HETATM   39  C20 UNL     1       7.682   0.962  -0.834  1.00  0.00     0.298 C 
ENDBRANCH  33  34
ENDBRANCH  31  33
ENDBRANCH   8  28
TORSDOF 9
