REMARK  10 active torsions:
REMARK  status: ('A' for Active; 'I' for Inactive)
REMARK    1  A    between atoms: O1_1  and  C1_3 
REMARK    2  A    between atoms: C1_3  and  C2_4 
REMARK    3  A    between atoms: C7_10  and  C8_11 
REMARK    4  A    between atoms: C13_20  and  C14_21 
REMARK    5  A    between atoms: C14_21  and  C15_22 
REMARK    6  A    between atoms: C16_23  and  C17_24 
REMARK    7  A    between atoms: C17_24  and  C18_25 
REMARK    8  A    between atoms: C18_25  and  C19_26 
REMARK    9  A    between atoms: C20_28  and  O3_29 
REMARK   10  A    between atoms: C21_31  and  O4_32 
ROOT
HETATM    1  C2  UNL     1      -2.420  -3.216  -0.009  1.00  0.00     0.155 C 
HETATM    2  O2  UNL     1      -2.088  -2.326   1.003  1.00  0.00    -0.373 OA
HETATM    3  C3  UNL     1      -2.863  -1.393   0.335  1.00  0.00     0.165 C 
HETATM    4  C4  UNL     1      -2.423  -0.006   0.373  1.00  0.00    -0.018 A 
HETATM    5  C5  UNL     1      -3.329   0.908   0.800  1.00  0.00     0.011 A 
HETATM    6  C6  UNL     1      -3.024   2.279   0.847  1.00  0.00     0.013 A 
HETATM    7  C7  UNL     1      -1.793   2.749   0.461  1.00  0.00    -0.022 A 
HETATM    8  C11 UNL     1      -0.865   1.802   0.023  1.00  0.00     0.024 A 
HETATM    9  C12 UNL     1      -1.160   0.464  -0.023  1.00  0.00    -0.021 A 
HETATM   10  C13 UNL     1      -0.087  -0.390  -0.503  1.00  0.00    -0.035 C 
HETATM   11  C20 UNL     1      -0.421  -1.079  -1.797  1.00  0.00     0.177 C 
HETATM   12  C21 UNL     1      -1.750  -1.649  -1.960  1.00  0.00     0.160 C 
HETATM   13  C22 UNL     1      -2.649  -2.102  -0.936  1.00  0.00     0.082 C 
ENDROOT
BRANCH   7  14
HETATM   14  C8  UNL     1      -1.437   4.164   0.494  1.00  0.00     0.008 A 
HETATM   15  C9  UNL     1      -1.915   5.080   1.403  1.00  0.00     0.120 A 
HETATM   16  N1  UNL     1      -1.369   6.273   1.123  1.00  0.00    -0.311 N 
HETATM   17  N2  UNL     1      -0.565   6.182   0.086  1.00  0.00    -0.311 N 
ATOM     18  H1  UNL     1      -1.552   7.132   1.642  1.00  0.00     0.186 HD
HETATM   19  C10 UNL     1      -0.596   4.901  -0.308  1.00  0.00     0.120 A 
ATOM     20  H2  UNL     1      -0.024   6.937  -0.335  1.00  0.00     0.186 HD
ENDBRANCH   7  14
BRANCH  10  21
HETATM   21  C14 UNL     1       1.309   0.144  -0.440  1.00  0.00     0.064 C 
BRANCH  21  22
HETATM   22  C15 UNL     1       1.779   0.458   0.930  1.00  0.00    -0.026 C 
HETATM   23  C16 UNL     1       2.818  -0.083   1.519  1.00  0.00    -0.030 C 
BRANCH  23  24
HETATM   24  C17 UNL     1       3.738  -1.085   1.011  1.00  0.00     0.027 C 
BRANCH  24  25
HETATM   25  C18 UNL     1       5.190  -0.691   0.954  1.00  0.00     0.014 C 
BRANCH  25  26
HETATM   26  C19 UNL     1       5.500   0.494   0.094  1.00  0.00     0.085 C 
HETATM   27 BR1  UNL     1       4.669   2.115   0.661  1.00  0.00    -0.097 Br
ENDBRANCH  25  26
ENDBRANCH  24  25
ENDBRANCH  23  24
ENDBRANCH  21  22
ENDBRANCH  10  21
BRANCH  11  28
HETATM   28  O3  UNL     1       0.639  -1.909  -2.195  1.00  0.00    -0.389 OA
ATOM     29  H3  UNL     1       0.428  -2.344  -3.013  1.00  0.00     0.210 HD
ENDBRANCH  11  28
BRANCH  12  30
HETATM   30  O4  UNL     1      -1.594  -2.644  -2.993  1.00  0.00    -0.392 OA
ATOM     31  H4  UNL     1      -2.462  -3.016  -3.099  1.00  0.00     0.210 HD
ENDBRANCH  12  30
BRANCH   1  32
HETATM   32  C1  UNL     1      -1.436  -4.295  -0.300  1.00  0.00     0.196 C 
BRANCH  32  33
HETATM   33  O1  UNL     1      -1.320  -5.038   0.906  1.00  0.00    -0.398 OA
ATOM     34  H1  UNL     1      -0.692  -5.726   0.720  1.00  0.00     0.209 HD
ENDBRANCH  32  33
ENDBRANCH   1  32
TORSDOF 10
