REMARK  6 active torsions:
REMARK  status: ('A' for Active; 'I' for Inactive)
REMARK    1  A    between atoms: C4_4  and  C5_5 
REMARK    2  A    between atoms: C6_6  and  C7_7 
REMARK    3  A    between atoms: C7_7  and  C8_8 
REMARK    4  A    between atoms: C12_12  and  C13_13 
REMARK    5  A    between atoms: C13_13  and  N1_16 
REMARK       I    between atoms: N1_16  and  C16_18 
REMARK       I    between atoms: C16_18  and  N2_19 
REMARK       I    between atoms: C16_18  and  N3_23 
REMARK    6  A    between atoms: C25_38  and  O1_39 
ROOT
HETATM    1  C13 UNL     1       2.032  -1.010  -0.582  1.00  0.00     0.026 C 
HETATM    2  C14 UNL     1       2.324  -1.589  -1.975  1.00  0.00     0.038 C 
HETATM    3  C15 UNL     1       2.684  -1.918   0.397  1.00  0.00     0.038 C 
ENDROOT
BRANCH   1   4
HETATM    4  C12 UNL     1       0.519  -1.112  -0.420  1.00  0.00     0.026 A 
HETATM    5  C11 UNL     1      -0.139  -0.642   0.826  1.00  0.00     0.021 A 
HETATM    6  C10 UNL     1      -1.236   0.272   0.698  1.00  0.00    -0.014 C 
HETATM    7  C21 UNL     1      -0.123  -2.011   0.537  1.00  0.00     0.011 A 
HETATM    8  C4  UNL     1      -2.575   0.329   0.664  1.00  0.00    -0.058 C 
HETATM    9  C3  UNL     1      -3.552  -0.756   0.771  1.00  0.00     0.074 C 
HETATM   10  C2  UNL     1      -3.375  -1.715  -0.357  1.00  0.00    -0.056 C 
HETATM   11  C1  UNL     1      -4.461  -2.052  -1.008  1.00  0.00     0.017 C 
HETATM   12  C25 UNL     1      -2.187  -2.387  -0.919  1.00  0.00     0.155 C 
HETATM   13  C22 UNL     1      -1.215  -2.860   0.093  1.00  0.00    -0.013 C 
HETATM   14  C23 UNL     1      -0.536  -4.101  -0.542  1.00  0.00     0.018 C 
HETATM   15  C24 UNL     1      -1.949  -3.409   1.309  1.00  0.00     0.018 C 
BRANCH   8  16
HETATM   16  C5  UNL     1      -3.122   1.655   0.499  1.00  0.00     0.003 C 
HETATM   17  C6  UNL     1      -4.346   2.042   0.430  1.00  0.00    -0.026 C 
BRANCH  17  18
HETATM   18  C7  UNL     1      -4.671   3.485   0.256  1.00  0.00     0.027 C 
BRANCH  18  19
HETATM   19  C8  UNL     1      -5.454   3.729  -1.014  1.00  0.00    -0.001 C 
HETATM   20  C9  UNL     1      -5.729   5.222  -1.092  1.00  0.00     0.005 C 
ENDBRANCH  18  19
ENDBRANCH  17  18
ENDBRANCH   8  16
BRANCH  12  21
HETATM   21  O1  UNL     1      -2.651  -3.494  -1.634  1.00  0.00    -0.390 OA
ATOM     22  H1  UNL     1      -1.886  -3.927  -1.996  1.00  0.00     0.210 HD
ENDBRANCH  12  21
ENDBRANCH   1   4
BRANCH   1  23
HETATM   23  N1  UNL     1       2.341   0.359  -0.490  1.00  0.00    -0.372 N 
HETATM   24  C16 UNL     1       3.701   0.766  -0.451  1.00  0.00     0.384 C 
HETATM   25  N2  UNL     1       4.487   0.382  -1.579  1.00  0.00    -0.041 N 
HETATM   26  N3  UNL     1       4.347   0.515   0.817  1.00  0.00    -0.333 N 
ATOM     27  H23 UNL     1       4.427  -0.626  -1.720  1.00  0.00     0.279 HD
ATOM     28  H22 UNL     1       4.048   0.710  -2.439  1.00  0.00     0.279 HD
ATOM     29  H21 UNL     1       5.464   0.674  -1.551  1.00  0.00     0.279 HD
HETATM   30  C17 UNL     1       5.366   1.174   1.188  1.00  0.00     0.107 A 
ATOM     31  H3  UNL     1       3.974  -0.210   1.430  1.00  0.00     0.164 HD
HETATM   32  C18 UNL     1       5.978   2.174   0.477  1.00  0.00     0.065 A 
HETATM   33  N5  UNL     1       5.888   0.852   2.408  1.00  0.00    -0.319 N 
HETATM   34  C19 UNL     1       7.097   2.818   1.017  1.00  0.00     0.094 A 
HETATM   35  N4  UNL     1       7.575   2.469   2.220  1.00  0.00    -0.343 N 
HETATM   36  C20 UNL     1       6.963   1.486   2.905  1.00  0.00     0.180 A 
ATOM     37  H4  UNL     1       8.390   2.942   2.610  1.00  0.00     0.167 HD
HETATM   38 CL1  UNL     1       7.597   1.033   4.487  1.00  0.00    -0.045 Cl
ATOM     39  H5  UNL     1       5.451   0.111   2.956  1.00  0.00     0.170 HD
ATOM     40  H1  UNL     1       1.595   1.053  -0.452  1.00  0.00     0.157 HD
ENDBRANCH   1  23
TORSDOF 6
