REMARK  8 active torsions:
REMARK  status: ('A' for Active; 'I' for Inactive)
REMARK    1  A    between atoms: C3_3  and  C4_4 
REMARK    2  A    between atoms: C4_4  and  N1_5 
REMARK       I    between atoms: N1_5  and  C5_7 
REMARK    3  A    between atoms: C5_7  and  C6_9 
REMARK    4  A    between atoms: N2_13  and  C10_14 
REMARK    5  A    between atoms: C15_21  and  O2_22 
REMARK    6  A    between atoms: N4_26  and  C18_27 
REMARK    7  A    between atoms: C18_27  and  C20_29 
REMARK    8  A    between atoms: C20_29  and  O3_30 
ROOT
HETATM    1  C6  UNL     1       0.989  -0.737  -0.037  1.00  0.00     0.104 A 
HETATM    2  C7  UNL     1       0.170   0.025   0.846  1.00  0.00     0.054 A 
HETATM    3  C8  UNL     1      -1.124  -0.187   0.510  1.00  0.00     0.058 A 
HETATM    4  C9  UNL     1      -1.178  -1.044  -0.540  1.00  0.00     0.034 A 
HETATM    5  N2  UNL     1       0.159  -1.362  -0.843  1.00  0.00    -0.341 N 
HETATM    6  C13 UNL     1      -2.325  -1.585  -1.319  1.00  0.00     0.117 C 
HETATM    7  C14 UNL     1      -3.480  -0.665  -1.464  1.00  0.00     0.044 A 
HETATM    8  N3  UNL     1      -4.268  -0.706  -2.602  1.00  0.00    -0.338 N 
ATOM      9  H3  UNL     1      -4.117  -1.329  -3.396  1.00  0.00     0.168 HD
HETATM   10  C15 UNL     1      -5.252   0.186  -2.509  1.00  0.00     0.142 A 
HETATM   11  C16 UNL     1      -5.121   0.828  -1.304  1.00  0.00     0.087 A 
HETATM   12  C17 UNL     1      -4.028   0.302  -0.662  1.00  0.00     0.065 A 
HETATM   13  N4  UNL     1      -3.577   0.727   0.618  1.00  0.00    -0.305 N 
HETATM   14  C21 UNL     1      -2.280   0.418   1.190  1.00  0.00     0.261 C 
HETATM   15  O4  UNL     1      -2.074   0.679   2.393  1.00  0.00    -0.267 OA
ENDROOT
BRANCH   1  16
HETATM   16  C5  UNL     1       2.450  -0.680   0.122  1.00  0.00     0.268 C 
HETATM   17  N1  UNL     1       2.958  -0.518   1.476  1.00  0.00    -0.351 N 
ATOM     18  H1  UNL     1       2.313  -0.456   2.264  1.00  0.00     0.163 HD
HETATM   19  O1  UNL     1       3.326  -0.754  -0.742  1.00  0.00    -0.266 OA
BRANCH  17  20
HETATM   20  C4  UNL     1       4.360  -0.447   1.689  1.00  0.00     0.162 C 
BRANCH  20  21
HETATM   21  C3  UNL     1       5.045   0.745   1.184  1.00  0.00    -0.028 A 
HETATM   22  C2  UNL     1       6.413   0.819   1.332  1.00  0.00    -0.012 A 
HETATM   23  C1  UNL     1       7.184  -0.307   1.961  1.00  0.00     0.052 C 
HETATM   24  C25 UNL     1       7.061   1.961   0.884  1.00  0.00     0.164 A 
HETATM   25  C24 UNL     1       6.404   3.013   0.305  1.00  0.00     0.193 A 
HETATM   26  F3  UNL     1       8.414   1.990   1.051  1.00  0.00    -0.202 F 
HETATM   27  C23 UNL     1       5.038   2.919   0.167  1.00  0.00     0.158 A 
HETATM   28  F2  UNL     1       7.129   4.074  -0.095  1.00  0.00    -0.200 F 
HETATM   29  C22 UNL     1       4.353   1.776   0.610  1.00  0.00     0.055 A 
HETATM   30  F1  UNL     1       4.366   3.956  -0.408  1.00  0.00    -0.203 F 
ENDBRANCH  20  21
ENDBRANCH  17  20
ENDBRANCH   1  16
BRANCH   5  31
HETATM   31  C10 UNL     1       0.388  -2.341  -1.877  1.00  0.00     0.082 C 
HETATM   32  C11 UNL     1      -0.372  -3.651  -1.485  1.00  0.00     0.032 C 
HETATM   33  C12 UNL     1       1.774  -2.806  -2.120  1.00  0.00     0.032 C 
ENDBRANCH   5  31
BRANCH  13  34
HETATM   34  C18 UNL     1      -4.448   1.508   1.425  1.00  0.00     0.113 C 
HETATM   35  C19 UNL     1      -4.646   2.940   0.951  1.00  0.00     0.035 C 
BRANCH  34  36
HETATM   36  C20 UNL     1      -5.714   0.838   1.856  1.00  0.00     0.189 C 
BRANCH  36  37
HETATM   37  O3  UNL     1      -6.495   1.713   2.647  1.00  0.00    -0.399 OA
ATOM     38  H3  UNL     1      -7.299   1.287   2.921  1.00  0.00     0.209 HD
ENDBRANCH  36  37
ENDBRANCH  34  36
ENDBRANCH  13  34
BRANCH  10  39
HETATM   39  O2  UNL     1      -6.220   0.418  -3.455  1.00  0.00    -0.346 OA
ATOM     40  H2  UNL     1      -6.922   1.054  -3.389  1.00  0.00     0.219 HD
ENDBRANCH  10  39
TORSDOF 8
