REMARK  9 active torsions:
REMARK  status: ('A' for Active; 'I' for Inactive)
REMARK    1  A    between atoms: C2_2  and  N1_3 
REMARK    2  A    between atoms: C3_4  and  C4_5 
REMARK    3  A    between atoms: C8_9  and  O1_10 
REMARK    4  A    between atoms: C15_20  and  O2_21 
REMARK    5  A    between atoms: C17_24  and  C18_25 
REMARK    6  A    between atoms: C22_29  and  N3_30 
REMARK    7  A    between atoms: C26_36  and  C27_37 
REMARK    8  A    between atoms: C27_37  and  C28_38 
REMARK    9  A    between atoms: C28_38  and  O3_39 
ROOT
HETATM    1  N1  UNL     1      -3.164   1.832  -0.562  1.00  0.00    -0.330 N 
HETATM    2  C3  UNL     1      -4.160   0.979  -0.312  1.00  0.00     0.031 A 
HETATM    3  C7  UNL     1      -3.609  -0.305  -0.094  1.00  0.00     0.036 A 
HETATM    4  C8  UNL     1      -4.158  -1.531   0.211  1.00  0.00     0.081 A 
HETATM    5  C9  UNL     1      -3.364  -2.616   0.382  1.00  0.00     0.067 A 
HETATM    6  C10 UNL     1      -2.001  -2.479   0.245  1.00  0.00     0.047 A 
HETATM    7  N2  UNL     1      -1.021  -3.382   0.369  1.00  0.00    -0.357 N 
ATOM      8  H2  UNL     1      -1.154  -4.368   0.594  1.00  0.00     0.166 HD
HETATM    9  C11 UNL     1       0.182  -2.780   0.148  1.00  0.00     0.039 A 
HETATM   10  C12 UNL     1      -0.048  -1.456  -0.126  1.00  0.00    -0.018 A 
HETATM   11  C13 UNL     1      -1.414  -1.265  -0.062  1.00  0.00     0.015 A 
HETATM   12  C14 UNL     1      -2.227  -0.147  -0.236  1.00  0.00     0.043 A 
HETATM   13  C15 UNL     1      -1.971   1.162  -0.521  1.00  0.00     0.154 A 
HETATM   14  C16 UNL     1       1.056  -0.533  -0.456  1.00  0.00     0.071 C 
HETATM   15  C17 UNL     1       2.405  -1.187  -0.628  1.00  0.00     0.115 C 
HETATM   16  N4  UNL     1       2.446  -2.585  -0.555  1.00  0.00    -0.403 N 
ATOM     17  H4  UNL     1       3.163  -3.082  -1.082  1.00  0.00     0.154 HD
HETATM   18  C26 UNL     1       1.552  -3.317   0.204  1.00  0.00     0.130 C 
ENDROOT
BRANCH  15  19
HETATM   19  C18 UNL     1       3.440  -0.467   0.197  1.00  0.00    -0.033 A 
HETATM   20  C19 UNL     1       3.763  -0.856   1.467  1.00  0.00     0.009 A 
HETATM   21  C20 UNL     1       4.723  -0.127   2.172  1.00  0.00     0.003 A 
HETATM   22  C21 UNL     1       5.338   0.968   1.604  1.00  0.00     0.029 A 
HETATM   23  C22 UNL     1       5.020   1.370   0.323  1.00  0.00     0.029 A 
HETATM   24  C25 UNL     1       4.075   0.649  -0.368  1.00  0.00     0.038 A 
BRANCH  23  25
HETATM   25  N3  UNL     1       5.681   2.500  -0.205  1.00  0.00    -0.390 N 
HETATM   26  C23 UNL     1       6.917   2.340  -0.929  1.00  0.00     0.149 C 
HETATM   27  C24 UNL     1       5.113   3.810  -0.016  1.00  0.00     0.149 C 
ENDBRANCH  23  25
ENDBRANCH  15  19
BRANCH  18  28
HETATM   28  C27 UNL     1       1.571  -4.784  -0.242  1.00  0.00     0.057 C 
BRANCH  28  29
HETATM   29  C28 UNL     1       1.069  -4.929  -1.662  1.00  0.00     0.166 C 
BRANCH  29  30
HETATM   30  O3  UNL     1       1.866  -4.204  -2.527  1.00  0.00    -0.401 OA
ATOM     31  H3  UNL     1       1.551  -4.295  -3.419  1.00  0.00     0.209 HD
ENDBRANCH  29  30
ENDBRANCH  28  29
ENDBRANCH  18  28
BRANCH  13  32
HETATM   32  O2  UNL     1      -0.804   1.807  -0.740  1.00  0.00    -0.345 OA
ATOM     33  H2  UNL     1       0.024   1.342  -0.712  1.00  0.00     0.219 HD
ENDBRANCH  13  32
BRANCH   4  34
HETATM   34  O1  UNL     1      -5.554  -1.645   0.344  1.00  0.00    -0.360 OA
ATOM     35  H1  UNL     1      -5.933  -2.491   0.554  1.00  0.00     0.217 HD
ENDBRANCH   4  34
BRANCH   2  36
HETATM   36  C4  UNL     1      -5.608   1.167  -0.225  1.00  0.00     0.028 C 
HETATM   37  C5  UNL     1      -6.189   2.433  -0.772  1.00  0.00     0.016 C 
HETATM   38  C6  UNL     1      -6.037   1.180   1.261  1.00  0.00     0.016 C 
ENDBRANCH   2  36
BRANCH   1  39
HETATM   39  C2  UNL     1      -3.246   3.241  -0.806  1.00  0.00     0.126 C 
HETATM   40  C1  UNL     1      -3.102   4.036   0.503  1.00  0.00     0.027 C 
ENDBRANCH   1  39
TORSDOF 9
