REMARK  10 active torsions:
REMARK  status: ('A' for Active; 'I' for Inactive)
REMARK    1  A    between atoms: O1_2  and  C2_3 
REMARK    2  A    between atoms: C3_4  and  O2_5 
REMARK    3  A    between atoms: C6_9  and  C7_10 
REMARK    4  A    between atoms: C7_10  and  C8_11 
REMARK    5  A    between atoms: C9_12  and  O3_13 
REMARK    6  A    between atoms: C11_15  and  O4_16 
REMARK    7  A    between atoms: C14_21  and  O5_22 
REMARK    8  A    between atoms: C16_25  and  O6_26 
REMARK    9  A    between atoms: C17_28  and  C18_29 
REMARK   10  A    between atoms: C18_29  and  C19_30 
ROOT
HETATM    1  C8  UNL     1       0.333   1.262  -0.286  1.00  0.00    -0.006 A 
HETATM    2  C9  UNL     1      -0.148   2.530  -0.726  1.00  0.00     0.110 A 
HETATM    3  C11 UNL     1       0.213   3.716  -0.148  1.00  0.00     0.118 A 
HETATM    4  C12 UNL     1       1.077   3.681   0.897  1.00  0.00     0.060 A 
HETATM    5 BR1  UNL     1       1.572   5.338   1.694  1.00  0.00    -0.047 Br
HETATM    6  C13 UNL     1       1.569   2.474   1.351  1.00  0.00     0.029 A 
HETATM    7  C14 UNL     1       2.459   2.528   2.413  1.00  0.00     0.081 A 
HETATM    8  C15 UNL     1       3.006   1.389   2.914  1.00  0.00     0.074 A 
HETATM    9  C16 UNL     1       2.650   0.176   2.336  1.00  0.00     0.075 A 
HETATM   10  C17 UNL     1       1.768   0.063   1.278  1.00  0.00    -0.010 A 
HETATM   11  C23 UNL     1       1.213   1.231   0.774  1.00  0.00    -0.003 A 
ENDROOT
BRANCH   1  12
HETATM   12  C7  UNL     1      -0.163   0.107  -0.970  1.00  0.00     0.081 C 
BRANCH  12  13
HETATM   13  C6  UNL     1      -1.653   0.046  -0.568  1.00  0.00    -0.045 A 
HETATM   14  C5  UNL     1      -2.005   0.520   0.656  1.00  0.00     0.011 A 
HETATM   15  C4  UNL     1      -3.355   0.507   1.040  1.00  0.00     0.040 A 
HETATM   16  C3  UNL     1      -4.315   0.006   0.160  1.00  0.00     0.099 A 
HETATM   17  C2  UNL     1      -3.944  -0.469  -1.069  1.00  0.00     0.107 A 
HETATM   18  C24 UNL     1      -2.621  -0.439  -1.409  1.00  0.00    -0.019 A 
HETATM   19  C25 UNL     1      -2.200  -0.975  -2.749  1.00  0.00     0.052 C 
BRANCH  16  20
HETATM   20  O2  UNL     1      -5.654   0.002   0.563  1.00  0.00    -0.358 OA
ATOM     21  H2  UNL     1      -5.911   0.332   1.416  1.00  0.00     0.217 HD
ENDBRANCH  16  20
BRANCH  17  22
HETATM   22  O1  UNL     1      -4.875  -0.964  -1.944  1.00  0.00    -0.353 OA
HETATM   23  C1  UNL     1      -5.243  -2.342  -1.908  1.00  0.00     0.210 C 
ENDBRANCH  17  22
ENDBRANCH  12  13
ENDBRANCH   1  12
BRANCH   2  24
HETATM   24  O3  UNL     1      -1.023   2.502  -1.805  1.00  0.00    -0.352 OA
HETATM   25  C10 UNL     1      -0.584   2.681  -3.142  1.00  0.00     0.210 C 
ENDBRANCH   2  24
BRANCH   3  26
HETATM   26  O4  UNL     1      -0.318   4.908  -0.653  1.00  0.00    -0.357 OA
ATOM     27  H4  UNL     1      -0.067   5.732  -0.252  1.00  0.00     0.218 HD
ENDBRANCH   3  26
BRANCH  10  28
HETATM   28  C18 UNL     1       1.466  -1.216   0.702  1.00  0.00     0.070 C 
BRANCH  28  29
HETATM   29  C19 UNL     1       2.142  -2.334   1.424  1.00  0.00    -0.020 C 
HETATM   30  C20 UNL     1       3.064  -3.088   0.843  1.00  0.00    -0.091 C 
HETATM   31  C21 UNL     1       3.469  -2.838  -0.585  1.00  0.00     0.042 C 
HETATM   32  C22 UNL     1       3.733  -4.208   1.548  1.00  0.00     0.042 C 
ENDBRANCH  28  29
ENDBRANCH  10  28
BRANCH   7  33
HETATM   33  O5  UNL     1       2.788   3.784   2.964  1.00  0.00    -0.360 OA
ATOM     34  H5  UNL     1       3.398   3.821   3.692  1.00  0.00     0.217 HD
ENDBRANCH   7  33
BRANCH   9  35
HETATM   35  O6  UNL     1       3.282  -0.918   2.937  1.00  0.00    -0.360 OA
ATOM     36  H6  UNL     1       3.039  -1.747   2.542  1.00  0.00     0.217 HD
ENDBRANCH   9  35
TORSDOF 10
