REMARK  12 active torsions:
REMARK  status: ('A' for Active; 'I' for Inactive)
REMARK    1  A    between atoms: O1_2  and  C2_3 
REMARK    2  A    between atoms: C5_6  and  N1_7 
REMARK    3  A    between atoms: N1_7  and  C6_9 
REMARK    4  A    between atoms: C6_9  and  N2_11 
REMARK    5  A    between atoms: N2_11  and  N3_12 
REMARK    6  A    between atoms: N2_11  and  C7_15 
REMARK    7  A    between atoms: C7_15  and  C8_16 
REMARK    8  A    between atoms: C8_16  and  C9_17 
REMARK    9  A    between atoms: C9_17  and  N4_18 
REMARK   10  A    between atoms: N4_18  and  C10_20 
REMARK   11  A    between atoms: C14_28  and  C15_29 
REMARK   12  A    between atoms: C24_39  and  O2_40 
ROOT
HETATM    1  C9  UNL     1      -0.224  -1.420   2.646  1.00  0.00     0.123 C 
ENDROOT
BRANCH   1   2
HETATM    2  C8  UNL     1       1.157  -1.159   2.076  1.00  0.00     0.041 C 
BRANCH   2   3
HETATM    3  C7  UNL     1       1.144  -1.585   0.651  1.00  0.00     0.152 C 
BRANCH   3   4
HETATM    4  N2  UNL     1       2.440  -1.360   0.038  1.00  0.00    -0.274 N 
BRANCH   4   5
HETATM    5  C6  UNL     1       2.591  -1.722  -1.307  1.00  0.00     0.193 C 
HETATM    6  S1  UNL     1       1.303  -2.383  -2.109  1.00  0.00    -0.039 SA
BRANCH   5   7
HETATM    7  N1  UNL     1       3.784  -1.552  -2.008  1.00  0.00    -0.332 N 
ATOM      8  H1  UNL     1       3.809  -1.845  -2.985  1.00  0.00     0.168 HD
BRANCH   7   9
HETATM    9  C5  UNL     1       4.957  -1.003  -1.456  1.00  0.00     0.037 A 
HETATM   10  C4  UNL     1       5.925  -1.798  -0.842  1.00  0.00     0.032 A 
HETATM   11  C3  UNL     1       7.060  -1.213  -0.333  1.00  0.00     0.042 A 
HETATM   12  C2  UNL     1       7.261   0.146  -0.417  1.00  0.00     0.101 A 
HETATM   13  C24 UNL     1       6.317   0.943  -1.020  1.00  0.00     0.103 A 
HETATM   14  C23 UNL     1       5.183   0.368  -1.530  1.00  0.00     0.069 A 
BRANCH  12  15
HETATM   15  O1  UNL     1       8.420   0.746   0.103  1.00  0.00    -0.353 OA
HETATM   16  C1  UNL     1       9.374  -0.076   0.713  1.00  0.00     0.210 C 
ENDBRANCH  12  15
BRANCH  13  17
HETATM   17  O2  UNL     1       6.502   2.331  -1.117  1.00  0.00    -0.353 OA
HETATM   18  C25 UNL     1       5.533   3.146  -1.735  1.00  0.00     0.210 C 
ENDBRANCH  13  17
ENDBRANCH   7   9
ENDBRANCH   5   7
ENDBRANCH   4   5
BRANCH   4  19
HETATM   19  N3  UNL     1       3.425  -0.798   0.843  1.00  0.00    -0.341 N 
ATOM     20  H32 UNL     1       4.336  -0.640   0.412  1.00  0.00     0.177 HD
ATOM     21  H31 UNL     1       3.315  -0.534   1.822  1.00  0.00     0.177 HD
ENDBRANCH   4  19
ENDBRANCH   3   4
ENDBRANCH   2   3
ENDBRANCH   1   2
BRANCH   1  22
HETATM   22  N4  UNL     1      -1.241  -0.673   1.929  1.00  0.00    -0.375 N 
ATOM     23  H4  UNL     1      -1.037   0.259   1.569  1.00  0.00     0.161 HD
BRANCH  22  24
HETATM   24  C10 UNL     1      -2.392  -1.192   1.753  1.00  0.00     0.115 A 
HETATM   25  N5  UNL     1      -2.688  -2.435   2.223  1.00  0.00    -0.338 N 
HETATM   26  C11 UNL     1      -3.904  -2.976   2.034  1.00  0.00     0.182 A 
ATOM     27  H5  UNL     1      -1.976  -2.964   2.726  1.00  0.00     0.168 HD
HETATM   28  N6  UNL     1      -4.877  -2.329   1.381  1.00  0.00    -0.351 N 
HETATM   29  C12 UNL     1      -4.637  -1.099   0.897  1.00  0.00     0.048 A 
ATOM     30  H6  UNL     1      -5.790  -2.765   1.252  1.00  0.00     0.166 HD
HETATM   31  C13 UNL     1      -5.650  -0.449   0.228  1.00  0.00     0.041 A 
HETATM   32  C22 UNL     1      -3.377  -0.517   1.083  1.00  0.00     0.043 A 
HETATM   33  C14 UNL     1      -5.448   0.818  -0.286  1.00  0.00    -0.009 A 
HETATM   34  C19 UNL     1      -4.218   1.386  -0.105  1.00  0.00     0.130 A 
HETATM   35  F1  UNL     1      -3.944   2.626  -0.576  1.00  0.00    -0.205 F 
HETATM   36  C20 UNL     1      -3.157   0.752   0.574  1.00  0.00    -0.007 A 
HETATM   37  C21 UNL     1      -1.863   1.402   0.739  1.00  0.00     0.052 C 
BRANCH  33  38
HETATM   38  C15 UNL     1      -6.497   1.558  -1.014  1.00  0.00    -0.021 C 
HETATM   39  C16 UNL     1      -7.745   0.660  -1.041  1.00  0.00     0.019 C 
HETATM   40  C17 UNL     1      -6.161   1.797  -2.468  1.00  0.00     0.019 C 
HETATM   41  C18 UNL     1      -6.900   2.829  -0.305  1.00  0.00     0.019 C 
ENDBRANCH  33  38
ENDBRANCH  22  24
ENDBRANCH   1  22
TORSDOF 12
