REMARK  10 active torsions:
REMARK  status: ('A' for Active; 'I' for Inactive)
REMARK    1  A    between atoms: C2_2  and  C3_3 
REMARK    2  A    between atoms: C2_2  and  C12_18 
REMARK    3  A    between atoms: C3_3  and  C4_4 
REMARK    4  A    between atoms: C4_4  and  C5_5 
REMARK    5  A    between atoms: C5_5  and  N1_6 
REMARK    6  A    between atoms: N1_6  and  N2_8 
REMARK    7  A    between atoms: N2_8  and  C6_10 
REMARK    8  A    between atoms: C20_29  and  O1_30 
REMARK    9  A    between atoms: C22_33  and  C23_34 
REMARK   10  A    between atoms: C23_34  and  O2_35 
ROOT
HETATM    1  C12 UNL     1       0.208   0.974  -1.546  1.00  0.00    -0.010 C 
HETATM    2  C13 UNL     1      -0.659   2.160  -1.881  1.00  0.00     0.005 C 
HETATM    3  C14 UNL     1      -2.112   1.695  -1.676  1.00  0.00     0.006 C 
HETATM    4  C15 UNL     1      -2.270   1.626  -0.204  1.00  0.00    -0.002 C 
HETATM    5  C16 UNL     1      -3.622   1.195   0.280  1.00  0.00    -0.005 C 
HETATM    6  C17 UNL     1      -4.775   1.831  -0.390  1.00  0.00     0.007 C 
HETATM    7  C18 UNL     1      -6.036   0.975  -0.221  1.00  0.00     0.034 C 
HETATM    8  C19 UNL     1      -5.787   0.017   0.862  1.00  0.00     0.200 C 
HETATM    9  N4  UNL     1      -6.838  -0.839   1.271  1.00  0.00    -0.044 N 
ATOM     10  H41 UNL     1      -7.405  -1.199   0.504  1.00  0.00     0.280 HD
ATOM     11  H42 UNL     1      -7.597  -0.364   1.759  1.00  0.00     0.280 HD
HETATM   12  C20 UNL     1      -6.177  -1.872   2.060  1.00  0.00     0.319 C 
HETATM   13  C21 UNL     1      -4.681  -1.792   1.717  1.00  0.00     0.075 C 
HETATM   14  C22 UNL     1      -4.731  -1.017   0.445  1.00  0.00     0.017 C 
HETATM   15  C24 UNL     1      -3.544  -0.306   0.003  1.00  0.00     0.003 C 
HETATM   16  C25 UNL     1      -2.228  -0.676   0.536  1.00  0.00     0.015 C 
HETATM   17  C26 UNL     1      -1.376   0.599   0.399  1.00  0.00    -0.039 C 
HETATM   18  C27 UNL     1      -1.156   1.052   1.854  1.00  0.00     0.015 C 
HETATM   19  C28 UNL     1      -0.096   0.313  -0.266  1.00  0.00     0.014 C 
ENDROOT
BRANCH   1  20
HETATM   20  C2  UNL     1       1.652   1.343  -1.758  1.00  0.00    -0.014 C 
HETATM   21  C1  UNL     1       2.139   2.476  -0.931  1.00  0.00     0.010 C 
BRANCH  20  22
HETATM   22  C3  UNL     1       2.555   0.124  -1.663  1.00  0.00     0.006 C 
BRANCH  22  23
HETATM   23  C4  UNL     1       3.953   0.449  -2.135  1.00  0.00     0.021 C 
BRANCH  23  24
HETATM   24  C5  UNL     1       4.805  -0.792  -2.023  1.00  0.00     0.139 C 
BRANCH  24  25
HETATM   25  N1  UNL     1       4.851  -1.242  -0.637  1.00  0.00    -0.335 N 
ATOM     26  H1  UNL     1       4.506  -2.172  -0.398  1.00  0.00     0.180 HD
BRANCH  25  27
HETATM   27  N2  UNL     1       5.341  -0.450   0.328  1.00  0.00    -0.290 N 
ATOM     28  H2  UNL     1       4.781   0.394   0.449  1.00  0.00     0.188 HD
BRANCH  27  29
HETATM   29  C6  UNL     1       6.318  -0.483   1.124  1.00  0.00     0.121 A 
HETATM   30  C7  UNL     1       6.473   0.600   2.012  1.00  0.00     0.052 A 
HETATM   31  C8  UNL     1       7.482   0.694   2.925  1.00  0.00     0.029 A 
HETATM   32  C9  UNL     1       8.403  -0.321   2.988  1.00  0.00     0.049 A 
HETATM   33 CL1  UNL     1       9.750  -0.306   4.130  1.00  0.00    -0.083 Cl
HETATM   34  C10 UNL     1       8.253  -1.369   2.129  1.00  0.00     0.115 A 
HETATM   35  N3  UNL     1       7.238  -1.452   1.219  1.00  0.00    -0.345 N 
HETATM   36  C11 UNL     1       7.162  -2.598   0.356  1.00  0.00     0.157 C 
ENDBRANCH  27  29
ENDBRANCH  25  27
ENDBRANCH  24  25
ENDBRANCH  23  24
ENDBRANCH  22  23
ENDBRANCH  20  22
ENDBRANCH   1  20
BRANCH  14  37
HETATM   37  C23 UNL     1      -5.283  -1.929  -0.627  1.00  0.00     0.176 C 
BRANCH  37  38
HETATM   38  O2  UNL     1      -4.346  -2.879  -1.027  1.00  0.00    -0.400 OA
ATOM     39  H2  UNL     1      -4.693  -3.452  -1.701  1.00  0.00     0.209 HD
ENDBRANCH  37  38
ENDBRANCH  14  37
BRANCH  12  40
HETATM   40  O1  UNL     1      -6.380  -1.664   3.425  1.00  0.00    -0.370 OA
ATOM     41  H1  UNL     1      -5.949  -2.337   3.939  1.00  0.00     0.212 HD
ENDBRANCH  12  40
TORSDOF 10
