REMARK  2 active torsions:
REMARK  status: ('A' for Active; 'I' for Inactive)
REMARK    1  A    between atoms: N3_4  and  N4_6 
REMARK       I    between atoms: N4_6  and  C2_7 
REMARK       I    between atoms: C2_7  and  N5_9 
REMARK    2  A    between atoms: N5_9  and  C3_11 
ROOT
HETATM    1  N4  UNL     1      -0.755  -0.126  -0.376  1.00  0.00    -0.262 NA
HETATM    2  C2  UNL     1       0.488   0.312  -0.806  1.00  0.00     0.430 C 
HETATM    3  O1  UNL     1       0.912   1.476  -0.960  1.00  0.00    -0.227 OA
HETATM    4  N5  UNL     1       1.454  -0.733  -1.133  1.00  0.00    -0.125 N 
ATOM      5  H5  UNL     1       1.168  -1.526  -1.708  1.00  0.00     0.190 HD
ENDROOT
BRANCH   4   6
HETATM    6  C3  UNL     1       2.643  -0.661  -0.708  1.00  0.00     0.718 A 
HETATM    7  N6  UNL     1       3.550  -1.640  -1.015  1.00  0.00    -0.115 N 
HETATM    8  N7  UNL     1       4.672  -1.286  -0.443  1.00  0.00    -0.213 N 
ATOM      9  H6  UNL     1       3.384  -2.476  -1.576  1.00  0.00     0.207 HD
HETATM   10  N8  UNL     1       4.521  -0.151   0.201  1.00  0.00    -0.213 N 
ATOM     11  H7  UNL     1       5.542  -1.817  -0.490  1.00  0.00     0.210 HD
HETATM   12  N9  UNL     1       3.276   0.234   0.038  1.00  0.00    -0.115 N 
ATOM     13  H8  UNL     1       5.240   0.342   0.731  1.00  0.00     0.210 HD
ATOM     14  H9  UNL     1       2.863   1.084   0.423  1.00  0.00     0.207 HD
ENDBRANCH   4   6
BRANCH   1  15
HETATM   15  N3  UNL     1      -1.867  -0.518   0.008  1.00  0.00    -0.204 N 
HETATM   16  C1  UNL     1      -3.028  -0.162   0.393  1.00  0.00     0.226 C 
HETATM   17  N1  UNL     1      -3.285   1.230   0.451  1.00  0.00    -0.065 NA
HETATM   18  N2  UNL     1      -4.016  -1.128   0.742  1.00  0.00    -0.065 NA
ATOM     19  H3  UNL     1      -1.842  -1.538   0.021  1.00  0.00     0.204 HD
ENDBRANCH   1  15
TORSDOF 2
