REMARK  5 active torsions:
REMARK  status: ('A' for Active; 'I' for Inactive)
REMARK       I    between atoms: N2_3  and  C2_5 
REMARK       I    between atoms: C2_5  and  N3_7 
REMARK    1  A    between atoms: N3_7  and  N4_9 
REMARK       I    between atoms: N4_9  and  C3_11 
REMARK    2  A    between atoms: C3_11  and  C4_13 
REMARK    3  A    between atoms: C4_13  and  N5_14 
REMARK    4  A    between atoms: C4_13  and  C5_19 
REMARK    5  A    between atoms: N5_14  and  N6_16 
ROOT
HETATM    1  N1  UNL     1       6.064  -0.238   0.832  1.00  0.00    -0.172 NA
HETATM    2  C1  UNL     1       5.132   0.302   0.387  1.00  0.00     0.186 C 
HETATM    3  N2  UNL     1       4.012   0.970  -0.169  1.00  0.00    -0.244 N 
ATOM      4  H2  UNL     1       4.153   1.693  -0.874  1.00  0.00     0.183 HD
HETATM    5  C2  UNL     1       2.717   0.646   0.241  1.00  0.00     0.347 C 
HETATM    6  O1  UNL     1       2.541  -0.247   1.110  1.00  0.00    -0.245 OA
HETATM    7  N3  UNL     1       1.589   1.288  -0.291  1.00  0.00    -0.248 N 
ATOM      8  H3  UNL     1       1.721   2.010  -1.000  1.00  0.00     0.192 HD
ENDROOT
BRANCH   7   9
HETATM    9  N4  UNL     1       0.275   0.967   0.123  1.00  0.00    -0.264 N 
HETATM   10  C3  UNL     1      -0.399  -0.188  -0.297  1.00  0.00     0.269 C 
HETATM   11  O2  UNL     1       0.229  -0.980  -1.088  1.00  0.00    -0.269 OA
ATOM     12  H4  UNL     1      -0.205   1.606   0.757  1.00  0.00     0.190 HD
BRANCH  10  13
HETATM   13  C4  UNL     1      -1.765  -0.555   0.099  1.00  0.00     0.281 C 
BRANCH  13  14
HETATM   14  N5  UNL     1      -2.175  -1.810  -0.512  1.00  0.00    -0.320 N 
ATOM     15  H5  UNL     1      -2.951  -1.861  -1.172  1.00  0.00     0.181 HD
BRANCH  14  16
HETATM   16  N6  UNL     1      -1.463  -2.910  -0.152  1.00  0.00    -0.348 N 
ATOM     17  H62 UNL     1      -0.689  -2.843   0.509  1.00  0.00     0.176 HD
ATOM     18  H61 UNL     1      -1.750  -3.790  -0.580  1.00  0.00     0.176 HD
ENDBRANCH  14  16
ENDBRANCH  13  14
BRANCH  13  19
HETATM   19  C5  UNL     1      -2.792   0.438  -0.250  1.00  0.00     0.264 C 
HETATM   20  N7  UNL     1      -3.078   1.519   0.595  1.00  0.00    -0.060 NA
HETATM   21  O3  UNL     1      -3.424   0.284  -1.346  1.00  0.00    -0.274 OA
ENDBRANCH  13  19
ENDBRANCH  10  13
ENDBRANCH   7   9
TORSDOF 5
