REMARK  12 active torsions:
REMARK  status: ('A' for Active; 'I' for Inactive)
REMARK    1  A    between atoms: N1_2  and  C2_4 
REMARK    2  A    between atoms: C3_7  and  C4_8 
REMARK    3  A    between atoms: C8_12  and  C9_13 
REMARK    4  A    between atoms: C9_13  and  C10_14 
REMARK    5  A    between atoms: C10_14  and  C11_15 
REMARK    6  A    between atoms: C11_15  and  O1_16 
REMARK    7  A    between atoms: C14_20  and  N3_21 
REMARK    8  A    between atoms: N3_21  and  C15_23 
REMARK    9  A    between atoms: C15_23  and  C16_24 
REMARK   10  A    between atoms: C16_24  and  C17_25 
REMARK   11  A    between atoms: C17_25  and  C18_26 
REMARK   12  A    between atoms: C18_26  and  N4_27 
ROOT
HETATM    1  C2  UNL     1       3.386   2.058  -2.844  1.00  0.00     0.679 A 
HETATM    2  N2  UNL     1       4.512   1.386  -2.493  1.00  0.00    -0.191 N 
ATOM      3  H2  UNL     1       5.318   1.441  -3.116  1.00  0.00     0.184 HD
HETATM    4  C3  UNL     1       4.626   0.655  -1.376  1.00  0.00     0.063 A 
HETATM    5  C13 UNL     1       3.537   0.589  -0.544  1.00  0.00     0.079 A 
HETATM    6  C14 UNL     1       2.363   1.274  -0.885  1.00  0.00     0.119 A 
HETATM    7  N5  UNL     1       2.328   1.983  -2.020  1.00  0.00    -0.177 N 
ATOM      8  H5  UNL     1       1.473   2.481  -2.266  1.00  0.00     0.185 HD
ENDROOT
BRANCH   6   9
HETATM    9  N3  UNL     1       1.373   1.182  -0.081  1.00  0.00    -0.376 N 
ATOM     10  H3  UNL     1       1.508   0.614   0.755  1.00  0.00     0.161 HD
BRANCH   9  11
HETATM   11  C15 UNL     1       0.095   1.800  -0.243  1.00  0.00     0.121 C 
BRANCH  11  12
HETATM   12  C16 UNL     1      -0.802   0.949  -1.148  1.00  0.00     0.021 C 
BRANCH  12  13
HETATM   13  C17 UNL     1      -1.005  -0.425  -0.548  1.00  0.00     0.021 C 
BRANCH  13  14
HETATM   14  C18 UNL     1      -1.655  -0.398   0.803  1.00  0.00     0.117 C 
BRANCH  14  15
HETATM   15  N4  UNL     1      -2.932   0.208   0.773  1.00  0.00    -0.408 N 
HETATM   16  C19 UNL     1      -3.561   0.277   2.076  1.00  0.00     0.143 C 
HETATM   17  C20 UNL     1      -4.492  -0.836   2.382  1.00  0.00     0.187 C 
HETATM   18  O2  UNL     1      -5.816  -0.456   2.247  1.00  0.00    -0.387 OA
HETATM   19  C21 UNL     1      -6.705  -1.514   2.301  1.00  0.00     0.193 C 
HETATM   20  C22 UNL     1      -7.886  -1.381   1.403  1.00  0.00     0.193 C 
HETATM   21  O3  UNL     1      -8.285  -0.116   1.120  1.00  0.00    -0.387 OA
HETATM   22  C23 UNL     1      -7.525   0.657   0.307  1.00  0.00     0.193 C 
HETATM   23  C24 UNL     1      -6.779  -0.030  -0.785  1.00  0.00     0.193 C 
HETATM   24  O4  UNL     1      -5.807   0.767  -1.337  1.00  0.00    -0.387 OA
HETATM   25  C25 UNL     1      -4.730   1.049  -0.554  1.00  0.00     0.187 C 
HETATM   26  C26 UNL     1      -3.816  -0.126  -0.276  1.00  0.00     0.143 C 
ENDBRANCH  14  15
ENDBRANCH  13  14
ENDBRANCH  12  13
ENDBRANCH  11  12
ENDBRANCH   9  11
ENDBRANCH   6   9
BRANCH   4  27
HETATM   27  C4  UNL     1       5.847  -0.056  -1.022  1.00  0.00    -0.007 A 
HETATM   28  C5  UNL     1       6.947   0.024  -1.861  1.00  0.00     0.014 A 
HETATM   29  C6  UNL     1       8.132  -0.658  -1.536  1.00  0.00     0.002 A 
HETATM   30  C7  UNL     1       8.222  -1.411  -0.390  1.00  0.00     0.020 A 
HETATM   31  C8  UNL     1       7.144  -1.506   0.457  1.00  0.00     0.018 A 
HETATM   32  C12 UNL     1       5.988  -0.820   0.107  1.00  0.00     0.034 A 
BRANCH  31  33
HETATM   33  C9  UNL     1       7.214  -2.287   1.662  1.00  0.00    -0.065 C 
BRANCH  33  34
HETATM   34  C10 UNL     1       7.272  -2.924   2.681  1.00  0.00    -0.075 C 
BRANCH  34  35
HETATM   35  C11 UNL     1       7.366  -3.694   3.938  1.00  0.00     0.258 C 
BRANCH  35  36
HETATM   36  O1  UNL     1       7.800  -4.979   3.604  1.00  0.00    -0.389 OA
ATOM     37  H1  UNL     1       7.860  -5.474   4.412  1.00  0.00     0.210 HD
ENDBRANCH  35  36
ENDBRANCH  34  35
ENDBRANCH  33  34
ENDBRANCH  31  33
ENDBRANCH   4  27
BRANCH   1  38
HETATM   38  N1  UNL     1       3.355   2.742  -3.941  1.00  0.00    -0.230 N 
HETATM   39  C1  UNL     1       2.206   3.478  -4.382  1.00  0.00     0.165 C 
ATOM     40  H1  UNL     1       4.192   2.759  -4.523  1.00  0.00     0.177 HD
ENDBRANCH   1  38
TORSDOF 12
