REMARK  8 active torsions:
REMARK  status: ('A' for Active; 'I' for Inactive)
REMARK    1  A    between atoms: C7_10  and  C8_11 
REMARK    2  A    between atoms: C9_12  and  C10_13 
REMARK    3  A    between atoms: C12_17  and  N3_18 
REMARK    4  A    between atoms: N3_18  and  S1_20 
REMARK    5  A    between atoms: C14_26  and  N5_27 
REMARK    6  A    between atoms: N5_27  and  C15_28 
REMARK    7  A    between atoms: C15_28  and  C16_29 
REMARK    8  A    between atoms: C21_34  and  N6_35 
ROOT
HETATM    1  C10 UNL     1      -0.426  -0.944   1.073  1.00  0.00     0.039 A 
HETATM    2  C11 UNL     1      -0.280  -2.334   0.965  1.00  0.00     0.122 A 
HETATM    3  N2  UNL     1      -1.198  -3.130   0.403  1.00  0.00    -0.200 N 
ATOM      4  H2  UNL     1      -1.030  -4.135   0.358  1.00  0.00     0.183 HD
HETATM    5  C12 UNL     1      -2.325  -2.634  -0.098  1.00  0.00     0.694 A 
HETATM    6  N4  UNL     1      -2.488  -1.306  -0.012  1.00  0.00    -0.163 N 
ATOM      7  H4  UNL     1      -3.348  -0.918  -0.399  1.00  0.00     0.187 HD
HETATM    8  C14 UNL     1      -1.581  -0.401   0.563  1.00  0.00     0.204 A 
ENDROOT
BRANCH   1   9
HETATM    9  C9  UNL     1       0.457  -0.062   1.786  1.00  0.00     0.021 C 
HETATM   10  C8  UNL     1       1.823  -0.220   2.129  1.00  0.00     0.049 C 
BRANCH  10  11
HETATM   11  C7  UNL     1       2.863  -0.147   1.084  1.00  0.00     0.106 A 
HETATM   12  N1  UNL     1       2.730   0.070  -0.222  1.00  0.00    -0.341 N 
HETATM   13  C6  UNL     1       3.992   0.144  -0.785  1.00  0.00     0.061 A 
ATOM     14  H1  UNL     1       1.847   0.166  -0.724  1.00  0.00     0.167 HD
HETATM   15  C5  UNL     1       4.477   0.355  -2.045  1.00  0.00     0.033 A 
HETATM   16  C22 UNL     1       4.886  -0.032   0.262  1.00  0.00     0.068 A 
HETATM   17  C4  UNL     1       5.857   0.386  -2.238  1.00  0.00     0.027 A 
HETATM   18  C3  UNL     1       6.709   0.213  -1.195  1.00  0.00     0.042 A 
HETATM   19  C2  UNL     1       6.250   0.003   0.082  1.00  0.00    -0.011 A 
HETATM   20 CL1  UNL     1       8.434   0.219  -1.471  1.00  0.00    -0.084 Cl
HETATM   21  C1  UNL     1       7.200  -0.174   1.197  1.00  0.00     0.052 C 
HETATM   22  N7  UNL     1       4.200  -0.212   1.380  1.00  0.00    -0.340 N 
ATOM     23  H7  UNL     1       4.599  -0.372   2.305  1.00  0.00     0.167 HD
ENDBRANCH  10  11
ENDBRANCH   1   9
BRANCH   8  24
HETATM   24  N5  UNL     1      -2.054   0.710   0.640  1.00  0.00    -0.398 NA
BRANCH  24  25
HETATM   25  C15 UNL     1      -2.459   1.956   0.801  1.00  0.00     0.198 C 
BRANCH  25  26
HETATM   26  C16 UNL     1      -2.606   2.942  -0.278  1.00  0.00     0.026 A 
HETATM   27  C17 UNL     1      -1.571   3.654  -0.843  1.00  0.00     0.016 A 
HETATM   28  C18 UNL     1      -1.788   4.804  -1.616  1.00  0.00     0.001 A 
HETATM   29  C19 UNL     1      -3.066   5.265  -1.845  1.00  0.00     0.002 A 
HETATM   30  C20 UNL     1      -4.113   4.561  -1.288  1.00  0.00     0.037 A 
HETATM   31  C21 UNL     1      -3.912   3.424  -0.525  1.00  0.00     0.115 A 
BRANCH  31  32
HETATM   32  N6  UNL     1      -5.011   2.645  -0.137  1.00  0.00    -0.115 N 
HETATM   33  O3  UNL     1      -5.994   2.682  -0.979  1.00  0.00    -0.532 OA
HETATM   34  O4  UNL     1      -5.221   1.873   0.930  1.00  0.00    -0.532 OA
ENDBRANCH  31  32
ENDBRANCH  25  26
ENDBRANCH  24  25
ENDBRANCH   8  24
BRANCH   5  35
HETATM   35  N3  UNL     1      -3.296  -3.353  -0.445  1.00  0.00    -0.117 N 
ATOM     36  H3  UNL     1      -4.099  -2.857  -0.832  1.00  0.00     0.197 HD
BRANCH  35  37
HETATM   37  S1  UNL     1      -3.445  -5.033  -0.354  1.00  0.00     0.240 S 
HETATM   38  C13 UNL     1      -5.172  -5.551  -0.353  1.00  0.00     0.186 C 
HETATM   39  O1  UNL     1      -2.933  -5.494   1.046  1.00  0.00    -0.206 OA
HETATM   40  O2  UNL     1      -2.740  -5.840  -1.369  1.00  0.00    -0.206 OA
ENDBRANCH  35  37
ENDBRANCH   5  35
TORSDOF 8
