REMARK  9 active torsions:
REMARK  status: ('A' for Active; 'I' for Inactive)
REMARK    1  A    between atoms: C2_2  and  N1_3 
REMARK    2  A    between atoms: C2_2  and  C10_12 
REMARK    3  A    between atoms: N1_3  and  C3_5 
REMARK       I    between atoms: C10_12  and  N2_14 
REMARK    4  A    between atoms: N2_14  and  C11_16 
REMARK    5  A    between atoms: C14_19  and  C15_20 
REMARK    6  A    between atoms: C15_20  and  O2_21 
REMARK    7  A    between atoms: C15_20  and  N3_23 
REMARK    8  A    between atoms: N3_23  and  C16_25 
REMARK    9  A    between atoms: C16_25  and  C17_26 
ROOT
HETATM    1  C11 UNL     1       2.567   0.727  -0.318  1.00  0.00     0.177 C 
HETATM    2  C12 UNL     1       1.748   1.756  -1.097  1.00  0.00     0.037 C 
HETATM    3  C13 UNL     1       0.265   1.337  -0.960  1.00  0.00     0.036 C 
HETATM    4  C14 UNL     1      -0.125   1.669   0.444  1.00  0.00     0.159 C 
HETATM    5  N4  UNL     1       0.836   1.204   1.447  1.00  0.00    -0.347 N 
ATOM      6  H4  UNL     1       0.793   1.467   2.431  1.00  0.00     0.163 HD
HETATM    7  C28 UNL     1       1.852   0.333   0.898  1.00  0.00     0.241 C 
HETATM    8  O7  UNL     1       2.076  -0.728   1.494  1.00  0.00    -0.271 OA
ENDROOT
BRANCH   4   9
HETATM    9  C15 UNL     1      -1.482   1.404   0.800  1.00  0.00     0.134 C 
BRANCH   9  10
HETATM   10  O2  UNL     1      -2.232   2.440   1.105  1.00  0.00    -0.348 OA
ATOM     11  H2  UNL     1      -3.135   2.264   1.342  1.00  0.00     0.219 HD
ENDBRANCH   9  10
BRANCH   9  12
HETATM   12  N3  UNL     1      -2.139   0.116   0.882  1.00  0.00    -0.372 N 
ATOM     13  H3  UNL     1      -1.636  -0.758   0.730  1.00  0.00     0.161 HD
BRANCH  12  14
HETATM   14  C16 UNL     1      -3.585   0.144   1.199  1.00  0.00     0.126 C 
BRANCH  14  15
HETATM   15  C17 UNL     1      -4.204   0.610  -0.099  1.00  0.00     0.007 C 
HETATM   16  C18 UNL     1      -5.670   0.884  -0.083  1.00  0.00     0.032 C 
HETATM   17  C19 UNL     1      -5.971   2.330   0.259  1.00  0.00     0.168 C 
HETATM   18  O3  UNL     1      -7.302   2.587  -0.038  1.00  0.00    -0.389 OA
HETATM   19  C20 UNL     1      -8.016   1.491   0.357  1.00  0.00     0.193 C 
HETATM   20  C21 UNL     1      -9.485   1.727   0.666  1.00  0.00     0.193 C 
HETATM   21  O4  UNL     1      -9.918   0.414   1.030  1.00  0.00    -0.387 OA
HETATM   22  C22 UNL     1     -10.000  -0.409  -0.050  1.00  0.00     0.193 C 
HETATM   23  C23 UNL     1      -9.132  -1.591  -0.118  1.00  0.00     0.193 C 
HETATM   24  O5  UNL     1      -8.190  -1.789   0.844  1.00  0.00    -0.387 OA
HETATM   25  C24 UNL     1      -7.594  -3.010   0.736  1.00  0.00     0.193 C 
HETATM   26  C25 UNL     1      -6.307  -3.056  -0.045  1.00  0.00     0.193 C 
HETATM   27  O6  UNL     1      -5.434  -2.084   0.341  1.00  0.00    -0.389 OA
HETATM   28  C26 UNL     1      -4.290  -1.916  -0.363  1.00  0.00     0.168 C 
HETATM   29  C27 UNL     1      -4.099  -0.600  -1.074  1.00  0.00     0.032 C 
ENDBRANCH  14  15
ENDBRANCH  12  14
ENDBRANCH   9  12
ENDBRANCH   4   9
BRANCH   1  30
HETATM   30  N2  UNL     1       3.840   1.280   0.068  1.00  0.00    -0.343 N 
HETATM   31  C10 UNL     1       5.037   1.129  -0.677  1.00  0.00     0.264 C 
HETATM   32  O1  UNL     1       4.987   0.505  -1.751  1.00  0.00    -0.266 OA
ATOM     33  H2  UNL     1       3.883   1.816   0.935  1.00  0.00     0.163 HD
BRANCH  31  34
HETATM   34  C2  UNL     1       6.273   1.708  -0.134  1.00  0.00     0.073 C 
HETATM   35  C1  UNL     1       6.124   1.958   1.378  1.00  0.00     0.074 C 
BRANCH  34  36
HETATM   36  N1  UNL     1       7.511   1.240  -0.499  1.00  0.00    -0.362 N 
ATOM     37  H1  UNL     1       8.069   1.851  -1.096  1.00  0.00     0.165 HD
BRANCH  36  38
HETATM   38  C3  UNL     1       8.083   0.037  -0.148  1.00  0.00    -0.013 C 
HETATM   39  C4  UNL     1       8.212  -0.342   1.299  1.00  0.00     0.052 C 
HETATM   40  C5  UNL     1       9.104  -1.559   1.447  1.00  0.00     0.006 C 
HETATM   41  C6  UNL     1      10.366  -1.465   0.655  1.00  0.00     0.000 C 
HETATM   42  C7  UNL     1      10.277  -2.142  -0.675  1.00  0.00     0.000 C 
HETATM   43  C8  UNL     1       9.255  -1.664  -1.615  1.00  0.00     0.006 C 
HETATM   44  C9  UNL     1       7.944  -1.192  -0.993  1.00  0.00     0.052 C 
ENDBRANCH  36  38
ENDBRANCH  34  36
ENDBRANCH  31  34
ENDBRANCH   1  30
TORSDOF 9
