REMARK  7 active torsions:
REMARK  status: ('A' for Active; 'I' for Inactive)
REMARK    1  A    between atoms: N1_5  and  C3_6 
REMARK    2  A    between atoms: C3_6  and  C4_7 
REMARK    3  A    between atoms: C4_7  and  O2_8 
REMARK    4  A    between atoms: C5_10  and  N2_11 
REMARK    5  A    between atoms: N2_11  and  C6_13 
REMARK    6  A    between atoms: C6_13  and  S3_15 
REMARK    7  A    between atoms: S3_15  and  C7_16 
ROOT
HETATM    1  O1  UNL     1      -4.345  -0.117  -2.543  1.00  0.00    -0.258 OA
HETATM    2  S1  UNL     1      -3.056  -0.873  -1.800  1.00  0.00     0.020 S 
HETATM    3  C1  UNL     1      -3.544  -1.867  -0.425  1.00  0.00     0.128 C 
HETATM    4  C2  UNL     1      -3.727  -1.097   0.860  1.00  0.00     0.136 C 
HETATM    5  N1  UNL     1      -3.062   0.148   0.759  1.00  0.00    -0.369 N 
HETATM    6  C5  UNL     1      -1.742   0.088   0.240  1.00  0.00     0.196 C 
HETATM    7  C13 UNL     1      -1.875   0.369  -1.239  1.00  0.00     0.155 C 
ENDROOT
BRANCH   6   8
HETATM    8  N2  UNL     1      -0.736   0.784   0.935  1.00  0.00    -0.353 N 
ATOM      9  H2  UNL     1      -0.995   1.463   1.651  1.00  0.00     0.163 HD
BRANCH   8  10
HETATM   10  C6  UNL     1       0.647   0.549   0.648  1.00  0.00     0.136 C 
HETATM   11  S2  UNL     1       1.759   1.415   1.501  1.00  0.00    -0.053 SA
BRANCH  10  12
HETATM   12  S3  UNL     1       1.199  -0.599  -0.551  1.00  0.00    -0.096 SA
BRANCH  12  13
HETATM   13  C7  UNL     1       2.970  -0.742  -0.749  1.00  0.00     0.054 C 
HETATM   14  C8  UNL     1       3.568  -1.332   0.514  1.00  0.00     0.015 C 
HETATM   15  C9  UNL     1       5.063  -1.540   0.362  1.00  0.00     0.001 C 
HETATM   16  C10 UNL     1       5.734  -0.408  -0.341  1.00  0.00     0.000 C 
HETATM   17  C11 UNL     1       4.886   0.838  -0.440  1.00  0.00     0.001 C 
HETATM   18  C12 UNL     1       3.553   0.581  -1.107  1.00  0.00     0.015 C 
ENDBRANCH  12  13
ENDBRANCH  10  12
ENDBRANCH   8  10
ENDBRANCH   6   8
BRANCH   5  19
HETATM   19  C3  UNL     1      -3.502   1.225   1.496  1.00  0.00     0.086 C 
BRANCH  19  20
HETATM   20  C4  UNL     1      -4.866   1.798   1.106  1.00  0.00     0.208 C 
BRANCH  20  21
HETATM   21  O2  UNL     1      -4.917   2.249  -0.186  1.00  0.00    -0.396 OA
ATOM     22  H2  UNL     1      -5.764   2.605  -0.428  1.00  0.00     0.209 HD
ENDBRANCH  20  21
ENDBRANCH  19  20
ENDBRANCH   5  19
TORSDOF 7
