REMARK  6 active torsions:
REMARK  status: ('A' for Active; 'I' for Inactive)
REMARK    1  A    between atoms: C5_5  and  O1_6 
REMARK       I    between atoms: N1_18  and  C15_19 
REMARK    2  A    between atoms: C15_19  and  C16_21 
REMARK    3  A    between atoms: C16_21  and  C17_22 
REMARK    4  A    between atoms: C17_22  and  N2_23 
REMARK    5  A    between atoms: C21_27  and  C22_28 
REMARK    6  A    between atoms: C22_28  and  O3_29 
ROOT
HETATM    1  C1  UNL     1      -2.185  -3.969   1.209  1.00  0.00     0.020 C 
HETATM    2  C2  UNL     1      -1.765  -2.884   0.616  1.00  0.00    -0.051 C 
HETATM    3  C3  UNL     1      -0.628  -2.390  -0.165  1.00  0.00    -0.025 C 
HETATM    4  C4  UNL     1       0.184  -2.949  -0.999  1.00  0.00     0.022 C 
HETATM    5  C5  UNL     1      -0.920  -1.055   0.475  1.00  0.00     0.114 C 
HETATM    6  C6  UNL     1      -2.325  -1.512   0.455  1.00  0.00     0.060 C 
HETATM    7  C7  UNL     1      -2.944  -1.394  -0.905  1.00  0.00     0.016 C 
HETATM    8  C8  UNL     1      -3.640  -0.042  -0.914  1.00  0.00     0.045 C 
HETATM    9  C9  UNL     1      -2.655   0.957  -1.416  1.00  0.00     0.115 C 
HETATM   10  F1  UNL     1      -2.546   0.774  -2.773  1.00  0.00    -0.242 F 
HETATM   11  C10 UNL     1      -3.311   2.340  -1.204  1.00  0.00     0.045 C 
HETATM   12  C11 UNL     1      -2.646   2.912   0.034  1.00  0.00     0.011 C 
HETATM   13  C12 UNL     1      -1.860   1.789   0.563  1.00  0.00     0.024 C 
HETATM   14  C13 UNL     1      -0.547   2.029   1.180  1.00  0.00     0.088 C 
HETATM   15  C14 UNL     1      -0.647   1.876   2.694  1.00  0.00     0.033 C 
HETATM   16  N1  UNL     1       0.315   0.968   0.618  1.00  0.00    -0.338 N 
HETATM   17  C15 UNL     1       1.683   0.881   0.935  1.00  0.00     0.222 C 
HETATM   18  O2  UNL     1       2.255   1.704   1.724  1.00  0.00    -0.273 OA
HETATM   19  C20 UNL     1      -0.512   0.125  -0.257  1.00  0.00     0.141 C 
HETATM   20  C21 UNL     1      -1.413   1.134  -0.765  1.00  0.00     0.046 C 
ENDROOT
BRANCH  17  21
HETATM   21  C16 UNL     1       2.534  -0.169   0.371  1.00  0.00     0.133 C 
BRANCH  21  22
HETATM   22  C17 UNL     1       3.976  -0.063   0.816  1.00  0.00     0.280 C 
BRANCH  22  23
HETATM   23  N2  UNL     1       4.694  -1.155   0.186  1.00  0.00     0.080 N 
HETATM   24  C18 UNL     1       6.085  -1.188   0.515  1.00  0.00     0.309 C 
HETATM   25  C19 UNL     1       4.463  -1.253  -1.222  1.00  0.00     0.309 C 
ENDBRANCH  22  23
ENDBRANCH  21  22
ENDBRANCH  17  21
BRANCH   5  26
HETATM   26  O1  UNL     1      -0.432  -1.132   1.803  1.00  0.00    -0.382 OA
ATOM     27  H1  UNL     1      -0.616  -0.292   2.206  1.00  0.00     0.211 HD
ENDBRANCH   5  26
BRANCH  20  28
HETATM   28  C22 UNL     1      -0.567   2.123  -1.545  1.00  0.00     0.179 C 
BRANCH  28  29
HETATM   29  O3  UNL     1      -0.365   1.587  -2.813  1.00  0.00    -0.400 OA
ATOM     30  H3  UNL     1       0.165   2.206  -3.301  1.00  0.00     0.209 HD
ENDBRANCH  28  29
ENDBRANCH  20  28
TORSDOF 6
