REMARK  7 active torsions:
REMARK  status: ('A' for Active; 'I' for Inactive)
REMARK    1  A    between atoms: N1_2  and  C2_4 
REMARK    2  A    between atoms: N3_10  and  C6_12 
REMARK    3  A    between atoms: C6_12  and  C7_13 
REMARK    4  A    between atoms: C7_13  and  O1_14 
REMARK    5  A    between atoms: O1_14  and  C8_15 
REMARK    6  A    between atoms: C9_16  and  C10_17 
REMARK    7  A    between atoms: C10_17  and  C11_18 
ROOT
HETATM    1  C2  UNL     1      -5.534   0.560   0.309  1.00  0.00     0.679 A 
HETATM    2  N2  UNL     1      -5.439   0.080   1.570  1.00  0.00    -0.202 N 
ATOM      3  H2  UNL     1      -6.197   0.261   2.228  1.00  0.00     0.183 HD
HETATM    4  C3  UNL     1      -4.373  -0.629   1.980  1.00  0.00     0.110 A 
HETATM    5  C4  UNL     1      -3.355  -0.856   1.047  1.00  0.00     0.066 A 
HETATM    6  C5  UNL     1      -3.465  -0.364  -0.230  1.00  0.00     0.118 A 
HETATM    7  N3  UNL     1      -2.544  -0.560  -1.101  1.00  0.00    -0.374 N 
ATOM      8  H3  UNL     1      -2.672  -0.174  -2.036  1.00  0.00     0.161 HD
HETATM    9  N6  UNL     1      -4.568   0.353  -0.602  1.00  0.00    -0.177 N 
ATOM     10  H6  UNL     1      -4.656   0.722  -1.549  1.00  0.00     0.185 HD
ENDROOT
BRANCH   7  11
HETATM   11  C6  UNL     1      -1.354  -1.288  -0.829  1.00  0.00     0.148 C 
BRANCH  11  12
HETATM   12  C7  UNL     1      -0.350  -0.333  -0.176  1.00  0.00     0.194 C 
BRANCH  12  13
HETATM   13  O1  UNL     1       0.856  -1.014   0.117  1.00  0.00    -0.362 OA
BRANCH  13  14
HETATM   14  C8  UNL     1       1.540  -1.580  -0.951  1.00  0.00     0.131 C 
HETATM   15  C9  UNL     1       2.484  -0.846  -1.536  1.00  0.00     0.002 C 
BRANCH  15  16
HETATM   16  C10 UNL     1       2.808   0.529  -1.079  1.00  0.00     0.070 C 
BRANCH  16  17
HETATM   17  C11 UNL     1       4.237   0.529  -0.672  1.00  0.00    -0.021 A 
HETATM   18  C12 UNL     1       5.300   0.806  -1.497  1.00  0.00     0.116 A 
HETATM   19  N4  UNL     1       6.419   0.703  -0.760  1.00  0.00    -0.310 N 
HETATM   20  N5  UNL     1       6.141   0.377   0.490  1.00  0.00    -0.308 N 
ATOM     21  H4  UNL     1       7.361   0.857  -1.119  1.00  0.00     0.186 HD
HETATM   22  C13 UNL     1       7.105   0.177   1.582  1.00  0.00     0.177 C 
HETATM   23  C14 UNL     1       4.803   0.267   0.557  1.00  0.00     0.118 A 
ENDBRANCH  16  17
ENDBRANCH  15  16
ENDBRANCH  13  14
ENDBRANCH  12  13
ENDBRANCH  11  12
ENDBRANCH   7  11
BRANCH   1  24
HETATM   24  N1  UNL     1      -6.570   1.223  -0.012  1.00  0.00    -0.230 N 
HETATM   25  C1  UNL     1      -7.631   1.468   0.933  1.00  0.00     0.165 C 
ATOM     26  H1  UNL     1      -6.653   1.590  -0.960  1.00  0.00     0.177 HD
ENDBRANCH   1  24
TORSDOF 7
