REMARK  7 active torsions:
REMARK  status: ('A' for Active; 'I' for Inactive)
REMARK    1  A    between atoms: N3_4  and  C2_6 
REMARK    2  A    between atoms: C2_6  and  C3_7 
REMARK    3  A    between atoms: C3_7  and  C4_8 
REMARK    4  A    between atoms: C4_8  and  N4_9 
REMARK    5  A    between atoms: C7_12  and  C8_13 
REMARK    6  A    between atoms: C8_13  and  N5_14 
REMARK    7  A    between atoms: N5_14  and  C9_16 
ROOT
HETATM    1  N4  UNL     1      -1.015   1.716   0.053  1.00  0.00    -0.370 N 
HETATM    2  C5  UNL     1      -0.632   0.435   0.476  1.00  0.00     0.090 C 
HETATM    3  C6  UNL     1       0.767   0.401   1.052  1.00  0.00     0.021 C 
HETATM    4  C7  UNL     1       1.689   1.107   0.420  1.00  0.00    -0.059 C 
HETATM    5  C14 UNL     1       1.259   1.872  -0.780  1.00  0.00     0.056 C 
HETATM    6  C15 UNL     1      -0.006   2.605  -0.376  1.00  0.00     0.131 C 
ENDROOT
BRANCH   4   7
HETATM    7  C8  UNL     1       3.101   1.140   0.910  1.00  0.00     0.155 C 
BRANCH   7   8
HETATM    8  N5  UNL     1       3.978   0.618  -0.084  1.00  0.00    -0.372 N 
ATOM      9  H5  UNL     1       4.244   1.257  -0.833  1.00  0.00     0.161 HD
BRANCH   8  10
HETATM   10  C9  UNL     1       4.472  -0.566  -0.144  1.00  0.00     0.100 A 
HETATM   11  C10 UNL     1       5.317  -0.871  -1.212  1.00  0.00     0.048 A 
HETATM   12  C11 UNL     1       5.861  -2.130  -1.291  1.00  0.00     0.005 A 
HETATM   13  C12 UNL     1       5.541  -3.039  -0.298  1.00  0.00     0.017 A 
HETATM   14  C13 UNL     1       4.702  -2.695   0.741  1.00  0.00     0.089 A 
HETATM   15  N6  UNL     1       4.176  -1.455   0.803  1.00  0.00    -0.353 N 
ATOM     16  H6  UNL     1       3.555  -1.199   1.571  1.00  0.00     0.166 HD
ENDBRANCH   8  10
ENDBRANCH   7   8
ENDBRANCH   4   7
BRANCH   1  17
HETATM   17  C4  UNL     1      -2.242   2.274   0.448  1.00  0.00     0.065 C 
BRANCH  17  18
HETATM   18  C3  UNL     1      -3.485   1.699  -0.129  1.00  0.00     0.064 C 
BRANCH  18  19
HETATM   19  C2  UNL     1      -3.740   0.248   0.127  1.00  0.00     0.127 C 
BRANCH  19  20
HETATM   20  N3  UNL     1      -5.027  -0.157  -0.474  1.00  0.00    -0.367 N 
HETATM   21  C1  UNL     1      -5.470  -1.342  -0.383  1.00  0.00     0.196 C 
HETATM   22  N1  UNL     1      -4.740  -2.339   0.309  1.00  0.00    -0.067 NA
HETATM   23  N2  UNL     1      -6.711  -1.697  -0.971  1.00  0.00    -0.067 NA
ATOM     24  H3  UNL     1      -5.577   0.538  -0.978  1.00  0.00     0.161 HD
ENDBRANCH  19  20
ENDBRANCH  18  19
ENDBRANCH  17  18
ENDBRANCH   1  17
TORSDOF 7
