REMARK  6 active torsions:
REMARK  status: ('A' for Active; 'I' for Inactive)
REMARK    1  A    between atoms: N1_1  and  C1_4 
REMARK    2  A    between atoms: N2_6  and  C3_7 
REMARK    3  A    between atoms: C3_7  and  C4_8 
REMARK    4  A    between atoms: C4_8  and  C5_9 
REMARK    5  A    between atoms: C5_9  and  N3_10 
REMARK    6  A    between atoms: C8_13  and  C9_14 
ROOT
HETATM    1  N3  UNL     1       0.872   0.231  -1.372  1.00  0.00    -0.366 N 
HETATM    2  C6  UNL     1       1.495   1.304  -0.876  1.00  0.00     0.091 A 
HETATM    3  C7  UNL     1       2.781   1.283  -0.416  1.00  0.00     0.029 A 
HETATM    4  C8  UNL     1       3.495   0.113  -0.453  1.00  0.00    -0.021 A 
HETATM    5  C12 UNL     1       2.877  -1.009  -0.960  1.00  0.00     0.029 A 
HETATM    6  C13 UNL     1       1.577  -0.930  -1.410  1.00  0.00     0.091 A 
ENDROOT
BRANCH   1   7
HETATM    7  C5  UNL     1      -0.490   0.310  -1.841  1.00  0.00     0.129 C 
BRANCH   7   8
HETATM    8  C4  UNL     1      -1.446   0.008  -0.714  1.00  0.00     0.040 C 
BRANCH   8   9
HETATM    9  C3  UNL     1      -2.883   0.068  -1.116  1.00  0.00     0.129 C 
BRANCH   9  10
HETATM   10  N2  UNL     1      -3.686  -0.244   0.064  1.00  0.00    -0.361 N 
HETATM   11  C2  UNL     1      -4.096   0.731   0.898  1.00  0.00     0.138 A 
HETATM   12  C1  UNL     1      -4.851   0.411   2.004  1.00  0.00     0.114 A 
HETATM   13  N6  UNL     1      -5.192  -0.869   2.275  1.00  0.00    -0.350 N 
HETATM   14  C15 UNL     1      -4.787  -1.851   1.448  1.00  0.00     0.107 A 
ATOM     15  H6  UNL     1      -5.751  -1.089   3.099  1.00  0.00     0.166 HD
HETATM   16  C14 UNL     1      -4.033  -1.510   0.347  1.00  0.00     0.107 A 
BRANCH  12  17
HETATM   17  N1  UNL     1      -5.248   1.323   2.805  1.00  0.00    -0.384 N 
ATOM     18  H12 UNL     1      -4.991   2.289   2.601  1.00  0.00     0.157 HD
ATOM     19  H11 UNL     1      -5.807   1.086   3.624  1.00  0.00     0.157 HD
ENDBRANCH  12  17
ENDBRANCH   9  10
ENDBRANCH   8   9
ENDBRANCH   7   8
ENDBRANCH   1   7
BRANCH   4  20
HETATM   20  C9  UNL     1       4.863   0.086   0.038  1.00  0.00     0.008 A 
HETATM   21  C10 UNL     1       5.457  -1.016   0.621  1.00  0.00     0.120 A 
HETATM   22  N4  UNL     1       6.720  -0.657   0.947  1.00  0.00    -0.311 N 
HETATM   23  N5  UNL     1       6.960   0.577   0.616  1.00  0.00    -0.311 N 
ATOM     24  H4  UNL     1       7.397  -1.275   1.395  1.00  0.00     0.186 HD
HETATM   25  C11 UNL     1       5.840   1.061   0.056  1.00  0.00     0.120 A 
ATOM     26  H5  UNL     1       7.835   1.083   0.756  1.00  0.00     0.186 HD
ENDBRANCH   4  20
TORSDOF 6
