REMARK  7 active torsions:
REMARK  status: ('A' for Active; 'I' for Inactive)
REMARK    1  A    between atoms: C2_2  and  C3_3 
REMARK    2  A    between atoms: C2_2  and  C17_20 
REMARK    3  A    between atoms: C3_3  and  C4_4 
REMARK    4  A    between atoms: C9_10  and  C11_12 
REMARK    5  A    between atoms: C17_20  and  O4_22 
REMARK    6  A    between atoms: O4_22  and  C18_23 
REMARK    7  A    between atoms: C18_23  and  C21_26 
ROOT
HETATM    1  C4  UNL     1      -0.654  -0.757   0.758  1.00  0.00    -0.005 C 
HETATM    2  C5  UNL     1      -0.848  -0.344   2.170  1.00  0.00     0.008 C 
HETATM    3  C6  UNL     1      -2.260  -0.498   2.674  1.00  0.00     0.038 C 
HETATM    4  C7  UNL     1      -3.283   0.133   1.782  1.00  0.00     0.176 C 
HETATM    5  F1  UNL     1      -3.704   1.338   2.347  1.00  0.00    -0.249 F 
HETATM    6  C8  UNL     1      -2.858   0.418   0.380  1.00  0.00     0.047 C 
HETATM    7  C9  UNL     1      -4.064   0.545  -0.477  1.00  0.00     0.052 C 
HETATM    8  C10 UNL     1      -5.263   1.128   0.321  1.00  0.00     0.027 C 
HETATM    9  C12 UNL     1      -4.592  -0.683  -1.112  1.00  0.00     0.020 C 
HETATM   10  C13 UNL     1      -3.692  -1.844  -1.262  1.00  0.00     0.002 C 
HETATM   11  C14 UNL     1      -2.568  -1.947  -0.269  1.00  0.00     0.010 C 
HETATM   12  C15 UNL     1      -1.856  -0.584  -0.120  1.00  0.00    -0.033 C 
HETATM   13  C16 UNL     1      -1.380  -0.303  -1.515  1.00  0.00     0.016 C 
ENDROOT
BRANCH   1  14
HETATM   14  C3  UNL     1       0.604  -0.200   0.212  1.00  0.00     0.019 C 
BRANCH  14  15
HETATM   15  C2  UNL     1       1.898  -0.541   0.819  1.00  0.00     0.082 C 
HETATM   16  C1  UNL     1       2.193  -0.207   2.221  1.00  0.00     0.020 C 
BRANCH  15  17
HETATM   17  C17 UNL     1       2.975   0.103  -0.035  1.00  0.00     0.263 C 
HETATM   18  O3  UNL     1       2.684   0.949  -0.910  1.00  0.00    -0.265 OA
BRANCH  17  19
HETATM   19  O4  UNL     1       4.290  -0.232   0.137  1.00  0.00    -0.301 OA
BRANCH  19  20
HETATM   20  C18 UNL     1       5.371   0.280  -0.574  1.00  0.00     0.141 C 
HETATM   21  C19 UNL     1       5.533   1.768  -0.449  1.00  0.00     0.056 C 
HETATM   22  C20 UNL     1       6.637  -0.346   0.027  1.00  0.00     0.056 C 
BRANCH  20  23
HETATM   23  C21 UNL     1       5.317  -0.067  -2.020  1.00  0.00     0.265 C 
HETATM   24  N1  UNL     1       6.356   0.388  -2.875  1.00  0.00    -0.059 NA
HETATM   25  O5  UNL     1       4.380  -0.753  -2.515  1.00  0.00    -0.273 OA
ENDBRANCH  20  23
ENDBRANCH  19  20
ENDBRANCH  17  19
ENDBRANCH  15  17
ENDBRANCH  14  15
ENDBRANCH   1  14
BRANCH   7  26
HETATM   26  C11 UNL     1      -3.918   1.631  -1.517  1.00  0.00     0.182 C 
HETATM   27  O1  UNL     1      -2.939   2.390  -1.408  1.00  0.00    -0.647 OA
HETATM   28  O2  UNL     1      -4.808   1.804  -2.545  1.00  0.00    -0.647 OA
ENDBRANCH   7  26
TORSDOF 7
