REMARK  5 active torsions:
REMARK  status: ('A' for Active; 'I' for Inactive)
REMARK    1  A    between atoms: C2_2  and  C4_4 
REMARK    2  A    between atoms: C5_5  and  C6_6 
REMARK    3  A    between atoms: C7_7  and  C8_8 
REMARK    4  A    between atoms: C11_11  and  O1_12 
REMARK    5  A    between atoms: C22_24  and  O2_25 
ROOT
HETATM    1  C8  UNL     1       0.218   1.269   0.030  1.00  0.00     0.008 C 
HETATM    2  C9  UNL     1       0.700   2.651  -0.445  1.00  0.00     0.019 C 
HETATM    3  C10 UNL     1       0.702   2.778  -1.925  1.00  0.00     0.033 C 
HETATM    4  C11 UNL     1      -0.662   2.652  -2.546  1.00  0.00     0.118 C 
HETATM    5  C12 UNL     1      -1.608   2.239  -1.415  1.00  0.00     0.038 C 
HETATM    6  C13 UNL     1      -1.081   1.007  -0.702  1.00  0.00     0.011 C 
HETATM    7  C14 UNL     1      -2.128   0.335   0.096  1.00  0.00    -0.035 C 
HETATM    8  C15 UNL     1      -3.154   1.238   0.716  1.00  0.00     0.016 C 
HETATM    9  C16 UNL     1      -2.906  -0.586  -0.853  1.00  0.00     0.010 C 
HETATM   10  C17 UNL     1      -3.133  -1.945  -0.279  1.00  0.00     0.001 C 
HETATM   11  C18 UNL     1      -3.617  -1.945   1.141  1.00  0.00     0.000 C 
HETATM   12  C19 UNL     1      -2.636  -1.211   1.993  1.00  0.00     0.005 C 
HETATM   13  C20 UNL     1      -1.545  -0.540   1.178  1.00  0.00    -0.004 C 
HETATM   14  C21 UNL     1      -0.705   0.268   2.143  1.00  0.00     0.038 C 
HETATM   15  C22 UNL     1       0.004   1.403   1.490  1.00  0.00     0.131 C 
ENDROOT
BRANCH   1  16
HETATM   16  C7  UNL     1       1.287   0.336  -0.386  1.00  0.00    -0.014 C 
HETATM   17  C6  UNL     1       2.004  -0.447   0.364  1.00  0.00    -0.003 C 
BRANCH  17  18
HETATM   18  C5  UNL     1       3.041  -1.335  -0.147  1.00  0.00     0.000 C 
HETATM   19  C4  UNL     1       3.758  -2.119   0.627  1.00  0.00     0.006 C 
BRANCH  19  20
HETATM   20  C2  UNL     1       4.770  -2.976   0.052  1.00  0.00    -0.071 C 
HETATM   21  C1  UNL     1       5.515  -3.782   0.804  1.00  0.00     0.018 C 
HETATM   22  C3  UNL     1       5.003  -2.972  -1.423  1.00  0.00     0.047 C 
ENDBRANCH  19  20
ENDBRANCH  17  18
ENDBRANCH   1  16
BRANCH  15  23
HETATM   23  O2  UNL     1       1.206   1.738   2.108  1.00  0.00    -0.394 OA
ATOM     24  H2  UNL     1       1.069   1.824   3.044  1.00  0.00     0.210 HD
ENDBRANCH  15  23
BRANCH   4  25
HETATM   25  O1  UNL     1      -1.096   3.934  -2.934  1.00  0.00    -0.396 OA
ATOM     26  H1  UNL     1      -1.958   3.854  -3.326  1.00  0.00     0.210 HD
ENDBRANCH   4  25
TORSDOF 5
