REMARK  2 active torsions:
REMARK  status: ('A' for Active; 'I' for Inactive)
REMARK    1  A    between atoms: C3_3  and  C4_4 
REMARK    2  A    between atoms: C4_4  and  N1_5 
ROOT
HETATM    1  C1  UNL     1       3.685   0.707   1.377  1.00  0.00     0.012 C 
HETATM    2  C2  UNL     1       3.419  -0.081   0.500  1.00  0.00    -0.116 C 
HETATM    3  C3  UNL     1       3.114  -1.038  -0.563  1.00  0.00     0.112 C 
ENDROOT
BRANCH   3   4
HETATM    4  C4  UNL     1       1.612  -1.308  -0.543  1.00  0.00     0.133 C 
BRANCH   4   5
HETATM    5  N1  UNL     1       0.851  -0.134  -0.756  1.00  0.00    -0.371 N 
HETATM    6  C5  UNL     1      -0.392   0.076  -0.544  1.00  0.00     0.174 C 
HETATM    7  N2  UNL     1      -0.850   1.328  -0.851  1.00  0.00    -0.290 N 
HETATM    8  C8  UNL     1      -1.194  -0.923  -0.035  1.00  0.00     0.293 C 
HETATM    9  C6  UNL     1      -2.017   1.925  -0.540  1.00  0.00     0.329 C 
ATOM     10  H2  UNL     1      -0.208   1.898  -1.401  1.00  0.00     0.172 HD
HETATM   11  O1  UNL     1      -2.212   3.034  -1.107  1.00  0.00    -0.246 OA
HETATM   12  N3  UNL     1      -2.998   1.485   0.302  1.00  0.00    -0.260 N 
HETATM   13  C7  UNL     1      -3.143   0.267   0.859  1.00  0.00     0.331 C 
ATOM     14  H3  UNL     1      -3.716   2.169   0.541  1.00  0.00     0.175 HD
HETATM   15  O2  UNL     1      -4.153   0.097   1.559  1.00  0.00    -0.246 OA
HETATM   16  N4  UNL     1      -2.312  -0.786   0.738  1.00  0.00    -0.272 N 
ATOM     17  H4  UNL     1      -2.552  -1.599   1.306  1.00  0.00     0.174 HD
HETATM   18  O3  UNL     1      -0.833  -2.075  -0.328  1.00  0.00    -0.264 OA
ATOM     19  H1  UNL     1       1.369   0.659  -1.133  1.00  0.00     0.161 HD
ENDBRANCH   4   5
ENDBRANCH   3   4
TORSDOF 2
