REMARK  8 active torsions:
REMARK  status: ('A' for Active; 'I' for Inactive)
REMARK    1  A    between atoms: C2_2  and  C3_3 
REMARK    2  A    between atoms: C4_4  and  O1_5 
REMARK    3  A    between atoms: C9_11  and  O2_12 
REMARK    4  A    between atoms: O2_12  and  C10_13 
REMARK    5  A    between atoms: C10_13  and  C11_15 
REMARK    6  A    between atoms: C12_16  and  C13_17 
REMARK    7  A    between atoms: C27_33  and  O5_34 
REMARK    8  A    between atoms: C28_36  and  O6_37 
ROOT
HETATM    1  C3  UNL     1       2.875  -1.903  -1.387  1.00  0.00     0.043 C 
HETATM    2  C4  UNL     1       3.013  -3.020  -0.382  1.00  0.00     0.130 C 
HETATM    3  C5  UNL     1       1.965  -2.706   0.700  1.00  0.00     0.018 C 
HETATM    4  C6  UNL     1       1.423  -3.984   1.199  1.00  0.00     0.013 C 
HETATM    5  C7  UNL     1       1.093  -1.721   0.095  1.00  0.00     0.029 C 
HETATM    6  C8  UNL     1       1.373  -1.750  -1.419  1.00  0.00     0.032 C 
HETATM    7  C9  UNL     1       0.887  -0.439  -1.939  1.00  0.00     0.138 C 
HETATM    8  C16 UNL     1      -0.517  -0.124  -1.562  1.00  0.00     0.048 C 
HETATM    9  C17 UNL     1      -0.845  -0.378  -0.137  1.00  0.00     0.024 C 
HETATM   10  C18 UNL     1      -0.246   0.681   0.798  1.00  0.00     0.043 C 
HETATM   11  C19 UNL     1      -1.600   1.389   0.625  1.00  0.00     0.117 C 
HETATM   12  N1  UNL     1      -2.085   2.123   1.696  1.00  0.00    -0.382 N 
HETATM   13  C20 UNL     1      -2.010   3.556   1.559  1.00  0.00     0.146 C 
HETATM   14  C21 UNL     1      -3.093   1.639   2.521  1.00  0.00     0.249 A 
HETATM   15  O4  UNL     1      -4.075   2.748   2.814  1.00  0.00    -0.354 OA
HETATM   16  C22 UNL     1      -4.451   1.610   2.158  1.00  0.00     0.176 A 
HETATM   17  C23 UNL     1      -4.816   1.605   0.706  1.00  0.00     0.015 C 
HETATM   18  C24 UNL     1      -6.324   1.851   0.623  1.00  0.00     0.012 C 
HETATM   19  C25 UNL     1      -4.600   0.184   0.182  1.00  0.00     0.010 C 
HETATM   20  C26 UNL     1      -3.300   0.105  -0.584  1.00  0.00     0.041 C 
HETATM   21  C27 UNL     1      -2.170   0.025   0.387  1.00  0.00     0.088 C 
HETATM   22  C28 UNL     1      -0.380  -1.814   0.222  1.00  0.00     0.137 C 
ENDROOT
BRANCH  21  23
HETATM   23  O5  UNL     1      -2.478  -0.700   1.543  1.00  0.00    -0.387 OA
ATOM     24  H5  UNL     1      -3.328  -0.441   1.879  1.00  0.00     0.210 HD
ENDBRANCH  21  23
BRANCH  22  25
HETATM   25  O6  UNL     1      -0.877  -2.572  -0.858  1.00  0.00    -0.389 OA
HETATM   26  C29 UNL     1      -1.802  -3.517  -0.516  1.00  0.00     0.202 C 
ENDBRANCH  22  25
BRANCH   7  27
HETATM   27  O2  UNL     1       1.800   0.592  -1.617  1.00  0.00    -0.312 OA
BRANCH  27  28
HETATM   28  C10 UNL     1       2.516   1.319  -2.544  1.00  0.00     0.283 C 
HETATM   29  O3  UNL     1       2.355   1.057  -3.769  1.00  0.00    -0.260 OA
BRANCH  28  30
HETATM   30  C11 UNL     1       3.440   2.366  -2.129  1.00  0.00     0.082 C 
HETATM   31  C12 UNL     1       3.615   2.647  -0.851  1.00  0.00     0.006 C 
BRANCH  31  32
HETATM   32  C13 UNL     1       4.532   3.687  -0.422  1.00  0.00    -0.004 C 
HETATM   33  C14 UNL     1       4.686   3.945   0.859  1.00  0.00    -0.031 C 
HETATM   34  C15 UNL     1       3.925   3.175   1.875  1.00  0.00     0.036 C 
ENDBRANCH  31  32
ENDBRANCH  28  30
ENDBRANCH  27  28
ENDBRANCH   7  27
BRANCH   1  35
HETATM   35  C2  UNL     1       3.436  -2.297  -2.681  1.00  0.00    -0.029 C 
HETATM   36  C1  UNL     1       4.124  -3.412  -2.821  1.00  0.00     0.007 C 
ENDBRANCH   1  35
BRANCH   2  37
HETATM   37  O1  UNL     1       4.273  -3.118   0.181  1.00  0.00    -0.395 OA
ATOM     38  H1  UNL     1       4.360  -3.821   0.814  1.00  0.00     0.210 HD
ENDBRANCH   2  37
TORSDOF 8
