REMARK  6 active torsions:
REMARK  status: ('A' for Active; 'I' for Inactive)
REMARK    1  A    between atoms: O1_2  and  C2_3 
REMARK    2  A    between atoms: C2_3  and  C3_4 
REMARK    3  A    between atoms: C3_4  and  N1_5 
REMARK    4  A    between atoms: C3_4  and  C4_9 
REMARK    5  A    between atoms: C4_9  and  N2_11 
REMARK    6  A    between atoms: N2_11  and  C6_14 
ROOT
HETATM    1  C3  UNL     1       0.659  -0.240   0.387  1.00  0.00     0.237 C 
ENDROOT
BRANCH   1   2
HETATM    2  C2  UNL     1       1.817   0.510  -0.177  1.00  0.00     0.201 C 
BRANCH   2   3
HETATM    3  O1  UNL     1       2.883   0.657   0.713  1.00  0.00    -0.394 OA
HETATM    4  C1  UNL     1       3.855   1.381  -0.015  1.00  0.00     0.201 C 
ENDBRANCH   2   3
ENDBRANCH   1   2
BRANCH   1   5
HETATM    5  N1  UNL     1       1.035  -1.601   0.797  1.00  0.00    -0.071 N 
ATOM      6  H13 UNL     1       1.470  -2.113   0.029  1.00  0.00     0.274 HD
ATOM      7  H12 UNL     1       1.821  -1.589   1.447  1.00  0.00     0.274 HD
ATOM      8  H11 UNL     1       0.243  -2.114   1.183  1.00  0.00     0.274 HD
ENDBRANCH   1   5
BRANCH   1   9
HETATM    9  C4  UNL     1      -0.427  -0.333  -0.638  1.00  0.00     0.214 C 
HETATM   10  C5  UNL     1       0.006  -1.049  -1.895  1.00  0.00     0.042 C 
BRANCH   9  11
HETATM   11  N2  UNL     1      -1.615  -0.988  -0.143  1.00  0.00    -0.065 N 
ATOM     12  H22 UNL     1      -2.278  -1.164  -0.898  1.00  0.00     0.278 HD
ATOM     13  H21 UNL     1      -1.416  -1.951   0.129  1.00  0.00     0.278 HD
BRANCH  11  14
HETATM   14  C6  UNL     1      -2.239  -0.265   0.935  1.00  0.00     0.186 A 
HETATM   15  C7  UNL     1      -2.744   1.137   0.479  1.00  0.00     0.035 A 
HETATM   16  C8  UNL     1      -3.683   0.039   0.859  1.00  0.00     0.035 A 
ENDBRANCH  11  14
ENDBRANCH   9  11
ENDBRANCH   1   9
TORSDOF 6
