REMARK  1 active torsions:
REMARK  status: ('A' for Active; 'I' for Inactive)
REMARK    1  A    between atoms: N1_2  and  N2_4 
ROOT
HETATM    1  N2  UNL     1      -0.334  -0.027   0.260  1.00  0.00    -0.004 N 
HETATM    2  C2  UNL     1      -1.377  -0.120   1.297  1.00  0.00     0.300 C 
HETATM    3  C3  UNL     1      -0.589  -1.093  -0.673  1.00  0.00     0.300 C 
HETATM    4  C4  UNL     1      -0.435   1.278  -0.325  1.00  0.00     0.300 C 
ENDROOT
BRANCH   1   5
HETATM    5  N1  UNL     1       0.872  -0.164   0.914  1.00  0.00    -0.258 N 
HETATM    6  C1  UNL     1       2.026   0.115   0.144  1.00  0.00     0.174 C 
ATOM      7  H1  UNL     1       0.929  -0.449   1.892  1.00  0.00     0.186 HD
ENDBRANCH   1   5
TORSDOF 1
