REMARK  1 active torsions:
REMARK  status: ('A' for Active; 'I' for Inactive)
REMARK    1  A    between atoms: C7_8  and  N2_9 
ROOT
HETATM    1  C1  UNL     1      -1.510   0.010   0.958  1.00  0.00     0.021 C 
HETATM    2  C2  UNL     1      -0.609  -0.007  -0.273  1.00  0.00     0.004 A 
HETATM    3  C3  UNL     1      -1.201  -0.805  -1.427  1.00  0.00     0.021 C 
HETATM    4  C4  UNL     1      -0.006   1.253  -0.609  1.00  0.00     0.005 A 
HETATM    5  C5  UNL     1       1.174   0.877  -0.292  1.00  0.00     0.051 A 
HETATM    6  C6  UNL     1       2.464   1.582  -0.329  1.00  0.00     0.097 C 
HETATM    7  N1  UNL     1       3.509   2.127  -0.349  1.00  0.00    -0.192 NA
HETATM    8  C7  UNL     1       0.735  -0.453   0.093  1.00  0.00     0.238 A 
ENDROOT
BRANCH   8   9
HETATM    9  N2  UNL     1       0.968  -0.734   1.508  1.00  0.00    -0.069 N 
ATOM     10  H23 UNL     1       0.714   0.081   2.066  1.00  0.00     0.275 HD
ATOM     11  H22 UNL     1       0.280  -1.410   1.841  1.00  0.00     0.275 HD
ATOM     12  H21 UNL     1       1.905  -1.045   1.763  1.00  0.00     0.275 HD
ENDBRANCH   8   9
TORSDOF 1
