REMARK  4 active torsions:
REMARK  status: ('A' for Active; 'I' for Inactive)
REMARK    1  A    between atoms: O1_1  and  N1_3 
REMARK    2  A    between atoms: N1_3  and  C1_5 
REMARK    3  A    between atoms: C4_9  and  N2_10 
REMARK    4  A    between atoms: N2_10  and  N3_12 
ROOT
HETATM    1  C1  UNL     1      -2.018   0.414  -0.051  1.00  0.00     0.210 A 
HETATM    2  O2  UNL     1      -3.084   0.374   0.755  1.00  0.00    -0.302 OA
HETATM    3  C2  UNL     1      -3.022  -0.659   1.556  1.00  0.00     0.147 A 
HETATM    4  C3  UNL     1      -1.875  -1.360   1.298  1.00  0.00     0.060 A 
HETATM    5  C4  UNL     1      -1.238  -0.669   0.270  1.00  0.00     0.104 A 
ENDROOT
BRANCH   5   6
HETATM    6  N2  UNL     1      -0.032  -1.071  -0.330  1.00  0.00    -0.291 N 
ATOM      7  H2  UNL     1      -0.032  -1.957  -0.835  1.00  0.00     0.187 HD
BRANCH   6   8
HETATM    8  N3  UNL     1       1.160  -0.359  -0.290  1.00  0.00    -0.278 N 
HETATM    9  C5  UNL     1       2.333  -0.714  -0.895  1.00  0.00     0.115 A 
HETATM   10  C6  UNL     1       3.316   0.203  -0.634  1.00  0.00     0.021 A 
HETATM   11  C7  UNL     1       2.757   1.169   0.157  1.00  0.00     0.021 A 
HETATM   12  C8  UNL     1       1.458   0.786   0.336  1.00  0.00     0.115 A 
ENDBRANCH   6   8
ENDBRANCH   5   6
BRANCH   1  13
HETATM   13  N1  UNL     1      -1.790   1.419  -1.046  1.00  0.00    -0.159 N 
HETATM   14  S1  UNL     1      -2.048   1.058  -2.603  1.00  0.00     0.077 SA
BRANCH  13  15
HETATM   15  O1  UNL     1      -1.360   2.677  -0.722  1.00  0.00    -0.274 OA
ATOM     16  H1  UNL     1      -1.209   2.889   0.192  1.00  0.00     0.246 HD
ENDBRANCH  13  15
ENDBRANCH   1  13
TORSDOF 4
