REMARK  4 active torsions:
REMARK  status: ('A' for Active; 'I' for Inactive)
REMARK    1  A    between atoms: C2_2  and  C3_3 
REMARK    2  A    between atoms: C3_3  and  C4_4 
REMARK    3  A    between atoms: C4_4  and  C5_5 
REMARK    4  A    between atoms: C5_5  and  C6_6 
ROOT
HETATM    1  C4  UNL     1       0.119  -0.587  -0.034  1.00  0.00     0.096 C 
HETATM    2  C8  UNL     1      -0.283  -1.899  -0.699  1.00  0.00     0.237 C 
HETATM    3  O1  UNL     1      -1.438  -2.332  -0.095  1.00  0.00    -0.225 OA
HETATM    4  O2  UNL     1      -1.229  -2.451   1.199  1.00  0.00    -0.131 OA
HETATM    5  S1  UNL     1      -0.514  -0.957   1.614  1.00  0.00     0.196 S 
HETATM    6  O3  UNL     1       0.756  -1.316   2.654  1.00  0.00    -0.225 OA
ENDROOT
BRANCH   1   7
HETATM    7  C3  UNL     1      -0.583   0.589  -0.625  1.00  0.00     0.054 C 
BRANCH   7   8
HETATM    8  C2  UNL     1      -2.055   0.431  -0.669  1.00  0.00    -0.035 C 
HETATM    9  C1  UNL     1      -2.824   1.291  -0.026  1.00  0.00     0.007 C 
ENDBRANCH   7   8
ENDBRANCH   1   7
BRANCH   1  10
HETATM   10  C5  UNL     1       1.590  -0.366  -0.018  1.00  0.00     0.055 C 
BRANCH  10  11
HETATM   11  C6  UNL     1       1.864   0.844   0.803  1.00  0.00    -0.018 C 
HETATM   12  C7  UNL     1       2.470   1.873   0.244  1.00  0.00     0.052 C 
HETATM   13 BR1  UNL     1       2.988   1.823  -1.573  1.00  0.00    -0.064 Br
ENDBRANCH  10  11
ENDBRANCH   1  10
TORSDOF 4
