REMARK  4 active torsions:
REMARK  status: ('A' for Active; 'I' for Inactive)
REMARK    1  A    between atoms: N1_2  and  C3_4 
REMARK    2  A    between atoms: C3_4  and  C4_5 
REMARK    3  A    between atoms: C4_5  and  S1_6 
REMARK    4  A    between atoms: S1_6  and  C5_7 
ROOT
HETATM    1  C5  UNL     1       2.060  -0.273   0.892  1.00  0.00     0.113 A 
HETATM    2  N2  UNL     1       2.921   0.343   1.568  1.00  0.00    -0.353 N 
ATOM      3  H2  UNL     1       2.834   0.377   2.584  1.00  0.00     0.166 HD
HETATM    4  C6  UNL     1       3.979   0.972   0.955  1.00  0.00     0.116 A 
HETATM    5  C7  UNL     1       4.054   0.904  -0.343  1.00  0.00     0.069 A 
HETATM    6 BR1  UNL     1       5.338   1.630  -1.494  1.00  0.00    -0.042 Br
HETATM    7  S2  UNL     1       2.634  -0.051  -0.816  1.00  0.00    -0.056 SA
ENDROOT
BRANCH   1   8
HETATM    8  S1  UNL     1       0.598  -1.175   1.370  1.00  0.00    -0.103 SA
BRANCH   8   9
HETATM    9  C4  UNL     1      -0.258  -1.777  -0.102  1.00  0.00     0.111 C 
BRANCH   9  10
HETATM   10  C3  UNL     1      -0.851  -0.647  -0.914  1.00  0.00     0.282 C 
BRANCH  10  11
HETATM   11  N1  UNL     1      -1.808   0.114  -0.177  1.00  0.00     0.080 N 
HETATM   12  C1  UNL     1      -3.025  -0.546   0.151  1.00  0.00     0.309 C 
HETATM   13  C2  UNL     1      -2.031   1.435  -0.683  1.00  0.00     0.309 C 
ENDBRANCH  10  11
ENDBRANCH   9  10
ENDBRANCH   8   9
ENDBRANCH   1   8
TORSDOF 4
