REMARK  4 active torsions:
REMARK  status: ('A' for Active; 'I' for Inactive)
REMARK    1  A    between atoms: N1_2  and  C4_5 
REMARK    2  A    between atoms: C4_5  and  C5_6 
REMARK    3  A    between atoms: C5_6  and  C6_7 
REMARK    4  A    between atoms: C6_7  and  C7_8 
ROOT
HETATM    1  C7  UNL     1       2.751  -0.804  -0.750  1.00  0.00     0.069 A 
HETATM    2  N2  UNL     1       3.553  -1.280   0.195  1.00  0.00    -0.297 N 
ATOM      3  H2  UNL     1       3.203  -1.964   0.866  1.00  0.00     0.187 HD
HETATM    4  N3  UNL     1       4.750  -0.884   0.262  1.00  0.00    -0.287 N 
ATOM      5  H3  UNL     1       5.366  -1.249   0.988  1.00  0.00     0.188 HD
HETATM    6  C8  UNL     1       5.211   0.006  -0.609  1.00  0.00     0.138 A 
HETATM    7 BR1  UNL     1       6.953   0.782  -0.755  1.00  0.00    -0.021 Br
HETATM    8  S1  UNL     1       3.803   0.265  -1.568  1.00  0.00    -0.049 SA
ENDROOT
BRANCH   1   9
HETATM    9  C6  UNL     1       1.323  -1.149  -0.985  1.00  0.00     0.068 C 
BRANCH   9  10
HETATM   10  C5  UNL     1       0.457  -0.198  -0.186  1.00  0.00     0.034 C 
BRANCH  10  11
HETATM   11  C4  UNL     1      -1.008  -0.525  -0.405  1.00  0.00     0.236 C 
BRANCH  11  12
HETATM   12  N1  UNL     1      -1.880   0.342   0.325  1.00  0.00    -0.079 N 
HETATM   13  C1  UNL     1      -1.147   1.146   1.312  1.00  0.00     0.271 C 
HETATM   14  C2  UNL     1      -2.832  -0.451   1.119  1.00  0.00     0.271 C 
HETATM   15  C3  UNL     1      -2.610   1.213  -0.546  1.00  0.00     0.271 C 
ENDBRANCH  11  12
ENDBRANCH  10  11
ENDBRANCH   9  10
ENDBRANCH   1   9
TORSDOF 4
