REMARK  4 active torsions:
REMARK  status: ('A' for Active; 'I' for Inactive)
REMARK    1  A    between atoms: O1_2  and  C2_3 
REMARK    2  A    between atoms: C6_8  and  C7_9 
REMARK    3  A    between atoms: C7_9  and  N1_10 
REMARK    4  A    between atoms: C10_13  and  O2_14 
ROOT
HETATM    1  C2  UNL     1       2.155  -0.249  -0.077  1.00  0.00     0.103 A 
HETATM    2  C3  UNL     1       2.094  -1.532   0.412  1.00  0.00     0.058 A 
HETATM    3  C4  UNL     1       0.891  -2.175   0.593  1.00  0.00     0.014 A 
HETATM    4 BR1  UNL     1       0.929  -3.968   1.283  1.00  0.00    -0.051 Br
HETATM    5  C5  UNL     1      -0.296  -1.547   0.287  1.00  0.00     0.034 A 
HETATM    6  C6  UNL     1      -0.265  -0.271  -0.201  1.00  0.00     0.017 A 
HETATM    7  C10 UNL     1       0.955   0.360  -0.377  1.00  0.00     0.113 A 
ENDROOT
BRANCH   6   8
HETATM    8  C7  UNL     1      -1.464   0.462  -0.565  1.00  0.00     0.099 C 
BRANCH   8   9
HETATM    9  N1  UNL     1      -2.722  -0.145  -0.375  1.00  0.00    -0.398 N 
HETATM   10  C8  UNL     1      -3.123  -0.455   0.950  1.00  0.00     0.148 C 
HETATM   11  C9  UNL     1      -3.755   0.315  -1.248  1.00  0.00     0.148 C 
ENDBRANCH   8   9
ENDBRANCH   6   8
BRANCH   7  12
HETATM   12  O2  UNL     1       1.034   1.656  -0.870  1.00  0.00    -0.352 OA
HETATM   13  C11 UNL     1       1.012   2.710   0.071  1.00  0.00     0.210 C 
ENDBRANCH   7  12
BRANCH   1  14
HETATM   14  O1  UNL     1       3.379   0.364  -0.246  1.00  0.00    -0.353 OA
HETATM   15  C1  UNL     1       4.542  -0.357   0.094  1.00  0.00     0.210 C 
ENDBRANCH   1  14
TORSDOF 4
