REMARK  4 active torsions:
REMARK  status: ('A' for Active; 'I' for Inactive)
REMARK    1  A    between atoms: C6_7  and  O1_8 
REMARK    2  A    between atoms: C6_7  and  C7_10 
REMARK    3  A    between atoms: C8_11  and  C9_12 
REMARK    4  A    between atoms: C9_12  and  N2_13 
ROOT
HETATM    1  C1  UNL     1      -2.084   1.356   0.632  1.00  0.00     0.315 C 
HETATM    2  N1  UNL     1      -2.402  -0.043   0.846  1.00  0.00     0.132 N 
HETATM    3  C2  UNL     1      -3.799  -0.243   1.165  1.00  0.00     0.277 C 
HETATM    4  C3  UNL     1      -4.718   0.114   0.039  1.00  0.00     0.030 C 
HETATM    5  C4  UNL     1      -4.324  -0.499  -1.270  1.00  0.00     0.008 C 
HETATM    6  C5  UNL     1      -2.842  -0.273  -1.523  1.00  0.00     0.086 C 
HETATM    7  C6  UNL     1      -2.112  -0.851  -0.321  1.00  0.00     0.323 C 
ENDROOT
BRANCH   7   8
HETATM    8  O1  UNL     1      -2.709  -2.110  -0.083  1.00  0.00    -0.353 OA
ATOM      9  H1  UNL     1      -2.519  -2.640  -0.848  1.00  0.00     0.213 HD
ENDBRANCH   7   8
BRANCH   7  10
HETATM   10  C7  UNL     1      -0.684  -0.984  -0.552  1.00  0.00    -0.034 C 
HETATM   11  C8  UNL     1       0.487  -1.110  -0.731  1.00  0.00    -0.071 C 
BRANCH  11  12
HETATM   12  C9  UNL     1       1.924  -1.288  -0.939  1.00  0.00     0.365 C 
BRANCH  12  13
HETATM   13  N2  UNL     1       2.638  -0.789   0.213  1.00  0.00     0.099 N 
HETATM   14  C10 UNL     1       4.054  -0.969  -0.002  1.00  0.00     0.273 C 
HETATM   15  C11 UNL     1       4.880   0.068   0.722  1.00  0.00     0.030 C 
HETATM   16  C12 UNL     1       4.590   1.410   0.069  1.00  0.00     0.003 C 
HETATM   17  C13 UNL     1       3.115   1.591  -0.171  1.00  0.00     0.030 C 
HETATM   18  C14 UNL     1       2.281   0.559   0.552  1.00  0.00     0.273 C 
ENDBRANCH  12  13
ENDBRANCH  11  12
ENDBRANCH   7  10
TORSDOF 4
