REMARK  2 active torsions:
REMARK  status: ('A' for Active; 'I' for Inactive)
REMARK    1  A    between atoms: C3_3  and  N1_4 
REMARK       I    between atoms: N1_4  and  C4_6 
REMARK    2  A    between atoms: C4_6  and  C5_8 
ROOT
HETATM    1  C1  UNL     1       4.841  -0.245  -0.933  1.00  0.00     0.014 C 
HETATM    2  C2  UNL     1       4.103  -0.335   0.016  1.00  0.00    -0.098 C 
HETATM    3  C3  UNL     1       3.187  -0.422   1.179  1.00  0.00     0.216 C 
ENDROOT
BRANCH   3   4
HETATM    4  N1  UNL     1       1.928   0.203   0.906  1.00  0.00    -0.350 N 
HETATM    5  C4  UNL     1       1.097  -0.239  -0.149  1.00  0.00     0.228 C 
HETATM    6  O1  UNL     1       1.511  -1.206  -0.840  1.00  0.00    -0.273 OA
ATOM      7  H1  UNL     1       1.624   0.985   1.486  1.00  0.00     0.163 HD
BRANCH   5   8
HETATM    8  C5  UNL     1      -0.205   0.358  -0.482  1.00  0.00     0.062 C 
HETATM    9  C6  UNL     1      -0.019   1.826  -0.845  1.00  0.00     0.027 C 
HETATM   10  C7  UNL     1      -0.912  -0.437  -1.554  1.00  0.00     0.049 C 
HETATM   11  C8  UNL     1      -1.880  -0.898  -0.521  1.00  0.00     0.066 A 
HETATM   12 CL1  UNL     1      -1.967  -2.589  -0.051  1.00  0.00    -0.117 Cl
HETATM   13  C9  UNL     1      -2.729   0.134   0.107  1.00  0.00     0.034 A 
HETATM   14  C11 UNL     1      -1.313   0.111   0.508  1.00  0.00     0.080 A 
HETATM   15  C10 UNL     1      -3.745  -0.370   1.091  1.00  0.00     0.014 C 
HETATM   16 CL2  UNL     1      -0.953  -0.485   2.120  1.00  0.00    -0.115 Cl
ENDBRANCH   5   8
ENDBRANCH   3   4
TORSDOF 2
