REMARK  2 active torsions:
REMARK  status: ('A' for Active; 'I' for Inactive)
REMARK       I    between atoms: C1_4  and  N3_6 
REMARK    1  A    between atoms: N3_6  and  N4_8 
REMARK    2  A    between atoms: N6_16  and  N7_18 
ROOT
HETATM    1  N4  UNL     1       1.544   0.633   0.559  1.00  0.00    -0.277 N 
ATOM      2  H4  UNL     1       1.757   1.224   1.362  1.00  0.00     0.189 HD
HETATM    3  C2  UNL     1       0.314   0.409   0.318  1.00  0.00     0.161 C 
HETATM    4  N5  UNL     1      -0.060  -0.403  -0.780  1.00  0.00    -0.369 N 
ATOM      5  H5  UNL     1       0.595  -1.064  -1.197  1.00  0.00     0.161 HD
HETATM    6  C3  UNL     1      -1.410  -0.259  -1.289  1.00  0.00     0.128 C 
HETATM    7  C4  UNL     1      -2.356  -0.732  -0.203  1.00  0.00     0.086 C 
HETATM    8  C5  UNL     1      -2.491   0.357   0.791  1.00  0.00     0.070 C 
HETATM    9  N6  UNL     1      -3.595   0.774   1.252  1.00  0.00    -0.304 N 
ATOM     10  H6  UNL     1      -3.565   1.531   1.935  1.00  0.00     0.186 HD
HETATM   11  S1  UNL     1      -0.956   1.111   1.357  1.00  0.00    -0.038 SA
ENDROOT
BRANCH   1  12
HETATM   12  N3  UNL     1       2.611   0.153  -0.161  1.00  0.00    -0.272 N 
HETATM   13  C1  UNL     1       3.935   0.394   0.283  1.00  0.00     0.200 C 
HETATM   14  N1  UNL     1       4.255   1.531   0.812  1.00  0.00    -0.372 N 
HETATM   15  N2  UNL     1       4.935  -0.609   0.153  1.00  0.00    -0.062 NA
ATOM     16  H12 UNL     1       5.208   1.704   1.132  1.00  0.00     0.158 HD
ATOM     17  H11 UNL     1       3.538   2.250   0.905  1.00  0.00     0.158 HD
ATOM     18  H3  UNL     1       2.450  -0.378  -1.017  1.00  0.00     0.189 HD
ENDBRANCH   1  12
BRANCH   9  19
HETATM   19  N7  UNL     1      -4.845   0.277   0.897  1.00  0.00    -0.344 N 
ATOM     20  H72 UNL     1      -4.856  -0.480   0.213  1.00  0.00     0.176 HD
ATOM     21  H71 UNL     1      -5.734   0.613   1.268  1.00  0.00     0.176 HD
ENDBRANCH   9  19
TORSDOF 2
