REMARK  6 active torsions:
REMARK  status: ('A' for Active; 'I' for Inactive)
REMARK    1  A    between atoms: N2_4  and  N3_6 
REMARK    2  A    between atoms: N3_6  and  C1_8 
REMARK    3  A    between atoms: C2_9  and  N4_10 
REMARK    4  A    between atoms: N4_10  and  C3_12 
REMARK    5  A    between atoms: C3_12  and  C4_13 
REMARK    6  A    between atoms: C4_13  and  N5_14 
ROOT
HETATM    1  N4  UNL     1       1.629  -1.157   0.609  1.00  0.00    -0.396 N 
ATOM      2  H4  UNL     1       1.958  -2.121   0.561  1.00  0.00     0.158 HD
ENDROOT
BRANCH   1   3
HETATM    3  C2  UNL     1       2.591  -0.145   0.588  1.00  0.00     0.101 C 
HETATM    4  C1  UNL     1       3.625  -0.216  -0.217  1.00  0.00     0.125 C 
BRANCH   4   5
HETATM    5  N3  UNL     1       4.613   0.837  -0.228  1.00  0.00    -0.297 N 
ATOM      6  H3  UNL     1       5.365   0.869   0.460  1.00  0.00     0.187 HD
BRANCH   5   7
HETATM    7  N2  UNL     1       4.495   1.802  -1.214  1.00  0.00    -0.250 N 
HETATM    8  N1  UNL     1       5.288   1.809  -2.189  1.00  0.00    -0.331 N 
ATOM      9  H12 UNL     1       6.015   1.095  -2.239  1.00  0.00     0.178 HD
ATOM     10  H11 UNL     1       5.201   2.520  -2.915  1.00  0.00     0.178 HD
ATOM     11  H2  UNL     1       3.763   2.509  -1.149  1.00  0.00     0.207 HD
ENDBRANCH   5   7
ENDBRANCH   4   5
ENDBRANCH   1   3
BRANCH   1  12
HETATM   12  C3  UNL     1       0.204  -0.941   0.693  1.00  0.00     0.147 C 
BRANCH  12  13
HETATM   13  C4  UNL     1      -0.364  -0.313  -0.562  1.00  0.00     0.261 C 
BRANCH  13  14
HETATM   14  N5  UNL     1      -1.726  -0.120  -0.421  1.00  0.00    -0.011 N 
HETATM   15  C5  UNL     1      -2.653  -1.208  -0.456  1.00  0.00     0.272 C 
HETATM   16  C6  UNL     1      -3.933  -0.421  -0.116  1.00  0.00     0.304 C 
HETATM   17  N6  UNL     1      -3.367   0.942  -0.185  1.00  0.00     0.142 N 
HETATM   18  C7  UNL     1      -2.191   0.750   0.665  1.00  0.00     0.512 C 
HETATM   19  C8  UNL     1      -2.414   0.832  -1.304  1.00  0.00     0.512 C 
ENDBRANCH  13  14
ENDBRANCH  12  13
ENDBRANCH   1  12
TORSDOF 6
