REMARK  7 active torsions:
REMARK  status: ('A' for Active; 'I' for Inactive)
REMARK    1  A    between atoms: C2_2  and  C3_3 
REMARK    2  A    between atoms: C4_4  and  O1_5 
REMARK    3  A    between atoms: O1_5  and  C5_6 
REMARK    4  A    between atoms: C5_6  and  C6_8 
REMARK    5  A    between atoms: C8_10  and  O3_11 
REMARK    6  A    between atoms: C11_14  and  O4_15 
REMARK    7  A    between atoms: C22_27  and  C23_28 
ROOT
HETATM    1  C3  UNL     1      -0.848  -0.712   2.416  1.00  0.00     0.075 C 
HETATM    2  C4  UNL     1      -0.886   0.240   1.280  1.00  0.00     0.162 C 
HETATM    3  C14 UNL     1      -2.062   0.265   0.410  1.00  0.00     0.063 C 
HETATM    4  C15 UNL     1      -2.550   1.566  -0.112  1.00  0.00    -0.042 C 
HETATM    5  C16 UNL     1      -2.021   2.466  -0.899  1.00  0.00    -0.025 C 
HETATM    6  C17 UNL     1      -2.736   3.713  -1.277  1.00  0.00     0.036 C 
HETATM    7  C18 UNL     1      -3.932   1.694   0.488  1.00  0.00     0.203 C 
HETATM    8  O5  UNL     1      -4.363   0.358   0.313  1.00  0.00    -0.379 OA
HETATM    9  C19 UNL     1      -3.320  -0.353   0.902  1.00  0.00     0.152 C 
HETATM   10  C20 UNL     1      -2.870  -1.600   0.174  1.00  0.00     0.078 C 
HETATM   11  C21 UNL     1      -1.932  -0.799  -0.621  1.00  0.00    -0.048 C 
HETATM   12  C22 UNL     1      -1.265  -0.952  -1.753  1.00  0.00     0.075 C 
HETATM   13  C24 UNL     1      -2.229  -2.477   1.210  1.00  0.00     0.168 A 
HETATM   14  O7  UNL     1      -0.868  -2.761   1.166  1.00  0.00    -0.368 OA
HETATM   15  C25 UNL     1      -1.547  -1.997   2.280  1.00  0.00     0.094 A 
HETATM   16  C26 UNL     1      -1.496  -2.824   3.581  1.00  0.00     0.049 C 
ENDROOT
BRANCH   2  17
HETATM   17  O1  UNL     1       0.261  -0.015   0.450  1.00  0.00    -0.310 OA
BRANCH  17  18
HETATM   18  C5  UNL     1       1.277   0.912   0.307  1.00  0.00     0.293 C 
HETATM   19  O2  UNL     1       1.118   2.000   0.963  1.00  0.00    -0.259 OA
BRANCH  18  20
HETATM   20  C6  UNL     1       2.448   0.715  -0.509  1.00  0.00     0.044 A 
HETATM   21  C7  UNL     1       3.408   1.684  -0.596  1.00  0.00     0.054 A 
HETATM   22  C8  UNL     1       4.551   1.523  -1.375  1.00  0.00     0.071 A 
HETATM   23  C10 UNL     1       4.719   0.361  -2.075  1.00  0.00     0.073 A 
HETATM   24  C11 UNL     1       3.764  -0.633  -2.003  1.00  0.00     0.071 A 
HETATM   25  C13 UNL     1       2.617  -0.451  -1.210  1.00  0.00     0.054 A 
BRANCH  22  26
HETATM   26  O3  UNL     1       5.494   2.516  -1.440  1.00  0.00    -0.356 OA
HETATM   27  C9  UNL     1       5.330   3.722  -0.720  1.00  0.00     0.210 C 
ENDBRANCH  22  26
BRANCH  24  28
HETATM   28  O4  UNL     1       3.990  -1.781  -2.731  1.00  0.00    -0.356 OA
HETATM   29  C12 UNL     1       3.133  -2.886  -2.776  1.00  0.00     0.210 C 
ENDBRANCH  24  28
ENDBRANCH  18  20
ENDBRANCH  17  18
ENDBRANCH   2  17
BRANCH   1  30
HETATM   30  C2  UNL     1      -1.232  -0.023   3.677  1.00  0.00    -0.027 C 
HETATM   31  C1  UNL     1      -0.298   0.270   4.594  1.00  0.00     0.007 C 
ENDBRANCH   1  30
BRANCH  12  32
HETATM   32  C23 UNL     1      -1.383  -2.183  -2.538  1.00  0.00     0.254 C 
HETATM   33  N1  UNL     1      -0.680  -2.374  -3.753  1.00  0.00    -0.058 NA
HETATM   34  O6  UNL     1      -2.128  -3.126  -2.148  1.00  0.00    -0.272 OA
ENDBRANCH  12  32
TORSDOF 7
