REMARK  7 active torsions:
REMARK  status: ('A' for Active; 'I' for Inactive)
REMARK    1  A    between atoms: C2_2  and  N1_5 
REMARK    2  A    between atoms: N1_5  and  C4_7 
REMARK    3  A    between atoms: C6_11  and  C7_12 
REMARK    4  A    between atoms: C12_20  and  N4_21 
REMARK    5  A    between atoms: C14_25  and  C15_26 
REMARK       I    between atoms: C15_26  and  N5_28 
REMARK    6  A    between atoms: N5_28  and  C16_30 
REMARK    7  A    between atoms: C16_30  and  C17_31 
ROOT
HETATM    1  C4  UNL     1      -0.898  -1.958   0.147  1.00  0.00     0.119 A 
HETATM    2  N2  UNL     1      -2.135  -1.975  -0.383  1.00  0.00    -0.351 N 
ATOM      3  H2  UNL     1      -2.719  -2.808  -0.460  1.00  0.00     0.166 HD
HETATM    4  C5  UNL     1      -2.493  -0.770  -0.791  1.00  0.00     0.103 A 
HETATM    5  C6  UNL     1      -1.427   0.117  -0.518  1.00  0.00     0.011 A 
HETATM    6  C14 UNL     1      -0.462  -0.625   0.057  1.00  0.00     0.088 A 
ENDROOT
BRANCH   5   7
HETATM    7  C7  UNL     1      -1.554   1.500  -1.013  1.00  0.00    -0.002 A 
HETATM    8  C8  UNL     1      -0.876   1.836  -2.169  1.00  0.00     0.063 A 
HETATM    9  S1  UNL     1      -1.426   3.413  -2.494  1.00  0.00    -0.100 SA
HETATM   10  C9  UNL     1      -2.489   3.615  -1.179  1.00  0.00     0.021 A 
HETATM   11  C10 UNL     1      -3.311   4.668  -0.756  1.00  0.00     0.037 A 
HETATM   12  C13 UNL     1      -2.386   2.425  -0.507  1.00  0.00     0.036 A 
HETATM   13  C11 UNL     1      -4.064   4.535   0.388  1.00  0.00     0.091 A 
HETATM   14  N3  UNL     1      -3.949   3.367   1.033  1.00  0.00    -0.352 N 
HETATM   15  C12 UNL     1      -3.175   2.347   0.653  1.00  0.00     0.111 A 
ATOM     16  H3  UNL     1      -4.498   3.246   1.884  1.00  0.00     0.166 HD
BRANCH  15  17
HETATM   17  N4  UNL     1      -3.183   1.302   1.420  1.00  0.00    -0.385 N 
ATOM     18  H42 UNL     1      -3.756   1.245   2.262  1.00  0.00     0.157 HD
ATOM     19  H41 UNL     1      -2.592   0.523   1.130  1.00  0.00     0.157 HD
ENDBRANCH  15  17
ENDBRANCH   5   7
BRANCH   6  20
HETATM   20  C15 UNL     1       0.827  -0.154   0.542  1.00  0.00     0.260 C 
HETATM   21  O1  UNL     1       1.627  -1.028   0.984  1.00  0.00    -0.267 OA
HETATM   22  N5  UNL     1       1.251   1.164   0.572  1.00  0.00    -0.334 N 
ATOM     23  H5  UNL     1       0.598   1.878   0.248  1.00  0.00     0.168 HD
BRANCH  22  24
HETATM   24  C16 UNL     1       2.537   1.599   1.024  1.00  0.00     0.096 C 
BRANCH  24  25
HETATM   25  C17 UNL     1       3.757   1.297   0.305  1.00  0.00     0.159 C 
HETATM   26  C18 UNL     1       4.253  -0.067   0.040  1.00  0.00     0.039 C 
HETATM   27  C19 UNL     1       5.551   0.313  -0.734  1.00  0.00     0.029 C 
HETATM   28  C20 UNL     1       5.033   1.516  -1.501  1.00  0.00     0.168 C 
HETATM   29  O2  UNL     1       3.760   1.824  -1.015  1.00  0.00    -0.381 OA
ENDBRANCH  24  25
ENDBRANCH  22  24
ENDBRANCH   6  20
BRANCH   1  30
HETATM   30  N1  UNL     1      -0.193  -3.052   0.681  1.00  0.00    -0.354 N 
ATOM     31  H1  UNL     1       0.747  -2.923   1.056  1.00  0.00     0.163 HD
BRANCH  30  32
HETATM   32  C2  UNL     1      -0.825  -4.394   0.695  1.00  0.00     0.101 C 
HETATM   33  C1  UNL     1      -2.074  -4.415   1.523  1.00  0.00     0.056 C 
HETATM   34  C3  UNL     1      -1.038  -4.847  -0.731  1.00  0.00     0.056 C 
HETATM   35 CL1  UNL     1       0.294  -5.574   1.430  1.00  0.00    -0.096 Cl
ENDBRANCH  30  32
ENDBRANCH   1  30
TORSDOF 7
