REMARK  5 active torsions:
REMARK  status: ('A' for Active; 'I' for Inactive)
REMARK    1  A    between atoms: C6_9  and  N2_10 
REMARK    2  A    between atoms: N2_10  and  C7_12 
REMARK    3  A    between atoms: C7_12  and  C8_13 
REMARK    4  A    between atoms: C8_13  and  C9_14 
REMARK    5  A    between atoms: C10_15  and  C11_16 
ROOT
HETATM    1  N2  UNL     1      -1.088  -0.563   0.393  1.00  0.00    -0.414 N 
ATOM      2  H2  UNL     1      -0.365  -0.506   1.110  1.00  0.00     0.153 HD
ENDROOT
BRANCH   1   3
HETATM    3  C6  UNL     1      -2.418  -0.108   0.652  1.00  0.00     0.105 C 
HETATM    4  C2  UNL     1      -2.922   1.011  -0.188  1.00  0.00     0.007 C 
HETATM    5  C1  UNL     1      -3.231   0.702  -1.607  1.00  0.00     0.012 C 
HETATM    6  C3  UNL     1      -4.228   1.498   0.471  1.00  0.00     0.034 C 
HETATM    7  C4  UNL     1      -5.169   0.317   0.530  1.00  0.00     0.232 C 
HETATM    8  N1  UNL     1      -4.615  -0.764   1.328  1.00  0.00    -0.073 N 
HETATM    9  C5  UNL     1      -3.370  -1.245   0.815  1.00  0.00     0.257 C 
ATOM     10  H12 UNL     1      -4.526  -0.489   2.306  1.00  0.00     0.277 HD
ATOM     11  H11 UNL     1      -5.287  -1.524   1.431  1.00  0.00     0.277 HD
ENDBRANCH   1   3
BRANCH   1  12
HETATM   12  C7  UNL     1      -0.804  -1.095  -0.888  1.00  0.00     0.126 C 
BRANCH  12  13
HETATM   13  C8  UNL     1       0.602  -1.669  -0.857  1.00  0.00     0.113 C 
BRANCH  13  14
HETATM   14  C9  UNL     1       1.601  -0.681  -0.515  1.00  0.00    -0.105 C 
HETATM   15  C10 UNL     1       2.448   0.117  -0.209  1.00  0.00    -0.101 C 
BRANCH  15  16
HETATM   16  C11 UNL     1       3.516   1.076   0.183  1.00  0.00     0.068 C 
HETATM   17  C12 UNL     1       3.972   0.807   1.578  1.00  0.00     0.044 C 
HETATM   18  C13 UNL     1       5.211   0.037   1.723  1.00  0.00    -0.029 C 
HETATM   19  C14 UNL     1       5.778  -0.569   0.710  1.00  0.00    -0.031 C 
HETATM   20  C15 UNL     1       5.167  -0.489  -0.630  1.00  0.00     0.028 C 
HETATM   21  C16 UNL     1       4.690   0.966  -0.765  1.00  0.00     0.021 C 
ENDBRANCH  15  16
ENDBRANCH  13  14
ENDBRANCH  12  13
ENDBRANCH   1  12
TORSDOF 5
