REMARK  5 active torsions:
REMARK  status: ('A' for Active; 'I' for Inactive)
REMARK    1  A    between atoms: C2_2  and  C3_3 
REMARK    2  A    between atoms: C2_2  and  C11_13 
REMARK    3  A    between atoms: C4_4  and  C5_5 
REMARK    4  A    between atoms: C5_5  and  O1_6 
REMARK    5  A    between atoms: C11_13  and  N1_14 
ROOT
HETATM    1  C3  UNL     1      -0.516  -1.001   0.160  1.00  0.00    -0.097 C 
HETATM    2  C4  UNL     1      -1.690  -1.032  -0.099  1.00  0.00    -0.068 C 
ENDROOT
BRANCH   1   3
HETATM    3  C2  UNL     1       0.904  -0.951   0.500  1.00  0.00     0.089 C 
HETATM    4  C1  UNL     1       1.393  -2.351   0.739  1.00  0.00     0.025 C 
BRANCH   3   5
HETATM    5  C11 UNL     1       1.643  -0.277  -0.634  1.00  0.00     0.289 C 
BRANCH   5   6
HETATM    6  N1  UNL     1       3.054  -0.257  -0.220  1.00  0.00     0.089 N 
HETATM    7  C12 UNL     1       3.166   0.643   0.891  1.00  0.00     0.272 C 
HETATM    8  C13 UNL     1       4.468   1.365   0.804  1.00  0.00     0.032 C 
HETATM    9  C14 UNL     1       4.923   1.146  -0.603  1.00  0.00     0.032 C 
HETATM   10  C15 UNL     1       3.908   0.264  -1.245  1.00  0.00     0.272 C 
ENDBRANCH   5   6
ENDBRANCH   3   5
ENDBRANCH   1   3
BRANCH   2  11
HETATM   11  C5  UNL     1      -3.147  -1.056  -0.390  1.00  0.00     0.121 C 
HETATM   12  C6  UNL     1      -3.931  -0.773   0.875  1.00  0.00     0.051 C 
HETATM   13  C7  UNL     1      -3.661   0.620   1.394  1.00  0.00     0.004 C 
HETATM   14  C8  UNL     1      -3.725   1.656   0.297  1.00  0.00     0.000 C 
HETATM   15  C9  UNL     1      -2.884   1.304  -0.902  1.00  0.00     0.004 C 
HETATM   16  C10 UNL     1      -3.392  -0.022  -1.448  1.00  0.00     0.051 C 
BRANCH  11  17
HETATM   17  O1  UNL     1      -3.556  -2.293  -0.872  1.00  0.00    -0.378 OA
ATOM     18  H1  UNL     1      -4.487  -2.308  -1.058  1.00  0.00     0.211 HD
ENDBRANCH  11  17
ENDBRANCH   2  11
TORSDOF 5
