REMARK  6 active torsions:
REMARK  status: ('A' for Active; 'I' for Inactive)
REMARK    1  A    between atoms: C2_2  and  C4_4 
REMARK    2  A    between atoms: C5_6  and  C6_7 
REMARK    3  A    between atoms: C6_7  and  C7_8 
REMARK    4  A    between atoms: C7_8  and  O1_9 
REMARK    5  A    between atoms: C8_11  and  N2_17 
REMARK    6  A    between atoms: C10_13  and  C11_14 
ROOT
HETATM    1  C4  UNL     1       2.024  -0.687  -0.683  1.00  0.00     0.063 C 
HETATM    2  N1  UNL     1       0.771  -0.236  -0.456  1.00  0.00    -0.381 N 
HETATM    3  C5  UNL     1       0.275   0.999  -0.109  1.00  0.00     0.119 C 
HETATM    4  C8  UNL     1      -1.167   0.934  -0.692  1.00  0.00     0.248 C 
HETATM    5  C9  UNL     1      -0.717   0.197  -1.955  1.00  0.00     0.063 C 
HETATM    6  C10 UNL     1      -0.243  -1.013  -1.213  1.00  0.00     0.092 C 
ENDROOT
BRANCH   1   7
HETATM    7  C2  UNL     1       2.976  -0.841   0.464  1.00  0.00     0.016 C 
HETATM    8  C1  UNL     1       3.290   0.399   1.218  1.00  0.00     0.015 C 
HETATM    9  C3  UNL     1       4.297  -1.471  -0.012  1.00  0.00     0.015 C 
ENDBRANCH   1   7
BRANCH   3  10
HETATM   10  C6  UNL     1       0.836   2.278  -0.654  1.00  0.00     0.053 C 
BRANCH  10  11
HETATM   11  C7  UNL     1       0.087   3.439  -0.013  1.00  0.00     0.166 C 
BRANCH  11  12
HETATM   12  O1  UNL     1       0.225   3.403   1.381  1.00  0.00    -0.401 OA
ATOM     13  H1  UNL     1      -0.242   4.127   1.781  1.00  0.00     0.209 HD
ENDBRANCH  11  12
ENDBRANCH  10  11
ENDBRANCH   3  10
BRANCH   6  14
HETATM   14  C11 UNL     1      -1.217  -1.635  -0.273  1.00  0.00     0.048 C 
HETATM   15  C12 UNL     1      -0.953  -1.292   1.197  1.00  0.00     0.039 C 
HETATM   16  C13 UNL     1      -1.785  -0.062   1.428  1.00  0.00     0.274 C 
HETATM   17  N2  UNL     1      -2.136   0.315   0.069  1.00  0.00     0.104 N 
HETATM   18  C14 UNL     1      -2.611  -1.002  -0.374  1.00  0.00     0.159 C 
HETATM   19  C15 UNL     1      -3.573  -1.612   0.600  1.00  0.00     0.049 C 
HETATM   20  C16 UNL     1      -3.288  -1.075  -1.669  1.00  0.00     0.049 C 
ENDBRANCH   6  14
TORSDOF 6
