REMARK  6 active torsions:
REMARK  status: ('A' for Active; 'I' for Inactive)
REMARK    1  A    between atoms: C2_2  and  S1_5 
REMARK    2  A    between atoms: S1_5  and  C5_6 
REMARK    3  A    between atoms: C5_6  and  C6_7 
REMARK    4  A    between atoms: C6_7  and  N1_8 
REMARK    5  A    between atoms: N1_8  and  C7_10 
REMARK    6  A    between atoms: C7_10  and  N2_12 
ROOT
HETATM    1  N1  UNL     1      -0.790   0.496   1.004  1.00  0.00    -0.366 N 
ATOM      2  H1  UNL     1      -1.316   1.192   1.532  1.00  0.00     0.161 HD
ENDROOT
BRANCH   1   3
HETATM    3  C6  UNL     1       0.619   0.565   1.158  1.00  0.00     0.132 C 
BRANCH   3   4
HETATM    4  C5  UNL     1       1.206   1.130  -0.147  1.00  0.00     0.094 C 
BRANCH   4   5
HETATM    5  S1  UNL     1       2.952   1.406  -0.009  1.00  0.00    -0.159 SA
BRANCH   5   6
HETATM    6  C2  UNL     1       4.048   0.030  -0.049  1.00  0.00    -0.003 C 
HETATM    7  C1  UNL     1       5.032   0.233  -1.226  1.00  0.00     0.026 C 
HETATM    8  C3  UNL     1       3.398  -1.313  -0.366  1.00  0.00     0.026 C 
HETATM    9  C4  UNL     1       4.848  -0.058   1.232  1.00  0.00     0.026 C 
ENDBRANCH   5   6
ENDBRANCH   4   5
ENDBRANCH   3   4
ENDBRANCH   1   3
BRANCH   1  10
HETATM   10  C7  UNL     1      -1.573  -0.384   0.235  1.00  0.00     0.169 C 
HETATM   11  S2  UNL     1      -0.820  -1.575  -0.585  1.00  0.00    -0.041 SA
BRANCH  10  12
HETATM   12  N2  UNL     1      -2.988  -0.277   0.158  1.00  0.00    -0.354 N 
HETATM   13  C8  UNL     1      -3.847  -1.173  -0.582  1.00  0.00     0.151 C 
HETATM   14  C9  UNL     1      -5.199  -1.148   0.139  1.00  0.00     0.187 C 
HETATM   15  O1  UNL     1      -5.812   0.070   0.092  1.00  0.00    -0.388 OA
HETATM   16  C10 UNL     1      -4.974   1.146   0.162  1.00  0.00     0.187 C 
HETATM   17  C11 UNL     1      -3.653   0.831   0.835  1.00  0.00     0.151 C 
ENDBRANCH  10  12
ENDBRANCH   1  10
TORSDOF 6
