REMARK  2 active torsions:
REMARK  status: ('A' for Active; 'I' for Inactive)
REMARK       I    between atoms: C1_2  and  N1_3 
REMARK    1  A    between atoms: C1_2  and  C7_13 
REMARK    2  A    between atoms: N1_3  and  N2_5 
ROOT
HETATM    1  O1  UNL     1       0.227  -2.005  -0.878  1.00  0.00    -0.271 OA
HETATM    2  C1  UNL     1      -0.014  -1.093  -0.054  1.00  0.00     0.244 C 
HETATM    3  N1  UNL     1       1.001  -0.614   0.819  1.00  0.00    -0.270 N 
ATOM      4  H1  UNL     1       0.795   0.129   1.487  1.00  0.00     0.190 HD
ENDROOT
BRANCH   2   5
HETATM    5  C7  UNL     1      -1.387  -0.525  -0.013  1.00  0.00     0.043 C 
HETATM    6  C8  UNL     1      -1.966  -0.738   1.357  1.00  0.00     0.024 C 
HETATM    7  C9  UNL     1      -3.352  -0.108   1.430  1.00  0.00    -0.013 C 
HETATM    8  C10 UNL     1      -4.227  -0.759   0.392  1.00  0.00     0.009 C 
HETATM    9  C14 UNL     1      -3.165   1.370   1.161  1.00  0.00     0.009 C 
HETATM   10  C11 UNL     1      -3.630  -0.504  -0.968  1.00  0.00    -0.013 C 
HETATM   11  C12 UNL     1      -3.564   0.985  -1.226  1.00  0.00     0.009 C 
HETATM   12  C16 UNL     1      -2.285  -1.153  -1.030  1.00  0.00     0.024 C 
HETATM   13  C13 UNL     1      -2.632   1.604  -0.222  1.00  0.00    -0.013 C 
HETATM   14  C15 UNL     1      -1.273   0.953  -0.354  1.00  0.00     0.024 C 
ENDBRANCH   2   5
BRANCH   3  15
HETATM   15  N2  UNL     1       2.282  -1.167   0.757  1.00  0.00    -0.306 N 
HETATM   16  C2  UNL     1       3.317  -0.467   0.508  1.00  0.00     0.013 C 
HETATM   17  C3  UNL     1       4.642  -1.119   0.458  1.00  0.00     0.056 C 
HETATM   18  C6  UNL     1       3.226   0.988   0.265  1.00  0.00     0.127 C 
HETATM   19  C4  UNL     1       5.353  -0.556  -0.778  1.00  0.00     0.016 C 
HETATM   20  C5  UNL     1       6.078   0.694  -0.323  1.00  0.00     0.074 C 
HETATM   21  S1  UNL     1       4.846   1.785   0.442  1.00  0.00    -0.163 SA
ATOM     22  H2  UNL     1       2.393  -2.168   0.917  1.00  0.00     0.186 HD
ENDBRANCH   3  15
TORSDOF 2
