REMARK  3 active torsions:
REMARK  status: ('A' for Active; 'I' for Inactive)
REMARK    1  A    between atoms: N1_6  and  C6_7 
REMARK    2  A    between atoms: C6_7  and  C7_8 
REMARK    3  A    between atoms: C7_8  and  O1_9 
ROOT
HETATM    1  C7  UNL     1      -0.260  -0.554  -0.309  1.00  0.00     0.097 C 
HETATM    2  C8  UNL     1       0.440   0.670  -0.851  1.00  0.00     0.079 C 
HETATM    3  C9  UNL     1       1.660   0.888   0.050  1.00  0.00     0.226 C 
HETATM    4  C10 UNL     1       2.183   2.262  -0.144  1.00  0.00     0.036 C 
HETATM    5  C11 UNL     1       3.595   2.421   0.408  1.00  0.00     0.004 C 
HETATM    6  C12 UNL     1       4.451   1.402  -0.331  1.00  0.00     0.030 C 
HETATM    7  C13 UNL     1       3.916   0.044   0.123  1.00  0.00     0.273 C 
HETATM    8  N2  UNL     1       2.571  -0.169  -0.329  1.00  0.00     0.098 N 
HETATM    9  C14 UNL     1       2.071  -1.380   0.285  1.00  0.00     0.226 C 
HETATM   10  C15 UNL     1       2.600  -2.634  -0.390  1.00  0.00     0.043 C 
HETATM   11  C16 UNL     1       0.618  -1.421   0.551  1.00  0.00     0.054 C 
HETATM   12  C17 UNL     1       0.144  -2.875   0.457  1.00  0.00     0.015 C 
ENDROOT
BRANCH   1  13
HETATM   13  C6  UNL     1      -1.451  -0.175   0.553  1.00  0.00     0.101 C 
BRANCH  13  14
HETATM   14  N1  UNL     1      -2.485   0.517  -0.017  1.00  0.00    -0.367 N 
HETATM   15  C2  UNL     1      -3.398  -0.017  -0.923  1.00  0.00     0.084 C 
HETATM   16  C1  UNL     1      -4.050  -1.317  -0.483  1.00  0.00     0.033 C 
HETATM   17  C3  UNL     1      -4.570   1.001  -0.978  1.00  0.00     0.030 C 
HETATM   18  C4  UNL     1      -3.906   2.254  -0.494  1.00  0.00     0.046 C 
HETATM   19  C5  UNL     1      -2.931   1.714   0.552  1.00  0.00     0.063 C 
ENDBRANCH  13  14
ENDBRANCH   1  13
BRANCH   1  20
HETATM   20  O1  UNL     1      -0.725  -1.310  -1.371  1.00  0.00    -0.384 OA
ATOM     21  H1  UNL     1       0.020  -1.547  -1.910  1.00  0.00     0.211 HD
ENDBRANCH   1  20
TORSDOF 3
