REMARK  1 active torsions:
REMARK  status: ('A' for Active; 'I' for Inactive)
REMARK    1  A    between atoms: C5_5  and  C6_6 
ROOT
HETATM    1  C6  UNL     1       0.131  -0.167  -0.857  1.00  0.00     0.064 C 
HETATM    2  N1  UNL     1       1.283  -0.020  -0.196  1.00  0.00    -0.381 N 
HETATM    3  C7  UNL     1       1.805  -0.543   0.975  1.00  0.00     0.091 C 
HETATM    4  C8  UNL     1       1.827   0.876   1.511  1.00  0.00     0.053 C 
HETATM    5  C9  UNL     1       1.989   1.193   0.030  1.00  0.00     0.116 C 
HETATM    6  C10 UNL     1       3.426   0.988  -0.397  1.00  0.00     0.209 C 
HETATM    7  C11 UNL     1       4.202   0.172   0.612  1.00  0.00     0.043 C 
HETATM    8  C12 UNL     1       3.249  -1.003   0.672  1.00  0.00     0.036 C 
HETATM    9  C13 UNL     1       3.282  -1.315  -0.833  1.00  0.00     0.239 C 
HETATM   10  N2  UNL     1       3.379  -0.011  -1.485  1.00  0.00    -0.069 N 
ATOM     11  H21 UNL     1       4.161   0.061  -2.137  1.00  0.00     0.277 HD
ATOM     12  H22 UNL     1       2.636   0.161  -2.163  1.00  0.00     0.277 HD
ENDROOT
BRANCH   1  13
HETATM   13  C5  UNL     1      -1.185   0.351  -0.415  1.00  0.00     0.024 C 
HETATM   14  C4  UNL     1      -2.209  -0.053  -1.490  1.00  0.00     0.010 C 
HETATM   15  C3  UNL     1      -3.298   0.987  -1.507  1.00  0.00     0.001 C 
HETATM   16  C2  UNL     1      -4.165   0.791  -0.287  1.00  0.00     0.000 C 
HETATM   17  C1  UNL     1      -4.143  -0.599   0.241  1.00  0.00     0.000 C 
HETATM   18  C15 UNL     1      -2.870  -1.085   0.815  1.00  0.00     0.001 C 
HETATM   19  C14 UNL     1      -1.737  -0.116   0.872  1.00  0.00     0.010 C 
ENDBRANCH   1  13
TORSDOF 1
