REMARK  7 active torsions:
REMARK  status: ('A' for Active; 'I' for Inactive)
REMARK    1  A    between atoms: C2_2  and  C3_3 
REMARK    2  A    between atoms: N1_5  and  N2_7 
REMARK    3  A    between atoms: N2_7  and  C5_9 
REMARK    4  A    between atoms: C6_12  and  C7_13 
REMARK    5  A    between atoms: C13_19  and  C14_20 
REMARK    6  A    between atoms: C14_20  and  O1_22 
REMARK    7  A    between atoms: O1_22  and  O2_23 
ROOT
HETATM    1  C5  UNL     1       1.110  -0.769  -0.358  1.00  0.00     0.164 A 
HETATM    2  N3  UNL     1      -0.133  -0.842   0.117  1.00  0.00    -0.337 N 
ATOM      3  H3  UNL     1      -0.507  -1.727   0.460  1.00  0.00     0.168 HD
HETATM    4  C6  UNL     1      -0.865   0.245   0.135  1.00  0.00     0.036 A 
HETATM    5  C13 UNL     1      -0.287   1.400  -0.345  1.00  0.00     0.079 A 
HETATM    6  S2  UNL     1       1.267   0.864  -0.794  1.00  0.00    -0.047 SA
ENDROOT
BRANCH   1   7
HETATM    7  N2  UNL     1       1.996  -1.736  -0.461  1.00  0.00    -0.280 N 
ATOM      8  H2  UNL     1       1.755  -2.678  -0.154  1.00  0.00     0.189 HD
BRANCH   7   9
HETATM    9  N1  UNL     1       3.261  -1.481  -0.987  1.00  0.00    -0.307 N 
HETATM   10  C3  UNL     1       4.182  -0.844  -0.389  1.00  0.00    -0.001 C 
HETATM   11  C4  UNL     1       3.982  -0.292   0.980  1.00  0.00     0.065 C 
ATOM     12  H1  UNL     1       3.462  -1.833  -1.923  1.00  0.00     0.186 HD
BRANCH  10  13
HETATM   13  C2  UNL     1       5.491  -0.633  -1.049  1.00  0.00     0.049 C 
HETATM   14  C1  UNL     1       6.626  -1.247  -0.247  1.00  0.00     0.011 C 
ENDBRANCH  10  13
ENDBRANCH   7   9
ENDBRANCH   1   7
BRANCH   4  15
HETATM   15  C7  UNL     1      -2.297   0.262   0.654  1.00  0.00     0.037 C 
HETATM   16  C8  UNL     1      -2.619  -1.070   1.258  1.00  0.00     0.011 C 
HETATM   17  C9  UNL     1      -4.070  -1.188   1.656  1.00  0.00     0.001 C 
HETATM   18  C10 UNL     1      -4.830  -1.181   0.320  1.00  0.00     0.000 C 
HETATM   19  C11 UNL     1      -4.657   0.178  -0.251  1.00  0.00     0.001 C 
HETATM   20  C12 UNL     1      -3.260   0.662  -0.427  1.00  0.00     0.011 C 
ENDBRANCH   4  15
BRANCH   5  21
HETATM   21  C14 UNL     1      -0.873   2.755  -0.434  1.00  0.00     0.192 C 
HETATM   22  S1  UNL     1      -1.140   3.691   0.873  1.00  0.00    -0.048 SA
BRANCH  21  23
HETATM   23  O1  UNL     1      -1.215   3.265  -1.674  1.00  0.00    -0.187 OA
BRANCH  23  24
HETATM   24  O2  UNL     1      -0.939   4.553  -1.931  1.00  0.00    -0.244 OA
ATOM     25  H2  UNL     1      -1.174   4.903  -2.782  1.00  0.00     0.254 HD
ENDBRANCH  23  24
ENDBRANCH  21  23
ENDBRANCH   5  21
TORSDOF 7
