REMARK  7 active torsions:
REMARK  status: ('A' for Active; 'I' for Inactive)
REMARK    1  A    between atoms: C2_2  and  C3_3 
REMARK    2  A    between atoms: C4_5  and  C5_6 
REMARK    3  A    between atoms: C5_6  and  N1_7 
REMARK    4  A    between atoms: N1_7  and  C6_9 
REMARK    5  A    between atoms: C6_9  and  C7_10 
REMARK    6  A    between atoms: C7_10  and  O3_12 
REMARK    7  A    between atoms: C19_24  and  O4_25 
ROOT
HETATM    1  C6  UNL     1      -0.927   0.834   0.849  1.00  0.00     0.125 C 
HETATM    2  C9  UNL     1      -1.357  -0.201   1.885  1.00  0.00     0.043 C 
HETATM    3  C10 UNL     1      -2.066  -1.382   1.378  1.00  0.00     0.012 C 
HETATM    4  C11 UNL     1      -2.185  -1.618  -0.069  1.00  0.00    -0.047 C 
HETATM    5  C12 UNL     1      -3.596  -2.174  -0.339  1.00  0.00     0.015 C 
HETATM    6  C13 UNL     1      -1.258  -2.740  -0.569  1.00  0.00     0.015 C 
HETATM    7  C14 UNL     1      -2.027  -0.452  -0.978  1.00  0.00     0.020 C 
HETATM    8  C15 UNL     1      -1.991   0.874  -0.223  1.00  0.00    -0.012 C 
HETATM    9  C16 UNL     1      -1.798   1.958  -1.244  1.00  0.00     0.018 C 
HETATM   10  C17 UNL     1      -3.341   1.128   0.428  1.00  0.00     0.018 C 
ENDROOT
BRANCH   1  11
HETATM   11  N1  UNL     1       0.358   0.470   0.416  1.00  0.00    -0.378 N 
ATOM     12  H1  UNL     1       0.762  -0.375   0.820  1.00  0.00     0.160 HD
BRANCH  11  13
HETATM   13  C5  UNL     1       1.119   1.151  -0.503  1.00  0.00     0.121 C 
BRANCH  13  14
HETATM   14  C4  UNL     1       2.487   0.523  -0.706  1.00  0.00     0.093 A 
HETATM   15  O1  UNL     1       2.836  -0.396  -1.570  1.00  0.00    -0.311 OA
HETATM   16  C3  UNL     1       4.115  -0.682  -1.438  1.00  0.00     0.086 A 
HETATM   17  C19 UNL     1       4.647   0.078  -0.443  1.00  0.00     0.098 A 
HETATM   18  C18 UNL     1       3.616   0.852   0.032  1.00  0.00     0.077 A 
BRANCH  16  19
HETATM   19  C2  UNL     1       4.876  -1.674  -2.240  1.00  0.00     0.064 C 
HETATM   20  C1  UNL     1       5.123  -2.944  -1.436  1.00  0.00     0.012 C 
ENDBRANCH  16  19
BRANCH  17  21
HETATM   21  O4  UNL     1       5.935   0.101   0.023  1.00  0.00    -0.358 OA
ATOM     22  H4  UNL     1       6.307   0.632   0.718  1.00  0.00     0.217 HD
ENDBRANCH  17  21
ENDBRANCH  13  14
ENDBRANCH  11  13
ENDBRANCH   1  11
BRANCH   1  23
HETATM   23  C7  UNL     1      -0.950   2.154   1.549  1.00  0.00     0.287 C 
HETATM   24  O2  UNL     1       0.132   2.829   1.685  1.00  0.00    -0.262 OA
BRANCH  23  25
HETATM   25  O3  UNL     1      -2.055   2.762   2.094  1.00  0.00    -0.325 OA
HETATM   26  C8  UNL     1      -2.005   4.017   2.746  1.00  0.00     0.213 C 
ENDBRANCH  23  25
ENDBRANCH   1  23
TORSDOF 7
