REMARK  11 active torsions:
REMARK  status: ('A' for Active; 'I' for Inactive)
REMARK    1  A    between atoms: C4_8  and  O2_9 
REMARK    2  A    between atoms: C5_11  and  C6_12 
REMARK    3  A    between atoms: C6_12  and  C7_13 
REMARK    4  A    between atoms: C7_13  and  O3_14 
REMARK    5  A    between atoms: C7_13  and  C8_16 
REMARK    6  A    between atoms: C8_16  and  O4_17 
REMARK    7  A    between atoms: C8_16  and  C9_19 
REMARK    8  A    between atoms: C9_19  and  O5_20 
REMARK    9  A    between atoms: C9_19  and  O6_22 
REMARK   10  A    between atoms: C11_27  and  O8_28 
REMARK   11  A    between atoms: C12_30  and  O9_31 
ROOT
HETATM    1  O1  UNL     1      -5.866  -0.287   1.134  1.00  0.00    -0.270 OA
HETATM    2  C1  UNL     1      -4.867  -0.452   0.388  1.00  0.00     0.259 C 
HETATM    3  N1  UNL     1      -4.644  -1.575  -0.462  1.00  0.00    -0.356 N 
ATOM      4  H1  UNL     1      -5.340  -2.247  -0.785  1.00  0.00     0.162 HD
HETATM    5  C2  UNL     1      -3.222  -1.568  -0.775  1.00  0.00     0.153 C 
HETATM    6  C3  UNL     1      -2.943  -0.079  -0.876  1.00  0.00     0.177 C 
HETATM    7  N2  UNL     1      -1.595   0.250  -0.527  1.00  0.00    -0.253 N 
HETATM    8  C4  UNL     1      -0.366   0.359  -1.101  1.00  0.00     0.170 A 
HETATM    9  C5  UNL     1       0.498   0.732  -0.120  1.00  0.00     0.066 A 
HETATM   10  C10 UNL     1      -0.217   0.847   1.045  1.00  0.00     0.275 A 
HETATM   11  O7  UNL     1       0.271   1.179   2.166  1.00  0.00    -0.266 OA
HETATM   12  N3  UNL     1      -1.501   0.543   0.760  1.00  0.00    -0.219 N 
HETATM   13  C11 UNL     1      -2.784   0.439   1.405  1.00  0.00     0.290 C 
HETATM   14  C12 UNL     1      -3.746   0.482   0.258  1.00  0.00     0.208 C 
ENDROOT
BRANCH   9  15
HETATM   15  C6  UNL     1       1.976   0.968  -0.326  1.00  0.00     0.083 C 
BRANCH  15  16
HETATM   16  C7  UNL     1       2.582  -0.407  -0.431  1.00  0.00     0.156 C 
BRANCH  16  17
HETATM   17  O3  UNL     1       2.338  -1.087   0.755  1.00  0.00    -0.393 OA
ATOM     18  H3  UNL     1       2.720  -1.954   0.689  1.00  0.00     0.210 HD
ENDBRANCH  16  17
BRANCH  16  19
HETATM   19  C8  UNL     1       3.993  -0.455  -0.909  1.00  0.00     0.202 C 
BRANCH  19  20
HETATM   20  O4  UNL     1       4.342  -1.807  -1.142  1.00  0.00    -0.388 OA
ATOM     21  H4  UNL     1       5.241  -1.838  -1.447  1.00  0.00     0.210 HD
ENDBRANCH  19  20
BRANCH  19  22
HETATM   22  C9  UNL     1       4.974   0.111   0.062  1.00  0.00     0.285 C 
BRANCH  22  23
HETATM   23  O5  UNL     1       4.719   1.434   0.309  1.00  0.00    -0.369 OA
ATOM     24  H5  UNL     1       5.344   1.794   0.927  1.00  0.00     0.212 HD
ENDBRANCH  22  23
BRANCH  22  25
HETATM   25  O6  UNL     1       6.279  -0.079  -0.449  1.00  0.00    -0.369 OA
ATOM     26  H6  UNL     1       6.904   0.281   0.169  1.00  0.00     0.212 HD
ENDBRANCH  22  25
ENDBRANCH  19  22
ENDBRANCH  16  19
ENDBRANCH  15  16
ENDBRANCH   9  15
BRANCH   8  27
HETATM   27  O2  UNL     1      -0.041   0.134  -2.438  1.00  0.00    -0.344 OA
ATOM     28  H2  UNL     1       0.817   0.210  -2.839  1.00  0.00     0.219 HD
ENDBRANCH   8  27
BRANCH  13  29
HETATM   29  O8  UNL     1      -3.000   1.455   2.330  1.00  0.00    -0.371 OA
ATOM     30  H8  UNL     1      -3.847   1.386   2.756  1.00  0.00     0.212 HD
ENDBRANCH  13  29
BRANCH  14  31
HETATM   31  O9  UNL     1      -4.147   1.777  -0.059  1.00  0.00    -0.374 OA
ATOM     32  H9  UNL     1      -3.420   2.383  -0.143  1.00  0.00     0.211 HD
ENDBRANCH  14  31
TORSDOF 11
