REMARK  10 active torsions:
REMARK  status: ('A' for Active; 'I' for Inactive)
REMARK    1  A    between atoms: N1_2  and  C2_4 
REMARK    2  A    between atoms: C3_7  and  C4_8 
REMARK       I    between atoms: C4_8  and  N3_10 
REMARK    3  A    between atoms: N3_10  and  C5_12 
REMARK    4  A    between atoms: C8_15  and  C9_16 
REMARK    5  A    between atoms: C16_28  and  C17_29 
REMARK    6  A    between atoms: C18_30  and  C19_31 
REMARK    7  A    between atoms: C19_31  and  C20_32 
REMARK    8  A    between atoms: C22_36  and  N8_37 
REMARK    9  A    between atoms: N8_37  and  S1_39 
REMARK   10  A    between atoms: S1_39  and  C23_42 
ROOT
HETATM    1  C2  UNL     1      -1.506  -0.629  -0.332  1.00  0.00     0.120 A 
HETATM    2  N2  UNL     1      -2.332  -0.575   0.729  1.00  0.00    -0.337 N 
ATOM      3  H2  UNL     1      -3.138  -1.196   0.795  1.00  0.00     0.167 HD
HETATM    4  C3  UNL     1      -2.072   0.311   1.694  1.00  0.00     0.102 A 
HETATM    5  C14 UNL     1      -0.964   1.157   1.593  1.00  0.00     0.037 A 
HETATM    6  C15 UNL     1      -0.118   1.102   0.507  1.00  0.00     0.027 A 
HETATM    7  C16 UNL     1      -0.398   0.192  -0.470  1.00  0.00     0.061 A 
ENDROOT
BRANCH   7   8
HETATM    8  C17 UNL     1       0.465   0.097  -1.629  1.00  0.00    -0.063 C 
HETATM    9  C18 UNL     1       1.175   0.029  -2.598  1.00  0.00    -0.095 C 
BRANCH   9  10
HETATM   10  C19 UNL     1       2.013  -0.060  -3.786  1.00  0.00     0.152 C 
BRANCH  10  11
HETATM   11  C20 UNL     1       3.424   0.190  -3.357  1.00  0.00     0.039 A 
HETATM   12  C21 UNL     1       4.221  -0.855  -2.969  1.00  0.00     0.116 A 
HETATM   13  N7  UNL     1       5.518  -0.641  -2.579  1.00  0.00    -0.345 N 
HETATM   14  C22 UNL     1       6.054   0.580  -2.560  1.00  0.00     0.184 A 
ATOM     15  H7  UNL     1       6.089  -1.438  -2.296  1.00  0.00     0.167 HD
HETATM   16  C32 UNL     1       5.229   1.644  -2.959  1.00  0.00     0.290 A 
HETATM   17  O4  UNL     1       5.706   2.788  -2.949  1.00  0.00    -0.264 OA
HETATM   18  N10 UNL     1       3.957   1.411  -3.339  1.00  0.00    -0.322 N 
ATOM     19  H10 UNL     1       3.379   2.201  -3.624  1.00  0.00     0.169 HD
BRANCH  14  20
HETATM   20  N8  UNL     1       7.247   0.806  -2.217  1.00  0.00    -0.261 N 
ATOM     21  H8  UNL     1       7.560   1.777  -2.238  1.00  0.00     0.180 HD
BRANCH  20  22
HETATM   22  S1  UNL     1       8.381  -0.362  -1.723  1.00  0.00     0.266 S 
HETATM   23  O2  UNL     1       9.765   0.280  -1.747  1.00  0.00    -0.200 OA
HETATM   24  O3  UNL     1       8.427  -1.568  -2.642  1.00  0.00    -0.200 OA
BRANCH  22  25
HETATM   25  C23 UNL     1       8.082  -0.955  -0.096  1.00  0.00     0.107 A 
HETATM   26  C24 UNL     1       7.834  -2.286   0.145  1.00  0.00     0.028 A 
HETATM   27  C25 UNL     1       7.601  -2.744   1.437  1.00  0.00     0.003 A 
HETATM   28  C26 UNL     1       7.618  -1.843   2.499  1.00  0.00     0.014 A 
HETATM   29  C27 UNL     1       7.865  -0.506   2.273  1.00  0.00    -0.008 A 
HETATM   30  C28 UNL     1       7.879   0.364   3.349  1.00  0.00     0.015 A 
HETATM   31  C31 UNL     1       8.097  -0.058   0.978  1.00  0.00     0.066 A 
HETATM   32  C29 UNL     1       8.130   1.699   3.106  1.00  0.00     0.018 A 
HETATM   33  C30 UNL     1       8.356   2.097   1.791  1.00  0.00     0.088 A 
HETATM   34  N9  UNL     1       8.340   1.244   0.758  1.00  0.00    -0.364 N 
ATOM     35  H9  UNL     1       8.511   1.581  -0.189  1.00  0.00     0.165 HD
ENDBRANCH  22  25
ENDBRANCH  20  22
ENDBRANCH  14  20
ENDBRANCH  10  11
ENDBRANCH   9  10
ENDBRANCH   7   8
BRANCH   1  36
HETATM   36  N1  UNL     1      -1.785  -1.503  -1.257  1.00  0.00    -0.379 N 
HETATM   37  C1  UNL     1      -2.924  -2.378  -1.163  1.00  0.00     0.147 C 
ATOM     38  H1  UNL     1      -1.177  -1.569  -2.073  1.00  0.00     0.160 HD
ENDBRANCH   1  36
BRANCH   4  39
HETATM   39  C4  UNL     1      -2.912   0.428   2.857  1.00  0.00     0.273 C 
HETATM   40  O1  UNL     1      -2.709   1.242   3.794  1.00  0.00    -0.266 OA
HETATM   41  N3  UNL     1      -4.042  -0.406   2.984  1.00  0.00    -0.308 N 
ATOM     42  H3  UNL     1      -3.967  -1.211   3.605  1.00  0.00     0.170 HD
BRANCH  41  43
HETATM   43  C5  UNL     1      -5.163  -0.226   2.373  1.00  0.00     0.107 A 
HETATM   44  C6  UNL     1      -5.416   0.813   1.504  1.00  0.00     0.049 A 
HETATM   45  C7  UNL     1      -6.627   0.981   0.866  1.00  0.00     0.017 A 
HETATM   46  C8  UNL     1      -7.648   0.081   1.092  1.00  0.00    -0.008 A 
HETATM   47  C13 UNL     1      -7.374  -0.952   1.965  1.00  0.00     0.102 A 
HETATM   48  N6  UNL     1      -6.187  -1.101   2.578  1.00  0.00    -0.351 N 
ATOM     49  H6  UNL     1      -6.050  -1.888   3.212  1.00  0.00     0.166 HD
BRANCH  46  50
HETATM   50  C9  UNL     1      -8.943   0.229   0.441  1.00  0.00     0.009 A 
HETATM   51  C10 UNL     1      -9.780  -0.822   0.083  1.00  0.00     0.121 A 
HETATM   52  N4  UNL     1     -10.870  -0.280  -0.484  1.00  0.00    -0.310 N 
HETATM   53  N5  UNL     1     -10.802   1.038  -0.520  1.00  0.00    -0.307 N 
ATOM     54  H4  UNL     1     -11.656  -0.822  -0.844  1.00  0.00     0.186 HD
HETATM   55  C11 UNL     1     -11.810   1.960  -1.066  1.00  0.00     0.177 C 
HETATM   56  C12 UNL     1      -9.623   1.363   0.045  1.00  0.00     0.123 A 
ENDBRANCH  46  50
ENDBRANCH  41  43
ENDBRANCH   4  39
TORSDOF 10
