REMARK  5 active torsions:
REMARK  status: ('A' for Active; 'I' for Inactive)
REMARK    1  A    between atoms: N2_5  and  C4_6 
REMARK    2  A    between atoms: C4_6  and  C5_7 
REMARK    3  A    between atoms: C4_6  and  C6_10 
REMARK    4  A    between atoms: C6_10  and  C7_11 
REMARK    5  A    between atoms: C8_12  and  O3_13 
ROOT
HETATM    1  C6  UNL     1      -3.474  -0.100  -1.436  1.00  0.00     0.110 C 
HETATM    2  C9  UNL     1      -3.787  -1.530  -1.294  1.00  0.00     0.030 C 
HETATM    3  C10 UNL     1      -3.165  -2.565  -2.109  1.00  0.00     0.002 C 
HETATM    4  C11 UNL     1      -1.824  -2.381  -2.683  1.00  0.00     0.001 C 
HETATM    5  C12 UNL     1      -0.758  -3.214  -1.952  1.00  0.00     0.010 C 
HETATM    6  C13 UNL     1       0.154  -2.171  -1.286  1.00  0.00     0.049 C 
HETATM    7  C14 UNL     1      -0.674  -1.522  -0.211  1.00  0.00     0.134 C 
HETATM    8  N3  UNL     1      -0.972  -0.171  -0.641  1.00  0.00    -0.342 N 
HETATM    9  C15 UNL     1       0.285   0.626  -0.693  1.00  0.00     0.228 C 
HETATM   10  C16 UNL     1       0.529   1.123   0.686  1.00  0.00     0.235 C 
HETATM   11  O4  UNL     1      -0.184   0.821   1.676  1.00  0.00    -0.272 OA
HETATM   12  N4  UNL     1       1.645   2.001   0.904  1.00  0.00    -0.360 N 
ATOM     13  H4  UNL     1       1.981   2.169   1.852  1.00  0.00     0.162 HD
HETATM   14  C17 UNL     1       2.293   2.647  -0.214  1.00  0.00     0.122 C 
HETATM   15  C18 UNL     1       3.178   3.758   0.290  1.00  0.00     0.022 C 
HETATM   16  C19 UNL     1       4.552   3.622  -0.352  1.00  0.00     0.028 C 
HETATM   17  C20 UNL     1       5.576   4.309   0.501  1.00  0.00     0.167 C 
HETATM   18  O5  UNL     1       6.764   3.554   0.420  1.00  0.00    -0.391 OA
HETATM   19  C21 UNL     1       6.832   2.623   1.465  1.00  0.00     0.167 C 
HETATM   20  C22 UNL     1       7.101   1.233   0.950  1.00  0.00     0.026 C 
HETATM   21  C23 UNL     1       6.003   0.315   1.439  1.00  0.00     0.002 C 
HETATM   22  C24 UNL     1       6.409  -1.099   1.177  1.00  0.00     0.000 C 
HETATM   23  C25 UNL     1       5.326  -2.102   1.416  1.00  0.00     0.002 C 
HETATM   24  C26 UNL     1       3.961  -1.583   1.006  1.00  0.00     0.026 C 
HETATM   25  C27 UNL     1       2.988  -2.730   0.916  1.00  0.00     0.169 C 
HETATM   26  O6  UNL     1       1.783  -2.293   0.443  1.00  0.00    -0.368 OA
HETATM   27  C28 UNL     1       1.411  -2.818  -0.767  1.00  0.00     0.162 A 
HETATM   28  C29 UNL     1       2.459  -2.960  -1.826  1.00  0.00     0.171 A 
HETATM   29  N5  UNL     1       2.313  -4.389  -1.886  1.00  0.00    -0.355 N 
ATOM     30  H5  UNL     1       2.708  -5.137  -2.455  1.00  0.00     0.162 HD
HETATM   31  C30 UNL     1       1.386  -4.314  -0.816  1.00  0.00     0.254 A 
HETATM   32  O7  UNL     1       0.770  -5.170  -0.151  1.00  0.00    -0.270 OA
HETATM   33  C31 UNL     1      -2.184   0.405  -0.971  1.00  0.00     0.239 C 
HETATM   34  O8  UNL     1      -2.170   1.692  -0.837  1.00  0.00    -0.272 OA
ENDROOT
BRANCH   1  35
HETATM   35  C4  UNL     1      -4.634   0.636  -0.791  1.00  0.00     0.110 C 
BRANCH  35  36
HETATM   36  N2  UNL     1      -4.867   0.344   0.595  1.00  0.00    -0.354 N 
HETATM   37  C3  UNL     1      -6.272   0.581   0.923  1.00  0.00     0.158 C 
HETATM   38  C2  UNL     1      -6.481   1.240   2.242  1.00  0.00     0.292 C 
HETATM   39  N1  UNL     1      -5.812   0.345   3.203  1.00  0.00     0.090 N 
HETATM   40  C1  UNL     1      -6.198   0.736   4.523  1.00  0.00     0.310 C 
HETATM   41  C33 UNL     1      -4.423   0.549   3.007  1.00  0.00     0.316 C 
HETATM   42  C32 UNL     1      -3.977   0.770   1.578  1.00  0.00     0.094 C 
ENDBRANCH  35  36
BRANCH  35  43
HETATM   43  C5  UNL     1      -4.815   2.036  -1.135  1.00  0.00     0.224 C 
HETATM   44  O1  UNL     1      -5.047   2.942  -0.269  1.00  0.00    -0.643 OA
HETATM   45  O2  UNL     1      -4.754   2.501  -2.428  1.00  0.00    -0.643 OA
ENDBRANCH  35  43
ENDBRANCH   1  35
BRANCH   1  46
HETATM   46  C7  UNL     1      -3.544   0.349  -2.894  1.00  0.00     0.023 C 
HETATM   47  C8  UNL     1      -4.390  -0.225  -3.726  1.00  0.00     0.129 C 
BRANCH  47  48
HETATM   48  O3  UNL     1      -4.459   0.177  -5.052  1.00  0.00    -0.373 OA
ATOM     49  H3  UNL     1      -5.069  -0.237  -5.652  1.00  0.00     0.216 HD
ENDBRANCH  47  48
ENDBRANCH   1  46
TORSDOF 5
