REMARK  8 active torsions:
REMARK  status: ('A' for Active; 'I' for Inactive)
REMARK    1  A    between atoms: N2_6  and  C4_7 
REMARK    2  A    between atoms: C4_7  and  O2_8 
REMARK    3  A    between atoms: C4_7  and  C5_10 
REMARK    4  A    between atoms: N3_26  and  C21_27 
REMARK    5  A    between atoms: C23_29  and  S1_30 
REMARK    6  A    between atoms: S1_30  and  N4_33 
REMARK       I    between atoms: N4_33  and  C24_34 
REMARK       I    between atoms: C24_34  and  N5_36 
REMARK    7  A    between atoms: N5_36  and  N6_38 
REMARK    8  A    between atoms: C28_45  and  C29_46 
ROOT
HETATM    1  C1  UNL     1      -5.792   2.240   0.699  1.00  0.00     0.153 C 
HETATM    2  N1  UNL     1      -4.502   1.920   1.363  1.00  0.00    -0.349 N 
HETATM    3  C2  UNL     1      -4.637   1.201   2.580  1.00  0.00     0.238 C 
HETATM    4  O1  UNL     1      -5.732   1.312   3.201  1.00  0.00    -0.272 OA
HETATM    5  C3  UNL     1      -3.636   0.303   3.255  1.00  0.00     0.232 C 
HETATM    6  N2  UNL     1      -2.893  -0.287   2.094  1.00  0.00    -0.332 N 
HETATM    7  C11 UNL     1      -1.852   0.460   1.521  1.00  0.00     0.079 C 
HETATM    8  C12 UNL     1      -2.266   1.356   0.399  1.00  0.00     0.098 C 
HETATM    9  C13 UNL     1      -1.120   2.210   0.014  1.00  0.00     0.036 A 
HETATM   10  C14 UNL     1      -1.281   3.427   0.700  1.00  0.00    -0.020 A 
HETATM   11  C15 UNL     1      -0.254   4.269   0.393  1.00  0.00    -0.001 A 
HETATM   12  C16 UNL     1       0.030   5.572   0.810  1.00  0.00     0.014 A 
HETATM   13  C17 UNL     1       1.153   6.193   0.331  1.00  0.00     0.001 A 
HETATM   14  C18 UNL     1       1.967   5.505  -0.552  1.00  0.00     0.002 A 
HETATM   15  C19 UNL     1       1.685   4.219  -0.963  1.00  0.00     0.031 A 
HETATM   16  C20 UNL     1       0.563   3.601  -0.482  1.00  0.00     0.050 A 
HETATM   17  N3  UNL     1       0.010   2.364  -0.689  1.00  0.00    -0.312 N 
HETATM   18  C30 UNL     1      -2.525   3.389   1.526  1.00  0.00     0.068 C 
HETATM   19  C31 UNL     1      -3.315   2.356   0.743  1.00  0.00     0.105 C 
ENDROOT
BRANCH  17  20
HETATM   20  C21 UNL     1       0.624   1.420  -1.556  1.00  0.00     0.054 A 
HETATM   21  C22 UNL     1       1.903   0.918  -1.267  1.00  0.00     0.057 A 
HETATM   22  C23 UNL     1       2.562   0.026  -2.065  1.00  0.00     0.095 A 
HETATM   23  C26 UNL     1       1.887  -0.389  -3.225  1.00  0.00     0.027 A 
HETATM   24  C27 UNL     1       0.637   0.099  -3.511  1.00  0.00     0.018 A 
HETATM   25  C28 UNL     1      -0.029   1.017  -2.688  1.00  0.00     0.029 A 
BRANCH  22  26
HETATM   26  S1  UNL     1       4.192  -0.511  -1.805  1.00  0.00     0.329 S 
HETATM   27  O3  UNL     1       4.768  -0.927  -3.164  1.00  0.00    -0.186 OA
HETATM   28  O4  UNL     1       5.063   0.722  -1.447  1.00  0.00    -0.186 OA
BRANCH  26  29
HETATM   29  N4  UNL     1       4.475  -1.754  -0.735  1.00  0.00    -0.259 NA
HETATM   30  C24 UNL     1       4.696  -2.727   0.103  1.00  0.00     0.423 C 
HETATM   31  O5  UNL     1       4.421  -2.864   1.347  1.00  0.00    -0.228 OA
HETATM   32  N5  UNL     1       5.388  -3.944  -0.377  1.00  0.00    -0.237 N 
ATOM     33  H5  UNL     1       5.676  -3.988  -1.355  1.00  0.00     0.193 HD
BRANCH  32  34
HETATM   34  N6  UNL     1       5.659  -5.014   0.434  1.00  0.00    -0.271 N 
HETATM   35  C25 UNL     1       6.729  -5.159   1.143  1.00  0.00     0.215 C 
HETATM   36  N7  UNL     1       7.713  -4.143   1.092  1.00  0.00    -0.065 NA
HETATM   37  N8  UNL     1       6.954  -6.293   1.951  1.00  0.00    -0.065 NA
ATOM     38  H6  UNL     1       4.960  -5.755   0.482  1.00  0.00     0.189 HD
ENDBRANCH  32  34
ENDBRANCH  26  29
ENDBRANCH  22  26
BRANCH  25  39
HETATM   39  C29 UNL     1      -1.333   1.520  -3.111  1.00  0.00     0.272 C 
HETATM   40  O6  UNL     1      -1.846   1.080  -4.159  1.00  0.00    -0.301 OA
ENDBRANCH  25  39
ENDBRANCH  17  20
BRANCH   6  41
HETATM   41  C4  UNL     1      -3.422  -1.515   1.715  1.00  0.00     0.152 C 
BRANCH  41  42
HETATM   42  O2  UNL     1      -4.450  -1.919   2.468  1.00  0.00    -0.345 OA
ATOM     43  H2  UNL     1      -4.812  -2.758   2.209  1.00  0.00     0.219 HD
ENDBRANCH  41  42
BRANCH  41  44
HETATM   44  C5  UNL     1      -3.127  -2.463   0.692  1.00  0.00     0.015 A 
HETATM   45  C6  UNL     1      -2.119  -2.351  -0.214  1.00  0.00     0.016 A 
HETATM   46  C7  UNL     1      -1.897  -3.307  -1.222  1.00  0.00     0.001 A 
HETATM   47  C8  UNL     1      -2.689  -4.401  -1.337  1.00  0.00     0.000 A 
HETATM   48  C9  UNL     1      -3.719  -4.551  -0.437  1.00  0.00     0.001 A 
HETATM   49  C10 UNL     1      -3.922  -3.606   0.542  1.00  0.00     0.016 A 
ENDBRANCH  41  44
ENDBRANCH   6  41
TORSDOF 8
