REMARK  9 active torsions:
REMARK  status: ('A' for Active; 'I' for Inactive)
REMARK    1  A    between atoms: C2_2  and  S1_4 
REMARK    2  A    between atoms: S1_4  and  N1_7 
REMARK    3  A    between atoms: C4_10  and  C5_11 
REMARK    4  A    between atoms: C10_16  and  N3_17 
REMARK       I    between atoms: N3_17  and  C11_19 
REMARK    5  A    between atoms: C11_19  and  C12_21 
REMARK    6  A    between atoms: C16_25  and  N4_26 
REMARK    7  A    between atoms: N4_26  and  C17_28 
REMARK    8  A    between atoms: C17_28  and  O4_29 
REMARK    9  A    between atoms: C17_28  and  N5_31 
ROOT
HETATM    1  C12 UNL     1      -0.095   0.898  -0.360  1.00  0.00     0.034 A 
HETATM    2  C13 UNL     1       0.392  -0.263   0.146  1.00  0.00     0.018 A 
HETATM    3  C14 UNL     1       1.712  -0.384   0.589  1.00  0.00     0.018 A 
HETATM    4  C15 UNL     1       2.537   0.705   0.509  1.00  0.00     0.037 A 
HETATM    5  C16 UNL     1       3.833   0.940   0.891  1.00  0.00     0.135 A 
HETATM    6  N7  UNL     1       4.096   2.236   0.607  1.00  0.00    -0.284 N 
ATOM      7  H7  UNL     1       4.982   2.712   0.778  1.00  0.00     0.188 HD
HETATM    8  N8  UNL     1       3.027   2.781   0.076  1.00  0.00    -0.298 N 
ATOM      9  H8  UNL     1       2.966   3.752  -0.229  1.00  0.00     0.187 HD
HETATM   10  C23 UNL     1       2.028   1.895  -0.013  1.00  0.00     0.063 A 
HETATM   11  C24 UNL     1       0.709   1.992  -0.449  1.00  0.00     0.049 A 
ENDROOT
BRANCH   1  12
HETATM   12  C11 UNL     1      -1.513   1.020  -0.742  1.00  0.00     0.257 C 
HETATM   13  N3  UNL     1      -2.448   0.090  -0.509  1.00  0.00    -0.307 N 
ATOM     14  H3  UNL     1      -1.889  -0.672  -0.125  1.00  0.00     0.170 HD
HETATM   15  O3  UNL     1      -1.771   2.122  -1.329  1.00  0.00    -0.267 OA
BRANCH  13  16
HETATM   16  C10 UNL     1      -3.571  -0.390  -0.482  1.00  0.00     0.143 A 
HETATM   17  N1  UNL     1      -4.781   0.054  -0.845  1.00  0.00    -0.164 N 
HETATM   18  N2  UNL     1      -5.658  -0.924  -0.641  1.00  0.00    -0.286 N 
HETATM   19  C4  UNL     1      -5.069  -2.018  -0.145  1.00  0.00     0.038 A 
ATOM     20  H2  UNL     1      -6.656  -0.850  -0.838  1.00  0.00     0.188 HD
HETATM   21  C9  UNL     1      -3.755  -1.749  -0.019  1.00  0.00     0.078 A 
BRANCH  17  22
HETATM   22  S1  UNL     1      -5.219   1.659  -1.404  1.00  0.00     0.255 S 
HETATM   23  O1  UNL     1      -4.671   1.971  -2.750  1.00  0.00    -0.203 OA
HETATM   24  O2  UNL     1      -6.744   1.641  -1.612  1.00  0.00    -0.203 OA
BRANCH  22  25
HETATM   25  C2  UNL     1      -4.954   2.890  -0.181  1.00  0.00     0.123 C 
HETATM   26  C1  UNL     1      -6.039   2.988   0.844  1.00  0.00     0.027 C 
HETATM   27  C3  UNL     1      -4.843   4.227  -0.935  1.00  0.00     0.027 C 
ENDBRANCH  22  25
ENDBRANCH  17  22
BRANCH  19  28
HETATM   28  C5  UNL     1      -5.734  -3.312   0.226  1.00  0.00    -0.007 C 
HETATM   29  C6  UNL     1      -7.233  -3.141   0.304  1.00  0.00     0.021 C 
HETATM   30  C7  UNL     1      -5.269  -3.763   1.600  1.00  0.00     0.021 C 
HETATM   31  C8  UNL     1      -5.431  -4.411  -0.763  1.00  0.00     0.021 C 
ENDBRANCH  19  28
ENDBRANCH  13  16
ENDBRANCH   1  12
BRANCH   5  32
HETATM   32  N4  UNL     1       4.689   0.089   1.404  1.00  0.00    -0.306 N 
ATOM     33  H4  UNL     1       4.407  -0.881   1.549  1.00  0.00     0.171 HD
BRANCH  32  34
HETATM   34  C17 UNL     1       5.975   0.488   1.753  1.00  0.00     0.236 C 
BRANCH  34  35
HETATM   35  O4  UNL     1       5.992   1.232   2.834  1.00  0.00    -0.332 OA
ATOM     36  H4  UNL     1       6.870   1.505   3.072  1.00  0.00     0.221 HD
ENDBRANCH  34  35
BRANCH  34  37
HETATM   37  N5  UNL     1       7.191   0.203   1.115  1.00  0.00    -0.195 N 
HETATM   38  C18 UNL     1       8.483   0.700   1.572  1.00  0.00     0.333 C 
HETATM   39  O5  UNL     1       8.613   1.428   2.604  1.00  0.00    -0.246 OA
HETATM   40  N6  UNL     1       9.469   0.228   0.683  1.00  0.00    -0.325 N 
HETATM   41  C19 UNL     1       8.869  -0.440  -0.446  1.00  0.00     0.109 C 
ATOM     42  H6  UNL     1      10.473   0.343   0.820  1.00  0.00     0.165 HD
HETATM   43  C20 UNL     1       9.451  -1.836  -0.627  1.00  0.00     0.049 C 
HETATM   44  C21 UNL     1       8.955   0.401  -1.705  1.00  0.00     0.049 C 
HETATM   45  C22 UNL     1       7.457  -0.558  -0.038  1.00  0.00     0.263 C 
HETATM   46  O6  UNL     1       6.585  -1.262  -0.657  1.00  0.00    -0.270 OA
ENDBRANCH  34  37
ENDBRANCH  32  34
ENDBRANCH   5  32
TORSDOF 9
