REMARK  8 active torsions:
REMARK  status: ('A' for Active; 'I' for Inactive)
REMARK       I    between atoms: C1_2  and  N1_3 
REMARK    1  A    between atoms: C1_2  and  C11_18 
REMARK    2  A    between atoms: N1_3  and  C2_5 
REMARK    3  A    between atoms: C7_10  and  O2_11 
REMARK    4  A    between atoms: C10_15  and  O3_16 
REMARK       I    between atoms: N2_22  and  C15_23 
REMARK    5  A    between atoms: C15_23  and  C16_25 
REMARK       I    between atoms: N3_29  and  C20_30 
REMARK       I    between atoms: C20_30  and  N4_32 
REMARK    6  A    between atoms: N5_35  and  C23_36 
REMARK    7  A    between atoms: C26_39  and  C27_40 
REMARK    8  A    between atoms: C27_40  and  O6_41 
ROOT
HETATM    1  C16 UNL     1       0.894   0.456   1.165  1.00  0.00     0.181 C 
HETATM    2  C17 UNL     1       0.362   1.627   1.913  1.00  0.00     0.037 C 
HETATM    3  C18 UNL     1      -0.626   0.891   2.850  1.00  0.00     0.022 C 
HETATM    4  C19 UNL     1      -0.904  -0.467   2.144  1.00  0.00     0.129 C 
HETATM    5  N3  UNL     1      -0.344  -0.205   0.803  1.00  0.00    -0.321 N 
HETATM    6  C20 UNL     1      -0.943  -0.379  -0.411  1.00  0.00     0.321 C 
HETATM    7  O5  UNL     1      -0.456   0.331  -1.385  1.00  0.00    -0.247 OA
HETATM    8  N4  UNL     1      -2.020  -1.219  -0.776  1.00  0.00    -0.331 N 
HETATM    9  C21 UNL     1      -2.572  -2.289   0.018  1.00  0.00     0.147 C 
HETATM   10  C22 UNL     1      -4.029  -2.203   0.316  1.00  0.00     0.143 C 
HETATM   11  N5  UNL     1      -4.706  -1.419  -0.678  1.00  0.00    -0.378 N 
HETATM   12  C34 UNL     1      -4.188  -1.260  -1.997  1.00  0.00     0.143 C 
HETATM   13  C35 UNL     1      -2.730  -0.996  -2.050  1.00  0.00     0.147 C 
ENDROOT
BRANCH   1  14
HETATM   14  C15 UNL     1       1.909   0.624   0.173  1.00  0.00     0.243 C 
HETATM   15  N2  UNL     1       2.736  -0.519  -0.141  1.00  0.00    -0.337 N 
HETATM   16  C11 UNL     1       3.863  -0.610  -1.048  1.00  0.00     0.179 C 
HETATM   17  C14 UNL     1       2.564  -1.823   0.446  1.00  0.00     0.127 C 
HETATM   18  C12 UNL     1       3.919  -2.056  -1.466  1.00  0.00     0.037 C 
HETATM   19  C13 UNL     1       2.810  -2.754  -0.713  1.00  0.00     0.022 C 
HETATM   20  O4  UNL     1       2.121   1.693  -0.421  1.00  0.00    -0.271 OA
BRANCH  16  21
HETATM   21  C1  UNL     1       5.053  -0.205  -0.265  1.00  0.00     0.241 C 
HETATM   22  O1  UNL     1       4.888   0.061   0.956  1.00  0.00    -0.271 OA
HETATM   23  N1  UNL     1       6.372  -0.093  -0.796  1.00  0.00    -0.351 N 
ATOM     24  H1  UNL     1       6.543  -0.309  -1.778  1.00  0.00     0.163 HD
BRANCH  23  25
HETATM   25  C2  UNL     1       7.454   0.319   0.039  1.00  0.00     0.123 C 
HETATM   26  C3  UNL     1       8.697  -0.531  -0.032  1.00  0.00     0.014 C 
HETATM   27  C4  UNL     1       9.228  -0.167  -1.419  1.00  0.00     0.014 C 
HETATM   28  C8  UNL     1       9.656  -0.030   1.029  1.00  0.00     0.044 C 
HETATM   29  C5  UNL     1       9.183   1.360  -1.320  1.00  0.00     0.025 C 
HETATM   30  C6  UNL     1      10.445   1.733  -0.526  1.00  0.00     0.045 C 
HETATM   31  C10 UNL     1       8.034   1.675  -0.402  1.00  0.00     0.085 C 
HETATM   32  C7  UNL     1       9.953   1.428   0.888  1.00  0.00     0.061 C 
HETATM   33  C9  UNL     1       8.653   2.246   0.868  1.00  0.00     0.078 C 
BRANCH  32  34
HETATM   34  O2  UNL     1      10.824   1.855   1.855  1.00  0.00    -0.390 OA
ATOM     35  H2  UNL     1      10.518   1.665   2.734  1.00  0.00     0.210 HD
ENDBRANCH  32  34
BRANCH  31  36
HETATM   36  O3  UNL     1       7.095   2.497  -0.951  1.00  0.00    -0.387 OA
ATOM     37  H3  UNL     1       7.453   3.334  -1.223  1.00  0.00     0.210 HD
ENDBRANCH  31  36
ENDBRANCH  23  25
ENDBRANCH  16  21
ENDBRANCH   1  14
BRANCH  11  38
HETATM   38  C23 UNL     1      -5.985  -0.839  -0.288  1.00  0.00     0.030 A 
HETATM   39  C24 UNL     1      -6.393   0.420  -0.621  1.00  0.00     0.030 A 
HETATM   40  C25 UNL     1      -7.649   0.910  -0.241  1.00  0.00     0.012 A 
HETATM   41  C26 UNL     1      -8.511   0.127   0.487  1.00  0.00    -0.024 A 
HETATM   42  C32 UNL     1      -8.094  -1.143   0.824  1.00  0.00     0.012 A 
HETATM   43  C33 UNL     1      -6.856  -1.624   0.447  1.00  0.00     0.030 A 
BRANCH  41  44
HETATM   44  C27 UNL     1      -9.877   0.572   0.923  1.00  0.00     0.085 C 
HETATM   45  C28 UNL     1     -10.032   2.056   0.951  1.00  0.00     0.043 C 
HETATM   46  C29 UNL     1     -10.767   2.415  -0.316  1.00  0.00     0.004 C 
HETATM   47  C30 UNL     1     -11.465   1.195  -0.826  1.00  0.00     0.004 C 
HETATM   48  C31 UNL     1     -10.888   0.053  -0.075  1.00  0.00     0.043 C 
BRANCH  44  49
HETATM   49  O6  UNL     1     -10.132  -0.022   2.159  1.00  0.00    -0.385 OA
ATOM     50  H6  UNL     1     -10.996   0.260   2.435  1.00  0.00     0.211 HD
ENDBRANCH  44  49
ENDBRANCH  41  44
ENDBRANCH  11  38
TORSDOF 8
