REMARK  10 active torsions:
REMARK  status: ('A' for Active; 'I' for Inactive)
REMARK    1  A    between atoms: O1_2  and  C2_3 
REMARK    2  A    between atoms: C4_5  and  C5_6 
REMARK    3  A    between atoms: C6_7  and  O2_8 
REMARK    4  A    between atoms: O2_8  and  C7_9 
REMARK    5  A    between atoms: C7_9  and  C8_10 
REMARK    6  A    between atoms: C15_17  and  O3_18 
REMARK    7  A    between atoms: C17_20  and  O4_21 
REMARK    8  A    between atoms: C21_25  and  O5_26 
REMARK    9  A    between atoms: C24_30  and  O6_31 
REMARK   10  A    between atoms: C33_43  and  O7_44 
ROOT
HETATM    1  C8  UNL     1      -0.015  -0.839  -0.389  1.00  0.00     0.001 A 
HETATM    2  C9  UNL     1       0.588  -1.203  -1.728  1.00  0.00     0.014 A 
HETATM    3  C10 UNL     1      -0.056   0.051  -2.268  1.00  0.00     0.015 A 
HETATM    4  C11 UNL     1      -0.655   0.288  -0.894  1.00  0.00     0.012 A 
HETATM    5  C12 UNL     1      -1.513  -0.779  -0.341  1.00  0.00     0.032 A 
HETATM    6  C13 UNL     1      -2.398  -1.199  -1.457  1.00  0.00    -0.021 C 
HETATM    7  C14 UNL     1      -3.721  -1.237  -1.342  1.00  0.00     0.010 C 
HETATM    8  C15 UNL     1      -4.518  -0.892  -0.144  1.00  0.00     0.110 C 
HETATM    9  C17 UNL     1      -6.016  -0.816  -0.570  1.00  0.00     0.160 C 
HETATM   10  C19 UNL     1      -6.072   0.628  -0.223  1.00  0.00     0.047 C 
HETATM   11  C20 UNL     1      -4.659   0.431   0.362  1.00  0.00     0.067 C 
HETATM   12  C21 UNL     1      -3.842   1.610   0.118  1.00  0.00     0.082 C 
HETATM   13  C22 UNL     1      -3.371   1.946  -1.203  1.00  0.00     0.010 C 
HETATM   14  C23 UNL     1      -2.131   1.977  -1.560  1.00  0.00     0.010 C 
HETATM   15  C24 UNL     1      -1.042   1.652  -0.598  1.00  0.00     0.085 C 
HETATM   16  C25 UNL     1      -1.446   2.032   0.760  1.00  0.00     0.046 C 
HETATM   17  C26 UNL     1      -2.822   1.778   1.213  1.00  0.00     0.046 C 
ENDROOT
BRANCH   1  18
HETATM   18  C7  UNL     1       0.770  -1.007   0.879  1.00  0.00     0.187 C 
BRANCH  18  19
HETATM   19  O2  UNL     1       1.929  -0.206   0.801  1.00  0.00    -0.348 OA
BRANCH  19  20
HETATM   20  C6  UNL     1       2.876  -0.102   1.825  1.00  0.00     0.099 A 
HETATM   21  C5  UNL     1       4.192  -0.250   1.672  1.00  0.00    -0.004 A 
HETATM   22  C29 UNL     1       4.812  -0.069   3.005  1.00  0.00     0.065 A 
HETATM   23  C28 UNL     1       3.678   0.204   3.898  1.00  0.00     0.044 A 
HETATM   24  C30 UNL     1       5.829   1.055   3.054  1.00  0.00     0.021 C 
HETATM   25  C27 UNL     1       2.554   0.183   3.218  1.00  0.00     0.086 A 
HETATM   26 CL2  UNL     1       3.860   0.507   5.635  1.00  0.00    -0.086 Cl
HETATM   27 CL1  UNL     1       0.965   0.467   3.930  1.00  0.00    -0.080 Cl
BRANCH  21  28
HETATM   28  C4  UNL     1       4.872  -0.549   0.405  1.00  0.00    -0.024 A 
HETATM   29  C3  UNL     1       5.992   0.100  -0.046  1.00  0.00     0.051 A 
HETATM   30  C2  UNL     1       6.618  -0.237  -1.238  1.00  0.00     0.102 A 
HETATM   31  C33 UNL     1       6.118  -1.245  -2.002  1.00  0.00     0.099 A 
HETATM   32  C32 UNL     1       4.993  -1.922  -1.583  1.00  0.00     0.040 A 
HETATM   33  C31 UNL     1       4.384  -1.564  -0.383  1.00  0.00     0.015 A 
BRANCH  30  34
HETATM   34  O1  UNL     1       7.752   0.430  -1.681  1.00  0.00    -0.353 OA
HETATM   35  C1  UNL     1       8.261   1.473  -0.884  1.00  0.00     0.210 C 
ENDBRANCH  30  34
BRANCH  31  36
HETATM   36  O7  UNL     1       6.724  -1.612  -3.210  1.00  0.00    -0.358 OA
ATOM     37  H7  UNL     1       6.375  -2.316  -3.744  1.00  0.00     0.217 HD
ENDBRANCH  31  36
ENDBRANCH  21  28
ENDBRANCH  19  20
ENDBRANCH  18  19
ENDBRANCH   1  18
BRANCH  15  38
HETATM   38  O6  UNL     1       0.092   2.478  -0.914  1.00  0.00    -0.385 OA
ATOM     39  H6  UNL     1      -0.162   3.373  -0.720  1.00  0.00     0.211 HD
ENDBRANCH  15  38
BRANCH   8  40
HETATM   40  O3  UNL     1      -4.446  -1.952   0.785  1.00  0.00    -0.378 OA
HETATM   41  C16 UNL     1      -4.978  -1.775   1.999  1.00  0.00     0.203 C 
ENDBRANCH   8  40
BRANCH  12  42
HETATM   42  O5  UNL     1      -4.774   2.697   0.380  1.00  0.00    -0.385 OA
ATOM     43  H5  UNL     1      -4.241   3.467   0.221  1.00  0.00     0.211 HD
ENDBRANCH  12  42
BRANCH   9  44
HETATM   44  O4  UNL     1      -6.877  -1.663   0.023  1.00  0.00    -0.387 OA
HETATM   45  C18 UNL     1      -7.656  -2.443  -0.793  1.00  0.00     0.202 C 
ENDBRANCH   9  44
TORSDOF 10
