REMARK  5 active torsions:
REMARK  status: ('A' for Active; 'I' for Inactive)
REMARK    1  A    between atoms: C2_2  and  C3_3 
REMARK    2  A    between atoms: C3_3  and  C4_4 
REMARK    3  A    between atoms: C7_8  and  N2_9 
REMARK    4  A    between atoms: C11_18  and  C12_19 
REMARK    5  A    between atoms: C12_19  and  O1_21 
ROOT
HETATM    1  C4  UNL     1      -0.826   1.153   0.275  1.00  0.00     0.065 C 
HETATM    2  C5  UNL     1      -2.212   1.454  -0.235  1.00  0.00     0.159 C 
HETATM    3  N1  UNL     1      -2.402   0.378  -1.154  1.00  0.00    -0.369 N 
HETATM    4  C6  UNL     1      -3.448  -0.495  -0.963  1.00  0.00     0.095 C 
HETATM    5  C7  UNL     1      -3.363  -1.564   0.049  1.00  0.00     0.223 C 
HETATM    6  C8  UNL     1      -2.913  -1.180   1.408  1.00  0.00     0.058 C 
HETATM    7  C9  UNL     1      -1.417  -1.153   1.593  1.00  0.00     0.127 C 
HETATM    8  N3  UNL     1      -0.720  -0.160   0.868  1.00  0.00    -0.362 N 
HETATM    9  C10 UNL     1       0.658  -0.518   0.552  1.00  0.00     0.080 A 
HETATM   10  S1  UNL     1       2.049  -1.400   1.007  1.00  0.00    -0.074 SA
HETATM   11  C11 UNL     1       3.094  -0.962  -0.261  1.00  0.00     0.013 A 
HETATM   12  C14 UNL     1       2.325  -0.127  -1.021  1.00  0.00     0.028 A 
HETATM   13  C15 UNL     1       1.054   0.103  -0.595  1.00  0.00    -0.012 A 
HETATM   14  C16 UNL     1      -0.147   0.883  -1.049  1.00  0.00     0.090 C 
HETATM   15  C17 UNL     1      -1.174  -0.057  -1.674  1.00  0.00     0.075 C 
ENDROOT
BRANCH   5  16
HETATM   16  N2  UNL     1      -2.565  -2.719  -0.370  1.00  0.00    -0.070 N 
ATOM     17  H23 UNL     1      -2.910  -3.090  -1.255  1.00  0.00     0.275 HD
ATOM     18  H22 UNL     1      -1.632  -2.424  -0.659  1.00  0.00     0.275 HD
ATOM     19  H21 UNL     1      -2.506  -3.458   0.330  1.00  0.00     0.275 HD
ENDBRANCH   5  16
BRANCH   1  20
HETATM   20  C3  UNL     1      -0.211   2.243   1.060  1.00  0.00     0.060 C 
BRANCH  20  21
HETATM   21  C2  UNL     1      -0.095   3.463   0.246  1.00  0.00    -0.034 C 
HETATM   22  C1  UNL     1       1.093   3.984   0.027  1.00  0.00     0.007 C 
ENDBRANCH  20  21
ENDBRANCH   1  20
BRANCH  11  23
HETATM   23  C12 UNL     1       4.526  -1.374  -0.518  1.00  0.00     0.154 C 
HETATM   24  C13 UNL     1       5.449  -0.618   0.394  1.00  0.00     0.045 C 
BRANCH  23  25
HETATM   25  O1  UNL     1       4.650  -2.736  -0.325  1.00  0.00    -0.391 OA
ATOM     26  H1  UNL     1       5.550  -2.995  -0.486  1.00  0.00     0.210 HD
ENDBRANCH  23  25
ENDBRANCH  11  23
TORSDOF 5
