REMARK  20 active torsions:
REMARK  status: ('A' for Active; 'I' for Inactive)
REMARK    1  A    between atoms: N1_1  and  C1_4 
REMARK    2  A    between atoms: C2_7  and  N3_8 
REMARK    3  A    between atoms: N3_8  and  C3_10 
REMARK    4  A    between atoms: C3_10  and  C4_11 
REMARK    5  A    between atoms: C4_11  and  C5_12 
REMARK    6  A    between atoms: C5_12  and  C6_13 
REMARK    7  A    between atoms: C6_13  and  C7_14 
REMARK    8  A    between atoms: C7_14  and  C8_15 
REMARK    9  A    between atoms: C8_15  and  C9_16 
REMARK   10  A    between atoms: C9_16  and  C10_17 
REMARK   11  A    between atoms: C10_17  and  O1_18 
REMARK   12  A    between atoms: N4_20  and  O2_22 
REMARK   13  A    between atoms: C11_26  and  C12_27 
REMARK   14  A    between atoms: C12_27  and  C13_28 
REMARK   15  A    between atoms: C13_28  and  C14_29 
REMARK   16  A    between atoms: C14_29  and  C15_30 
REMARK       I    between atoms: C15_30  and  N6_32 
REMARK   17  A    between atoms: C20_37  and  C21_38 
REMARK   18  A    between atoms: C22_39  and  C23_40 
REMARK   19  A    between atoms: C23_40  and  C24_41 
REMARK   20  A    between atoms: C24_41  and  O4_42 
ROOT
HETATM    1  C1  UNL     1      -0.538  -3.238   0.528  1.00  0.00     0.135 A 
HETATM    2  N2  UNL     1       0.646  -2.727   0.952  1.00  0.00    -0.176 N 
ATOM      3  H2  UNL     1       1.364  -3.325   1.361  1.00  0.00     0.186 HD
HETATM    4  C2  UNL     1       0.836  -1.409   0.814  1.00  0.00     0.679 A 
HETATM    5  N5  UNL     1      -0.078  -0.572   0.282  1.00  0.00    -0.194 N 
ATOM      6  H5  UNL     1       0.125   0.425   0.204  1.00  0.00     0.184 HD
HETATM    7  C11 UNL     1      -1.267  -1.060  -0.148  1.00  0.00     0.049 A 
HETATM    8  C20 UNL     1      -1.491  -2.406  -0.020  1.00  0.00     0.085 A 
ENDROOT
BRANCH   4   9
HETATM    9  N3  UNL     1       1.957  -0.865   1.208  1.00  0.00    -0.226 N 
ATOM     10  H3  UNL     1       2.078   0.141   1.094  1.00  0.00     0.177 HD
BRANCH   9  11
HETATM   11  C3  UNL     1       3.022  -1.621   1.793  1.00  0.00     0.138 C 
BRANCH  11  12
HETATM   12  C4  UNL     1       4.271  -0.759   1.825  1.00  0.00     0.020 C 
BRANCH  12  13
HETATM   13  C5  UNL     1       4.681  -0.334   0.434  1.00  0.00     0.002 C 
BRANCH  13  14
HETATM   14  C6  UNL     1       5.931   0.519   0.569  1.00  0.00     0.000 C 
BRANCH  14  15
HETATM   15  C7  UNL     1       6.338   0.937  -0.812  1.00  0.00     0.000 C 
BRANCH  15  16
HETATM   16  C8  UNL     1       7.590   1.809  -0.821  1.00  0.00     0.008 C 
BRANCH  16  17
HETATM   17  C9  UNL     1       8.761   1.121  -0.232  1.00  0.00     0.086 C 
BRANCH  17  18
HETATM   18  C10 UNL     1       9.961   1.972  -0.253  1.00  0.00     0.135 C 
HETATM   19  N4  UNL     1      10.065   3.134  -0.732  1.00  0.00    -0.251 N 
ATOM     20  H4  UNL     1      10.993   3.546  -0.640  1.00  0.00     0.196 HD
BRANCH  18  21
HETATM   21  O1  UNL     1      11.175   1.479   0.319  1.00  0.00    -0.348 OA
ATOM     22  H1  UNL     1      11.950   2.028   0.305  1.00  0.00     0.219 HD
ENDBRANCH  18  21
BRANCH  19  23
HETATM   23  O2  UNL     1       9.171   3.918  -1.339  1.00  0.00    -0.288 OA
ATOM     24  H2  UNL     1       9.249   4.793  -1.700  1.00  0.00     0.244 HD
ENDBRANCH  19  23
ENDBRANCH  17  18
ENDBRANCH  16  17
ENDBRANCH  15  16
ENDBRANCH  14  15
ENDBRANCH  13  14
ENDBRANCH  12  13
ENDBRANCH  11  12
ENDBRANCH   9  11
ENDBRANCH   4   9
BRANCH   1  25
HETATM   25  N1  UNL     1      -0.756  -4.520   0.646  1.00  0.00    -0.384 N 
ATOM     26  H12 UNL     1      -0.051  -5.136   1.051  1.00  0.00     0.157 HD
ATOM     27  H11 UNL     1      -1.646  -4.904   0.327  1.00  0.00     0.157 HD
ENDBRANCH   1  25
BRANCH   7  28
HETATM   28  C12 UNL     1      -2.249  -0.118  -0.725  1.00  0.00     0.060 C 
BRANCH  28  29
HETATM   29  C13 UNL     1      -3.358   0.195   0.258  1.00  0.00     0.015 C 
BRANCH  29  30
HETATM   30  C14 UNL     1      -4.337   1.157  -0.360  1.00  0.00     0.103 C 
BRANCH  30  31
HETATM   31  C15 UNL     1      -5.433   1.476   0.586  1.00  0.00     0.219 C 
HETATM   32  O3  UNL     1      -5.434   0.920   1.717  1.00  0.00    -0.273 OA
HETATM   33  N6  UNL     1      -6.434   2.388   0.188  1.00  0.00    -0.352 N 
HETATM   34  C16 UNL     1      -7.555   2.781   1.016  1.00  0.00     0.126 C 
HETATM   35  C19 UNL     1      -6.526   3.086  -1.082  1.00  0.00     0.126 C 
HETATM   36  C17 UNL     1      -8.150   4.011   0.416  1.00  0.00     0.021 C 
HETATM   37  C18 UNL     1      -7.205   4.388  -0.688  1.00  0.00     0.021 C 
ENDBRANCH  30  31
ENDBRANCH  29  30
ENDBRANCH  28  29
ENDBRANCH   7  28
BRANCH   8  38
HETATM   38  C21 UNL     1      -2.718  -2.970  -0.457  1.00  0.00    -0.061 C 
HETATM   39  C22 UNL     1      -3.761  -3.463  -0.819  1.00  0.00    -0.099 C 
BRANCH  39  40
HETATM   40  C23 UNL     1      -5.026  -4.039  -1.237  1.00  0.00     0.120 C 
BRANCH  40  41
HETATM   41  C24 UNL     1      -5.171  -5.463  -0.737  1.00  0.00     0.176 C 
BRANCH  41  42
HETATM   42  O4  UNL     1      -4.119  -6.197  -1.274  1.00  0.00    -0.400 OA
ATOM     43  H4  UNL     1      -4.210  -7.089  -0.961  1.00  0.00     0.209 HD
ENDBRANCH  41  42
ENDBRANCH  40  41
ENDBRANCH  39  40
ENDBRANCH   8  38
TORSDOF 20
