REMARK  3 active torsions:
REMARK  status: ('A' for Active; 'I' for Inactive)
REMARK    1  A    between atoms: O1_2  and  C2_3 
REMARK    2  A    between atoms: C5_7  and  O3_8 
REMARK    3  A    between atoms: C6_12  and  O6_13 
ROOT
HETATM    1  C2  UNL     1       0.892   0.411   0.104  1.00  0.00     0.317 C 
HETATM    2  O2  UNL     1       0.079   0.939  -0.844  1.00  0.00    -0.346 OA
HETATM    3  C3  UNL     1      -1.249   0.677  -0.758  1.00  0.00     0.178 C 
HETATM    4  C4  UNL     1      -1.864   0.904   0.592  1.00  0.00     0.045 C 
HETATM    5  C5  UNL     1      -1.630  -0.696  -1.285  1.00  0.00     0.322 C 
HETATM    6  O4  UNL     1      -1.152  -1.727  -0.526  1.00  0.00    -0.203 OA
HETATM    7  O5  UNL     1       0.179  -1.738  -0.523  1.00  0.00    -0.200 OA
HETATM    8  C6  UNL     1       0.555  -0.966   0.565  1.00  0.00     0.350 C 
ENDROOT
BRANCH   1   9
HETATM    9  O1  UNL     1       2.179   0.319  -0.470  1.00  0.00    -0.361 OA
HETATM   10  C1  UNL     1       3.109   1.034   0.275  1.00  0.00     0.205 C 
ENDBRANCH   1   9
BRANCH   8  11
HETATM   11  O6  UNL     1       1.746  -1.542   1.061  1.00  0.00    -0.365 OA
ATOM     12  H6  UNL     1       1.531  -2.420   1.355  1.00  0.00     0.213 HD
ENDBRANCH   8  11
BRANCH   5  13
HETATM   13  O3  UNL     1      -3.022  -0.758  -1.285  1.00  0.00    -0.366 OA
ATOM     14  H3  UNL     1      -3.260  -1.617  -1.615  1.00  0.00     0.212 HD
ENDBRANCH   5  13
TORSDOF 3
