REMARK  3 active torsions:
REMARK  status: ('A' for Active; 'I' for Inactive)
REMARK    1  A    between atoms: C2_2  and  S1_3 
REMARK    2  A    between atoms: S1_3  and  C3_4 
REMARK    3  A    between atoms: C3_4  and  N2_8 
ROOT
HETATM    1  C3  UNL     1       0.347   0.490  -0.101  1.00  0.00     0.151 C 
HETATM    2  N1  UNL     1       0.529   1.701   0.322  1.00  0.00    -0.379 N 
ATOM      3  H11 UNL     1      -0.283   2.312   0.407  1.00  0.00     0.158 HD
ATOM      4  H12 UNL     1       1.472   2.010   0.557  1.00  0.00     0.158 HD
ENDROOT
BRANCH   1   5
HETATM    5  S1  UNL     1       1.770  -0.581  -0.250  1.00  0.00    -0.094 SA
BRANCH   5   6
HETATM    6  C2  UNL     1       3.264   0.286   0.247  1.00  0.00     0.078 C 
HETATM    7  C1  UNL     1       4.495  -0.551   0.147  1.00  0.00     0.016 C 
ENDBRANCH   5   6
ENDBRANCH   1   5
BRANCH   1   8
HETATM    8  N2  UNL     1      -0.960   0.062  -0.427  1.00  0.00    -0.284 N 
HETATM    9  C4  UNL     1      -2.159   0.695  -0.846  1.00  0.00     0.121 C 
HETATM   10  C5  UNL     1      -3.078   0.432   0.321  1.00  0.00     0.044 C 
HETATM   11  C7  UNL     1      -2.339  -0.571  -1.646  1.00  0.00     0.140 C 
HETATM   12  C6  UNL     1      -2.708  -1.047   0.531  1.00  0.00     0.116 C 
HETATM   13  N3  UNL     1      -1.641  -1.156  -0.481  1.00  0.00    -0.225 NA
ENDBRANCH   1   8
TORSDOF 3
