REMARK  4 active torsions:
REMARK  status: ('A' for Active; 'I' for Inactive)
REMARK    1  A    between atoms: C2_2  and  C3_3 
REMARK    2  A    between atoms: C3_3  and  C4_4 
REMARK       I    between atoms: C4_4  and  N1_6 
REMARK    3  A    between atoms: C7_9  and  N2_10 
REMARK    4  A    between atoms: C8_14  and  C9_15 
ROOT
HETATM    1  C4  UNL     1      -1.318  -0.555   0.102  1.00  0.00     0.220 C 
HETATM    2  O1  UNL     1      -2.070  -1.270  -0.630  1.00  0.00    -0.273 OA
HETATM    3  N1  UNL     1       0.070  -0.672  -0.025  1.00  0.00    -0.339 N 
HETATM    4  C5  UNL     1       0.753  -1.567  -0.931  1.00  0.00     0.129 C 
HETATM    5  C6  UNL     1       2.227  -1.377  -0.705  1.00  0.00     0.055 C 
HETATM    6  C7  UNL     1       2.267  -0.937   0.736  1.00  0.00     0.214 C 
HETATM    7  C8  UNL     1       1.098   0.064   0.721  1.00  0.00     0.177 C 
ENDROOT
BRANCH   7   8
HETATM    8  C9  UNL     1       1.521   1.264  -0.055  1.00  0.00     0.110 A 
HETATM    9  N3  UNL     1       2.774   1.695  -0.203  1.00  0.00    -0.280 N 
HETATM   10  N4  UNL     1       2.991   2.731  -0.894  1.00  0.00    -0.236 N 
ATOM     11  H3  UNL     1       3.547   1.195   0.236  1.00  0.00     0.189 HD
HETATM   12  N5  UNL     1       1.993   3.363  -1.452  1.00  0.00    -0.254 N 
ATOM     13  H4  UNL     1       3.944   3.073  -1.016  1.00  0.00     0.209 HD
HETATM   14  S1  UNL     1       0.670   2.432  -0.967  1.00  0.00     0.020 SA
ATOM     15  H5  UNL     1       2.009   4.202  -2.031  1.00  0.00     0.197 HD
ENDBRANCH   7   8
BRANCH   6  16
HETATM   16  N2  UNL     1       3.496  -0.367   1.163  1.00  0.00    -0.073 N 
ATOM     17  H23 UNL     1       4.265  -1.009   0.971  1.00  0.00     0.274 HD
ATOM     18  H22 UNL     1       3.753   0.409   0.553  1.00  0.00     0.274 HD
ATOM     19  H21 UNL     1       3.523  -0.069   2.138  1.00  0.00     0.274 HD
ENDBRANCH   6  16
BRANCH   1  20
HETATM   20  C3  UNL     1      -2.024   0.345   1.032  1.00  0.00     0.103 C 
BRANCH  20  21
HETATM   21  C2  UNL     1      -3.509   0.245   0.972  1.00  0.00     0.005 C 
HETATM   22  C1  UNL     1      -4.070   0.576  -0.393  1.00  0.00     0.005 C 
ENDBRANCH  20  21
ENDBRANCH   1  20
TORSDOF 4
