REMARK  3 active torsions:
REMARK  status: ('A' for Active; 'I' for Inactive)
REMARK       I    between atoms: C1_2  and  N1_3 
REMARK    1  A    between atoms: C1_2  and  C7_11 
REMARK    2  A    between atoms: N1_3  and  C2_5 
REMARK    3  A    between atoms: N3_15  and  C9_16 
ROOT
HETATM    1  C7  UNL     1       0.796  -1.132   0.030  1.00  0.00     0.134 A 
HETATM    2  C8  UNL     1       1.673  -2.172   0.202  1.00  0.00     0.145 A 
HETATM    3  N2  UNL     1       2.930  -1.714   0.192  1.00  0.00    -0.293 N 
ATOM      4  H2  UNL     1       3.786  -2.259   0.298  1.00  0.00     0.187 HD
HETATM    5  N3  UNL     1       2.832  -0.410   0.016  1.00  0.00    -0.229 N 
HETATM    6  N4  UNL     1       1.578  -0.032  -0.083  1.00  0.00    -0.277 N 
ATOM      7  H4  UNL     1       1.250   0.924  -0.221  1.00  0.00     0.189 HD
ENDROOT
BRANCH   1   8
HETATM    8  C1  UNL     1      -0.667  -1.165  -0.023  1.00  0.00     0.271 C 
HETATM    9  O1  UNL     1      -1.199  -2.317   0.107  1.00  0.00    -0.266 OA
HETATM   10  N1  UNL     1      -1.441  -0.001  -0.207  1.00  0.00    -0.351 N 
ATOM     11  H1  UNL     1      -0.983   0.905  -0.308  1.00  0.00     0.163 HD
BRANCH  10  12
HETATM   12  C2  UNL     1      -2.869  -0.088  -0.252  1.00  0.00     0.088 C 
HETATM   13  C3  UNL     1      -3.519   0.839   0.783  1.00  0.00     0.051 C 
HETATM   14  C4  UNL     1      -5.013   0.557   0.716  1.00  0.00     0.169 C 
HETATM   15  O2  UNL     1      -5.347  -0.293  -0.314  1.00  0.00    -0.391 OA
HETATM   16  C5  UNL     1      -4.913   0.128  -1.554  1.00  0.00     0.169 C 
HETATM   17  C6  UNL     1      -3.419   0.381  -1.605  1.00  0.00     0.051 C 
ENDBRANCH  10  12
ENDBRANCH   1   8
BRANCH   5  18
HETATM   18  C9  UNL     1       3.959   0.477  -0.055  1.00  0.00     0.127 C 
HETATM   19  C10 UNL     1       4.404   1.010   1.302  1.00  0.00     0.029 C 
HETATM   20  C11 UNL     1       5.832   0.828   0.839  1.00  0.00     0.004 C 
HETATM   21  C12 UNL     1       5.305  -0.201  -0.160  1.00  0.00     0.029 C 
ENDBRANCH   5  18
TORSDOF 3
