REMARK  5 active torsions:
REMARK  status: ('A' for Active; 'I' for Inactive)
REMARK    1  A    between atoms: O1_1  and  C1_3 
REMARK    2  A    between atoms: C1_3  and  C2_4 
REMARK    3  A    between atoms: C2_4  and  N1_5 
REMARK    4  A    between atoms: N3_13  and  C8_14 
REMARK    5  A    between atoms: C8_14  and  C9_15 
ROOT
HETATM    1  C1  UNL     1      -1.269  -0.066   0.502  1.00  0.00     0.077 C 
HETATM    2  C6  UNL     1      -0.572   0.039  -0.812  1.00  0.00     0.070 C 
HETATM    3  C7  UNL     1       0.931   0.150  -0.716  1.00  0.00     0.276 C 
HETATM    4  N3  UNL     1       1.508  -0.813   0.166  1.00  0.00     0.094 N 
HETATM    5  C13 UNL     1       0.551  -1.663   0.808  1.00  0.00     0.276 C 
HETATM    6  C14 UNL     1      -0.487  -0.853   1.523  1.00  0.00     0.070 C 
ENDROOT
BRANCH   1   7
HETATM    7  O1  UNL     1      -1.562   1.179   1.059  1.00  0.00    -0.388 OA
ATOM      8  H1  UNL     1      -0.731   1.625   1.175  1.00  0.00     0.210 HD
ENDBRANCH   1   7
BRANCH   1   9
HETATM    9  C2  UNL     1      -2.614  -0.787   0.315  1.00  0.00     0.167 C 
BRANCH   9  10
HETATM   10  N1  UNL     1      -3.488  -0.018  -0.575  1.00  0.00    -0.349 N 
HETATM   11  C3  UNL     1      -4.365   0.932  -0.201  1.00  0.00     0.108 A 
HETATM   12  C4  UNL     1      -4.996   1.415  -1.326  1.00  0.00     0.106 A 
HETATM   13  N2  UNL     1      -4.479   0.738  -2.367  1.00  0.00    -0.361 N 
HETATM   14  C5  UNL     1      -3.558  -0.139  -1.912  1.00  0.00     0.182 A 
ATOM     15  H2  UNL     1      -4.741   0.866  -3.344  1.00  0.00     0.166 HD
ENDBRANCH   9  10
ENDBRANCH   1   9
BRANCH   4  16
HETATM   16  C8  UNL     1       2.347  -0.218   1.151  1.00  0.00     0.337 C 
BRANCH  16  17
HETATM   17  C9  UNL     1       3.518   0.514   0.607  1.00  0.00     0.080 A 
HETATM   18  C10 UNL     1       4.042   0.552  -0.661  1.00  0.00     0.036 A 
HETATM   19  C11 UNL     1       5.131   1.389  -0.611  1.00  0.00     0.027 A 
HETATM   20  C12 UNL     1       5.220   1.823   0.691  1.00  0.00     0.142 A 
HETATM   21  O2  UNL     1       4.261   1.285   1.354  1.00  0.00    -0.325 OA
ENDBRANCH  16  17
ENDBRANCH   4  16
TORSDOF 5
