REMARK  4 active torsions:
REMARK  status: ('A' for Active; 'I' for Inactive)
REMARK    1  A    between atoms: C3_7  and  C4_8 
REMARK    2  A    between atoms: C4_8  and  N3_10 
REMARK       I    between atoms: N3_10  and  C6_11 
REMARK    3  A    between atoms: N3_10  and  C10_18 
REMARK       I    between atoms: C6_11  and  N4_13 
REMARK    4  A    between atoms: N4_13  and  C7_15 
ROOT
HETATM    1  N3  UNL     1       0.079   0.998   0.294  1.00  0.00    -0.318 N 
HETATM    2  C6  UNL     1      -0.846  -0.023  -0.000  1.00  0.00     0.319 C 
HETATM    3  O1  UNL     1      -0.982  -0.395  -1.222  1.00  0.00    -0.247 OA
HETATM    4  N4  UNL     1      -1.672  -0.713   0.911  1.00  0.00    -0.339 N 
ATOM      5  H4  UNL     1      -1.608  -0.460   1.897  1.00  0.00     0.164 HD
ENDROOT
BRANCH   1   6
HETATM    6  C4  UNL     1       0.851   1.601  -0.782  1.00  0.00     0.162 C 
HETATM    7  C5  UNL     1      -0.018   2.256  -1.806  1.00  0.00     0.041 C 
BRANCH   6   8
HETATM    8  C3  UNL     1       1.720   0.607  -1.453  1.00  0.00     0.163 A 
HETATM    9  N2  UNL     1       1.850   0.513  -2.783  1.00  0.00    -0.280 N 
HETATM   10  N1  UNL     1       2.680  -0.453  -3.071  1.00  0.00    -0.282 N 
ATOM     11  H2  UNL     1       1.374   1.104  -3.465  1.00  0.00     0.189 HD
HETATM   12  C2  UNL     1       3.061  -0.954  -1.877  1.00  0.00     0.136 A 
ATOM     13  H1  UNL     1       2.976  -0.762  -3.997  1.00  0.00     0.189 HD
HETATM   14  C1  UNL     1       4.028  -2.100  -1.740  1.00  0.00     0.099 C 
HETATM   15  O2  UNL     1       2.485  -0.318  -0.907  1.00  0.00    -0.280 OA
ENDBRANCH   6   8
ENDBRANCH   1   6
BRANCH   1  16
HETATM   16  C10 UNL     1       0.273   1.451   1.628  1.00  0.00     0.090 A 
HETATM   17  C11 UNL     1       0.351   2.998   1.714  1.00  0.00     0.027 A 
HETATM   18  C12 UNL     1       1.493   2.153   2.072  1.00  0.00     0.027 A 
ENDBRANCH   1  16
BRANCH   4  19
HETATM   19  C7  UNL     1      -2.594  -1.744   0.546  1.00  0.00     0.078 C 
HETATM   20  C8  UNL     1      -2.264  -3.086   1.166  1.00  0.00     0.032 C 
HETATM   21  C9  UNL     1      -4.039  -1.355   0.818  1.00  0.00     0.032 C 
ENDBRANCH   4  19
TORSDOF 4
