REMARK  4 active torsions:
REMARK  status: ('A' for Active; 'I' for Inactive)
REMARK    1  A    between atoms: N2_6  and  C4_7 
REMARK    2  A    between atoms: C4_7  and  C5_8 
REMARK    3  A    between atoms: C5_8  and  C6_9 
REMARK       I    between atoms: C6_9  and  N3_11 
REMARK    4  A    between atoms: N3_11  and  C7_13 
ROOT
HETATM    1  C7  UNL     1      -2.403   0.580   0.386  1.00  0.00     0.122 C 
HETATM    2  C8  UNL     1      -3.157   1.709   0.949  1.00  0.00     0.091 C 
HETATM    3  N4  UNL     1      -3.759   2.605   1.386  1.00  0.00    -0.195 NA
HETATM    4  C9  UNL     1      -2.962   0.300  -0.995  1.00  0.00     0.046 C 
HETATM    5  C10 UNL     1      -4.464   0.095  -0.935  1.00  0.00     0.004 C 
HETATM    6  C11 UNL     1      -4.839  -0.866   0.177  1.00  0.00     0.000 C 
HETATM    7  C12 UNL     1      -3.618  -1.606   0.693  1.00  0.00     0.004 C 
HETATM    8  C13 UNL     1      -2.676  -0.609   1.292  1.00  0.00     0.046 C 
ENDROOT
BRANCH   1   9
HETATM    9  N3  UNL     1      -1.004   0.912   0.344  1.00  0.00    -0.339 N 
HETATM   10  C6  UNL     1       0.004   0.058  -0.135  1.00  0.00     0.220 C 
HETATM   11  O1  UNL     1      -0.302  -1.084  -0.564  1.00  0.00    -0.274 OA
ATOM     12  H3  UNL     1      -0.724   1.831   0.686  1.00  0.00     0.164 HD
BRANCH  10  13
HETATM   13  C5  UNL     1       1.432   0.446  -0.159  1.00  0.00     0.124 C 
BRANCH  13  14
HETATM   14  C4  UNL     1       2.315  -0.629  -0.714  1.00  0.00     0.159 C 
BRANCH  14  15
HETATM   15  N2  UNL     1       3.684  -0.133  -0.686  1.00  0.00    -0.286 N 
HETATM   16  C3  UNL     1       4.363   0.549  -1.623  1.00  0.00     0.201 A 
HETATM   17  N1  UNL     1       5.600   0.782  -1.130  1.00  0.00    -0.340 N 
HETATM   18  C2  UNL     1       5.692   0.258   0.085  1.00  0.00     0.092 A 
ATOM     19  H1  UNL     1       6.345   1.282  -1.616  1.00  0.00     0.168 HD
HETATM   20  C1  UNL     1       6.872   0.287   0.974  1.00  0.00     0.090 C 
HETATM   21  N5  UNL     1       4.506  -0.308   0.358  1.00  0.00    -0.286 N 
ATOM     22  H5  UNL     1       4.268  -0.794   1.223  1.00  0.00     0.188 HD
ENDBRANCH  14  15
ENDBRANCH  13  14
ENDBRANCH  10  13
ENDBRANCH   1   9
TORSDOF 4
