REMARK  3 active torsions:
REMARK  status: ('A' for Active; 'I' for Inactive)
REMARK    1  A    between atoms: C1_2  and  C2_3 
REMARK    2  A    between atoms: C3_4  and  O2_5 
REMARK    3  A    between atoms: C8_12  and  O4_13 
ROOT
HETATM    1  C2  UNL     1       0.458   0.781  -0.235  1.00  0.00     0.093 C 
HETATM    2  C3  UNL     1       1.395  -0.253  -0.802  1.00  0.00     0.203 C 
HETATM    3  C4  UNL     1       0.131  -1.030  -0.489  1.00  0.00     0.138 C 
HETATM    4  O3  UNL     1      -0.084  -2.245  -0.680  1.00  0.00    -0.299 OA
HETATM    5  C5  UNL     1      -0.595   0.150  -1.095  1.00  0.00     0.075 C 
HETATM    6  C6  UNL     1      -1.867   0.339  -0.340  1.00  0.00     0.017 C 
HETATM    7  C7  UNL     1      -1.397  -0.119   1.055  1.00  0.00     0.048 C 
HETATM    8  C8  UNL     1       0.076  -0.243   0.784  1.00  0.00     0.131 C 
ENDROOT
BRANCH   1   9
HETATM    9  C1  UNL     1       0.688   2.101  -0.075  1.00  0.00     0.248 C 
HETATM   10  O1  UNL     1      -0.194   2.969  -0.198  1.00  0.00    -0.306 OA
ENDBRANCH   1   9
BRANCH   2  11
HETATM   11  O2  UNL     1       2.469  -0.597  -0.021  1.00  0.00    -0.387 OA
ATOM     12  H2  UNL     1       3.060  -1.249  -0.379  1.00  0.00     0.210 HD
ENDBRANCH   2  11
BRANCH   8  13
HETATM   13  O4  UNL     1       0.913  -0.532   1.786  1.00  0.00    -0.381 OA
ATOM     14  H4  UNL     1       0.670  -1.183   2.434  1.00  0.00     0.211 HD
ENDBRANCH   8  13
TORSDOF 3
