REMARK  7 active torsions:
REMARK  status: ('A' for Active; 'I' for Inactive)
REMARK    1  A    between atoms: C6_6  and  N1_7 
REMARK       I    between atoms: N1_7  and  C7_9 
REMARK    2  A    between atoms: C7_9  and  C8_11 
REMARK    3  A    between atoms: C8_11  and  N2_12 
REMARK    4  A    between atoms: C10_14  and  C11_15 
REMARK    5  A    between atoms: C11_15  and  O2_16 
REMARK    6  A    between atoms: C11_15  and  N3_18 
REMARK    7  A    between atoms: C17_25  and  O4_26 
ROOT
HETATM    1  N2  UNL     1       0.340   0.945  -0.660  1.00  0.00    -0.329 N 
HETATM    2  C9  UNL     1       1.084  -0.081  -1.088  1.00  0.00     0.105 A 
HETATM    3  C10 UNL     1       2.380   0.054  -0.646  1.00  0.00     0.009 A 
HETATM    4  C16 UNL     1       2.441   1.203   0.081  1.00  0.00     0.069 A 
HETATM    5  C17 UNL     1       1.165   1.730   0.054  1.00  0.00     0.142 A 
ENDROOT
BRANCH   1   6
HETATM    6  C8  UNL     1      -1.077   1.202  -0.892  1.00  0.00     0.233 C 
BRANCH   6   7
HETATM    7  C7  UNL     1      -1.928   0.610   0.137  1.00  0.00     0.236 C 
HETATM    8  N1  UNL     1      -3.329   0.766   0.061  1.00  0.00    -0.355 N 
ATOM      9  H1  UNL     1      -3.716   1.295  -0.720  1.00  0.00     0.162 HD
HETATM   10  O1  UNL     1      -1.449  -0.041   1.096  1.00  0.00    -0.272 OA
BRANCH   8  11
HETATM   11  C6  UNL     1      -4.246   0.210   1.041  1.00  0.00     0.088 C 
HETATM   12  C2  UNL     1      -5.225  -0.739   0.392  1.00  0.00     0.004 C 
HETATM   13  C1  UNL     1      -4.630  -1.484  -0.768  1.00  0.00     0.012 C 
HETATM   14  C3  UNL     1      -6.373   0.152  -0.022  1.00  0.00     0.006 C 
HETATM   15  C4  UNL     1      -6.511   1.063   1.168  1.00  0.00     0.002 C 
HETATM   16  C5  UNL     1      -5.114   1.271   1.665  1.00  0.00     0.025 C 
ENDBRANCH   8  11
ENDBRANCH   6   7
ENDBRANCH   1   6
BRANCH   5  17
HETATM   17  O4  UNL     1       0.785   2.915   0.682  1.00  0.00    -0.346 OA
ATOM     18  H4  UNL     1       1.368   3.470   1.187  1.00  0.00     0.219 HD
ENDBRANCH   5  17
BRANCH   3  19
HETATM   19  C11 UNL     1       3.467  -0.904  -0.943  1.00  0.00     0.252 C 
BRANCH  19  20
HETATM   20  O2  UNL     1       2.971  -2.218  -0.785  1.00  0.00    -0.373 OA
ATOM     21  H2  UNL     1       3.669  -2.833  -0.976  1.00  0.00     0.212 HD
ENDBRANCH  19  20
BRANCH  19  22
HETATM   22  N3  UNL     1       4.637  -0.776  -0.194  1.00  0.00    -0.380 N 
HETATM   23  C12 UNL     1       4.612  -0.931   1.205  1.00  0.00     0.146 C 
HETATM   24  C13 UNL     1       5.946  -1.597   1.590  1.00  0.00     0.187 C 
HETATM   25  O3  UNL     1       7.012  -0.838   1.107  1.00  0.00    -0.388 OA
HETATM   26  C14 UNL     1       7.009  -0.677  -0.256  1.00  0.00     0.187 C 
HETATM   27  C15 UNL     1       5.703   0.012  -0.680  1.00  0.00     0.146 C 
ENDBRANCH  19  22
ENDBRANCH   3  19
TORSDOF 7
