REMARK  7 active torsions:
REMARK  status: ('A' for Active; 'I' for Inactive)
REMARK    1  A    between atoms: C2_2  and  C4_4 
REMARK       I    between atoms: C4_4  and  N1_6 
REMARK    2  A    between atoms: N1_6  and  C5_8 
REMARK    3  A    between atoms: C5_8  and  C6_9 
REMARK    4  A    between atoms: C6_9  and  O2_10 
REMARK    5  A    between atoms: N2_12  and  O3_14 
REMARK    6  A    between atoms: N3_18  and  C9_19 
REMARK    7  A    between atoms: C9_19  and  C10_20 
ROOT
HETATM    1  C5  UNL     1      -1.419   0.942   0.106  1.00  0.00     0.102 C 
HETATM    2  C7  UNL     1      -0.662   0.492  -1.092  1.00  0.00     0.059 C 
HETATM    3  C8  UNL     1       0.528  -0.364  -0.853  1.00  0.00     0.120 C 
HETATM    4  N3  UNL     1       1.353   0.087   0.207  1.00  0.00    -0.408 N 
HETATM    5  C14 UNL     1       0.719   0.649   1.346  1.00  0.00     0.120 C 
HETATM    6  C15 UNL     1      -0.762   0.584   1.401  1.00  0.00     0.059 C 
ENDROOT
BRANCH   1   7
HETATM    7  N1  UNL     1      -2.787   0.462   0.151  1.00  0.00    -0.344 N 
HETATM    8  C4  UNL     1      -3.190  -0.884   0.201  1.00  0.00     0.222 C 
HETATM    9  O1  UNL     1      -2.353  -1.802   0.207  1.00  0.00    -0.273 OA
ATOM     10  H1  UNL     1      -3.525   1.166   0.146  1.00  0.00     0.163 HD
BRANCH   8  11
HETATM   11  C2  UNL     1      -4.623  -1.220   0.246  1.00  0.00     0.070 C 
HETATM   12  C1  UNL     1      -5.376  -0.676  -0.950  1.00  0.00     0.019 C 
HETATM   13  C3  UNL     1      -4.852  -2.716   0.305  1.00  0.00     0.019 C 
ENDBRANCH   8  11
ENDBRANCH   1   7
BRANCH   1  14
HETATM   14  C6  UNL     1      -1.495   2.452   0.040  1.00  0.00     0.164 C 
HETATM   15  N2  UNL     1      -0.987   3.199   0.946  1.00  0.00    -0.249 N 
ATOM     16  H2  UNL     1      -0.511   2.786   1.748  1.00  0.00     0.196 HD
BRANCH  14  17
HETATM   17  O2  UNL     1      -2.137   3.036  -1.038  1.00  0.00    -0.346 OA
ATOM     18  H2  UNL     1      -2.185   3.984  -1.079  1.00  0.00     0.219 HD
ENDBRANCH  14  17
BRANCH  15  19
HETATM   19  O3  UNL     1      -1.089   4.559   0.828  1.00  0.00    -0.288 OA
ATOM     20  H3  UNL     1      -0.712   5.114   1.501  1.00  0.00     0.244 HD
ENDBRANCH  15  19
ENDBRANCH   1  14
BRANCH   4  21
HETATM   21  C9  UNL     1       2.419  -0.831   0.549  1.00  0.00     0.177 C 
BRANCH  21  22
HETATM   22  C10 UNL     1       3.415  -0.875  -0.575  1.00  0.00     0.276 C 
HETATM   23  O4  UNL     1       4.463  -1.749  -0.276  1.00  0.00    -0.360 OA
HETATM   24  C11 UNL     1       5.593  -1.442  -0.993  1.00  0.00     0.173 C 
HETATM   25  C12 UNL     1       6.113  -0.083  -0.592  1.00  0.00     0.053 C 
HETATM   26  C13 UNL     1       4.924   0.690  -0.016  1.00  0.00     0.173 C 
HETATM   27  O5  UNL     1       3.850   0.416  -0.851  1.00  0.00    -0.360 OA
ENDBRANCH  21  22
ENDBRANCH   4  21
TORSDOF 7
