REMARK  7 active torsions:
REMARK  status: ('A' for Active; 'I' for Inactive)
REMARK       I    between atoms: N1_3  and  C3_5 
REMARK    1  A    between atoms: C3_5  and  C4_7 
REMARK    2  A    between atoms: C4_7  and  N2_9 
REMARK       I    between atoms: N2_9  and  C6_11 
REMARK    3  A    between atoms: C6_11  and  C7_13 
REMARK    4  A    between atoms: C9_15  and  N3_16 
REMARK       I    between atoms: N4_21  and  C11_22 
REMARK       I    between atoms: C11_22  and  N5_24 
REMARK    5  A    between atoms: N5_24  and  C12_26 
REMARK    6  A    between atoms: C12_26  and  C13_27 
REMARK    7  A    between atoms: C12_26  and  C14_30 
ROOT
HETATM    1  C1  UNL     1       8.112   0.669  -0.964  1.00  0.00     0.037 C 
HETATM    2  C2  UNL     1       7.054   0.226  -0.562  1.00  0.00     0.002 C 
HETATM    3  N1  UNL     1       5.820  -0.238  -0.104  1.00  0.00    -0.285 N 
ATOM      4  H1  UNL     1       5.148  -0.583  -0.790  1.00  0.00     0.179 HD
HETATM    5  C3  UNL     1       5.451  -0.255   1.268  1.00  0.00     0.251 C 
HETATM    6  O1  UNL     1       6.225   0.176   2.168  1.00  0.00    -0.270 OA
ENDROOT
BRANCH   5   7
HETATM    7  C4  UNL     1       4.111  -0.779   1.628  1.00  0.00     0.173 C 
HETATM    8  C5  UNL     1       3.983  -0.715   3.162  1.00  0.00     0.042 C 
BRANCH   7   9
HETATM    9  N2  UNL     1       3.123   0.040   1.037  1.00  0.00    -0.346 N 
HETATM   10  C6  UNL     1       1.705  -0.265   1.054  1.00  0.00     0.241 C 
HETATM   11  O2  UNL     1       1.292  -1.215   1.704  1.00  0.00    -0.271 OA
ATOM     12  H2  UNL     1       3.424   0.896   0.571  1.00  0.00     0.163 HD
BRANCH  10  13
HETATM   13  C7  UNL     1       0.882   0.637   0.225  1.00  0.00     0.183 C 
HETATM   14  C8  UNL     1       1.566   0.629  -1.210  1.00  0.00     0.069 C 
HETATM   15  C9  UNL     1       0.597  -0.174  -2.013  1.00  0.00     0.204 C 
HETATM   16  C10 UNL     1      -0.122  -1.001  -0.903  1.00  0.00     0.161 C 
HETATM   17  N4  UNL     1      -0.433   0.211  -0.105  1.00  0.00    -0.319 N 
HETATM   18  C11 UNL     1      -1.696   0.780   0.072  1.00  0.00     0.319 C 
HETATM   19  O3  UNL     1      -1.905   1.868   0.651  1.00  0.00    -0.247 OA
HETATM   20  N5  UNL     1      -2.844   0.071  -0.472  1.00  0.00    -0.328 N 
ATOM     21  H5  UNL     1      -2.723  -0.854  -0.884  1.00  0.00     0.165 HD
BRANCH  15  22
HETATM   22  N3  UNL     1       1.105  -1.005  -3.025  1.00  0.00    -0.073 N 
ATOM     23  H33 UNL     1       1.681  -0.448  -3.656  1.00  0.00     0.274 HD
ATOM     24  H32 UNL     1       1.805  -1.630  -2.624  1.00  0.00     0.274 HD
ATOM     25  H31 UNL     1       0.443  -1.554  -3.574  1.00  0.00     0.274 HD
ENDBRANCH  15  22
BRANCH  20  26
HETATM   26  C12 UNL     1      -4.154   0.676  -0.429  1.00  0.00     0.190 C 
BRANCH  26  27
HETATM   27  C13 UNL     1      -4.626   0.788  -1.797  1.00  0.00     0.197 C 
HETATM   28  O4  UNL     1      -4.650  -0.046  -2.673  1.00  0.00    -0.646 OA
HETATM   29  O5  UNL     1      -5.156   2.095  -2.167  1.00  0.00    -0.646 OA
ENDBRANCH  26  27
BRANCH  26  30
HETATM   30  C14 UNL     1      -5.049  -0.269   0.344  1.00  0.00     0.011 C 
HETATM   31  C15 UNL     1      -4.638  -0.466   1.776  1.00  0.00     0.012 C 
HETATM   32  C16 UNL     1      -6.503  -0.050   0.201  1.00  0.00     0.012 C 
ENDBRANCH  26  30
ENDBRANCH  20  26
ENDBRANCH  10  13
ENDBRANCH   7   9
ENDBRANCH   5   7
TORSDOF 7
