REMARK  8 active torsions:
REMARK  status: ('A' for Active; 'I' for Inactive)
REMARK    1  A    between atoms: C3_3  and  N1_4 
REMARK    2  A    between atoms: N1_4  and  C4_6 
REMARK    3  A    between atoms: C4_6  and  C5_10 
REMARK       I    between atoms: N3_15  and  C10_16 
REMARK       I    between atoms: C10_16  and  N4_18 
REMARK    4  A    between atoms: C12_20  and  O2_21 
REMARK    5  A    between atoms: C14_24  and  C15_25 
REMARK       I    between atoms: C15_25  and  N5_27 
REMARK    6  A    between atoms: N5_27  and  C16_29 
REMARK    7  A    between atoms: C16_29  and  C17_30 
REMARK    8  A    between atoms: C17_30  and  O4_31 
ROOT
HETATM    1  C1  UNL     1      -4.592   3.890   1.598  1.00  0.00     0.103 C 
HETATM    2  C2  UNL     1      -4.401   2.817   1.034  1.00  0.00    -0.143 C 
HETATM    3  C3  UNL     1      -4.207   1.535   0.342  1.00  0.00     0.140 C 
ENDROOT
BRANCH   3   4
HETATM    4  N1  UNL     1      -2.849   1.168   0.306  1.00  0.00    -0.348 N 
ATOM      5  H1  UNL     1      -2.385   1.175  -0.602  1.00  0.00     0.167 HD
BRANCH   4   6
HETATM    6  C4  UNL     1      -2.080   0.792   1.422  1.00  0.00     0.098 C 
HETATM    7  N2  UNL     1      -1.585   1.756   2.156  1.00  0.00    -0.387 N 
ATOM      8  H22 UNL     1      -1.786   2.724   1.905  1.00  0.00     0.157 HD
ATOM      9  H21 UNL     1      -1.027   1.483   2.965  1.00  0.00     0.157 HD
BRANCH   6  10
HETATM   10  C5  UNL     1      -1.783  -0.635   1.792  1.00  0.00     0.156 C 
HETATM   11  C6  UNL     1      -2.929  -1.429   2.236  1.00  0.00     0.033 C 
HETATM   12  C7  UNL     1      -3.117  -2.798   1.702  1.00  0.00     0.004 C 
HETATM   13  C8  UNL     1      -2.085  -3.278   0.734  1.00  0.00     0.020 C 
HETATM   14  C9  UNL     1      -1.817  -2.053  -0.182  1.00  0.00     0.128 C 
HETATM   15  N3  UNL     1      -1.043  -1.177   0.625  1.00  0.00    -0.322 N 
HETATM   16  C10 UNL     1       0.269  -0.785   0.503  1.00  0.00     0.325 C 
HETATM   17  O1  UNL     1       0.730  -0.041   1.460  1.00  0.00    -0.247 OA
HETATM   18  N4  UNL     1       1.186  -1.080  -0.526  1.00  0.00    -0.297 N 
HETATM   19  C11 UNL     1       0.963  -1.805  -1.713  1.00  0.00     0.101 C 
HETATM   20  C14 UNL     1       2.564  -0.642  -0.445  1.00  0.00     0.188 C 
HETATM   21  C12 UNL     1       2.279  -1.750  -2.491  1.00  0.00     0.159 C 
HETATM   22  C13 UNL     1       3.304  -1.578  -1.356  1.00  0.00     0.072 C 
BRANCH  21  23
HETATM   23  O2  UNL     1       2.458  -2.939  -3.161  1.00  0.00    -0.390 OA
ATOM     24  H2  UNL     1       3.275  -2.905  -3.644  1.00  0.00     0.210 HD
ENDBRANCH  21  23
BRANCH  20  25
HETATM   25  C15 UNL     1       2.752   0.791  -0.771  1.00  0.00     0.241 C 
HETATM   26  O3  UNL     1       1.737   1.466  -0.969  1.00  0.00    -0.271 OA
HETATM   27  N5  UNL     1       4.040   1.325  -0.844  1.00  0.00    -0.357 N 
ATOM     28  H5  UNL     1       4.823   0.693  -0.676  1.00  0.00     0.162 HD
BRANCH  27  29
HETATM   29  C16 UNL     1       4.340   2.681  -1.134  1.00  0.00     0.148 C 
BRANCH  29  30
HETATM   30  C17 UNL     1       3.881   3.704  -0.173  1.00  0.00     0.183 C 
BRANCH  30  31
HETATM   31  O4  UNL     1       2.554   3.834   0.083  1.00  0.00    -0.399 OA
ATOM     32  H4  UNL     1       2.259   4.492   0.701  1.00  0.00     0.209 HD
ENDBRANCH  30  31
ENDBRANCH  29  30
ENDBRANCH  27  29
ENDBRANCH  20  25
ENDBRANCH   6  10
ENDBRANCH   4   6
ENDBRANCH   3   4
TORSDOF 8
