REMARK  3 active torsions:
REMARK  status: ('A' for Active; 'I' for Inactive)
REMARK    1  A    between atoms: C2_7  and  C3_8 
REMARK    2  A    between atoms: C3_8  and  C4_11 
REMARK    3  A    between atoms: C4_11  and  N3_13 
ROOT
HETATM    1  N3  UNL     1       1.425  -1.101   0.415  1.00  0.00    -0.331 N 
HETATM    2  C5  UNL     1       1.285  -2.449  -0.153  1.00  0.00     0.200 C 
HETATM    3  S1  UNL     1      -0.466  -2.982   0.022  1.00  0.00    -0.148 SA
HETATM    4  C6  UNL     1      -1.469  -2.442  -1.384  1.00  0.00     0.093 C 
HETATM    5  C7  UNL     1      -2.323  -1.260  -0.899  1.00  0.00     0.084 C 
HETATM    6  C8  UNL     1      -3.404  -1.830  -0.020  1.00  0.00     0.193 C 
HETATM    7  O1  UNL     1      -4.588  -1.128   0.030  1.00  0.00    -0.334 OA
HETATM    8  C9  UNL     1      -4.995   0.060  -0.471  1.00  0.00     0.150 A 
HETATM    9  N4  UNL     1      -5.795   0.250  -1.552  1.00  0.00    -0.346 N 
ATOM     10  H4  UNL     1      -6.124  -0.584  -2.038  1.00  0.00     0.167 HD
HETATM   11  C10 UNL     1      -6.185   1.416  -2.031  1.00  0.00     0.090 A 
HETATM   12  C11 UNL     1      -5.775   2.575  -1.423  1.00  0.00     0.018 A 
HETATM   13  C12 UNL     1      -4.961   2.478  -0.320  1.00  0.00     0.015 A 
HETATM   14  C13 UNL     1      -4.573   1.227   0.153  1.00  0.00     0.017 A 
HETATM   15  C14 UNL     1      -3.709   1.230   1.351  1.00  0.00     0.219 C 
HETATM   16  O2  UNL     1      -2.455   1.810   0.958  1.00  0.00    -0.340 OA
HETATM   17  C15 UNL     1      -1.285   1.083   0.887  1.00  0.00     0.105 A 
HETATM   18  S2  UNL     1      -1.253  -0.260   0.067  1.00  0.00    -0.105 SA
HETATM   19  C16 UNL     1       0.400  -0.137   0.678  1.00  0.00     0.071 A 
HETATM   20  C17 UNL     1       0.131   1.025   1.309  1.00  0.00     0.080 A 
ENDROOT
BRANCH   1  21
HETATM   21  C4  UNL     1       2.763  -0.701   0.755  1.00  0.00     0.348 C 
HETATM   22  F3  UNL     1       3.337  -1.538   1.724  1.00  0.00    -0.220 F 
BRANCH  21  23
HETATM   23  C3  UNL     1       3.720  -0.687  -0.403  1.00  0.00     0.311 C 
HETATM   24  F1  UNL     1       3.224  -0.011  -1.487  1.00  0.00    -0.199 F 
HETATM   25  F2  UNL     1       3.958  -1.994  -0.851  1.00  0.00    -0.199 F 
BRANCH  23  26
HETATM   26  C2  UNL     1       5.044  -0.153   0.056  1.00  0.00     0.170 C 
HETATM   27  N2  UNL     1       4.923   1.220   0.426  1.00  0.00    -0.360 N 
HETATM   28  C1  UNL     1       6.176   1.847   0.666  1.00  0.00     0.134 C 
ATOM     29  H2  UNL     1       4.028   1.702   0.510  1.00  0.00     0.162 HD
HETATM   30  N1  UNL     1       6.482   2.827   1.441  1.00  0.00    -0.380 N 
HETATM   31  S3  UNL     1       7.317   0.932  -0.405  1.00  0.00    -0.092 SA
ATOM     32  H12 UNL     1       5.840   3.342   2.044  1.00  0.00     0.158 HD
ATOM     33  H11 UNL     1       7.381   3.277   1.613  1.00  0.00     0.158 HD
HETATM   34  C18 UNL     1       6.080  -0.273  -1.046  1.00  0.00     0.113 C 
ENDBRANCH  23  26
ENDBRANCH  21  23
ENDBRANCH   1  21
TORSDOF 3
