REMARK  5 active torsions:
REMARK  status: ('A' for Active; 'I' for Inactive)
REMARK    1  A    between atoms: N3_8  and  C3_10 
REMARK    2  A    between atoms: C3_10  and  C4_11 
REMARK    3  A    between atoms: N5_27  and  N6_29 
REMARK       I    between atoms: N6_29  and  C17_31 
REMARK    4  A    between atoms: C17_31  and  C18_33 
REMARK    5  A    between atoms: C18_33  and  C19_34 
ROOT
HETATM    1  N1  UNL     1       0.867  -0.395   2.786  1.00  0.00    -0.234 N 
ATOM      2  H11 UNL     1       1.732  -0.876   3.030  1.00  0.00     0.174 HD
ATOM      3  H12 UNL     1       0.185   0.055   3.397  1.00  0.00     0.174 HD
HETATM    4  C1  UNL     1       0.556  -0.324   1.535  1.00  0.00     0.692 C 
HETATM    5  N2  UNL     1      -0.659   0.352   1.192  1.00  0.00    -0.023 N 
ATOM      6  H2  UNL     1      -1.067   0.951   1.910  1.00  0.00     0.203 HD
HETATM    7  C2  UNL     1      -1.363   0.274  -0.059  1.00  0.00     0.693 C 
HETATM    8  N3  UNL     1      -2.629   0.477   0.057  1.00  0.00    -0.225 N 
ATOM      9  H3  UNL     1      -2.987   0.666   0.993  1.00  0.00     0.177 HD
HETATM   10  N4  UNL     1      -0.848   0.012  -1.339  1.00  0.00    -0.185 N 
ATOM     11  H4  UNL     1      -1.447   0.260  -2.126  1.00  0.00     0.184 HD
HETATM   12  C14 UNL     1       0.418  -0.562  -1.664  1.00  0.00     0.121 C 
HETATM   13  C15 UNL     1       0.621  -0.784  -2.948  1.00  0.00     0.222 C 
HETATM   14  F1  UNL     1       1.782  -1.324  -3.379  1.00  0.00    -0.217 F 
HETATM   15  C16 UNL     1       1.491  -0.921  -0.744  1.00  0.00     0.165 C 
HETATM   16  N5  UNL     1       2.584  -1.258  -1.337  1.00  0.00    -0.281 N 
ATOM     17  H5  UNL     1       2.606  -1.246  -2.357  1.00  0.00     0.188 HD
HETATM   18  N8  UNL     1       1.511  -0.954   0.680  1.00  0.00    -0.173 N 
ATOM     19  H8  UNL     1       2.270  -1.470   1.126  1.00  0.00     0.186 HD
ENDROOT
BRANCH  16  20
HETATM   20  N6  UNL     1       3.738  -1.639  -0.653  1.00  0.00    -0.268 N 
HETATM   21  C17 UNL     1       4.696  -0.629  -0.362  1.00  0.00     0.236 C 
HETATM   22  O1  UNL     1       4.499   0.555  -0.714  1.00  0.00    -0.272 OA
ATOM     23  H6  UNL     1       3.890  -2.608  -0.371  1.00  0.00     0.190 HD
BRANCH  21  24
HETATM   24  C18 UNL     1       5.907  -1.077   0.366  1.00  0.00     0.109 C 
BRANCH  24  25
HETATM   25  C19 UNL     1       6.841   0.105   0.495  1.00  0.00    -0.003 C 
HETATM   26  C20 UNL     1       8.083  -0.284   1.253  1.00  0.00     0.032 C 
HETATM   27  C21 UNL     1       9.154   0.761   1.232  1.00  0.00     0.232 C 
HETATM   28  N7  UNL     1       9.119   1.556   0.014  1.00  0.00    -0.075 N 
HETATM   29  C22 UNL     1       8.590   0.774  -1.089  1.00  0.00     0.232 C 
ATOM     30  H72 UNL     1       8.603   2.426   0.144  1.00  0.00     0.277 HD
ATOM     31  H71 UNL     1      10.033   1.953  -0.206  1.00  0.00     0.277 HD
HETATM   32  C23 UNL     1       7.093   0.684  -0.843  1.00  0.00     0.032 C 
ENDBRANCH  24  25
ENDBRANCH  21  24
ENDBRANCH  16  20
BRANCH   8  33
HETATM   33  C3  UNL     1      -3.574   0.461  -1.010  1.00  0.00     0.147 C 
BRANCH  33  34
HETATM   34  C4  UNL     1      -4.956   0.299  -0.409  1.00  0.00    -0.023 C 
HETATM   35  C5  UNL     1      -6.013   0.275  -1.503  1.00  0.00     0.015 C 
HETATM   36  C6  UNL     1      -7.366   0.110  -0.857  1.00  0.00    -0.013 C 
HETATM   37  C7  UNL     1      -7.444  -1.183  -0.058  1.00  0.00     0.009 C 
HETATM   38  C11 UNL     1      -7.647   1.236   0.118  1.00  0.00     0.009 C 
HETATM   39  C8  UNL     1      -6.375  -1.165   0.994  1.00  0.00    -0.013 C 
HETATM   40  C9  UNL     1      -6.517  -0.014   1.960  1.00  0.00     0.009 C 
HETATM   41  C13 UNL     1      -5.040  -1.023   0.310  1.00  0.00     0.015 C 
HETATM   42  C10 UNL     1      -6.575   1.266   1.180  1.00  0.00    -0.013 C 
HETATM   43  C12 UNL     1      -5.251   1.467   0.490  1.00  0.00     0.015 C 
ENDBRANCH  33  34
ENDBRANCH   8  33
TORSDOF 5
