REMARK  7 active torsions:
REMARK  status: ('A' for Active; 'I' for Inactive)
REMARK    1  A    between atoms: N1_1  and  S1_4 
REMARK    2  A    between atoms: S1_4  and  C1_6 
REMARK    3  A    between atoms: S1_4  and  C13_24 
REMARK    4  A    between atoms: C4_9  and  N2_10 
REMARK    5  A    between atoms: N3_12  and  C5_14 
REMARK    6  A    between atoms: C8_17  and  O2_18 
REMARK    7  A    between atoms: C16_27  and  N4_28 
ROOT
HETATM    1  C1  UNL     1       1.178  -1.357   1.375  1.00  0.00     0.045 A 
HETATM    2  C2  UNL     1       0.601  -2.364   0.627  1.00  0.00     0.024 A 
HETATM    3  C3  UNL     1      -0.718  -2.740   0.794  1.00  0.00     0.032 A 
HETATM    4  C4  UNL     1      -1.526  -2.120   1.723  1.00  0.00     0.048 A 
HETATM    5  C11 UNL     1      -0.956  -1.113   2.473  1.00  0.00     0.032 A 
HETATM    6  C12 UNL     1       0.366  -0.739   2.304  1.00  0.00     0.024 A 
ENDROOT
BRANCH   1   7
HETATM    7  S1  UNL     1       2.847  -0.885   1.161  1.00  0.00     0.104 S 
HETATM    8  O1  UNL     1       3.655  -2.081   0.712  1.00  0.00    -0.238 OA
BRANCH   7   9
HETATM    9  N1  UNL     1       3.482  -0.400   2.501  1.00  0.00    -0.351 N 
ATOM     10  H12 UNL     1       4.285  -0.819   2.970  1.00  0.00     0.166 HD
ATOM     11  H11 UNL     1       2.937   0.407   2.804  1.00  0.00     0.166 HD
ENDBRANCH   7   9
BRANCH   7  12
HETATM   12  C13 UNL     1       2.960   0.383  -0.050  1.00  0.00     0.156 A 
HETATM   13  C14 UNL     1       1.889   0.929  -0.733  1.00  0.00     0.053 A 
HETATM   14  C15 UNL     1       2.394   1.886  -1.586  1.00  0.00     0.066 A 
HETATM   15  C16 UNL     1       3.775   1.889  -1.389  1.00  0.00     0.215 A 
HETATM   16  O5  UNL     1       4.018   0.995  -0.489  1.00  0.00    -0.278 OA
BRANCH  15  17
HETATM   17  N4  UNL     1       4.675   2.748  -2.089  1.00  0.00    -0.090 N 
HETATM   18  O3  UNL     1       5.890   2.674  -1.841  1.00  0.00    -0.530 OA
HETATM   19  O4  UNL     1       4.249   3.651  -3.025  1.00  0.00    -0.530 OA
ENDBRANCH  15  17
ENDBRANCH   7  12
ENDBRANCH   1   7
BRANCH   4  20
HETATM   20  N2  UNL     1      -2.889  -2.498   1.905  1.00  0.00    -0.300 N 
HETATM   21  N3  UNL     1      -3.865  -1.908   1.388  1.00  0.00    -0.300 N 
ATOM     22  H3  UNL     1      -4.822  -2.222   1.552  1.00  0.00     0.187 HD
ATOM     23  H2  UNL     1      -3.082  -3.305   2.498  1.00  0.00     0.187 HD
BRANCH  21  24
HETATM   24  C5  UNL     1      -3.587  -0.780   0.560  1.00  0.00     0.048 A 
HETATM   25  C6  UNL     1      -3.207  -1.016  -0.743  1.00  0.00     0.034 A 
HETATM   26  C7  UNL     1      -2.935   0.042  -1.558  1.00  0.00     0.039 A 
HETATM   27  C8  UNL     1      -3.048   1.345  -1.059  1.00  0.00     0.065 A 
HETATM   28  C9  UNL     1      -3.426   1.596   0.237  1.00  0.00     0.039 A 
HETATM   29  C10 UNL     1      -3.699   0.519   1.054  1.00  0.00     0.034 A 
BRANCH  27  30
HETATM   30  O2  UNL     1      -2.765   2.405  -1.910  1.00  0.00    -0.361 OA
ATOM     31  H2  UNL     1      -2.842   3.289  -1.571  1.00  0.00     0.217 HD
ENDBRANCH  27  30
ENDBRANCH  21  24
ENDBRANCH   4  20
TORSDOF 7
