REMARK  3 active torsions:
REMARK  status: ('A' for Active; 'I' for Inactive)
REMARK    1  A    between atoms: C8_8  and  C9_9 
REMARK    2  A    between atoms: C9_9  and  C10_10 
REMARK    3  A    between atoms: C10_10  and  N1_11 
ROOT
HETATM    1  N1  UNL     1      -0.366  -0.069   0.621  1.00  0.00    -0.352 N 
HETATM    2  C11 UNL     1       0.488  -0.973  -0.126  1.00  0.00     0.131 C 
HETATM    3  C12 UNL     1       1.617  -0.126  -0.676  1.00  0.00     0.095 C 
HETATM    4  C13 UNL     1       2.535   0.292   0.423  1.00  0.00     0.239 C 
HETATM    5  C14 UNL     1       1.739   0.825   1.593  1.00  0.00     0.177 C 
HETATM    6  C15 UNL     1       0.300   1.010   1.287  1.00  0.00     0.225 C 
HETATM    7  O1  UNL     1      -0.322   2.052   1.588  1.00  0.00    -0.273 OA
HETATM    8  O2  UNL     1       3.260  -0.832   0.866  1.00  0.00    -0.194 OA
HETATM    9  O3  UNL     1       4.085  -1.243  -0.075  1.00  0.00    -0.194 OA
HETATM   10  C16 UNL     1       5.029  -0.233  -0.268  1.00  0.00     0.233 C 
HETATM   11  C17 UNL     1       5.993  -0.695  -1.317  1.00  0.00     0.082 C 
HETATM   12  C18 UNL     1       7.286  -1.208  -0.771  1.00  0.00     0.087 C 
HETATM   13  C19 UNL     1       7.915  -0.109   0.030  1.00  0.00     0.160 C 
HETATM   14  O4  UNL     1       9.087   0.173  -0.039  1.00  0.00    -0.295 OA
HETATM   15  C20 UNL     1       7.043   0.655   0.941  1.00  0.00     0.244 C 
HETATM   16  F1  UNL     1       6.999   1.986   0.581  1.00  0.00    -0.241 F 
HETATM   17  C21 UNL     1       5.673   0.043   1.063  1.00  0.00     0.119 C 
HETATM   18  O5  UNL     1       4.347   0.870  -0.773  1.00  0.00    -0.194 OA
HETATM   19  O6  UNL     1       3.411   1.295   0.022  1.00  0.00    -0.194 OA
ENDROOT
BRANCH   1  20
HETATM   20  C10 UNL     1      -1.805  -0.225   0.705  1.00  0.00     0.130 C 
BRANCH  20  21
HETATM   21  C9  UNL     1      -2.442   0.531  -0.421  1.00  0.00     0.054 C 
BRANCH  21  22
HETATM   22  C8  UNL     1      -3.922   0.447  -0.441  1.00  0.00    -0.078 C 
HETATM   23  C2  UNL     1      -4.472  -0.907  -0.577  1.00  0.00     0.010 C 
HETATM   24  C1  UNL     1      -5.131  -1.099  -1.949  1.00  0.00     0.015 C 
HETATM   25  C3  UNL     1      -5.429  -1.274   0.531  1.00  0.00     0.009 C 
HETATM   26  C4  UNL     1      -6.000  -0.055   1.215  1.00  0.00     0.001 C 
HETATM   27  C5  UNL     1      -6.860   0.679   0.217  1.00  0.00     0.004 C 
HETATM   28  C6  UNL     1      -6.074   1.836  -0.327  1.00  0.00     0.027 C 
HETATM   29  C7  UNL     1      -4.610   1.601  -0.336  1.00  0.00    -0.024 C 
ENDBRANCH  21  22
ENDBRANCH  20  21
ENDBRANCH   1  20
TORSDOF 3
