REMARK  7 active torsions:
REMARK  status: ('A' for Active; 'I' for Inactive)
REMARK       I    between atoms: C2_2  and  N1_4 
REMARK    1  A    between atoms: N1_4  and  C3_6 
REMARK    2  A    between atoms: C3_6  and  N2_8 
REMARK    3  A    between atoms: N3_10  and  C4_12 
REMARK    4  A    between atoms: C5_13  and  N4_14 
REMARK    5  A    between atoms: N4_14  and  N5_16 
REMARK    6  A    between atoms: N5_16  and  C6_18 
REMARK    7  A    between atoms: C13_28  and  N6_29 
ROOT
HETATM    1  C4  UNL     1      -0.075  -1.547   0.289  1.00  0.00     0.111 A 
HETATM    2  C5  UNL     1      -1.424  -1.544   0.098  1.00  0.00     0.120 A 
HETATM    3  S2  UNL     1      -1.735  -3.093  -0.546  1.00  0.00    -0.063 SA
HETATM    4  C12 UNL     1      -0.148  -3.706  -0.559  1.00  0.00     0.079 A 
HETATM    5  C13 UNL     1       0.421  -4.915  -0.947  1.00  0.00     0.119 A 
HETATM    6  N7  UNL     1       1.753  -5.132  -0.842  1.00  0.00    -0.338 N 
ATOM      7  H7  UNL     1       2.190  -6.010  -1.121  1.00  0.00     0.168 HD
HETATM    8  C14 UNL     1       2.454  -4.102  -0.343  1.00  0.00     0.182 A 
HETATM    9  N8  UNL     1       1.935  -2.932   0.037  1.00  0.00    -0.349 N 
ATOM     10  H8  UNL     1       2.554  -2.210   0.405  1.00  0.00     0.166 HD
HETATM   11  C15 UNL     1       0.590  -2.676  -0.055  1.00  0.00     0.085 A 
ENDROOT
BRANCH   2  12
HETATM   12  N4  UNL     1      -2.376  -0.502   0.367  1.00  0.00    -0.291 N 
ATOM     13  H4  UNL     1      -3.144  -0.647   1.023  1.00  0.00     0.187 HD
BRANCH  12  14
HETATM   14  N5  UNL     1      -2.229   0.621  -0.246  1.00  0.00    -0.299 N 
ATOM     15  H5  UNL     1      -1.460   0.760  -0.901  1.00  0.00     0.187 HD
BRANCH  14  16
HETATM   16  C6  UNL     1      -3.163   1.663   0.010  1.00  0.00     0.065 A 
HETATM   17  C7  UNL     1      -3.909   1.642   1.186  1.00  0.00     0.034 A 
HETATM   18  C8  UNL     1      -4.812   2.642   1.440  1.00  0.00     0.026 A 
HETATM   19  C9  UNL     1      -4.974   3.658   0.531  1.00  0.00     0.035 A 
HETATM   20 CL1  UNL     1      -6.128   4.938   0.854  1.00  0.00    -0.084 Cl
HETATM   21  C10 UNL     1      -4.235   3.689  -0.647  1.00  0.00     0.045 A 
HETATM   22  C11 UNL     1      -3.329   2.684  -0.899  1.00  0.00     0.040 A 
HETATM   23 BR1  UNL     1      -2.325   2.736  -2.512  1.00  0.00    -0.049 Br
ENDBRANCH  14  16
ENDBRANCH  12  14
ENDBRANCH   2  12
BRANCH   1  24
HETATM   24  N3  UNL     1       0.551  -0.356   0.839  1.00  0.00    -0.294 N 
HETATM   25  N2  UNL     1       1.544   0.176   0.262  1.00  0.00    -0.276 N 
ATOM     26  H2  UNL     1       1.914  -0.229  -0.598  1.00  0.00     0.189 HD
ATOM     27  H3  UNL     1       0.186   0.055   1.698  1.00  0.00     0.187 HD
BRANCH  25  28
HETATM   28  C3  UNL     1       2.137   1.331   0.812  1.00  0.00     0.193 C 
HETATM   29  S1  UNL     1       1.412   2.136   2.032  1.00  0.00    -0.039 SA
BRANCH  28  30
HETATM   30  N1  UNL     1       3.375   1.807   0.310  1.00  0.00    -0.303 N 
HETATM   31  C2  UNL     1       4.052   1.150  -0.748  1.00  0.00     0.219 C 
HETATM   32  C1  UNL     1       5.334   1.644  -1.269  1.00  0.00     0.117 C 
HETATM   33  O1  UNL     1       3.553   0.117  -1.264  1.00  0.00    -0.274 OA
ATOM     34  H1  UNL     1       3.789   2.644   0.721  1.00  0.00     0.171 HD
ENDBRANCH  28  30
ENDBRANCH  25  28
ENDBRANCH   1  24
BRANCH   5  35
HETATM   35  N6  UNL     1      -0.316  -5.868  -1.421  1.00  0.00    -0.384 N 
ATOM     36  H62 UNL     1      -1.320  -5.704  -1.500  1.00  0.00     0.157 HD
ATOM     37  H61 UNL     1       0.101  -6.754  -1.705  1.00  0.00     0.157 HD
ENDBRANCH   5  35
TORSDOF 7
