REMARK  3 active torsions:
REMARK  status: ('A' for Active; 'I' for Inactive)
REMARK    1  A    between atoms: C4_4  and  C5_5 
REMARK    2  A    between atoms: C5_5  and  O1_6 
REMARK    3  A    between atoms: C7_9  and  C9_11 
ROOT
HETATM    1  C9  UNL     1       3.237   0.551  -0.258  1.00  0.00     0.161 C 
HETATM    2  C10 UNL     1       3.004   1.892   0.202  1.00  0.00     0.062 C 
HETATM    3  N1  UNL     1       2.822   2.977   0.553  1.00  0.00    -0.197 NA
ENDROOT
BRANCH   1   4
HETATM    4  C7  UNL     1       2.043  -0.361  -0.126  1.00  0.00     0.077 C 
HETATM    5  C6  UNL     1       0.889   0.208  -0.948  1.00  0.00     0.111 C 
HETATM    6  C5  UNL     1      -0.346   0.090  -0.044  1.00  0.00     0.186 C 
HETATM    7  O3  UNL     1      -0.027   0.877   1.078  1.00  0.00    -0.327 OA
HETATM    8  C11 UNL     1       0.913   0.212   1.821  1.00  0.00     0.343 C 
HETATM    9  O2  UNL     1       1.705  -0.661   1.154  1.00  0.00    -0.355 OA
HETATM   10  C8  UNL     1       2.428  -1.674  -0.822  1.00  0.00     0.047 C 
BRANCH   6  11
HETATM   11  C4  UNL     1      -1.553   0.584  -0.715  1.00  0.00     0.042 C 
HETATM   12  C2  UNL     1      -2.737   0.299  -0.245  1.00  0.00    -0.086 C 
HETATM   13  C1  UNL     1      -2.914  -0.529   0.978  1.00  0.00     0.043 C 
HETATM   14  C3  UNL     1      -3.967   0.795  -0.919  1.00  0.00     0.043 C 
ENDBRANCH   6  11
BRANCH   6  15
HETATM   15  O1  UNL     1      -0.465  -1.256   0.365  1.00  0.00    -0.362 OA
ATOM     16  H1  UNL     1       0.317  -1.576   0.800  1.00  0.00     0.213 HD
ENDBRANCH   6  15
ENDBRANCH   1   4
TORSDOF 3
