REMARK  13 active torsions:
REMARK  status: ('A' for Active; 'I' for Inactive)
REMARK    1  A    between atoms: C1_2  and  C2_4 
REMARK    2  A    between atoms: C4_6  and  O2_7 
REMARK    3  A    between atoms: C5_9  and  N2_10 
REMARK       I    between atoms: N2_10  and  C6_12 
REMARK    4  A    between atoms: C6_12  and  C7_14 
REMARK    5  A    between atoms: C7_14  and  N3_15 
REMARK    6  A    between atoms: N3_15  and  C8_17 
REMARK    7  A    between atoms: C8_17  and  C9_18 
REMARK    8  A    between atoms: C9_18  and  O4_19 
REMARK    9  A    between atoms: C9_18  and  C10_21 
REMARK   10  A    between atoms: C12_25  and  O7_26 
REMARK   11  A    between atoms: C17_36  and  N5_37 
REMARK   12  A    between atoms: C19_43  and  O11_44 
REMARK   13  A    between atoms: C20_46  and  O12_47 
ROOT
HETATM    1  C2  UNL     1      -2.335  -1.666   0.025  1.00  0.00     0.144 C 
HETATM    2  C3  UNL     1      -1.341  -0.640   0.293  1.00  0.00     0.009 A 
HETATM    3  C4  UNL     1      -0.085  -0.998  -0.152  1.00  0.00     0.100 A 
HETATM    4  C5  UNL     1       1.042  -0.189  -0.003  1.00  0.00     0.071 A 
HETATM    5  C11 UNL     1       0.851   1.006   0.616  1.00  0.00     0.070 A 
HETATM    6  C12 UNL     1      -0.403   1.419   1.085  1.00  0.00     0.082 A 
HETATM    7  C13 UNL     1      -1.481   0.576   0.911  1.00  0.00     0.055 A 
HETATM    8  C14 UNL     1      -2.658   1.222   1.466  1.00  0.00     0.189 C 
HETATM    9  O8  UNL     1      -2.440   2.084   2.387  1.00  0.00    -0.290 OA
HETATM   10  C15 UNL     1      -4.074   1.025   1.118  1.00  0.00     0.204 C 
HETATM   11  N4  UNL     1      -4.786   2.242   0.809  1.00  0.00    -0.344 N 
ATOM     12  H4  UNL     1      -4.477   3.102   1.262  1.00  0.00     0.163 HD
HETATM   13  C16 UNL     1      -5.876   2.321  -0.074  1.00  0.00     0.256 C 
HETATM   14  O9  UNL     1      -6.790   3.176   0.011  1.00  0.00    -0.271 OA
HETATM   15  C17 UNL     1      -5.966   1.339  -1.186  1.00  0.00     0.346 C 
HETATM   16  C18 UNL     1      -5.494   0.032  -0.655  1.00  0.00     0.205 C 
HETATM   17  O10 UNL     1      -6.197  -0.933  -0.767  1.00  0.00    -0.292 OA
HETATM   18  C19 UNL     1      -4.158   0.021  -0.010  1.00  0.00     0.175 C 
HETATM   19  C20 UNL     1      -3.731  -1.292   0.538  1.00  0.00     0.180 C 
ENDROOT
BRANCH   4  20
HETATM   20  N2  UNL     1       2.293  -0.644  -0.492  1.00  0.00    -0.320 N 
HETATM   21  C6  UNL     1       3.528   0.031  -0.406  1.00  0.00     0.261 C 
HETATM   22  O3  UNL     1       3.739   1.147   0.114  1.00  0.00    -0.267 OA
ATOM     23  H2  UNL     1       2.300  -1.554  -0.954  1.00  0.00     0.169 HD
BRANCH  21  24
HETATM   24  C7  UNL     1       4.715  -0.673  -1.006  1.00  0.00     0.158 C 
BRANCH  24  25
HETATM   25  N3  UNL     1       5.890   0.085  -0.828  1.00  0.00    -0.392 N 
ATOM     26  H3  UNL     1       6.368   0.562  -1.593  1.00  0.00     0.159 HD
BRANCH  25  27
HETATM   27  C8  UNL     1       6.345   0.122   0.515  1.00  0.00     0.156 C 
BRANCH  27  28
HETATM   28  C9  UNL     1       7.628   0.960   0.535  1.00  0.00     0.196 C 
BRANCH  28  29
HETATM   29  O4  UNL     1       7.270   2.226   0.070  1.00  0.00    -0.389 OA
ATOM     30  H4  UNL     1       8.065   2.745   0.082  1.00  0.00     0.210 HD
ENDBRANCH  28  29
BRANCH  28  31
HETATM   31  C10 UNL     1       8.631   0.291  -0.362  1.00  0.00     0.363 A 
HETATM   32  O5  UNL     1       9.087  -0.918  -0.082  1.00  0.00    -0.200 OA
HETATM   33  O6  UNL     1       8.182  -0.836  -1.039  1.00  0.00    -0.200 OA
ENDBRANCH  28  31
ENDBRANCH  27  28
ENDBRANCH  25  27
ENDBRANCH  24  25
ENDBRANCH  21  24
ENDBRANCH   4  20
BRANCH   3  34
HETATM   34  O2  UNL     1       0.006  -2.210  -0.760  1.00  0.00    -0.358 OA
ATOM     35  H2  UNL     1       0.871  -2.456  -1.066  1.00  0.00     0.217 HD
ENDBRANCH   3  34
BRANCH   6  36
HETATM   36  O7  UNL     1      -0.493   2.644   1.696  1.00  0.00    -0.360 OA
ATOM     37  H7  UNL     1      -1.343   2.924   2.014  1.00  0.00     0.217 HD
ENDBRANCH   6  36
BRANCH   1  38
HETATM   38  C1  UNL     1      -2.064  -3.000   0.550  1.00  0.00     0.242 C 
HETATM   39  N1  UNL     1      -1.785  -3.209   1.920  1.00  0.00    -0.061 NA
HETATM   40  O1  UNL     1      -2.073  -3.997  -0.206  1.00  0.00    -0.276 OA
ENDBRANCH   1  38
BRANCH  19  41
HETATM   41  O12 UNL     1      -4.568  -2.358   0.187  1.00  0.00    -0.391 OA
ATOM     42  H12 UNL     1      -5.433  -2.126   0.505  1.00  0.00     0.210 HD
ENDBRANCH  19  41
BRANCH  18  43
HETATM   43  O11 UNL     1      -3.249   0.446  -0.992  1.00  0.00    -0.377 OA
ATOM     44  H11 UNL     1      -3.302  -0.185  -1.701  1.00  0.00     0.211 HD
ENDBRANCH  18  43
BRANCH  15  45
HETATM   45  N5  UNL     1      -7.307   1.245  -1.725  1.00  0.00    -0.059 N 
ATOM     46  H53 UNL     1      -7.985   1.036  -0.992  1.00  0.00     0.275 HD
ATOM     47  H52 UNL     1      -7.655   2.160  -2.012  1.00  0.00     0.275 HD
ATOM     48  H51 UNL     1      -7.369   0.571  -2.488  1.00  0.00     0.275 HD
ENDBRANCH  15  45
TORSDOF 13
