REMARK  5 active torsions:
REMARK  status: ('A' for Active; 'I' for Inactive)
REMARK    1  A    between atoms: N1_2  and  O1_3 
REMARK       I    between atoms: N1_2  and  C2_5 
REMARK       I    between atoms: C2_5  and  N3_22 
REMARK    2  A    between atoms: N2_6  and  O2_8 
REMARK    3  A    between atoms: O2_8  and  C3_9 
REMARK    4  A    between atoms: C3_9  and  C4_11 
REMARK    5  A    between atoms: N3_22  and  N4_24 
ROOT
HETATM    1  O2  UNL     1      -0.215   0.754  -0.731  1.00  0.00    -0.180 OA
ENDROOT
BRANCH   1   2
HETATM    2  N2  UNL     1      -1.535   1.044  -0.829  1.00  0.00    -0.084 N 
HETATM    3  C2  UNL     1      -2.458   0.200  -0.519  1.00  0.00     0.747 C 
HETATM    4  N1  UNL     1      -3.809   0.623  -0.665  1.00  0.00    -0.071 N 
HETATM    5  N3  UNL     1      -2.159  -1.100  -0.052  1.00  0.00    -0.068 N 
HETATM    6  C1  UNL     1      -4.461   1.157   0.293  1.00  0.00     0.176 C 
ATOM      7  H3  UNL     1      -1.403  -1.635  -0.478  1.00  0.00     0.212 HD
ATOM      8  H2  UNL     1      -1.809   1.968  -1.162  1.00  0.00     0.214 HD
BRANCH   4   9
HETATM    9  O1  UNL     1      -4.420   0.445  -1.890  1.00  0.00    -0.270 OA
ATOM     10  H1  UNL     1      -3.935   0.047  -2.603  1.00  0.00     0.245 HD
ENDBRANCH   4   9
BRANCH   5  11
HETATM   11  N4  UNL     1      -2.902  -1.649   0.995  1.00  0.00    -0.024 N 
HETATM   12  O4  UNL     1      -2.833  -1.180   2.148  1.00  0.00    -0.516 OA
HETATM   13  O5  UNL     1      -3.737  -2.720   0.810  1.00  0.00    -0.516 OA
ENDBRANCH   5  11
ENDBRANCH   1   2
BRANCH   1  14
HETATM   14  C3  UNL     1       0.496   0.672   0.456  1.00  0.00     0.319 C 
HETATM   15  O3  UNL     1      -0.121   0.882   1.522  1.00  0.00    -0.257 OA
BRANCH  14  16
HETATM   16  C4  UNL     1       1.920   0.351   0.436  1.00  0.00     0.088 A 
HETATM   17  C5  UNL     1       2.641   0.266   1.608  1.00  0.00     0.075 A 
HETATM   18 CL1  UNL     1       1.863   0.545   3.161  1.00  0.00    -0.081 Cl
HETATM   19  C6  UNL     1       3.980  -0.041   1.526  1.00  0.00     0.080 A 
HETATM   20 CL2  UNL     1       4.950  -0.162   2.981  1.00  0.00    -0.081 Cl
HETATM   21  C7  UNL     1       4.603  -0.261   0.317  1.00  0.00     0.081 A 
HETATM   22 CL3  UNL     1       6.312  -0.654   0.192  1.00  0.00    -0.081 Cl
HETATM   23  C8  UNL     1       3.895  -0.181  -0.864  1.00  0.00     0.080 A 
HETATM   24 CL4  UNL     1       4.665  -0.458  -2.429  1.00  0.00    -0.081 Cl
HETATM   25  C9  UNL     1       2.555   0.127  -0.768  1.00  0.00     0.075 A 
HETATM   26 CL5  UNL     1       1.660   0.228  -2.281  1.00  0.00    -0.081 Cl
ENDBRANCH  14  16
ENDBRANCH   1  14
TORSDOF 5
