REMARK  4 active torsions:
REMARK  status: ('A' for Active; 'I' for Inactive)
REMARK    1  A    between atoms: O1_2  and  C2_3 
REMARK    2  A    between atoms: C2_3  and  C3_4 
REMARK    3  A    between atoms: C3_4  and  C4_5 
REMARK       I    between atoms: N3_11  and  C6_13 
REMARK    4  A    between atoms: C6_13  and  C7_15 
ROOT
HETATM    1  C4  UNL     1       2.268   0.094  -0.895  1.00  0.00     0.071 A 
HETATM    2  N1  UNL     1       1.766  -0.207   0.297  1.00  0.00    -0.296 N 
ATOM      3  H1  UNL     1       2.352  -0.137   1.129  1.00  0.00     0.187 HD
HETATM    4  N2  UNL     1       0.559  -0.581   0.402  1.00  0.00    -0.279 N 
ATOM      5  H2  UNL     1       0.167  -0.814   1.315  1.00  0.00     0.189 HD
HETATM    6  C5  UNL     1      -0.192  -0.666  -0.699  1.00  0.00     0.168 A 
HETATM    7  N3  UNL     1      -1.431  -1.016  -0.858  1.00  0.00    -0.302 N 
ATOM      8  H3  UNL     1      -1.809  -1.009  -1.805  1.00  0.00     0.171 HD
HETATM    9  C6  UNL     1      -2.279  -1.400   0.176  1.00  0.00     0.262 C 
HETATM   10  O2  UNL     1      -1.892  -2.222   1.034  1.00  0.00    -0.267 OA
HETATM   11  S1  UNL     1       0.916  -0.182  -1.906  1.00  0.00    -0.038 SA
ENDROOT
BRANCH   9  12
HETATM   12  C7  UNL     1      -3.621  -0.861   0.284  1.00  0.00     0.096 A 
HETATM   13  C8  UNL     1      -4.691  -1.499  -0.340  1.00  0.00     0.157 A 
HETATM   14  F1  UNL     1      -4.406  -2.621  -1.032  1.00  0.00    -0.203 F 
HETATM   15  C9  UNL     1      -5.968  -0.984  -0.236  1.00  0.00     0.097 A 
HETATM   16 CL1  UNL     1      -7.284  -1.826  -1.040  1.00  0.00    -0.079 Cl
HETATM   17  C10 UNL     1      -6.242   0.151   0.467  1.00  0.00     0.082 A 
HETATM   18 CL2  UNL     1      -7.890   0.735   0.548  1.00  0.00    -0.081 Cl
HETATM   19  C11 UNL     1      -5.191   0.793   1.090  1.00  0.00     0.080 A 
HETATM   20 CL3  UNL     1      -5.497   2.257   2.005  1.00  0.00    -0.081 Cl
HETATM   21  C12 UNL     1      -3.903   0.292   0.997  1.00  0.00     0.076 A 
HETATM   22 CL4  UNL     1      -2.601   1.157   1.815  1.00  0.00    -0.081 Cl
ENDBRANCH   9  12
BRANCH   1  23
HETATM   23  C3  UNL     1       3.658   0.552  -1.240  1.00  0.00     0.092 C 
BRANCH  23  24
HETATM   24  C2  UNL     1       4.506   0.648   0.001  1.00  0.00     0.173 C 
BRANCH  24  25
HETATM   25  O1  UNL     1       5.771   1.076  -0.397  1.00  0.00    -0.396 OA
HETATM   26  C1  UNL     1       6.616   1.188   0.711  1.00  0.00     0.201 C 
ENDBRANCH  24  25
ENDBRANCH  23  24
ENDBRANCH   1  23
TORSDOF 4
