REMARK  2 active torsions:
REMARK  status: ('A' for Active; 'I' for Inactive)
REMARK    1  A    between atoms: C6_12  and  N4_13 
REMARK    2  A    between atoms: C9_19  and  N6_20 
ROOT
HETATM    1  N1  UNL     1      -5.685   2.881  -1.057  1.00  0.00    -0.172 NA
HETATM    2  C1  UNL     1      -5.634   1.842  -0.563  1.00  0.00     0.183 C 
HETATM    3  N2  UNL     1      -5.607   0.622   0.021  1.00  0.00    -0.279 N 
ATOM      4  H2  UNL     1      -6.520   0.292   0.333  1.00  0.00     0.179 HD
HETATM    5  C2  UNL     1      -4.658  -0.189   0.253  1.00  0.00     0.128 A 
HETATM    6  N3  UNL     1      -4.903  -1.460   0.907  1.00  0.00    -0.308 N 
ATOM      7  H3  UNL     1      -5.804  -1.814   1.228  1.00  0.00     0.170 HD
HETATM    8  C3  UNL     1      -3.661  -2.113   1.015  1.00  0.00     0.258 A 
HETATM    9  O1  UNL     1      -3.460  -3.259   1.535  1.00  0.00    -0.267 OA
HETATM   10  C4  UNL     1      -2.653  -1.247   0.429  1.00  0.00     0.048 A 
HETATM   11  C5  UNL     1      -1.296  -1.437   0.294  1.00  0.00     0.048 A 
HETATM   12  C6  UNL     1      -0.493  -0.488  -0.298  1.00  0.00     0.045 A 
HETATM   13  C14 UNL     1      -1.105   0.675  -0.757  1.00  0.00     0.031 A 
HETATM   14  C15 UNL     1      -2.457   0.880  -0.630  1.00  0.00     0.018 A 
HETATM   15  C16 UNL     1      -3.243  -0.077  -0.037  1.00  0.00     0.025 A 
ENDROOT
BRANCH  12  16
HETATM   16  N4  UNL     1       0.894  -0.677  -0.438  1.00  0.00    -0.262 N 
HETATM   17  C7  UNL     1       1.589  -1.696  -0.942  1.00  0.00     0.332 A 
HETATM   18  O2  UNL     1       1.049  -2.732  -1.409  1.00  0.00    -0.246 OA
HETATM   19  N5  UNL     1       2.911  -1.473  -0.887  1.00  0.00    -0.304 N 
HETATM   20  C8  UNL     1       3.092  -0.245  -0.316  1.00  0.00     0.098 A 
ATOM     21  H5  UNL     1       3.645  -2.103  -1.211  1.00  0.00     0.171 HD
HETATM   22  C9  UNL     1       4.237   0.481  -0.018  1.00  0.00     0.149 A 
HETATM   23  C13 UNL     1       1.831   0.238  -0.043  1.00  0.00     0.073 A 
HETATM   24  C10 UNL     1       4.144   1.728   0.571  1.00  0.00     0.046 A 
HETATM   25 BR1  UNL     1       5.706   2.747   0.992  1.00  0.00    -0.048 Br
HETATM   26  C11 UNL     1       2.875   2.199   0.839  1.00  0.00     0.024 A 
HETATM   27  C12 UNL     1       1.733   1.486   0.547  1.00  0.00     0.034 A 
BRANCH  22  28
HETATM   28  N6  UNL     1       5.506  -0.064  -0.320  1.00  0.00    -0.112 N 
HETATM   29  O3  UNL     1       5.880  -0.113  -1.491  1.00  0.00    -0.532 OA
HETATM   30  O4  UNL     1       6.332  -0.542   0.665  1.00  0.00    -0.532 OA
ENDBRANCH  22  28
ENDBRANCH  12  16
TORSDOF 2
