REMARK  5 active torsions:
REMARK  status: ('A' for Active; 'I' for Inactive)
REMARK    1  A    between atoms: S1_3  and  C3_5 
REMARK    2  A    between atoms: S1_3  and  C15_24 
REMARK    3  A    between atoms: C6_8  and  C7_9 
REMARK    4  A    between atoms: C8_10  and  C9_11 
REMARK    5  A    between atoms: C12_14  and  N1_15 
ROOT
HETATM    1  C1  UNL     1       2.711  -3.364   0.634  1.00  0.00     0.027 C 
HETATM    2  C2  UNL     1       2.666  -2.292   1.186  1.00  0.00    -0.014 C 
HETATM    3  S1  UNL     1       2.559  -0.452   2.167  1.00  0.00     0.093 S 
HETATM    4  O1  UNL     1       2.591   0.585   2.859  1.00  0.00    -0.246 OA
ENDROOT
BRANCH   3   5
HETATM    5  C3  UNL     1       0.653  -0.321   1.687  1.00  0.00     0.105 A 
HETATM    6  C4  UNL     1       0.258  -0.313   0.359  1.00  0.00     0.041 A 
HETATM    7  C5  UNL     1      -1.067  -0.232  -0.012  1.00  0.00     0.025 A 
HETATM    8  C6  UNL     1      -2.042  -0.156   0.934  1.00  0.00     0.033 A 
HETATM    9  C14 UNL     1      -1.640  -0.165   2.258  1.00  0.00     0.109 A 
HETATM   10  N3  UNL     1      -0.338  -0.245   2.581  1.00  0.00    -0.357 N 
ATOM     11  H3  UNL     1      -0.090  -0.248   3.570  1.00  0.00     0.166 HD
BRANCH   8  12
HETATM   12  C7  UNL     1      -3.425  -0.074   0.560  1.00  0.00    -0.060 C 
HETATM   13  C8  UNL     1      -4.591  -0.020   0.261  1.00  0.00    -0.060 C 
BRANCH  13  14
HETATM   14  C9  UNL     1      -5.982   0.027  -0.097  1.00  0.00     0.033 A 
HETATM   15  C10 UNL     1      -6.629   1.243  -0.334  1.00  0.00     0.026 A 
HETATM   16  C11 UNL     1      -7.950   1.305  -0.676  1.00  0.00     0.049 A 
HETATM   17  C12 UNL     1      -8.667   0.137  -0.790  1.00  0.00     0.098 A 
HETATM   18  N2  UNL     1      -8.067  -1.056  -0.567  1.00  0.00    -0.351 N 
HETATM   19  C13 UNL     1      -6.753  -1.107  -0.228  1.00  0.00     0.110 A 
ATOM     20  H2  UNL     1      -8.604  -1.919  -0.654  1.00  0.00     0.166 HD
BRANCH  17  21
HETATM   21  N1  UNL     1      -9.906   0.213  -1.112  1.00  0.00    -0.385 N 
ATOM     22  H12 UNL     1     -10.358   1.112  -1.280  1.00  0.00     0.157 HD
ATOM     23  H11 UNL     1     -10.438  -0.653  -1.197  1.00  0.00     0.157 HD
ENDBRANCH  17  21
ENDBRANCH  13  14
ENDBRANCH   8  12
ENDBRANCH   3   5
BRANCH   3  24
HETATM   24  C15 UNL     1       3.668   0.308   0.635  1.00  0.00     0.082 A 
HETATM   25  C16 UNL     1       3.262   1.169  -0.306  1.00  0.00     0.114 A 
HETATM   26  N4  UNL     1       4.310   1.427  -1.134  1.00  0.00    -0.358 N 
HETATM   27  C17 UNL     1       4.274   2.310  -2.277  1.00  0.00     0.156 C 
HETATM   28  C18 UNL     1       5.392   0.745  -0.743  1.00  0.00     0.064 A 
HETATM   29  C19 UNL     1       6.699   0.592  -1.151  1.00  0.00     0.057 A 
HETATM   30  C22 UNL     1       4.973   0.029   0.393  1.00  0.00     0.080 A 
HETATM   31  C20 UNL     1       7.569  -0.219  -0.492  1.00  0.00     0.051 A 
HETATM   32 CL1  UNL     1       9.241  -0.433  -0.991  1.00  0.00    -0.083 Cl
HETATM   33  C21 UNL     1       7.123  -0.912   0.626  1.00  0.00     0.112 A 
HETATM   34  N5  UNL     1       5.849  -0.768   1.031  1.00  0.00    -0.361 N 
ATOM     35  H5  UNL     1       5.535  -1.283   1.854  1.00  0.00     0.165 HD
ENDBRANCH   3  24
TORSDOF 5
