REMARK  3 active torsions:
REMARK  status: ('A' for Active; 'I' for Inactive)
REMARK    1  A    between atoms: C4_6  and  N2_7 
REMARK    2  A    between atoms: C9_14  and  S1_15 
REMARK    3  A    between atoms: S1_15  and  N4_16 
ROOT
HETATM    1  C1  UNL     1      -3.834   2.924   2.581  1.00  0.00     0.104 C 
HETATM    2  C2  UNL     1      -3.442   2.000   1.879  1.00  0.00    -0.130 C 
HETATM    3  C3  UNL     1      -2.960   0.928   1.048  1.00  0.00     0.105 A 
HETATM    4  N1  UNL     1      -1.770   0.984   0.420  1.00  0.00    -0.183 N 
ATOM      5  H1  UNL     1      -1.201   1.821   0.547  1.00  0.00     0.185 HD
HETATM    6  C4  UNL     1      -1.286   0.004  -0.364  1.00  0.00     0.693 A 
HETATM    7  N5  UNL     1      -2.039  -1.102  -0.528  1.00  0.00    -0.175 N 
ATOM      8  H5  UNL     1      -1.688  -1.856  -1.118  1.00  0.00     0.186 HD
HETATM    9  C13 UNL     1      -3.246  -1.241   0.067  1.00  0.00     0.135 A 
HETATM   10  N6  UNL     1      -4.184  -2.206   0.078  1.00  0.00    -0.350 N 
ATOM     11  H6  UNL     1      -4.109  -3.088  -0.429  1.00  0.00     0.166 HD
HETATM   12  C14 UNL     1      -5.220  -1.861   0.834  1.00  0.00     0.110 A 
HETATM   13  C15 UNL     1      -4.931  -0.599   1.337  1.00  0.00     0.043 A 
HETATM   14 BR1  UNL     1      -6.103   0.350   2.484  1.00  0.00    -0.049 Br
HETATM   15  C16 UNL     1      -3.712  -0.205   0.869  1.00  0.00     0.062 A 
ENDROOT
BRANCH   6  16
HETATM   16  N2  UNL     1      -0.029   0.094  -1.012  1.00  0.00    -0.134 N 
HETATM   17  C5  UNL     1       0.207   0.373  -2.304  1.00  0.00     0.102 A 
HETATM   18  C6  UNL     1      -0.868   0.642  -3.301  1.00  0.00     0.090 C 
HETATM   19  N3  UNL     1       1.530   0.370  -2.546  1.00  0.00    -0.343 N 
HETATM   20  C7  UNL     1       2.169   0.085  -1.390  1.00  0.00     0.063 A 
ATOM     21  H3  UNL     1       1.974   0.551  -3.446  1.00  0.00     0.167 HD
HETATM   22  C8  UNL     1       3.496  -0.048  -1.049  1.00  0.00     0.057 A 
HETATM   23  C12 UNL     1       1.169  -0.081  -0.456  1.00  0.00     0.085 A 
HETATM   24  C9  UNL     1       3.811  -0.353   0.256  1.00  0.00     0.081 A 
HETATM   25  C10 UNL     1       2.847  -0.529   1.229  1.00  0.00     0.028 A 
HETATM   26  C11 UNL     1       1.527  -0.386   0.841  1.00  0.00     0.034 A 
BRANCH  24  27
HETATM   27  S1  UNL     1       5.513  -0.517   0.664  1.00  0.00     0.256 S 
HETATM   28  O1  UNL     1       5.711  -1.497   1.772  1.00  0.00    -0.201 OA
HETATM   29  O2  UNL     1       6.281  -0.979  -0.541  1.00  0.00    -0.201 OA
BRANCH  27  30
HETATM   30  N4  UNL     1       6.157   0.998   1.153  1.00  0.00    -0.324 N 
ATOM     31  H42 UNL     1       5.616   1.862   1.195  1.00  0.00     0.169 HD
ATOM     32  H41 UNL     1       7.145   0.903   1.390  1.00  0.00     0.169 HD
ENDBRANCH  27  30
ENDBRANCH  24  27
ENDBRANCH   6  16
TORSDOF 3
