REMARK  2 active torsions:
REMARK  status: ('A' for Active; 'I' for Inactive)
REMARK    1  A    between atoms: C7_13  and  S1_14 
REMARK    2  A    between atoms: S1_14  and  C8_17 
ROOT
HETATM    1  O1  UNL     1       6.442  -0.303  -2.548  1.00  0.00    -0.260 OA
HETATM    2  C1  UNL     1       5.581   0.039  -1.700  1.00  0.00     0.291 A 
HETATM    3  N1  UNL     1       5.851   0.755  -0.612  1.00  0.00    -0.284 N 
ATOM      4  H1  UNL     1       6.823   1.033  -0.475  1.00  0.00     0.172 HD
HETATM    5  C2  UNL     1       4.983   1.144   0.314  1.00  0.00     0.260 A 
HETATM    6  O2  UNL     1       5.452   1.830   1.288  1.00  0.00    -0.267 OA
HETATM    7  C3  UNL     1       3.639   0.893   0.346  1.00  0.00     0.052 A 
HETATM    8  C4  UNL     1       2.865   1.382   1.406  1.00  0.00     0.021 A 
HETATM    9  C5  UNL     1       1.507   1.159   1.488  1.00  0.00     0.033 A 
HETATM   10  C6  UNL     1       0.859   0.434   0.510  1.00  0.00     0.062 A 
HETATM   11  N2  UNL     1      -0.396   0.032   0.264  1.00  0.00    -0.331 N 
ATOM     12  H2  UNL     1      -1.193   0.238   0.867  1.00  0.00     0.168 HD
HETATM   13  C7  UNL     1      -0.473  -0.674  -0.873  1.00  0.00     0.209 A 
HETATM   14  N3  UNL     1       0.782  -0.741  -1.398  1.00  0.00    -0.330 N 
ATOM     15  H3  UNL     1       1.052  -1.212  -2.262  1.00  0.00     0.168 HD
HETATM   16  C14 UNL     1       1.600  -0.071  -0.566  1.00  0.00     0.079 A 
HETATM   17  C15 UNL     1       2.940   0.176  -0.602  1.00  0.00     0.054 A 
HETATM   18  S2  UNL     1       3.942  -0.400  -1.882  1.00  0.00    -0.026 SA
ENDROOT
BRANCH  13  19
HETATM   19  S1  UNL     1      -1.937  -1.361  -1.520  1.00  0.00     0.238 S 
HETATM   20  O3  UNL     1      -2.210  -0.791  -2.889  1.00  0.00    -0.214 OA
HETATM   21  O4  UNL     1      -1.875  -2.867  -1.574  1.00  0.00    -0.214 OA
BRANCH  19  22
HETATM   22  C8  UNL     1      -3.254  -0.960  -0.424  1.00  0.00     0.068 A 
HETATM   23  C9  UNL     1      -3.586  -1.789   0.620  1.00  0.00     0.024 A 
HETATM   24  C10 UNL     1      -4.620  -1.431   1.444  1.00  0.00     0.003 A 
HETATM   25  C11 UNL     1      -5.345  -0.269   1.270  1.00  0.00     0.019 A 
HETATM   26  C12 UNL     1      -5.005   0.558   0.218  1.00  0.00     0.012 A 
HETATM   27 BR1  UNL     1      -5.958   2.193  -0.100  1.00  0.00    -0.051 Br
HETATM   28  C13 UNL     1      -3.970   0.202  -0.608  1.00  0.00     0.043 A 
ENDBRANCH  19  22
ENDBRANCH  13  19
TORSDOF 2
