REMARK  6 active torsions:
REMARK  status: ('A' for Active; 'I' for Inactive)
REMARK    1  A    between atoms: C2_2  and  C4_4 
REMARK    2  A    between atoms: C11_13  and  N1_14 
REMARK    3  A    between atoms: N1_14  and  C12_16 
REMARK    4  A    between atoms: C12_16  and  C13_17 
REMARK    5  A    between atoms: C13_17  and  N2_18 
REMARK       I    between atoms: N2_18  and  C14_20 
REMARK    6  A    between atoms: C14_20  and  C15_22 
ROOT
HETATM    1  C15 UNL     1      -6.015  -1.531  -1.181  1.00  0.00     0.226 C 
HETATM    2  C16 UNL     1      -6.320  -2.766  -0.472  1.00  0.00     0.068 C 
HETATM    3  N3  UNL     1      -6.574  -3.738   0.101  1.00  0.00    -0.197 NA
ENDROOT
BRANCH   1   4
HETATM    4  C14 UNL     1      -5.636  -0.438  -0.224  1.00  0.00     0.230 C 
HETATM    5  N2  UNL     1      -5.306   0.837  -0.732  1.00  0.00    -0.359 N 
ATOM      6  H2  UNL     1      -5.336   0.979  -1.742  1.00  0.00     0.162 HD
HETATM    7  O2  UNL     1      -5.615  -0.664   1.011  1.00  0.00    -0.273 OA
BRANCH   5   8
HETATM    8  C13 UNL     1      -4.927   1.953   0.107  1.00  0.00     0.142 C 
BRANCH   8   9
HETATM    9  C12 UNL     1      -3.687   1.602   0.885  1.00  0.00     0.140 C 
BRANCH   9  10
HETATM   10  N1  UNL     1      -2.575   1.290   0.020  1.00  0.00    -0.377 N 
ATOM     11  H1  UNL     1      -2.716   1.332  -0.989  1.00  0.00     0.160 HD
BRANCH  10  12
HETATM   12  C11 UNL     1      -1.295   0.928   0.512  1.00  0.00     0.100 C 
HETATM   13  C10 UNL     1      -0.555  -0.363   0.356  1.00  0.00     0.119 C 
HETATM   14  C7  UNL     1       0.872   0.120   0.633  1.00  0.00     0.102 C 
HETATM   15  C6  UNL     1       1.503   0.593  -0.630  1.00  0.00     0.044 C 
HETATM   16  C8  UNL     1       1.622  -0.999   1.310  1.00  0.00     0.121 C 
HETATM   17  O3  UNL     1       0.629   1.143   1.560  1.00  0.00    -0.267 OA
HETATM   18  C5  UNL     1       2.927   0.126  -0.813  1.00  0.00     0.037 C 
HETATM   19  C4  UNL     1       3.713   0.217   0.477  1.00  0.00     0.100 C 
HETATM   20 CL1  UNL     1       3.757   1.911   1.010  1.00  0.00    -0.110 Cl
HETATM   21  C9  UNL     1       3.052  -0.671   1.461  1.00  0.00     0.153 C 
HETATM   22  O1  UNL     1       3.696  -1.115   2.374  1.00  0.00    -0.296 OA
HETATM   23  N4  UNL     1      -0.559   1.728   1.205  1.00  0.00    -0.254 N 
ATOM     24  H4  UNL     1      -0.827   2.679   1.458  1.00  0.00     0.195 HD
BRANCH  19  25
HETATM   25  C2  UNL     1       5.134  -0.213   0.197  1.00  0.00     0.008 C 
HETATM   26  C1  UNL     1       5.768   0.636  -0.882  1.00  0.00     0.012 C 
HETATM   27  C3  UNL     1       5.244  -1.648  -0.200  1.00  0.00     0.012 C 
ENDBRANCH  19  25
ENDBRANCH  10  12
ENDBRANCH   9  10
ENDBRANCH   8   9
ENDBRANCH   5   8
ENDBRANCH   1   4
TORSDOF 6
