REMARK  5 active torsions:
REMARK  status: ('A' for Active; 'I' for Inactive)
REMARK    1  A    between atoms: O1_2  and  C2_3 
REMARK    2  A    between atoms: C5_6  and  C6_7 
REMARK    3  A    between atoms: C6_7  and  C7_8 
REMARK    4  A    between atoms: C7_8  and  C8_9 
REMARK    5  A    between atoms: C8_9  and  C9_10 
ROOT
HETATM    1  C7  UNL     1       0.972  -1.045   1.166  1.00  0.00     0.011 C 
ENDROOT
BRANCH   1   2
HETATM    2  C6  UNL     1      -0.037  -1.578   0.249  1.00  0.00     0.039 C 
BRANCH   2   3
HETATM    3  C5  UNL     1      -1.348  -0.901   0.234  1.00  0.00    -0.057 A 
HETATM    4  C4  UNL     1      -1.677   0.072  -0.638  1.00  0.00     0.010 A 
HETATM    5  C3  UNL     1      -2.930   0.713  -0.627  1.00  0.00     0.039 A 
HETATM    6  C2  UNL     1      -3.883   0.358   0.296  1.00  0.00     0.085 A 
HETATM    7  C13 UNL     1      -3.557  -0.634   1.190  1.00  0.00     0.044 A 
HETATM    8  C12 UNL     1      -2.334  -1.255   1.174  1.00  0.00     0.029 A 
HETATM    9 BR1  UNL     1      -4.852  -1.150   2.481  1.00  0.00    -0.048 Br
BRANCH   6  10
HETATM   10  O1  UNL     1      -5.116   0.978   0.318  1.00  0.00    -0.355 OA
HETATM   11  C1  UNL     1      -5.475   2.001  -0.590  1.00  0.00     0.210 C 
ENDBRANCH   6  10
ENDBRANCH   2   3
ENDBRANCH   1   2
BRANCH   1  12
HETATM   12  C8  UNL     1       1.616   0.248   1.030  1.00  0.00     0.058 C 
BRANCH  12  13
HETATM   13  C9  UNL     1       2.637   0.480  -0.044  1.00  0.00     0.018 C 
HETATM   14  C10 UNL     1       2.278   0.312  -1.437  1.00  0.00     0.082 C 
HETATM   15  S1  UNL     1       3.016  -1.123  -2.295  1.00  0.00    -0.059 SA
HETATM   16  S2  UNL     1       5.126  -0.846  -1.929  1.00  0.00    -0.017 SA
HETATM   17  C11 UNL     1       5.107  -0.208  -0.254  1.00  0.00     0.149 C 
HETATM   18  N1  UNL     1       6.232   0.128   0.287  1.00  0.00    -0.379 N 
HETATM   19  N2  UNL     1       3.874  -0.106   0.412  1.00  0.00    -0.340 N 
ATOM     20  H12 UNL     1       7.127   0.054  -0.196  1.00  0.00     0.158 HD
ATOM     21  H11 UNL     1       6.221   0.491   1.240  1.00  0.00     0.158 HD
ATOM     22  H2  UNL     1       3.850  -0.503   1.351  1.00  0.00     0.168 HD
ENDBRANCH  12  13
ENDBRANCH   1  12
TORSDOF 5
