REMARK  3 active torsions:
REMARK  status: ('A' for Active; 'I' for Inactive)
REMARK    1  A    between atoms: N1_1  and  C1_4 
REMARK    2  A    between atoms: C2_7  and  N3_8 
REMARK    3  A    between atoms: C5_13  and  C6_14 
ROOT
HETATM    1  C1  UNL     1      -3.179   1.129  -0.045  1.00  0.00     0.678 A 
HETATM    2  N2  UNL     1      -1.849   1.309  -0.099  1.00  0.00    -0.176 N 
ATOM      3  H2  UNL     1      -1.494   2.208  -0.426  1.00  0.00     0.186 HD
HETATM    4  C2  UNL     1      -0.957   0.357   0.259  1.00  0.00     0.133 A 
HETATM    5  C8  UNL     1      -1.438  -0.873   0.706  1.00  0.00     0.095 A 
HETATM    6  C9  UNL     1      -2.808  -1.015   0.746  1.00  0.00     0.135 A 
HETATM    7  N6  UNL     1      -3.317  -2.260   1.199  1.00  0.00    -0.082 NA
HETATM    8  N7  UNL     1      -3.666  -0.061   0.388  1.00  0.00    -0.179 N 
ATOM      9  H7  UNL     1      -4.672  -0.222   0.439  1.00  0.00     0.185 HD
ENDROOT
BRANCH   4  10
HETATM   10  N3  UNL     1       0.442   0.562   0.196  1.00  0.00    -0.271 N 
HETATM   11  C3  UNL     1       0.950   1.696   0.708  1.00  0.00     0.119 A 
HETATM   12  C4  UNL     1       2.309   1.967   0.684  1.00  0.00     0.106 A 
HETATM   13  N4  UNL     1       3.109   1.067   0.134  1.00  0.00    -0.356 N 
HETATM   14  C5  UNL     1       2.618  -0.082  -0.388  1.00  0.00     0.167 A 
ATOM     15  H4  UNL     1       4.113   1.242   0.103  1.00  0.00     0.165 HD
HETATM   16  C7  UNL     1       1.256  -0.345  -0.359  1.00  0.00     0.285 A 
HETATM   17  O2  UNL     1       0.873  -1.420  -0.856  1.00  0.00    -0.265 OA
BRANCH  14  18
HETATM   18  C6  UNL     1       3.568  -1.007  -0.968  1.00  0.00     0.287 C 
HETATM   19  N5  UNL     1       4.960  -0.729  -0.993  1.00  0.00    -0.056 NA
HETATM   20  O1  UNL     1       3.143  -2.087  -1.463  1.00  0.00    -0.269 OA
ENDBRANCH  14  18
ENDBRANCH   4  10
BRANCH   1  21
HETATM   21  N1  UNL     1      -3.947   2.078  -0.401  1.00  0.00    -0.234 N 
ATOM     22  H12 UNL     1      -3.581   2.973  -0.727  1.00  0.00     0.174 HD
ATOM     23  H11 UNL     1      -4.957   1.941  -0.360  1.00  0.00     0.174 HD
ENDBRANCH   1  21
TORSDOF 3
