REMARK  5 active torsions:
REMARK  status: ('A' for Active; 'I' for Inactive)
REMARK    1  A    between atoms: C2_2  and  C3_3 
REMARK    2  A    between atoms: C3_3  and  C4_4 
REMARK    3  A    between atoms: C5_5  and  C6_6 
REMARK    4  A    between atoms: C17_19  and  O3_20 
REMARK    5  A    between atoms: C19_23  and  O4_24 
ROOT
HETATM    1  C6  UNL     1       1.946   1.445  -0.841  1.00  0.00     0.120 C 
HETATM    2  C7  UNL     1       1.965   2.909  -1.240  1.00  0.00     0.268 C 
HETATM    3  O1  UNL     1       2.789   3.388  -2.028  1.00  0.00    -0.264 OA
HETATM    4  O2  UNL     1       0.954   3.512  -0.585  1.00  0.00    -0.315 OA
HETATM    5  C8  UNL     1       0.091   2.547  -0.002  1.00  0.00     0.143 C 
HETATM    6  C9  UNL     1      -1.024   2.299  -0.916  1.00  0.00     0.039 C 
HETATM    7  C10 UNL     1      -1.860   1.277  -0.153  1.00  0.00     0.009 C 
HETATM    8  C11 UNL     1      -3.181   1.327  -0.786  1.00  0.00     0.010 C 
HETATM    9  C12 UNL     1      -3.833   2.656  -0.357  1.00  0.00     0.014 C 
HETATM   10  C13 UNL     1      -4.040   0.267  -0.283  1.00  0.00    -0.012 C 
HETATM   11  C14 UNL     1      -3.520  -0.759   0.361  1.00  0.00    -0.027 C 
HETATM   12  C15 UNL     1      -4.464  -1.773   0.826  1.00  0.00     0.008 C 
HETATM   13  C16 UNL     1      -4.155  -3.053   0.671  1.00  0.00     0.005 C 
HETATM   14  C17 UNL     1      -2.850  -3.317   0.022  1.00  0.00     0.144 C 
HETATM   15  C18 UNL     1      -1.821  -2.419   0.596  1.00  0.00     0.079 C 
HETATM   16  C19 UNL     1      -2.087  -0.967   0.686  1.00  0.00     0.097 C 
HETATM   17  C20 UNL     1      -1.151  -0.047  -0.077  1.00  0.00     0.018 C 
HETATM   18  C21 UNL     1      -1.187  -0.584  -1.511  1.00  0.00     0.021 C 
HETATM   19  C22 UNL     1       0.234   0.050   0.404  1.00  0.00     0.055 C 
HETATM   20  C23 UNL     1       0.531  -0.469   1.773  1.00  0.00     0.034 C 
HETATM   21 CL1  UNL     1       1.201  -1.073  -0.659  1.00  0.00    -0.118 Cl
HETATM   22  C24 UNL     1       0.989   1.354   0.300  1.00  0.00     0.021 C 
HETATM   23  C25 UNL     1       1.649   1.828   1.568  1.00  0.00     0.021 C 
ENDROOT
BRANCH   1  24
HETATM   24  C5  UNL     1       3.307   0.961  -0.737  1.00  0.00    -0.015 C 
HETATM   25  C4  UNL     1       4.041   0.401   0.160  1.00  0.00    -0.030 C 
BRANCH  25  26
HETATM   26  C3  UNL     1       5.484   0.008  -0.059  1.00  0.00     0.026 C 
BRANCH  26  27
HETATM   27  C2  UNL     1       5.720  -1.466   0.124  1.00  0.00    -0.001 C 
HETATM   28  C1  UNL     1       4.902  -2.228  -0.859  1.00  0.00     0.005 C 
ENDBRANCH  26  27
ENDBRANCH  25  26
ENDBRANCH   1  24
BRANCH  16  29
HETATM   29  O4  UNL     1      -2.023  -0.472   2.028  1.00  0.00    -0.384 OA
ATOM     30  H4  UNL     1      -1.106  -0.605   2.236  1.00  0.00     0.211 HD
ENDBRANCH  16  29
BRANCH  14  31
HETATM   31  O3  UNL     1      -2.938  -3.389  -1.349  1.00  0.00    -0.392 OA
ATOM     32  H3  UNL     1      -2.101  -3.558  -1.765  1.00  0.00     0.210 HD
ENDBRANCH  14  31
TORSDOF 5
