REMARK  3 active torsions:
REMARK  status: ('A' for Active; 'I' for Inactive)
REMARK    1  A    between atoms: O1_2  and  C2_3 
REMARK    2  A    between atoms: C7_8  and  C8_9 
REMARK    3  A    between atoms: C10_11  and  C11_12 
ROOT
HETATM    1  C8  UNL     1      -0.753   0.201  -0.559  1.00  0.00     0.043 A 
HETATM    2  C9  UNL     1       0.376  -0.006   0.202  1.00  0.00     0.046 A 
HETATM    3  C10 UNL     1       1.420   0.658  -0.353  1.00  0.00     0.022 A 
HETATM    4  C16 UNL     1       0.943   1.291  -1.476  1.00  0.00     0.018 A 
HETATM    5  C17 UNL     1       1.762   2.136  -2.389  1.00  0.00     0.069 C 
HETATM    6  N2  UNL     1      -0.359   0.995  -1.566  1.00  0.00    -0.358 N 
ATOM      7  H2  UNL     1      -0.974   1.331  -2.307  1.00  0.00     0.166 HD
ENDROOT
BRANCH   1   8
HETATM    8  C7  UNL     1      -2.098  -0.311  -0.347  1.00  0.00    -0.006 A 
HETATM    9  C6  UNL     1      -3.114   0.002  -1.218  1.00  0.00     0.020 A 
HETATM   10  C4  UNL     1      -4.408  -0.480  -1.031  1.00  0.00    -0.059 A 
HETATM   11  C3  UNL     1      -4.694  -1.291   0.045  1.00  0.00     0.043 A 
HETATM   12  C5  UNL     1      -5.515  -0.152  -1.959  1.00  0.00     0.048 C 
HETATM   13  C2  UNL     1      -3.670  -1.617   0.938  1.00  0.00     0.069 A 
HETATM   14  C18 UNL     1      -2.400  -1.120   0.719  1.00  0.00     0.050 A 
BRANCH  13  15
HETATM   15  O1  UNL     1      -3.935  -2.425   2.020  1.00  0.00    -0.356 OA
HETATM   16  C1  UNL     1      -5.209  -2.951   2.279  1.00  0.00     0.210 C 
ENDBRANCH  13  15
ENDBRANCH   1   8
BRANCH   3  17
HETATM   17  C11 UNL     1       2.820   0.712   0.131  1.00  0.00     0.087 A 
HETATM   18  N1  UNL     1       3.395   0.166   1.166  1.00  0.00    -0.353 N 
HETATM   19  C12 UNL     1       4.657   0.353   1.399  1.00  0.00     0.019 A 
ATOM     20  H1  UNL     1       2.846  -0.415   1.800  1.00  0.00     0.166 HD
HETATM   21  C13 UNL     1       5.374  -0.257   2.586  1.00  0.00     0.069 C 
HETATM   22  C14 UNL     1       5.353   1.144   0.518  1.00  0.00     0.003 A 
HETATM   23  C15 UNL     1       6.787   1.548   0.502  1.00  0.00     0.058 C 
HETATM   24  S1  UNL     1       4.122   1.565  -0.597  1.00  0.00    -0.074 SA
ENDBRANCH   3  17
TORSDOF 3
