REMARK  17 active torsions:
REMARK  status: ('A' for Active; 'I' for Inactive)
REMARK    1  A    between atoms: C2_2  and  C3_3 
REMARK    2  A    between atoms: C3_3  and  O1_4 
REMARK    3  A    between atoms: O1_4  and  C4_5 
REMARK    4  A    between atoms: C6_7  and  C7_8 
REMARK    5  A    between atoms: C7_8  and  N1_9 
REMARK    6  A    between atoms: C10_12  and  N2_13 
REMARK       I    between atoms: N2_13  and  C11_15 
REMARK    7  A    between atoms: C11_15  and  C12_17 
REMARK    8  A    between atoms: C12_17  and  O3_18 
REMARK    9  A    between atoms: O3_18  and  C13_19 
REMARK   10  A    between atoms: C13_19  and  C14_21 
REMARK   11  A    between atoms: C14_21  and  C15_22 
REMARK   12  A    between atoms: N3_25  and  C18_26 
REMARK   13  A    between atoms: C18_26  and  C19_27 
REMARK       I    between atoms: C19_27  and  N4_29 
REMARK   14  A    between atoms: N4_29  and  C20_31 
REMARK   15  A    between atoms: C33_45  and  O7_46 
REMARK   16  A    between atoms: C34_48  and  O8_49 
REMARK   17  A    between atoms: O8_49  and  C35_50 
ROOT
HETATM    1  N2  UNL     1       2.511   0.179   2.153  1.00  0.00    -0.346 N 
ATOM      2  H2  UNL     1       2.116  -0.008   1.231  1.00  0.00     0.163 HD
HETATM    3  C11 UNL     1       1.794  -0.248   3.277  1.00  0.00     0.242 C 
HETATM    4  O2  UNL     1       2.271  -0.036   4.421  1.00  0.00    -0.271 OA
ENDROOT
BRANCH   3   5
HETATM    5  C12 UNL     1       0.507  -0.939   3.163  1.00  0.00     0.281 C 
BRANCH   5   6
HETATM    6  O3  UNL     1      -0.049  -0.964   1.881  1.00  0.00    -0.312 OA
BRANCH   6   7
HETATM    7  C13 UNL     1      -0.462   0.158   1.189  1.00  0.00     0.259 C 
HETATM    8  O4  UNL     1      -0.331   1.284   1.755  1.00  0.00    -0.265 OA
BRANCH   7   9
HETATM    9  C14 UNL     1      -1.048   0.147  -0.172  1.00  0.00     0.117 C 
BRANCH   9  10
HETATM   10  C15 UNL     1      -2.549   0.165  -0.015  1.00  0.00     0.025 C 
HETATM   11  C16 UNL     1      -3.008   1.407   0.738  1.00  0.00     0.037 C 
HETATM   12  C17 UNL     1      -4.495   1.398   0.363  1.00  0.00     0.273 C 
HETATM   13  N3  UNL     1      -4.577   0.889  -0.986  1.00  0.00     0.097 N 
HETATM   14  C30 UNL     1      -3.260   0.394  -1.347  1.00  0.00     0.278 C 
BRANCH  13  15
HETATM   15  C18 UNL     1      -5.471  -0.241  -1.017  1.00  0.00     0.374 C 
BRANCH  15  16
HETATM   16  C19 UNL     1      -6.881   0.113  -0.761  1.00  0.00     0.246 C 
HETATM   17  O5  UNL     1      -7.169   1.294  -0.547  1.00  0.00    -0.272 OA
HETATM   18  N4  UNL     1      -7.881  -0.885  -0.759  1.00  0.00    -0.350 N 
ATOM     19  H4  UNL     1      -7.598  -1.848  -0.939  1.00  0.00     0.163 HD
BRANCH  18  20
HETATM   20  C20 UNL     1      -9.281  -0.622  -0.517  1.00  0.00     0.034 C 
HETATM   21  C21 UNL     1     -10.000  -1.964  -0.575  1.00  0.00     0.035 C 
HETATM   22  C22 UNL     1     -11.475  -1.765  -0.356  1.00  0.00    -0.012 C 
HETATM   23  C23 UNL     1     -11.667  -1.225   1.054  1.00  0.00     0.009 C 
HETATM   24  C27 UNL     1     -12.050  -0.800  -1.350  1.00  0.00     0.009 C 
HETATM   25  C24 UNL     1     -10.946   0.076   1.169  1.00  0.00    -0.012 C 
HETATM   26  C25 UNL     1     -11.539   1.063   0.187  1.00  0.00     0.009 C 
HETATM   27  C29 UNL     1      -9.473  -0.069   0.865  1.00  0.00     0.035 C 
HETATM   28  C26 UNL     1     -11.340   0.536  -1.200  1.00  0.00    -0.012 C 
HETATM   29  C28 UNL     1      -9.880   0.299  -1.543  1.00  0.00     0.035 C 
ENDBRANCH  18  20
ENDBRANCH  15  16
ENDBRANCH  13  15
ENDBRANCH   9  10
ENDBRANCH   7   9
ENDBRANCH   6   7
ENDBRANCH   5   6
ENDBRANCH   3   5
BRANCH   1  30
HETATM   30  C10 UNL     1       3.784   0.873   2.223  1.00  0.00     0.178 C 
HETATM   31  C9  UNL     1       3.799   2.121   1.367  1.00  0.00     0.054 C 
HETATM   32  C8  UNL     1       4.236   1.616   0.007  1.00  0.00     0.129 C 
HETATM   33  N1  UNL     1       4.875   0.339   0.227  1.00  0.00    -0.346 N 
HETATM   34  C31 UNL     1       4.884   0.095   1.615  1.00  0.00     0.242 C 
HETATM   35  O6  UNL     1       5.723  -0.673   2.182  1.00  0.00    -0.271 OA
BRANCH  33  36
HETATM   36  C7  UNL     1       5.399  -0.487  -0.846  1.00  0.00     0.164 C 
BRANCH  36  37
HETATM   37  C6  UNL     1       6.809  -0.153  -1.151  1.00  0.00    -0.035 A 
HETATM   38  C5  UNL     1       7.893  -0.763  -0.534  1.00  0.00     0.048 A 
HETATM   39  C4  UNL     1       9.205  -0.453  -0.818  1.00  0.00     0.105 A 
HETATM   40  C34 UNL     1       9.486   0.530  -1.780  1.00  0.00     0.135 A 
HETATM   41  C33 UNL     1       8.410   1.130  -2.388  1.00  0.00     0.102 A 
HETATM   42  C32 UNL     1       7.095   0.814  -2.098  1.00  0.00     0.048 A 
BRANCH  39  43
HETATM   43  O1  UNL     1      10.308  -1.021  -0.238  1.00  0.00    -0.348 OA
BRANCH  43  44
HETATM   44  C3  UNL     1      10.462  -1.977   0.729  1.00  0.00     0.175 C 
BRANCH  44  45
HETATM   45  C2  UNL     1       9.914  -1.689   2.088  1.00  0.00     0.022 C 
HETATM   46  C1  UNL     1      10.542  -0.440   2.693  1.00  0.00     0.007 C 
ENDBRANCH  44  45
ENDBRANCH  43  44
ENDBRANCH  39  43
BRANCH  40  47
HETATM   47  O8  UNL     1      10.795   0.874  -2.096  1.00  0.00    -0.346 OA
BRANCH  47  48
HETATM   48  C35 UNL     1      11.464   0.164  -3.148  1.00  0.00     0.171 C 
HETATM   49  C36 UNL     1      12.857   0.668  -3.349  1.00  0.00     0.034 C 
ENDBRANCH  47  48
ENDBRANCH  40  47
BRANCH  41  50
HETATM   50  O7  UNL     1       8.655   2.109  -3.347  1.00  0.00    -0.358 OA
ATOM     51  H7  UNL     1       9.558   2.326  -3.546  1.00  0.00     0.217 HD
ENDBRANCH  41  50
ENDBRANCH  36  37
ENDBRANCH  33  36
ENDBRANCH   1  30
TORSDOF 17
