REMARK  18 active torsions:
REMARK  status: ('A' for Active; 'I' for Inactive)
REMARK    1  A    between atoms: C2_2  and  O1_3 
REMARK    2  A    between atoms: O1_3  and  C3_4 
REMARK       I    between atoms: C3_4  and  N1_6 
REMARK    3  A    between atoms: N2_9  and  C6_10 
REMARK    4  A    between atoms: C6_10  and  N3_12 
REMARK    5  A    between atoms: N3_12  and  C7_14 
REMARK    6  A    between atoms: C7_14  and  C8_15 
REMARK    7  A    between atoms: C8_15  and  C9_16 
REMARK    8  A    between atoms: C9_16  and  C10_17 
REMARK    9  A    between atoms: C10_17  and  C11_18 
REMARK   10  A    between atoms: C11_18  and  C12_19 
REMARK   11  A    between atoms: C12_19  and  S2_20 
REMARK   12  A    between atoms: S2_20  and  S3_21 
REMARK   13  A    between atoms: S3_21  and  C13_22 
REMARK   14  A    between atoms: C13_22  and  C14_23 
REMARK   15  A    between atoms: C14_23  and  N4_24 
REMARK       I    between atoms: N4_24  and  C15_26 
REMARK   16  A    between atoms: C15_26  and  C16_28 
REMARK   17  A    between atoms: C19_32  and  C20_33 
REMARK   18  A    between atoms: C20_33  and  C21_34 
ROOT
HETATM    1  C13 UNL     1       0.622   1.864  -1.258  1.00  0.00     0.105 C 
ENDROOT
BRANCH   1   2
HETATM    2  S3  UNL     1      -1.056   1.253  -0.940  1.00  0.00    -0.096 SA
BRANCH   2   3
HETATM    3  S2  UNL     1      -1.142  -0.220   0.549  1.00  0.00    -0.098 SA
BRANCH   3   4
HETATM    4  C12 UNL     1      -0.935  -1.881  -0.069  1.00  0.00     0.086 C 
BRANCH   4   5
HETATM    5  C11 UNL     1      -1.986  -2.372  -0.992  1.00  0.00     0.011 C 
BRANCH   5   6
HETATM    6  C10 UNL     1      -3.389  -2.383  -0.414  1.00  0.00     0.001 C 
BRANCH   6   7
HETATM    7  C9  UNL     1      -4.369  -2.915  -1.434  1.00  0.00     0.002 C 
BRANCH   7   8
HETATM    8  C8  UNL     1      -5.766  -2.915  -0.862  1.00  0.00     0.020 C 
BRANCH   8   9
HETATM    9  C7  UNL     1      -6.228  -1.536  -0.485  1.00  0.00     0.122 C 
BRANCH   9  10
HETATM   10  N3  UNL     1      -7.577  -1.609   0.027  1.00  0.00    -0.367 N 
ATOM     11  H3  UNL     1      -7.727  -1.444   1.022  1.00  0.00     0.161 HD
BRANCH  10  12
HETATM   12  C6  UNL     1      -8.708  -1.899  -0.787  1.00  0.00     0.169 C 
HETATM   13  S1  UNL     1      -8.525  -2.143  -2.404  1.00  0.00    -0.041 SA
BRANCH  12  14
HETATM   14  N2  UNL     1      -9.989  -1.949  -0.187  1.00  0.00    -0.355 N 
HETATM   15  C5  UNL     1     -10.119  -1.700   1.224  1.00  0.00     0.145 C 
HETATM   16  C4  UNL     1     -11.572  -1.517   1.623  1.00  0.00     0.148 C 
HETATM   17  N1  UNL     1     -12.223  -0.763   0.575  1.00  0.00    -0.325 N 
HETATM   18  C3  UNL     1     -12.785   0.508   0.848  1.00  0.00     0.362 C 
HETATM   19  C31 UNL     1     -12.287  -1.321  -0.746  1.00  0.00     0.148 C 
HETATM   20  O2  UNL     1     -13.350   1.128  -0.079  1.00  0.00    -0.238 OA
HETATM   21  C30 UNL     1     -11.129  -2.255  -1.032  1.00  0.00     0.145 C 
BRANCH  18  22
HETATM   22  O1  UNL     1     -12.742   1.095   2.081  1.00  0.00    -0.304 OA
BRANCH  22  23
HETATM   23  C2  UNL     1     -13.305   2.368   2.352  1.00  0.00     0.176 C 
HETATM   24  C1  UNL     1     -12.652   3.428   1.480  1.00  0.00     0.034 C 
ENDBRANCH  22  23
ENDBRANCH  18  22
ENDBRANCH  12  14
ENDBRANCH  10  12
ENDBRANCH   9  10
ENDBRANCH   8   9
ENDBRANCH   7   8
ENDBRANCH   6   7
ENDBRANCH   5   6
ENDBRANCH   4   5
ENDBRANCH   3   4
ENDBRANCH   2   3
ENDBRANCH   1   2
BRANCH   1  25
HETATM   25  C14 UNL     1       1.496   0.834  -1.880  1.00  0.00     0.133 C 
BRANCH  25  26
HETATM   26  N4  UNL     1       2.799   1.329  -2.151  1.00  0.00    -0.359 N 
HETATM   27  C15 UNL     1       3.677   1.764  -1.150  1.00  0.00     0.248 C 
HETATM   28  O3  UNL     1       3.325   1.713   0.062  1.00  0.00    -0.271 OA
ATOM     29  H4  UNL     1       3.111   1.370  -3.121  1.00  0.00     0.162 HD
BRANCH  27  30
HETATM   30  C16 UNL     1       5.010   2.277  -1.554  1.00  0.00     0.284 C 
HETATM   31  C17 UNL     1       5.783   1.143  -2.191  1.00  0.00     0.123 C 
HETATM   32  C18 UNL     1       7.186   1.651  -1.973  1.00  0.00     0.160 C 
HETATM   33  O4  UNL     1       8.104   1.452  -2.704  1.00  0.00    -0.296 OA
HETATM   34  C19 UNL     1       7.157   2.413  -0.713  1.00  0.00     0.256 C 
HETATM   35  N6  UNL     1       5.761   2.620  -0.362  1.00  0.00    -0.051 N 
ATOM     36  H62 UNL     1       5.561   3.555  -0.005  1.00  0.00     0.279 HD
ATOM     37  H61 UNL     1       5.467   2.109   0.470  1.00  0.00     0.279 HD
BRANCH  34  38
HETATM   38  C20 UNL     1       7.810   1.655   0.419  1.00  0.00     0.047 C 
BRANCH  38  39
HETATM   39  C21 UNL     1       9.258   1.351   0.145  1.00  0.00     0.021 C 
HETATM   40  C22 UNL     1      10.006   2.647  -0.038  1.00  0.00     0.008 C 
HETATM   41  C23 UNL     1      11.477   2.432  -0.283  1.00  0.00     0.031 C 
HETATM   42  C24 UNL     1      11.827   0.986   0.064  1.00  0.00     0.273 C 
HETATM   43  N5  UNL     1      11.230   0.719   1.353  1.00  0.00     0.093 N 
HETATM   44  C25 UNL     1      11.935  -0.237   2.130  1.00  0.00     0.273 C 
HETATM   45  C29 UNL     1       9.804   0.557   1.326  1.00  0.00     0.227 C 
HETATM   46  C26 UNL     1      11.636  -1.617   1.529  1.00  0.00     0.030 C 
HETATM   47  C27 UNL     1      10.184  -1.887   1.822  1.00  0.00     0.004 C 
HETATM   48  C28 UNL     1       9.336  -0.847   1.165  1.00  0.00     0.036 C 
ENDBRANCH  38  39
ENDBRANCH  34  38
ENDBRANCH  27  30
ENDBRANCH  25  26
ENDBRANCH   1  25
TORSDOF 18
