REMARK  13 active torsions:
REMARK  status: ('A' for Active; 'I' for Inactive)
REMARK    1  A    between atoms: C2_2  and  C4_4 
REMARK    2  A    between atoms: C4_4  and  C5_5 
REMARK    3  A    between atoms: C5_5  and  O1_6 
REMARK    4  A    between atoms: C5_5  and  N1_8 
REMARK    5  A    between atoms: N1_8  and  C6_10 
REMARK    6  A    between atoms: C6_10  and  C7_11 
REMARK    7  A    between atoms: C6_10  and  C18_31 
REMARK       I    between atoms: C7_11  and  N2_13 
REMARK       I    between atoms: N3_16  and  C10_17 
REMARK    8  A    between atoms: C10_17  and  O4_19 
REMARK    9  A    between atoms: O4_19  and  C11_20 
REMARK   10  A    between atoms: C11_20  and  C12_21 
REMARK   11  A    between atoms: C12_21  and  C13_22 
REMARK   12  A    between atoms: C13_22  and  C14_23 
REMARK   13  A    between atoms: C14_23  and  N4_24 
ROOT
HETATM    1  C6  UNL     1      -0.160  -0.502  -1.766  1.00  0.00     0.205 C 
ENDROOT
BRANCH   1   2
HETATM    2  N1  UNL     1      -0.220  -1.180  -3.090  1.00  0.00    -0.354 N 
ATOM      3  H1  UNL     1      -0.736  -0.732  -3.848  1.00  0.00     0.162 HD
BRANCH   2   4
HETATM    4  C5  UNL     1       0.398  -2.395  -3.332  1.00  0.00     0.136 C 
BRANCH   4   5
HETATM    5  C4  UNL     1       0.408  -3.138  -4.564  1.00  0.00     0.057 C 
BRANCH   5   6
HETATM    6  C2  UNL     1      -0.102  -2.926  -5.723  1.00  0.00    -0.084 C 
HETATM    7  C1  UNL     1       0.123  -3.964  -6.810  1.00  0.00     0.043 C 
HETATM    8  C3  UNL     1      -0.894  -1.762  -6.129  1.00  0.00     0.043 C 
ENDBRANCH   5   6
ENDBRANCH   4   5
BRANCH   4   9
HETATM    9  O1  UNL     1       1.065  -2.990  -2.378  1.00  0.00    -0.346 OA
ATOM     10  H1  UNL     1       1.058  -2.499  -1.565  1.00  0.00     0.219 HD
ENDBRANCH   4   9
ENDBRANCH   2   4
ENDBRANCH   1   2
BRANCH   1  11
HETATM   11  C7  UNL     1       0.601   0.761  -1.939  1.00  0.00     0.247 C 
HETATM   12  O2  UNL     1       0.416   1.451  -3.011  1.00  0.00    -0.271 OA
HETATM   13  N2  UNL     1       1.530   1.325  -1.065  1.00  0.00    -0.347 N 
HETATM   14  C8  UNL     1       2.162   2.588  -1.386  1.00  0.00     0.146 C 
HETATM   15  C17 UNL     1       1.940   0.706   0.171  1.00  0.00     0.146 C 
HETATM   16  C9  UNL     1       3.535   2.708  -0.769  1.00  0.00     0.148 C 
HETATM   17  N3  UNL     1       4.101   1.382  -0.680  1.00  0.00    -0.325 N 
HETATM   18  C10 UNL     1       5.288   1.064  -1.411  1.00  0.00     0.362 C 
HETATM   19  C16 UNL     1       3.442   0.406   0.158  1.00  0.00     0.148 C 
HETATM   20  O3  UNL     1       5.874   1.885  -2.134  1.00  0.00    -0.238 OA
BRANCH  18  21
HETATM   21  O4  UNL     1       5.787  -0.201  -1.301  1.00  0.00    -0.304 OA
BRANCH  21  22
HETATM   22  C11 UNL     1       6.916  -0.727  -1.907  1.00  0.00     0.180 C 
BRANCH  22  23
HETATM   23  C12 UNL     1       8.157  -0.010  -1.488  1.00  0.00     0.028 C 
BRANCH  23  24
HETATM   24  C13 UNL     1       8.253  -0.165   0.035  1.00  0.00     0.022 C 
BRANCH  24  25
HETATM   25  C14 UNL     1       9.498   0.543   0.541  1.00  0.00     0.122 C 
BRANCH  25  26
HETATM   26  N4  UNL     1       9.632   0.431   1.959  1.00  0.00    -0.367 N 
HETATM   27  C15 UNL     1      10.739   0.208   2.545  1.00  0.00     0.196 C 
HETATM   28  N5  UNL     1      10.781   0.110   3.969  1.00  0.00    -0.067 NA
HETATM   29  N6  UNL     1      11.942   0.050   1.829  1.00  0.00    -0.067 NA
ATOM     30  H4  UNL     1       8.795   0.535   2.532  1.00  0.00     0.161 HD
ENDBRANCH  25  26
ENDBRANCH  24  25
ENDBRANCH  23  24
ENDBRANCH  22  23
ENDBRANCH  21  22
ENDBRANCH  18  21
ENDBRANCH   1  11
BRANCH   1  31
HETATM   31  C18 UNL     1      -1.627  -0.250  -1.353  1.00  0.00    -0.048 C 
HETATM   32  C19 UNL     1      -2.328  -1.562  -1.276  1.00  0.00     0.037 C 
HETATM   33  C20 UNL     1      -1.896  -2.546  -0.263  1.00  0.00     0.004 C 
HETATM   34  C21 UNL     1      -3.055  -3.337   0.359  1.00  0.00     0.000 C 
HETATM   35  C22 UNL     1      -3.106  -3.183   1.856  1.00  0.00     0.000 C 
HETATM   36  C23 UNL     1      -4.445  -3.046   2.456  1.00  0.00     0.002 C 
HETATM   37  C24 UNL     1      -5.151  -1.728   2.253  1.00  0.00     0.028 C 
HETATM   38  C25 UNL     1      -4.518  -0.560   2.899  1.00  0.00     0.243 C 
HETATM   39  N7  UNL     1      -4.582   0.694   2.121  1.00  0.00    -0.043 N 
HETATM   40  C26 UNL     1      -5.991   0.746   1.701  1.00  0.00     0.271 C 
HETATM   41  C31 UNL     1      -4.416   1.838   2.963  1.00  0.00     0.271 C 
HETATM   42  C32 UNL     1      -3.835   0.629   0.930  1.00  0.00     0.209 C 
HETATM   43  C27 UNL     1      -6.421   2.144   1.305  1.00  0.00     0.265 C 
HETATM   44  N8  UNL     1      -6.604   2.886   2.518  1.00  0.00    -0.071 N 
HETATM   45  C28 UNL     1      -6.446   4.315   2.329  1.00  0.00     0.272 C 
HETATM   46  C29 UNL     1      -7.989   2.699   2.969  1.00  0.00     0.272 C 
HETATM   47  C30 UNL     1      -5.755   2.349   3.521  1.00  0.00     0.265 C 
HETATM   48  C33 UNL     1      -2.411   0.986   0.839  1.00  0.00    -0.038 C 
HETATM   49  C34 UNL     1      -1.483   0.663   1.941  1.00  0.00     0.049 C 
HETATM   50  C35 UNL     1      -1.925   0.882  -0.544  1.00  0.00     0.013 C 
ENDBRANCH   1  31
TORSDOF 13
