REMARK  6 active torsions:
REMARK  status: ('A' for Active; 'I' for Inactive)
REMARK    1  A    between atoms: C2_2  and  C4_4 
REMARK    2  A    between atoms: C10_13  and  N1_14 
REMARK       I    between atoms: N1_14  and  C11_16 
REMARK    3  A    between atoms: C11_16  and  C12_18 
REMARK    4  A    between atoms: C12_18  and  C13_19 
REMARK    5  A    between atoms: C15_21  and  O5_22 
REMARK    6  A    between atoms: C16_24  and  O6_25 
ROOT
HETATM    1  C4  UNL     1      -1.872  -1.480  -0.596  1.00  0.00     0.184 C 
HETATM    2  O1  UNL     1      -1.239  -0.338  -1.062  1.00  0.00    -0.346 OA
HETATM    3  C5  UNL     1      -0.771   0.487  -0.081  1.00  0.00     0.297 C 
HETATM    4  O2  UNL     1      -0.275   1.704  -0.468  1.00  0.00    -0.323 OA
HETATM    5  C6  UNL     1      -0.477   2.590   0.603  1.00  0.00     0.160 C 
HETATM    6  C7  UNL     1       0.439   3.760   0.442  1.00  0.00     0.078 C 
HETATM    7  C8  UNL     1      -1.905   3.081   0.495  1.00  0.00     0.078 C 
HETATM    8  O3  UNL     1      -0.352   1.943   1.826  1.00  0.00    -0.353 OA
HETATM    9  C9  UNL     1       0.601   0.957   1.835  1.00  0.00     0.210 C 
HETATM   10  C10 UNL     1       0.144  -0.154   0.903  1.00  0.00     0.132 C 
HETATM   11  C15 UNL     1      -0.781  -1.125   1.660  1.00  0.00     0.184 C 
HETATM   12  C16 UNL     1      -1.311  -2.066   0.621  1.00  0.00     0.182 C 
ENDROOT
BRANCH  10  13
HETATM   13  N1  UNL     1       1.283  -0.836   0.394  1.00  0.00    -0.343 N 
HETATM   14  C11 UNL     1       2.335  -0.318  -0.394  1.00  0.00     0.218 C 
HETATM   15  O4  UNL     1       2.401   0.876  -0.762  1.00  0.00    -0.274 OA
ATOM     16  H1  UNL     1       1.349  -1.827   0.628  1.00  0.00     0.163 HD
BRANCH  14  17
HETATM   17  C12 UNL     1       3.470  -1.203  -0.848  1.00  0.00     0.102 C 
BRANCH  17  18
HETATM   18  C13 UNL     1       4.446  -0.397  -1.668  1.00  0.00     0.005 C 
HETATM   19  C14 UNL     1       5.564  -1.306  -2.106  1.00  0.00     0.005 C 
ENDBRANCH  17  18
ENDBRANCH  14  17
ENDBRANCH  10  13
BRANCH  11  20
HETATM   20  O5  UNL     1      -1.751  -0.313   2.240  1.00  0.00    -0.390 OA
ATOM     21  H5  UNL     1      -2.322  -0.912   2.707  1.00  0.00     0.210 HD
ENDBRANCH  11  20
BRANCH  12  22
HETATM   22  O6  UNL     1      -2.084  -3.090   1.185  1.00  0.00    -0.390 OA
ATOM     23  H6  UNL     1      -1.720  -3.471   1.975  1.00  0.00     0.210 HD
ENDBRANCH  12  22
BRANCH   1  24
HETATM   24  C2  UNL     1      -3.300  -1.162  -0.616  1.00  0.00    -0.062 C 
HETATM   25  C1  UNL     1      -4.195  -1.327   0.312  1.00  0.00     0.016 C 
HETATM   26  C3  UNL     1      -3.785  -0.554  -1.920  1.00  0.00     0.045 C 
ENDBRANCH   1  24
TORSDOF 6
