REMARK  6 active torsions:
REMARK  status: ('A' for Active; 'I' for Inactive)
REMARK    1  A    between atoms: O1_2  and  C2_3 
REMARK    2  A    between atoms: C4_5  and  O2_6 
REMARK    3  A    between atoms: O2_6  and  C5_7 
REMARK    4  A    between atoms: C5_7  and  C6_8 
REMARK    5  A    between atoms: C11_14  and  C12_15 
REMARK    6  A    between atoms: C16_22  and  O4_23 
ROOT
HETATM    1  C6  UNL     1       0.581  -0.498   0.916  1.00  0.00     0.152 C 
HETATM    2  O3  UNL     1      -0.555  -1.285   0.729  1.00  0.00    -0.377 OA
HETATM    3  C7  UNL     1      -1.414  -0.165   0.851  1.00  0.00     0.134 C 
HETATM    4  C8  UNL     1      -0.211   0.666   0.423  1.00  0.00     0.046 C 
HETATM    5  C9  UNL     1      -0.412   0.809  -1.051  1.00  0.00     0.010 C 
HETATM    6  C10 UNL     1      -1.908   1.100  -1.120  1.00  0.00     0.010 C 
HETATM    7  C11 UNL     1      -2.434  -0.035  -0.229  1.00  0.00     0.048 C 
ENDROOT
BRANCH   7   8
HETATM    8  C12 UNL     1      -3.784   0.410   0.275  1.00  0.00     0.220 C 
HETATM    9  N1  UNL     1      -4.347  -0.505   1.237  1.00  0.00    -0.068 N 
HETATM   10  C13 UNL     1      -5.665   0.018   1.592  1.00  0.00     0.233 C 
ATOM     11  H12 UNL     1      -4.372  -1.470   0.908  1.00  0.00     0.277 HD
ATOM     12  H11 UNL     1      -3.744  -0.661   2.045  1.00  0.00     0.277 HD
HETATM   13  C14 UNL     1      -6.618  -0.388   0.518  1.00  0.00     0.030 C 
HETATM   14  C15 UNL     1      -5.842  -0.557  -0.784  1.00  0.00     0.035 C 
HETATM   15  C16 UNL     1      -4.736   0.501  -0.889  1.00  0.00     0.149 C 
BRANCH  15  16
HETATM   16  O4  UNL     1      -5.299   1.775  -0.923  1.00  0.00    -0.393 OA
ATOM     17  H4  UNL     1      -5.899   1.832  -1.657  1.00  0.00     0.210 HD
ENDBRANCH  15  16
ENDBRANCH   7   8
BRANCH   1  18
HETATM   18  C5  UNL     1       1.786  -0.872   0.089  1.00  0.00     0.200 C 
BRANCH  18  19
HETATM   19  O2  UNL     1       2.801   0.017   0.411  1.00  0.00    -0.381 OA
BRANCH  19  20
HETATM   20  C4  UNL     1       3.975  -0.204  -0.274  1.00  0.00     0.150 C 
HETATM   21  C3  UNL     1       5.143  -0.510   0.610  1.00  0.00     0.094 C 
HETATM   22  C2  UNL     1       6.229   0.356   0.007  1.00  0.00     0.261 C 
HETATM   23  O5  UNL     1       5.519   1.514  -0.309  1.00  0.00    -0.359 OA
HETATM   24  C17 UNL     1       4.452   0.982  -1.064  1.00  0.00     0.203 C 
BRANCH  22  25
HETATM   25  O1  UNL     1       7.246   0.623   0.916  1.00  0.00    -0.366 OA
HETATM   26  C1  UNL     1       8.463   0.202   0.392  1.00  0.00     0.204 C 
ENDBRANCH  22  25
ENDBRANCH  19  20
ENDBRANCH  18  19
ENDBRANCH   1  18
TORSDOF 6
