REMARK  4 active torsions:
REMARK  status: ('A' for Active; 'I' for Inactive)
REMARK    1  A    between atoms: C2_2  and  N1_5 
REMARK       I    between atoms: N1_5  and  C5_7 
REMARK    2  A    between atoms: C5_7  and  C6_9 
REMARK    3  A    between atoms: N2_12  and  S1_13 
REMARK    4  A    between atoms: S1_13  and  C9_16 
ROOT
HETATM    1  C6  UNL     1      -0.150   0.417  -0.195  1.00  0.00     0.082 C 
HETATM    2  C7  UNL     1       0.444  -0.908   0.224  1.00  0.00     0.035 C 
HETATM    3  C8  UNL     1       1.791  -1.055  -0.458  1.00  0.00     0.138 C 
HETATM    4  N2  UNL     1       2.268   0.231  -0.849  1.00  0.00    -0.288 N 
HETATM    5  C11 UNL     1       2.182   1.180   0.209  1.00  0.00     0.193 C 
HETATM    6 CL2  UNL     1       2.739   0.495   1.764  1.00  0.00    -0.102 Cl
HETATM    7  C12 UNL     1       0.698   1.511   0.421  1.00  0.00     0.056 C 
ENDROOT
BRANCH   4   8
HETATM    8  S1  UNL     1       3.648   0.266  -1.812  1.00  0.00     0.273 S 
HETATM    9  O2  UNL     1       3.967   1.698  -2.147  1.00  0.00    -0.200 OA
HETATM   10  O3  UNL     1       3.380  -0.448  -3.113  1.00  0.00    -0.200 OA
BRANCH   8  11
HETATM   11  C9  UNL     1       5.077  -0.429  -1.055  1.00  0.00     0.177 A 
HETATM   12  S2  UNL     1       5.662  -2.041  -1.041  1.00  0.00     0.019 SA
HETATM   13  N3  UNL     1       7.042  -1.799  -0.112  1.00  0.00    -0.267 N 
HETATM   14  N4  UNL     1       7.008  -0.527   0.147  1.00  0.00    -0.282 N 
ATOM     15  H3  UNL     1       7.738  -2.486   0.178  1.00  0.00     0.195 HD
HETATM   16  C10 UNL     1       6.037   0.202  -0.307  1.00  0.00     0.150 A 
ATOM     17  H4  UNL     1       7.746  -0.101   0.708  1.00  0.00     0.188 HD
HETATM   18 CL1  UNL     1       5.946   1.950   0.017  1.00  0.00    -0.061 Cl
ENDBRANCH   8  11
ENDBRANCH   4   8
BRANCH   1  19
HETATM   19  C5  UNL     1      -1.554   0.566   0.233  1.00  0.00     0.222 C 
HETATM   20  N1  UNL     1      -2.525  -0.364  -0.224  1.00  0.00    -0.353 N 
ATOM     21  H1  UNL     1      -2.252  -1.128  -0.843  1.00  0.00     0.163 HD
HETATM   22  O1  UNL     1      -1.885   1.496   0.986  1.00  0.00    -0.273 OA
BRANCH  20  23
HETATM   23  C2  UNL     1      -3.903  -0.223   0.192  1.00  0.00     0.022 C 
HETATM   24  C1  UNL     1      -4.744  -1.324  -0.420  1.00  0.00     0.037 C 
HETATM   25  C3  UNL     1      -3.951  -0.323   1.699  1.00  0.00     0.037 C 
HETATM   26  C4  UNL     1      -4.445   1.130  -0.216  1.00  0.00     0.037 C 
ENDBRANCH  20  23
ENDBRANCH   1  19
TORSDOF 4
