REMARK  4 active torsions:
REMARK  status: ('A' for Active; 'I' for Inactive)
REMARK    1  A    between atoms: C2_2  and  C3_3 
REMARK    2  A    between atoms: C3_3  and  N1_4 
REMARK    3  A    between atoms: C9_13  and  C11_15 
REMARK    4  A    between atoms: N4_22  and  C14_23 
ROOT
HETATM    1  N1  UNL     1      -1.198   0.468   1.002  1.00  0.00    -0.300 N 
HETATM    2  C4  UNL     1      -0.542  -0.220   0.044  1.00  0.00     0.071 A 
HETATM    3  C5  UNL     1      -0.771  -1.627  -0.015  1.00  0.00     0.080 A 
HETATM    4  C6  UNL     1      -1.620  -2.273   0.863  1.00  0.00     0.262 A 
HETATM    5  O1  UNL     1      -1.823  -3.511   0.817  1.00  0.00    -0.267 OA
HETATM    6  N2  UNL     1      -2.231  -1.513   1.788  1.00  0.00    -0.270 N 
HETATM    7  C7  UNL     1      -3.121  -2.223   2.709  1.00  0.00     0.164 C 
HETATM    8  C8  UNL     1      -2.039  -0.204   1.867  1.00  0.00     0.331 A 
HETATM    9  O2  UNL     1      -2.663   0.437   2.778  1.00  0.00    -0.246 OA
HETATM   10  C9  UNL     1       0.057  -2.102  -1.147  1.00  0.00     0.256 C 
HETATM   11  C10 UNL     1      -0.856  -1.953  -2.370  1.00  0.00     0.061 C 
HETATM   12  N3  UNL     1       1.122  -1.139  -1.151  1.00  0.00     0.127 N 
HETATM   13  C12 UNL     1       2.017  -1.424  -0.079  1.00  0.00     0.306 C 
HETATM   14  C13 UNL     1       2.989  -0.347   0.327  1.00  0.00     0.302 C 
HETATM   15  N4  UNL     1       2.187   0.800   0.708  1.00  0.00     0.092 N 
HETATM   16  C16 UNL     1       1.530   1.148  -0.480  1.00  0.00     0.320 C 
HETATM   17  C17 UNL     1       0.455   0.173  -0.932  1.00  0.00     0.226 C 
HETATM   18  C18 UNL     1       0.023   0.765  -2.239  1.00  0.00     0.058 C 
ENDROOT
BRANCH  10  19
HETATM   19  C11 UNL     1       0.513  -3.508  -1.131  1.00  0.00     0.295 C 
HETATM   20  F1  UNL     1       1.343  -3.666  -2.274  1.00  0.00    -0.204 F 
HETATM   21 CL1  UNL     1       1.150  -4.203   0.321  1.00  0.00    -0.063 Cl
HETATM   22 CL2  UNL     1      -0.792  -4.690  -1.608  1.00  0.00    -0.063 Cl
ENDBRANCH  10  19
BRANCH   1  23
HETATM   23  C3  UNL     1      -1.195   1.871   1.196  1.00  0.00     0.133 C 
BRANCH  23  24
HETATM   24  C2  UNL     1      -2.390   2.635   0.717  1.00  0.00     0.016 C 
HETATM   25  C1  UNL     1      -2.759   2.589  -0.698  1.00  0.00     0.006 C 
ENDBRANCH  23  24
ENDBRANCH   1  23
BRANCH  15  26
HETATM   26  C14 UNL     1       2.995   1.904   1.167  1.00  0.00     0.268 C 
HETATM   27  C15 UNL     1       3.826   2.526   0.069  1.00  0.00     0.037 C 
ENDBRANCH  15  26
TORSDOF 4
