REMARK  8 active torsions:
REMARK  status: ('A' for Active; 'I' for Inactive)
REMARK    1  A    between atoms: C2_2  and  C3_3 
REMARK    2  A    between atoms: C3_3  and  N1_4 
REMARK    3  A    between atoms: C17_19  and  O1_20 
REMARK    4  A    between atoms: O1_20  and  C18_21 
REMARK    5  A    between atoms: C18_21  and  C19_22 
REMARK    6  A    between atoms: C19_22  and  C20_23 
REMARK    7  A    between atoms: C23_26  and  C24_27 
REMARK    8  A    between atoms: C24_27  and  O2_30 
ROOT
HETATM    1  N1  UNL     1      -6.334   0.316  -0.108  1.00  0.00    -0.366 N 
HETATM    2  C4  UNL     1      -6.221   1.528  -0.817  1.00  0.00     0.076 C 
HETATM    3  S1  UNL     1      -7.489   2.557  -0.902  1.00  0.00    -0.066 SA
HETATM    4  C5  UNL     1      -4.973   1.879  -1.484  1.00  0.00     0.070 C 
HETATM    5  C6  UNL     1      -4.087   0.726  -1.802  1.00  0.00     0.018 C 
HETATM    6  C7  UNL     1      -4.059  -0.374  -0.808  1.00  0.00    -0.019 C 
HETATM    7  C8  UNL     1      -4.163  -1.689  -1.604  1.00  0.00     0.018 C 
HETATM    8  C9  UNL     1      -2.705  -0.482  -0.111  1.00  0.00     0.004 C 
HETATM    9  C10 UNL     1      -1.606  -0.860  -1.043  1.00  0.00     0.007 C 
HETATM   10  C11 UNL     1      -0.235  -0.462  -0.607  1.00  0.00     0.017 C 
HETATM   11  C12 UNL     1      -0.105  -0.347   0.871  1.00  0.00     0.006 C 
HETATM   12  C13 UNL     1      -0.289  -1.657   1.577  1.00  0.00     0.023 C 
HETATM   13  C14 UNL     1      -1.120   0.670   1.330  1.00  0.00    -0.068 C 
HETATM   14  C15 UNL     1      -0.599   1.337   2.341  1.00  0.00    -0.020 C 
HETATM   15  C16 UNL     1       0.776   0.855   2.658  1.00  0.00     0.060 C 
HETATM   16  C17 UNL     1       1.200   0.275   1.293  1.00  0.00     0.137 C 
HETATM   17  C27 UNL     1      -2.439   0.783   0.659  1.00  0.00     0.020 C 
HETATM   18  C28 UNL     1      -3.555   1.057   1.617  1.00  0.00     0.011 C 
HETATM   19  C29 UNL     1      -4.649   0.063   1.606  1.00  0.00     0.027 C 
HETATM   20  C30 UNL     1      -5.105  -0.386   0.236  1.00  0.00     0.093 C 
ENDROOT
BRANCH  16  21
HETATM   21  O1  UNL     1       2.234  -0.610   1.453  1.00  0.00    -0.384 OA
BRANCH  21  22
HETATM   22  C18 UNL     1       3.420  -0.286   0.857  1.00  0.00     0.170 C 
BRANCH  22  23
HETATM   23  C19 UNL     1       3.394  -0.126  -0.624  1.00  0.00     0.058 C 
BRANCH  23  24
HETATM   24  C20 UNL     1       4.749   0.225  -1.197  1.00  0.00     0.124 C 
HETATM   25  C21 UNL     1       5.299   1.499  -0.661  1.00  0.00     0.034 C 
HETATM   26  C22 UNL     1       6.485   1.049   0.164  1.00  0.00     0.037 C 
HETATM   27  C23 UNL     1       6.633  -0.410  -0.157  1.00  0.00     0.155 C 
HETATM   28  O3  UNL     1       5.675  -0.772  -1.062  1.00  0.00    -0.378 OA
BRANCH  27  29
HETATM   29  C24 UNL     1       8.045  -0.697  -0.643  1.00  0.00     0.076 C 
HETATM   30  C25 UNL     1       8.996  -0.389   0.492  1.00  0.00     0.048 C 
HETATM   31  C26 UNL     1       8.382   0.014  -1.911  1.00  0.00     0.048 C 
BRANCH  29  32
HETATM   32  O2  UNL     1       8.127  -2.074  -0.870  1.00  0.00    -0.388 OA
ATOM     33  H2  UNL     1       9.009  -2.253  -1.174  1.00  0.00     0.210 HD
ENDBRANCH  29  32
ENDBRANCH  27  29
ENDBRANCH  23  24
ENDBRANCH  22  23
ENDBRANCH  21  22
ENDBRANCH  16  21
BRANCH   1  34
HETATM   34  C3  UNL     1      -7.631  -0.188   0.255  1.00  0.00     0.150 C 
BRANCH  34  35
HETATM   35  C2  UNL     1      -8.420  -0.645  -0.877  1.00  0.00    -0.017 C 
HETATM   36  C1  UNL     1      -8.067  -0.659  -2.147  1.00  0.00     0.008 C 
ENDBRANCH  34  35
ENDBRANCH   1  34
TORSDOF 8
