REMARK  11 active torsions:
REMARK  status: ('A' for Active; 'I' for Inactive)
REMARK       I    between atoms: N1_5  and  C5_6 
REMARK    1  A    between atoms: C5_6  and  C6_8 
REMARK    2  A    between atoms: C6_8  and  C9_11 
REMARK    3  A    between atoms: C9_11  and  C10_12 
REMARK    4  A    between atoms: C9_11  and  N4_27 
REMARK    5  A    between atoms: C10_12  and  N2_13 
REMARK    6  A    between atoms: N2_13  and  C11_14 
REMARK       I    between atoms: N2_13  and  C13_18 
REMARK    7  A    between atoms: C11_14  and  C12_15 
REMARK       I    between atoms: C13_18  and  N3_20 
REMARK    8  A    between atoms: N3_20  and  C14_22 
REMARK    9  A    between atoms: C14_22  and  C17_25 
REMARK       I    between atoms: N4_27  and  C19_29 
REMARK   10  A    between atoms: C19_29  and  O6_31 
REMARK   11  A    between atoms: O6_31  and  C20_32 
ROOT
HETATM    1  C1  UNL     1      -4.102   4.156  -3.868  1.00  0.00     0.012 C 
HETATM    2  C2  UNL     1      -4.570   3.164  -3.372  1.00  0.00    -0.105 C 
HETATM    3  C3  UNL     1      -5.163   1.952  -2.777  1.00  0.00     0.156 C 
HETATM    4  C4  UNL     1      -4.501   1.540  -1.512  1.00  0.00     0.149 C 
HETATM    5  N1  UNL     1      -3.413   0.605  -1.921  1.00  0.00    -0.344 N 
HETATM    6  C5  UNL     1      -2.265   0.513  -1.113  1.00  0.00     0.230 C 
HETATM    7  O1  UNL     1      -2.251   1.229  -0.057  1.00  0.00    -0.272 OA
HETATM    8  C24 UNL     1      -3.872   0.007  -3.124  1.00  0.00     0.206 C 
HETATM    9  C25 UNL     1      -4.985   0.810  -3.728  1.00  0.00     0.275 C 
HETATM   10  F1  UNL     1      -4.668   1.241  -5.008  1.00  0.00    -0.203 F 
HETATM   11  F2  UNL     1      -6.144   0.039  -3.818  1.00  0.00    -0.203 F 
ENDROOT
BRANCH   6  12
HETATM   12  C6  UNL     1      -1.046  -0.316  -1.335  1.00  0.00     0.059 C 
HETATM   13  C7  UNL     1      -1.458  -1.545  -2.078  1.00  0.00     0.027 C 
HETATM   14  C8  UNL     1      -0.132   0.620  -2.102  1.00  0.00     0.027 C 
BRANCH  12  15
HETATM   15  C9  UNL     1      -0.389  -0.661  -0.024  1.00  0.00     0.142 C 
BRANCH  15  16
HETATM   16  C10 UNL     1       0.813  -1.484   0.031  1.00  0.00     0.095 C 
BRANCH  16  17
HETATM   17  N2  UNL     1       2.039  -1.134  -0.562  1.00  0.00    -0.302 N 
HETATM   18  C13 UNL     1       2.963  -0.316   0.156  1.00  0.00     0.323 C 
HETATM   19  O4  UNL     1       2.656   0.062   1.336  1.00  0.00    -0.247 OA
HETATM   20  N3  UNL     1       4.185   0.059  -0.445  1.00  0.00    -0.334 N 
ATOM     21  H3  UNL     1       4.374  -0.276  -1.390  1.00  0.00     0.165 HD
BRANCH  17  22
HETATM   22  C11 UNL     1       2.443  -1.603  -1.847  1.00  0.00     0.245 C 
BRANCH  22  23
HETATM   23  C12 UNL     1       3.205  -2.882  -1.730  1.00  0.00     0.192 C 
HETATM   24  O2  UNL     1       3.392  -3.329  -0.561  1.00  0.00    -0.647 OA
HETATM   25  O3  UNL     1       3.703  -3.587  -2.796  1.00  0.00    -0.647 OA
ENDBRANCH  22  23
ENDBRANCH  17  22
BRANCH  20  26
HETATM   26  C14 UNL     1       5.193   0.893   0.195  1.00  0.00     0.027 C 
HETATM   27  C15 UNL     1       5.724   0.264   1.453  1.00  0.00     0.038 C 
HETATM   28  C16 UNL     1       6.360   1.149  -0.739  1.00  0.00     0.038 C 
BRANCH  26  29
HETATM   29  C17 UNL     1       4.620   2.250   0.532  1.00  0.00     0.026 C 
HETATM   30  C18 UNL     1       5.683   3.109   1.194  1.00  0.00     0.007 C 
ENDBRANCH  26  29
ENDBRANCH  20  26
ENDBRANCH  16  17
ENDBRANCH  15  16
BRANCH  15  31
HETATM   31  N4  UNL     1      -1.363  -1.332   0.824  1.00  0.00    -0.327 N 
HETATM   32  C19 UNL     1      -1.685  -0.967   2.155  1.00  0.00     0.361 C 
HETATM   33  O5  UNL     1      -1.169  -0.014   2.801  1.00  0.00    -0.238 OA
ATOM     34  H4  UNL     1      -1.855  -2.132   0.427  1.00  0.00     0.165 HD
BRANCH  32  35
HETATM   35  O6  UNL     1      -2.655  -1.669   2.889  1.00  0.00    -0.294 OA
BRANCH  35  36
HETATM   36  C20 UNL     1      -3.006  -1.313   4.229  1.00  0.00     0.061 C 
HETATM   37  C21 UNL     1      -1.829  -1.385   5.167  1.00  0.00     0.046 C 
HETATM   38  C22 UNL     1      -4.020  -2.342   4.679  1.00  0.00     0.046 C 
HETATM   39  C23 UNL     1      -3.674   0.041   4.263  1.00  0.00     0.046 C 
ENDBRANCH  35  36
ENDBRANCH  32  35
ENDBRANCH  15  31
ENDBRANCH  12  15
ENDBRANCH   6  12
TORSDOF 11
