REMARK  10 active torsions:
REMARK  status: ('A' for Active; 'I' for Inactive)
REMARK    1  A    between atoms: C2_2  and  N1_3 
REMARK    2  A    between atoms: C4_5  and  C5_6 
REMARK    3  A    between atoms: C5_6  and  N2_7 
REMARK       I    between atoms: N2_7  and  C6_9 
REMARK    4  A    between atoms: C6_9  and  C7_11 
REMARK    5  A    between atoms: C7_11  and  C8_12 
REMARK    6  A    between atoms: C9_15  and  C11_17 
REMARK    7  A    between atoms: C13_22  and  N3_23 
REMARK       I    between atoms: N3_23  and  C14_25 
REMARK    8  A    between atoms: C14_25  and  C15_27 
REMARK    9  A    between atoms: N4_30  and  C18_31 
REMARK   10  A    between atoms: C18_31  and  C19_32 
ROOT
HETATM    1  N1  UNL     1      -2.753  -0.891   0.864  1.00  0.00    -0.369 N 
HETATM    2  C3  UNL     1      -4.197  -0.947   0.957  1.00  0.00     0.161 C 
HETATM    3  C4  UNL     1      -4.729   0.159   1.832  1.00  0.00    -0.029 C 
HETATM    4  C9  UNL     1      -4.305   1.500   1.283  1.00  0.00     0.084 C 
HETATM    5  C10 UNL     1      -4.805   1.755  -0.109  1.00  0.00     0.029 C 
HETATM    6  C12 UNL     1      -2.790   1.515   1.274  1.00  0.00     0.070 C 
HETATM    7  C13 UNL     1      -2.190   0.346   0.509  1.00  0.00     0.187 C 
ENDROOT
BRANCH   7   8
HETATM    8  N3  UNL     1      -0.742   0.399   0.693  1.00  0.00    -0.339 N 
HETATM    9  C14 UNL     1       0.116   0.730  -0.362  1.00  0.00     0.223 C 
HETATM   10  O4  UNL     1      -0.356   0.991  -1.504  1.00  0.00    -0.273 OA
ATOM     11  H3  UNL     1      -0.348   0.190   1.610  1.00  0.00     0.164 HD
BRANCH   9  12
HETATM   12  C15 UNL     1       1.596   0.800  -0.229  1.00  0.00     0.084 C 
HETATM   13  C16 UNL     1       2.294   1.150  -1.490  1.00  0.00     0.058 C 
HETATM   14  C17 UNL     1       3.596   0.483  -1.724  1.00  0.00     0.059 C 
HETATM   15  N4  UNL     1       4.218  -0.158  -0.652  1.00  0.00    -0.393 N 
HETATM   16  C25 UNL     1       3.604  -0.231   0.608  1.00  0.00     0.122 C 
HETATM   17  C26 UNL     1       2.102  -0.476   0.402  1.00  0.00     0.034 C 
BRANCH  15  18
HETATM   18  C18 UNL     1       5.175  -1.160  -0.956  1.00  0.00     0.126 C 
BRANCH  18  19
HETATM   19  C19 UNL     1       6.389  -0.494  -1.596  1.00  0.00     0.007 C 
HETATM   20  C20 UNL     1       6.989   0.508  -0.647  1.00  0.00     0.036 C 
HETATM   21  C21 UNL     1       8.447   0.792  -0.983  1.00  0.00     0.272 C 
HETATM   22  N5  UNL     1       9.218  -0.391  -0.619  1.00  0.00     0.084 N 
HETATM   23  C22 UNL     1       9.728  -0.227   0.739  1.00  0.00     0.309 C 
HETATM   24  C23 UNL     1       8.405  -1.594  -0.693  1.00  0.00     0.272 C 
HETATM   25  C24 UNL     1       7.465  -1.519  -1.901  1.00  0.00     0.036 C 
ENDBRANCH  18  19
ENDBRANCH  15  18
ENDBRANCH   9  12
ENDBRANCH   7   8
BRANCH   1  26
HETATM   26  C2  UNL     1      -2.226  -2.032   0.241  1.00  0.00     0.056 C 
HETATM   27  C1  UNL     1      -2.625  -2.064  -1.216  1.00  0.00     0.054 C 
ENDBRANCH   1  26
BRANCH   4  28
HETATM   28  C11 UNL     1      -4.712   2.639   2.180  1.00  0.00     0.399 C 
HETATM   29  F1  UNL     1      -4.157   2.506   3.455  1.00  0.00    -0.170 F 
HETATM   30  F2  UNL     1      -4.071   3.812   1.694  1.00  0.00    -0.170 F 
HETATM   31  F3  UNL     1      -6.030   2.948   2.178  1.00  0.00    -0.170 F 
ENDBRANCH   4  28
BRANCH   3  32
HETATM   32  C5  UNL     1      -6.094   0.039   2.339  1.00  0.00     0.096 C 
BRANCH  32  33
HETATM   33  N2  UNL     1      -7.229  -0.027   1.533  1.00  0.00    -0.336 N 
HETATM   34  C6  UNL     1      -7.662  -0.959   0.606  1.00  0.00     0.231 C 
HETATM   35  O1  UNL     1      -7.043  -1.994   0.332  1.00  0.00    -0.273 OA
ATOM     36  H2  UNL     1      -7.863   0.764   1.649  1.00  0.00     0.168 HD
BRANCH  34  37
HETATM   37  C7  UNL     1      -8.952  -0.779  -0.156  1.00  0.00     0.216 C 
BRANCH  37  38
HETATM   38  C8  UNL     1      -9.225  -1.873  -1.087  1.00  0.00     0.181 C 
HETATM   39  O2  UNL     1      -8.508  -2.884  -1.282  1.00  0.00    -0.648 OA
HETATM   40  O3  UNL     1     -10.392  -1.807  -1.844  1.00  0.00    -0.648 OA
ENDBRANCH  37  38
ENDBRANCH  34  37
ENDBRANCH  32  33
ENDBRANCH   3  32
TORSDOF 10
