REMARK  10 active torsions:
REMARK  status: ('A' for Active; 'I' for Inactive)
REMARK    1  A    between atoms: C3_4  and  N1_5 
REMARK       I    between atoms: N1_5  and  C4_7 
REMARK    2  A    between atoms: C4_7  and  C5_9 
REMARK    3  A    between atoms: C5_9  and  C6_12 
REMARK       I    between atoms: C6_12  and  N2_14 
REMARK    4  A    between atoms: N2_14  and  C7_16 
REMARK    5  A    between atoms: C7_16  and  C8_17 
REMARK    6  A    between atoms: C7_16  and  C20_31 
REMARK    7  A    between atoms: C8_17  and  C9_18 
REMARK       I    between atoms: C9_18  and  N3_20 
REMARK    8  A    between atoms: C12_23  and  C13_24 
REMARK    9  A    between atoms: C20_31  and  C21_32 
REMARK   10  A    between atoms: C27_38  and  O5_39 
ROOT
HETATM    1  C7  UNL     1       0.250   1.101   0.163  1.00  0.00     0.093 C 
ENDROOT
BRANCH   1   2
HETATM    2  N2  UNL     1       1.449   1.091   0.994  1.00  0.00    -0.350 N 
HETATM    3  C6  UNL     1       2.673   0.546   0.575  1.00  0.00     0.300 C 
HETATM    4  O3  UNL     1       2.705   0.042  -0.596  1.00  0.00    -0.266 OA
ATOM      5  H2  UNL     1       1.395   1.501   1.927  1.00  0.00     0.163 HD
BRANCH   3   6
HETATM    6  C5  UNL     1       3.868   0.555   1.446  1.00  0.00     0.400 C 
HETATM    7  F1  UNL     1       4.275   1.849   1.743  1.00  0.00    -0.184 F 
HETATM    8  F2  UNL     1       3.675  -0.124   2.629  1.00  0.00    -0.184 F 
BRANCH   6   9
HETATM    9  C4  UNL     1       4.983  -0.095   0.719  1.00  0.00     0.300 C 
HETATM   10  N1  UNL     1       4.914  -1.452   0.295  1.00  0.00    -0.346 N 
ATOM     11  H1  UNL     1       4.066  -1.978   0.507  1.00  0.00     0.163 HD
HETATM   12  O2  UNL     1       6.061   0.522   0.433  1.00  0.00    -0.266 OA
BRANCH  10  13
HETATM   13  C3  UNL     1       5.961  -2.123  -0.410  1.00  0.00     0.149 C 
HETATM   14  C2  UNL     1       6.494  -3.332   0.367  1.00  0.00     0.141 C 
HETATM   15  C1  UNL     1       7.039  -4.174  -0.723  1.00  0.00     0.263 C 
HETATM   16  O1  UNL     1       7.935  -5.053  -0.644  1.00  0.00    -0.265 OA
HETATM   17  O6  UNL     1       6.403  -3.856  -1.914  1.00  0.00    -0.288 OA
HETATM   18  C27 UNL     1       5.508  -2.766  -1.688  1.00  0.00     0.289 C 
BRANCH  18  19
HETATM   19  O5  UNL     1       5.621  -1.917  -2.785  1.00  0.00    -0.369 OA
ATOM     20  H5  UNL     1       5.334  -2.324  -3.594  1.00  0.00     0.212 HD
ENDBRANCH  18  19
ENDBRANCH  10  13
ENDBRANCH   6   9
ENDBRANCH   3   6
ENDBRANCH   1   2
BRANCH   1  21
HETATM   21  C8  UNL     1      -0.743   0.139   0.765  1.00  0.00     0.128 C 
BRANCH  21  22
HETATM   22  C9  UNL     1      -2.001  -0.044   0.058  1.00  0.00     0.221 C 
HETATM   23  O4  UNL     1      -2.218   0.440  -1.081  1.00  0.00    -0.273 OA
HETATM   24  N3  UNL     1      -3.053  -0.800   0.655  1.00  0.00    -0.351 N 
HETATM   25  C10 UNL     1      -2.980  -1.425   1.945  1.00  0.00     0.126 C 
HETATM   26  C19 UNL     1      -4.338  -1.036   0.039  1.00  0.00     0.135 C 
HETATM   27  C11 UNL     1      -4.378  -1.910   2.267  1.00  0.00     0.031 C 
HETATM   28  C12 UNL     1      -5.282  -1.382   1.173  1.00  0.00     0.038 C 
BRANCH  28  29
HETATM   29  C13 UNL     1      -6.259  -2.364   0.701  1.00  0.00    -0.052 A 
HETATM   30  C14 UNL     1      -5.881  -3.616   0.288  1.00  0.00     0.007 A 
HETATM   31  C15 UNL     1      -6.814  -4.542  -0.159  1.00  0.00     0.001 A 
HETATM   32  C16 UNL     1      -8.161  -4.206  -0.193  1.00  0.00     0.000 A 
HETATM   33  C17 UNL     1      -8.546  -2.955   0.219  1.00  0.00     0.001 A 
HETATM   34  C18 UNL     1      -7.609  -2.065   0.653  1.00  0.00     0.007 A 
ENDBRANCH  28  29
ENDBRANCH  21  22
ENDBRANCH   1  21
BRANCH   1  35
HETATM   35  C20 UNL     1      -0.329   2.460   0.037  1.00  0.00     0.030 C 
BRANCH  35  36
HETATM   36  C21 UNL     1       0.463   3.544  -0.549  1.00  0.00    -0.013 C 
HETATM   37  C22 UNL     1       1.744   3.938   0.087  1.00  0.00     0.005 C 
HETATM   38  C23 UNL     1       1.938   5.440  -0.208  1.00  0.00     0.000 C 
HETATM   39  C24 UNL     1       1.206   5.833  -1.455  1.00  0.00     0.000 C 
HETATM   40  C25 UNL     1       1.122   4.798  -2.515  1.00  0.00     0.000 C 
HETATM   41  C26 UNL     1       0.729   3.416  -2.042  1.00  0.00     0.005 C 
ENDBRANCH  35  36
ENDBRANCH   1  35
TORSDOF 10
