REMARK  13 active torsions:
REMARK  status: ('A' for Active; 'I' for Inactive)
REMARK    1  A    between atoms: O1_2  and  C2_3 
REMARK    2  A    between atoms: C2_3  and  C3_4 
REMARK    3  A    between atoms: C3_4  and  C4_5 
REMARK    4  A    between atoms: C4_5  and  C5_6 
REMARK    5  A    between atoms: C5_6  and  C6_7 
REMARK    6  A    between atoms: C6_7  and  N1_8 
REMARK    7  A    between atoms: C6_7  and  S1_12 
REMARK    8  A    between atoms: S1_12  and  C7_15 
REMARK    9  A    between atoms: C9_19  and  C10_20 
REMARK   10  A    between atoms: C11_21  and  C12_22 
REMARK   11  A    between atoms: C12_22  and  N3_23 
REMARK       I    between atoms: N3_23  and  C13_25 
REMARK   12  A    between atoms: C16_32  and  N6_33 
REMARK   13  A    between atoms: N6_33  and  C17_34 
ROOT
HETATM    1  C7  UNL     1       0.246  -0.337  -1.764  1.00  0.00     0.154 A 
HETATM    2  N2  UNL     1      -0.509   0.422  -0.957  1.00  0.00    -0.329 N 
ATOM      3  H2  UNL     1      -0.266   1.395  -0.773  1.00  0.00     0.168 HD
HETATM    4  C8  UNL     1      -1.595  -0.136  -0.398  1.00  0.00     0.151 A 
HETATM    5  C9  UNL     1      -2.523   0.452   0.467  1.00  0.00     0.080 A 
HETATM    6  C15 UNL     1      -3.419  -0.563   0.724  1.00  0.00     0.132 A 
HETATM    7  N4  UNL     1      -3.019  -1.656   0.044  1.00  0.00    -0.300 N 
ATOM      8  H4  UNL     1      -3.506  -2.552   0.058  1.00  0.00     0.186 HD
HETATM    9  N5  UNL     1      -1.909  -1.417  -0.647  1.00  0.00    -0.209 N 
HETATM   10  C16 UNL     1      -1.174  -2.228  -1.459  1.00  0.00     0.217 A 
HETATM   11  C21 UNL     1      -0.042  -1.642  -2.039  1.00  0.00     0.109 A 
HETATM   12 BR1  UNL     1       1.089  -2.669  -3.211  1.00  0.00    -0.043 Br
ENDROOT
BRANCH   1  13
HETATM   13  S1  UNL     1       1.667   0.383  -2.499  1.00  0.00     0.221 S 
HETATM   14  O2  UNL     1       1.417   1.853  -2.679  1.00  0.00    -0.219 OA
HETATM   15  O3  UNL     1       1.935  -0.215  -3.827  1.00  0.00    -0.219 OA
BRANCH  13  16
HETATM   16  C6  UNL     1       3.103   0.169  -1.464  1.00  0.00     0.311 C 
BRANCH  16  17
HETATM   17  C5  UNL     1       2.832   0.862  -0.153  1.00  0.00     0.049 C 
BRANCH  17  18
HETATM   18  C4  UNL     1       3.974   0.808   0.814  1.00  0.00     0.005 C 
BRANCH  18  19
HETATM   19  C3  UNL     1       5.188   1.476   0.207  1.00  0.00     0.026 C 
BRANCH  19  20
HETATM   20  C2  UNL     1       6.369   1.444   1.158  1.00  0.00     0.167 C 
BRANCH  20  21
HETATM   21  O1  UNL     1       6.140   2.081   2.353  1.00  0.00    -0.396 OA
HETATM   22  C1  UNL     1       5.832   3.414   2.238  1.00  0.00     0.201 C 
ENDBRANCH  20  21
ENDBRANCH  19  20
ENDBRANCH  18  19
ENDBRANCH  17  18
ENDBRANCH  16  17
BRANCH  16  23
HETATM   23  N1  UNL     1       3.393  -1.228  -1.247  1.00  0.00    -0.061 N 
ATOM     24  H13 UNL     1       4.157  -1.358  -0.584  1.00  0.00     0.275 HD
ATOM     25  H12 UNL     1       2.653  -1.691  -0.719  1.00  0.00     0.275 HD
ATOM     26  H11 UNL     1       3.576  -1.697  -2.134  1.00  0.00     0.275 HD
ENDBRANCH  16  23
ENDBRANCH  13  16
ENDBRANCH   1  13
BRANCH  10  27
HETATM   27  N6  UNL     1      -1.408  -3.381  -1.716  1.00  0.00    -0.417 NA
BRANCH  27  28
HETATM   28  C17 UNL     1      -2.007  -4.584  -1.734  1.00  0.00     0.085 C 
HETATM   29  C18 UNL     1      -2.188  -5.278  -0.374  1.00  0.00     0.053 C 
HETATM   30  C19 UNL     1      -1.334  -5.651  -2.607  1.00  0.00     0.053 C 
HETATM   31  C20 UNL     1      -3.429  -4.459  -2.323  1.00  0.00     0.053 C 
ENDBRANCH  27  28
ENDBRANCH  10  27
BRANCH   5  32
HETATM   32  C10 UNL     1      -2.519   1.803   0.958  1.00  0.00    -0.060 C 
HETATM   33  C11 UNL     1      -2.510   2.931   1.389  1.00  0.00    -0.081 C 
BRANCH  33  34
HETATM   34  C12 UNL     1      -2.490   4.300   1.937  1.00  0.00     0.217 C 
BRANCH  34  35
HETATM   35  N3  UNL     1      -3.666   4.474   2.752  1.00  0.00    -0.351 N 
HETATM   36  C13 UNL     1      -4.958   4.340   2.204  1.00  0.00     0.214 C 
HETATM   37  C14 UNL     1      -6.154   4.523   3.059  1.00  0.00     0.117 C 
HETATM   38  O4  UNL     1      -5.128   4.067   1.002  1.00  0.00    -0.274 OA
ATOM     39  H3  UNL     1      -3.562   4.698   3.742  1.00  0.00     0.163 HD
ENDBRANCH  34  35
ENDBRANCH  33  34
ENDBRANCH   5  32
TORSDOF 13
