REMARK  9 active torsions:
REMARK  status: ('A' for Active; 'I' for Inactive)
REMARK    1  A    between atoms: C2_2  and  C4_4 
REMARK    2  A    between atoms: C4_4  and  C5_5 
REMARK    3  A    between atoms: C6_8  and  C7_9 
REMARK       I    between atoms: C7_9  and  N2_11 
REMARK    4  A    between atoms: C11_15  and  C12_16 
REMARK       I    between atoms: C12_16  and  N3_18 
REMARK    5  A    between atoms: C17_24  and  C18_25 
REMARK    6  A    between atoms: C19_28  and  C20_29 
REMARK    7  A    between atoms: C20_29  and  O6_31 
REMARK    8  A    between atoms: O6_31  and  C21_32 
REMARK    9  A    between atoms: C21_32  and  C22_33 
ROOT
HETATM    1  C5  UNL     1      -3.755  -0.546  -2.120  1.00  0.00     0.170 C 
HETATM    2  N1  UNL     1      -2.502  -0.669  -1.425  1.00  0.00    -0.395 N 
ATOM      3  H1  UNL     1      -1.843  -1.424  -1.613  1.00  0.00     0.155 HD
HETATM    4  C6  UNL     1      -2.244   0.367  -0.431  1.00  0.00     0.203 C 
HETATM    5  C19 UNL     1      -3.043   1.592  -0.786  1.00  0.00     0.215 C 
HETATM    6  N4  UNL     1      -3.017   1.763  -2.248  1.00  0.00    -0.343 N 
ATOM      7  H4  UNL     1      -2.553   2.543  -2.714  1.00  0.00     0.163 HD
HETATM    8  C23 UNL     1      -3.708   0.725  -2.948  1.00  0.00     0.240 C 
HETATM    9  O7  UNL     1      -4.200   0.839  -4.074  1.00  0.00    -0.271 OA
ENDROOT
BRANCH   4  10
HETATM   10  C7  UNL     1      -0.774   0.575  -0.469  1.00  0.00     0.245 C 
HETATM   11  O1  UNL     1      -0.265   0.642  -1.644  1.00  0.00    -0.271 OA
HETATM   12  N2  UNL     1       0.079   0.696   0.647  1.00  0.00    -0.337 N 
HETATM   13  C8  UNL     1      -0.295   0.601   2.035  1.00  0.00     0.127 C 
HETATM   14  C11 UNL     1       1.502   0.932   0.579  1.00  0.00     0.179 C 
HETATM   15  C9  UNL     1       0.595   1.616   2.733  1.00  0.00     0.022 C 
HETATM   16  C10 UNL     1       1.806   1.687   1.826  1.00  0.00     0.037 C 
BRANCH  14  17
HETATM   17  C12 UNL     1       2.265  -0.343   0.473  1.00  0.00     0.244 C 
HETATM   18  O2  UNL     1       1.628  -1.445   0.607  1.00  0.00    -0.271 OA
HETATM   19  N3  UNL     1       3.646  -0.445   0.234  1.00  0.00    -0.325 N 
HETATM   20  C13 UNL     1       4.488   0.721   0.035  1.00  0.00     0.202 C 
HETATM   21  C17 UNL     1       4.390  -1.662   0.161  1.00  0.00     0.206 C 
HETATM   22  S1  UNL     1       5.936   0.212   1.048  1.00  0.00    -0.137 SA
HETATM   23  C14 UNL     1       5.547  -1.579   1.108  1.00  0.00     0.033 C 
HETATM   24  C15 UNL     1       6.786  -2.306   0.656  1.00  0.00     0.029 C 
HETATM   25  C16 UNL     1       5.204  -2.014   2.508  1.00  0.00     0.029 C 
BRANCH  21  26
HETATM   26  C18 UNL     1       4.746  -2.043  -1.219  1.00  0.00     0.198 C 
HETATM   27  O3  UNL     1       5.388  -3.092  -1.482  1.00  0.00    -0.646 OA
HETATM   28  O4  UNL     1       4.392  -1.264  -2.307  1.00  0.00    -0.646 OA
ENDBRANCH  21  26
ENDBRANCH  14  17
ENDBRANCH   4  10
BRANCH   5  29
HETATM   29  C20 UNL     1      -2.691   2.821  -0.100  1.00  0.00     0.284 C 
HETATM   30  O5  UNL     1      -2.320   3.794  -0.861  1.00  0.00    -0.263 OA
BRANCH  29  31
HETATM   31  O6  UNL     1      -2.695   3.115   1.233  1.00  0.00    -0.319 OA
BRANCH  31  32
HETATM   32  C21 UNL     1      -2.349   4.338   1.837  1.00  0.00     0.193 C 
BRANCH  32  33
HETATM   33  C22 UNL     1      -3.184   5.504   1.434  1.00  0.00     0.141 C 
HETATM   34 CL1  UNL     1      -4.902   5.285   1.813  1.00  0.00    -0.128 Cl
ENDBRANCH  32  33
ENDBRANCH  31  32
ENDBRANCH  29  31
ENDBRANCH   5  29
BRANCH   1  35
HETATM   35  C4  UNL     1      -3.959  -1.708  -3.030  1.00  0.00     0.038 C 
BRANCH  35  36
HETATM   36  C2  UNL     1      -3.984  -3.037  -2.358  1.00  0.00    -0.020 C 
HETATM   37  C1  UNL     1      -2.740  -3.397  -1.618  1.00  0.00     0.009 C 
HETATM   38  C3  UNL     1      -5.153  -3.195  -1.404  1.00  0.00     0.009 C 
ENDBRANCH  35  36
ENDBRANCH   1  35
TORSDOF 9
