REMARK  9 active torsions:
REMARK  status: ('A' for Active; 'I' for Inactive)
REMARK    1  A    between atoms: C2_2  and  N1_4 
REMARK       I    between atoms: N1_4  and  C4_6 
REMARK    2  A    between atoms: C4_6  and  C5_8 
REMARK    3  A    between atoms: C7_12  and  O2_13 
REMARK    4  A    between atoms: O2_13  and  C8_14 
REMARK    5  A    between atoms: C8_14  and  C9_15 
REMARK    6  A    between atoms: C8_14  and  C10_20 
REMARK    7  A    between atoms: C9_15  and  S2_16 
REMARK    8  A    between atoms: C11_23  and  C12_24 
REMARK       I    between atoms: C12_24  and  N3_26 
REMARK    9  A    between atoms: N3_26  and  C13_28 
ROOT
HETATM    1  C5  UNL     1       2.366  -0.027   0.171  1.00  0.00     0.176 C 
HETATM    2  S1  UNL     1       1.779  -0.989   1.621  1.00  0.00    -0.122 SA
HETATM    3  C6  UNL     1       0.160  -1.406   0.847  1.00  0.00     0.351 C 
HETATM    4  N2  UNL     1       0.403  -1.243  -0.541  1.00  0.00     0.134 N 
HETATM    5  C7  UNL     1      -0.657  -0.419  -1.168  1.00  0.00     0.376 C 
HETATM    6  C11 UNL     1       0.163   0.798  -0.893  1.00  0.00     0.172 C 
HETATM    7  C17 UNL     1       1.286  -0.172  -0.798  1.00  0.00     0.267 C 
ENDROOT
BRANCH   5   8
HETATM    8  O2  UNL     1      -1.902  -0.555  -0.617  1.00  0.00    -0.339 OA
BRANCH   8   9
HETATM    9  C8  UNL     1      -2.761  -1.128  -1.551  1.00  0.00     0.241 C 
BRANCH   9  10
HETATM   10  C9  UNL     1      -3.259  -2.498  -1.118  1.00  0.00     0.208 C 
BRANCH  10  11
HETATM   11  S2  UNL     1      -4.171  -2.474   0.378  1.00  0.00     0.104 S 
HETATM   12  O3  UNL     1      -3.345  -1.921   1.490  1.00  0.00    -0.595 OA
HETATM   13  O4  UNL     1      -5.416  -1.613   0.254  1.00  0.00    -0.595 OA
HETATM   14  O5  UNL     1      -4.698  -4.007   0.821  1.00  0.00    -0.595 OA
ENDBRANCH  10  11
ENDBRANCH   9  10
BRANCH   9  15
HETATM   15  C10 UNL     1      -3.913  -0.301  -1.920  1.00  0.00     0.204 C 
HETATM   16  O6  UNL     1      -4.175   0.818  -1.452  1.00  0.00    -0.646 OA
HETATM   17  O7  UNL     1      -4.785  -0.813  -2.873  1.00  0.00    -0.646 OA
ENDBRANCH   9  15
ENDBRANCH   8   9
ENDBRANCH   5   8
BRANCH   6  18
HETATM   18  C12 UNL     1      -0.159   1.669   0.207  1.00  0.00     0.229 C 
HETATM   19  O8  UNL     1       0.531   1.833   1.273  1.00  0.00    -0.273 OA
HETATM   20  N3  UNL     1      -1.339   2.446   0.168  1.00  0.00    -0.352 N 
ATOM     21  H3  UNL     1      -1.934   2.365  -0.657  1.00  0.00     0.163 HD
BRANCH  20  22
HETATM   22  C13 UNL     1      -1.760   3.347   1.217  1.00  0.00     0.022 C 
HETATM   23  C14 UNL     1      -3.064   4.031   0.876  1.00  0.00     0.037 C 
HETATM   24  C15 UNL     1      -1.970   2.617   2.540  1.00  0.00     0.037 C 
HETATM   25  C16 UNL     1      -0.739   4.430   1.484  1.00  0.00     0.037 C 
ENDBRANCH  20  22
ENDBRANCH   6  18
BRANCH   1  26
HETATM   26  C4  UNL     1       3.573  -0.790  -0.318  1.00  0.00     0.246 C 
HETATM   27  N1  UNL     1       4.693  -0.989   0.526  1.00  0.00    -0.279 N 
HETATM   28 BR1  UNL     1       4.709  -0.300   2.307  1.00  0.00     0.052 Br
HETATM   29  O1  UNL     1       3.591  -1.255  -1.481  1.00  0.00    -0.271 OA
BRANCH  27  30
HETATM   30  C2  UNL     1       5.827  -1.728   0.010  1.00  0.00     0.092 C 
HETATM   31  C1  UNL     1       5.417  -3.147  -0.323  1.00  0.00     0.033 C 
HETATM   32  C3  UNL     1       6.297  -1.053  -1.247  1.00  0.00     0.033 C 
ENDBRANCH  27  30
ENDBRANCH   1  26
TORSDOF 9
