REMARK  6 active torsions:
REMARK  status: ('A' for Active; 'I' for Inactive)
REMARK    1  A    between atoms: C2_2  and  C4_4 
REMARK    2  A    between atoms: C6_6  and  C7_7 
REMARK    3  A    between atoms: C14_14  and  C15_15 
REMARK    4  A    between atoms: C15_15  and  O1_16 
REMARK    5  A    between atoms: C15_15  and  C16_18 
REMARK    6  A    between atoms: C16_18  and  C17_19 
ROOT
HETATM    1  C4  UNL     1      -0.788   1.443   0.061  1.00  0.00    -0.003 A 
HETATM    2  C5  UNL     1      -1.900   0.659   0.421  1.00  0.00     0.022 A 
HETATM    3  C6  UNL     1      -1.925  -0.697   0.379  1.00  0.00    -0.049 A 
HETATM    4  C11 UNL     1      -0.772  -1.326  -0.047  1.00  0.00     0.021 A 
HETATM    5  C12 UNL     1       0.355  -0.631  -0.415  1.00  0.00    -0.006 A 
HETATM    6  C13 UNL     1       1.616  -0.996  -0.860  1.00  0.00     0.041 A 
HETATM    7  C14 UNL     1       2.357   0.123  -1.070  1.00  0.00     0.040 A 
HETATM    8  N1  UNL     1       1.545   1.181  -0.752  1.00  0.00    -0.356 N 
ATOM      9  H1  UNL     1       1.828   2.159  -0.810  1.00  0.00     0.166 HD
HETATM   10  C18 UNL     1       0.340   0.772  -0.358  1.00  0.00     0.053 A 
ENDROOT
BRANCH   7  11
HETATM   11  C15 UNL     1       3.746   0.207  -1.529  1.00  0.00     0.176 C 
BRANCH  11  12
HETATM   12  O1  UNL     1       4.273   1.418  -0.941  1.00  0.00    -0.389 OA
ATOM     13  H1  UNL     1       5.174   1.472  -1.239  1.00  0.00     0.210 HD
ENDBRANCH  11  12
BRANCH  11  14
HETATM   14  C16 UNL     1       4.641  -0.923  -1.147  1.00  0.00     0.155 C 
BRANCH  14  15
HETATM   15  C17 UNL     1       4.880  -1.165   0.290  1.00  0.00     0.390 C 
HETATM   16  F1  UNL     1       5.458  -0.041   0.888  1.00  0.00    -0.171 F 
HETATM   17  F2  UNL     1       3.885  -1.669   1.042  1.00  0.00    -0.171 F 
HETATM   18  F3  UNL     1       5.920  -2.125   0.348  1.00  0.00    -0.171 F 
ENDBRANCH  14  15
ENDBRANCH  11  14
ENDBRANCH   7  11
BRANCH   1  19
HETATM   19  C2  UNL     1      -0.881   2.886   0.165  1.00  0.00    -0.059 C 
HETATM   20  C1  UNL     1      -1.702   3.467   1.051  1.00  0.00     0.019 C 
HETATM   21  C3  UNL     1      -0.136   3.804  -0.717  1.00  0.00     0.048 C 
ENDBRANCH   1  19
BRANCH   3  22
HETATM   22  C7  UNL     1      -3.073  -1.532   0.749  1.00  0.00    -0.024 C 
HETATM   23  C8  UNL     1      -4.270  -0.723   1.186  1.00  0.00     0.019 C 
HETATM   24  C9  UNL     1      -3.393  -2.433  -0.412  1.00  0.00     0.019 C 
HETATM   25  C10 UNL     1      -2.645  -2.432   1.905  1.00  0.00     0.019 C 
ENDBRANCH   3  22
TORSDOF 6
