REMARK  3 active torsions:
REMARK  status: ('A' for Active; 'I' for Inactive)
REMARK    1  A    between atoms: C3_4  and  C4_5 
REMARK    2  A    between atoms: C7_8  and  C8_9 
REMARK    3  A    between atoms: C16_21  and  C17_22 
ROOT
HETATM    1  N1  UNL     1       5.228  -2.157   0.609  1.00  0.00    -0.191 NA
HETATM    2  C1  UNL     1       4.659  -1.177   0.389  1.00  0.00     0.102 C 
HETATM    3  C2  UNL     1       3.986   0.050   0.115  1.00  0.00     0.090 A 
HETATM    4  C3  UNL     1       2.645   0.248   0.001  1.00  0.00     0.029 A 
HETATM    5  C15 UNL     1       2.521   1.618  -0.268  1.00  0.00     0.103 A 
HETATM    6  N3  UNL     1       3.730   2.198  -0.310  1.00  0.00    -0.360 N 
ATOM      7  H3  UNL     1       3.910   3.186  -0.489  1.00  0.00     0.165 HD
HETATM    8  C16 UNL     1       4.653   1.271  -0.080  1.00  0.00     0.138 A 
ENDROOT
BRANCH   4   9
HETATM    9  C4  UNL     1       1.539  -0.691   0.118  1.00  0.00     0.045 A 
HETATM   10  C5  UNL     1       1.551  -2.024   0.373  1.00  0.00     0.032 A 
HETATM   11  C6  UNL     1       0.238  -2.440   0.378  1.00  0.00     0.027 A 
HETATM   12  C7  UNL     1      -0.592  -1.366   0.125  1.00  0.00     0.013 A 
HETATM   13  N2  UNL     1       0.227  -0.323  -0.028  1.00  0.00    -0.358 N 
ATOM     14  H2  UNL     1      -0.084   0.627  -0.228  1.00  0.00     0.166 HD
BRANCH  12  15
HETATM   15  C8  UNL     1      -2.085  -1.394   0.043  1.00  0.00     0.035 C 
HETATM   16  C9  UNL     1      -2.755  -0.651   1.146  1.00  0.00     0.011 C 
HETATM   17  C10 UNL     1      -2.725   0.833   1.060  1.00  0.00     0.001 C 
HETATM   18  C11 UNL     1      -3.126   1.421  -0.248  1.00  0.00     0.000 C 
HETATM   19  C12 UNL     1      -4.292   0.735  -0.890  1.00  0.00     0.000 C 
HETATM   20  C13 UNL     1      -4.017  -0.677  -1.292  1.00  0.00     0.001 C 
HETATM   21  C14 UNL     1      -2.554  -1.015  -1.336  1.00  0.00     0.011 C 
ENDBRANCH  12  15
ENDBRANCH   4   9
BRANCH   8  22
HETATM   22  C17 UNL     1       6.138   1.464  -0.033  1.00  0.00     0.434 C 
HETATM   23  F1  UNL     1       6.755   0.691  -0.986  1.00  0.00    -0.165 F 
HETATM   24  F2  UNL     1       6.540   1.027   1.226  1.00  0.00    -0.165 F 
HETATM   25  F3  UNL     1       6.391   2.811  -0.180  1.00  0.00    -0.165 F 
ENDBRANCH   8  22
TORSDOF 3
