REMARK  3 active torsions:
REMARK  status: ('A' for Active; 'I' for Inactive)
REMARK    1  A    between atoms: C6_7  and  C7_8 
REMARK    2  A    between atoms: C7_8  and  C8_9 
REMARK    3  A    between atoms: C12_13  and  C13_14 
ROOT
HETATM    1  C7  UNL     1       0.415   1.485  -0.484  1.00  0.00     0.045 C 
ENDROOT
BRANCH   1   2
HETATM    2  C6  UNL     1       1.592   0.871   0.117  1.00  0.00    -0.030 A 
HETATM    3  C5  UNL     1       2.485  -0.052  -0.368  1.00  0.00     0.000 A 
HETATM    4  C4  UNL     1       2.644  -0.666  -1.598  1.00  0.00     0.014 A 
HETATM    5  C17 UNL     1       3.417  -0.394   0.596  1.00  0.00     0.067 A 
HETATM    6  C3  UNL     1       3.649  -1.554  -1.856  1.00  0.00     0.003 A 
HETATM    7  C2  UNL     1       4.567  -1.867  -0.845  1.00  0.00     0.029 A 
HETATM    8  C1  UNL     1       4.453  -1.282   0.397  1.00  0.00     0.073 A 
HETATM    9  N1  UNL     1       5.404  -1.634   1.388  1.00  0.00    -0.100 NA
HETATM   10  N2  UNL     1       3.103   0.326   1.698  1.00  0.00    -0.363 N 
HETATM   11  C16 UNL     1       2.027   1.085   1.442  1.00  0.00     0.096 A 
ATOM     12  H2  UNL     1       3.606   0.296   2.585  1.00  0.00     0.165 HD
ENDBRANCH   1   2
BRANCH   1  13
HETATM   13  C8  UNL     1      -0.898   0.757  -0.273  1.00  0.00    -0.009 C 
HETATM   14  C9  UNL     1      -0.736  -0.599  -0.863  1.00  0.00     0.016 C 
HETATM   15  C10 UNL     1      -2.051  -1.463  -0.826  1.00  0.00     0.081 C 
HETATM   16  C11 UNL     1      -3.098  -0.577  -0.550  1.00  0.00    -0.169 C 
HETATM   17  C12 UNL     1      -4.074   0.383  -0.231  1.00  0.00     0.159 C 
HETATM   18  C14 UNL     1      -3.309   1.738  -0.043  1.00  0.00     0.025 C 
HETATM   19  C15 UNL     1      -1.942   1.694  -0.692  1.00  0.00     0.006 C 
BRANCH  17  20
HETATM   20  C13 UNL     1      -4.831   0.115   1.085  1.00  0.00     0.400 C 
HETATM   21  F1  UNL     1      -3.878   0.102   2.095  1.00  0.00    -0.170 F 
HETATM   22  F2  UNL     1      -5.460  -1.083   1.078  1.00  0.00    -0.170 F 
HETATM   23  F3  UNL     1      -5.723   1.098   1.354  1.00  0.00    -0.170 F 
ENDBRANCH  17  20
ENDBRANCH   1  13
TORSDOF 3
