REMARK  16 active torsions:
REMARK  status: ('A' for Active; 'I' for Inactive)
REMARK    1  A    between atoms: N1_1  and  C1_4 
REMARK    2  A    between atoms: C3_11  and  N4_12 
REMARK       I    between atoms: N4_12  and  C4_14 
REMARK    3  A    between atoms: C4_14  and  C5_16 
REMARK    4  A    between atoms: C5_16  and  N5_17 
REMARK    5  A    between atoms: C5_16  and  C12_35 
REMARK    6  A    between atoms: N5_17  and  N6_18 
REMARK       I    between atoms: N6_18  and  C6_20 
REMARK    7  A    between atoms: C6_20  and  C7_22 
REMARK    8  A    between atoms: C7_22  and  O4_23 
REMARK    9  A    between atoms: C7_22  and  C8_25 
REMARK   10  A    between atoms: C8_25  and  C9_26 
REMARK   11  A    between atoms: C9_26  and  O5_27 
REMARK   12  A    between atoms: C9_26  and  C10_29 
REMARK   13  A    between atoms: C10_29  and  O6_30 
REMARK   14  A    between atoms: C10_29  and  C11_32 
REMARK   15  A    between atoms: C11_32  and  O7_33 
REMARK   16  A    between atoms: C13_38  and  N8_39 
ROOT
HETATM    1  C5  UNL     1      -1.199  -1.127  -0.154  1.00  0.00     0.260 C 
ENDROOT
BRANCH   1   2
HETATM    2  C4  UNL     1      -1.396   0.232   0.379  1.00  0.00     0.264 C 
HETATM    3  N4  UNL     1      -1.921   1.250  -0.442  1.00  0.00    -0.157 N 
ATOM      4  H4  UNL     1      -1.361   1.589  -1.224  1.00  0.00     0.187 HD
HETATM    5  O2  UNL     1      -1.103   0.496   1.556  1.00  0.00    -0.270 OA
BRANCH   3   6
HETATM    6  C3  UNL     1      -3.100   1.775  -0.237  1.00  0.00     0.703 A 
HETATM    7  N3  UNL     1      -3.580   2.742  -1.031  1.00  0.00    -0.140 N 
HETATM    8  C2  UNL     1      -4.805   3.300  -0.821  1.00  0.00     0.352 A 
ATOM      9  H3  UNL     1      -3.013   3.069  -1.813  1.00  0.00     0.189 HD
HETATM   10  N2  UNL     1      -5.564   2.875   0.212  1.00  0.00    -0.141 N 
HETATM   11  O1  UNL     1      -5.277   4.210  -1.555  1.00  0.00    -0.246 OA
HETATM   12  C1  UNL     1      -5.105   1.909   1.019  1.00  0.00     0.694 A 
ATOM     13  H2  UNL     1      -6.482   3.287   0.377  1.00  0.00     0.189 HD
HETATM   14  N11 UNL     1      -3.869   1.366   0.784  1.00  0.00    -0.022 N 
ATOM     15  H11 UNL     1      -3.524   0.631   1.402  1.00  0.00     0.203 HD
BRANCH  12  16
HETATM   16  N1  UNL     1      -5.791   1.464   2.029  1.00  0.00    -0.234 N 
ATOM     17  H12 UNL     1      -6.711   1.868   2.204  1.00  0.00     0.174 HD
ATOM     18  H11 UNL     1      -5.442   0.729   2.643  1.00  0.00     0.174 HD
ENDBRANCH  12  16
ENDBRANCH   3   6
ENDBRANCH   1   2
BRANCH   1  19
HETATM   19  N5  UNL     1      -0.697  -1.994   0.887  1.00  0.00    -0.116 NA
BRANCH  19  20
HETATM   20  N6  UNL     1       0.512  -1.562   1.369  1.00  0.00    -0.271 N 
HETATM   21  C6  UNL     1       1.691  -1.753   0.611  1.00  0.00     0.262 C 
HETATM   22  O3  UNL     1       1.633  -2.314  -0.498  1.00  0.00    -0.269 OA
ATOM     23  H6  UNL     1       0.561  -1.101   2.278  1.00  0.00     0.185 HD
BRANCH  21  24
HETATM   24  C7  UNL     1       2.971  -1.270   1.175  1.00  0.00     0.213 C 
BRANCH  24  25
HETATM   25  O4  UNL     1       2.782  -0.639   2.397  1.00  0.00    -0.386 OA
ATOM     26  H4  UNL     1       3.604  -0.329   2.759  1.00  0.00     0.210 HD
ENDBRANCH  24  25
BRANCH  24  27
HETATM   27  C8  UNL     1       3.641  -0.391   0.138  1.00  0.00     0.076 C 
BRANCH  27  28
HETATM   28  C9  UNL     1       4.948   0.083   0.748  1.00  0.00     0.151 C 
BRANCH  28  29
HETATM   29  O5  UNL     1       5.684  -1.078   1.032  1.00  0.00    -0.393 OA
ATOM     30  H5  UNL     1       6.502  -0.781   1.414  1.00  0.00     0.210 HD
ENDBRANCH  28  29
BRANCH  28  31
HETATM   31  C10 UNL     1       5.759   0.938  -0.186  1.00  0.00     0.170 C 
BRANCH  31  32
HETATM   32  O6  UNL     1       6.038   0.292  -1.370  1.00  0.00    -0.391 OA
ATOM     33  H6  UNL     1       6.550   0.832  -1.960  1.00  0.00     0.210 HD
ENDBRANCH  31  32
BRANCH  31  34
HETATM   34  C11 UNL     1       5.116   2.277  -0.338  1.00  0.00     0.198 C 
BRANCH  34  35
HETATM   35  O7  UNL     1       5.946   3.142  -1.060  1.00  0.00    -0.398 OA
ATOM     36  H7  UNL     1       5.537   3.994  -1.157  1.00  0.00     0.209 HD
ENDBRANCH  34  35
ENDBRANCH  31  34
ENDBRANCH  28  31
ENDBRANCH  27  28
ENDBRANCH  24  27
ENDBRANCH  21  24
ENDBRANCH  19  20
ENDBRANCH   1  19
BRANCH   1  37
HETATM   37  C12 UNL     1      -2.426  -1.679  -0.758  1.00  0.00     0.125 A 
HETATM   38  N7  UNL     1      -3.042  -2.737  -0.390  1.00  0.00    -0.333 N 
HETATM   39  C13 UNL     1      -4.195  -2.918  -1.247  1.00  0.00     0.402 A 
ATOM     40  H7  UNL     1      -2.768  -3.350   0.378  1.00  0.00     0.164 HD
HETATM   41  N9  UNL     1      -4.134  -1.807  -2.146  1.00  0.00    -0.288 N 
HETATM   42  N10 UNL     1      -3.121  -1.119  -1.849  1.00  0.00    -0.288 N 
ATOM     43  H9  UNL     1      -4.795  -1.607  -2.896  1.00  0.00     0.184 HD
ATOM     44  H10 UNL     1      -2.840  -0.267  -2.335  1.00  0.00     0.188 HD
BRANCH  39  45
HETATM   45  N8  UNL     1      -4.085  -4.156  -1.970  1.00  0.00    -0.039 N 
ATOM     46  H83 UNL     1      -3.210  -4.217  -2.490  1.00  0.00     0.279 HD
ATOM     47  H82 UNL     1      -3.945  -4.951  -1.346  1.00  0.00     0.279 HD
ATOM     48  H81 UNL     1      -4.897  -4.284  -2.574  1.00  0.00     0.279 HD
ENDBRANCH  39  45
ENDBRANCH   1  37
TORSDOF 16
