REMARK  6 active torsions:
REMARK  status: ('A' for Active; 'I' for Inactive)
REMARK    1  A    between atoms: N4_13  and  C7_14 
REMARK    2  A    between atoms: C7_14  and  C8_15 
REMARK    3  A    between atoms: C8_15  and  S1_16 
REMARK    4  A    between atoms: C8_15  and  C14_22 
REMARK    5  A    between atoms: S1_16  and  C9_17 
REMARK       I    between atoms: C14_22  and  N5_24 
REMARK    6  A    between atoms: N5_24  and  C15_26 
ROOT
HETATM    1  C8  UNL     1       0.013   0.470   0.636  1.00  0.00     0.180 C 
ENDROOT
BRANCH   1   2
HETATM    2  C7  UNL     1       1.441   0.612   0.830  1.00  0.00     0.116 C 
BRANCH   2   3
HETATM    3  N4  UNL     1       2.206  -0.350   1.546  1.00  0.00    -0.253 N 
HETATM    4  C3  UNL     1       3.000  -1.287   1.006  1.00  0.00     0.087 A 
HETATM    5  C2  UNL     1       3.412  -1.624  -0.282  1.00  0.00     0.063 A 
HETATM    6  C4  UNL     1       3.527  -2.052   2.028  1.00  0.00     0.081 A 
HETATM    7  C1  UNL     1       4.277  -2.634  -0.577  1.00  0.00     0.087 A 
HETATM    8  N1  UNL     1       4.699  -2.978  -1.886  1.00  0.00    -0.099 NA
HETATM    9  C6  UNL     1       4.789  -3.388   0.483  1.00  0.00     0.142 A 
HETATM   10  C5  UNL     1       4.406  -3.085   1.765  1.00  0.00     0.077 A 
HETATM   11  F1  UNL     1       5.648  -4.400   0.248  1.00  0.00    -0.204 F 
HETATM   12  N2  UNL     1       3.035  -1.556   3.180  1.00  0.00    -0.284 N 
HETATM   13  N3  UNL     1       2.271  -0.565   2.857  1.00  0.00    -0.236 N 
ATOM     14  H2  UNL     1       3.228  -1.896   4.122  1.00  0.00     0.188 HD
ATOM     15  H3  UNL     1       1.766  -0.002   3.542  1.00  0.00     0.209 HD
ENDBRANCH   2   3
ENDBRANCH   1   2
BRANCH   1  16
HETATM   16  S1  UNL     1      -0.631   1.863  -0.365  1.00  0.00    -0.144 SA
BRANCH  16  17
HETATM   17  C9  UNL     1      -0.589   3.432   0.477  1.00  0.00     0.048 C 
HETATM   18  C10 UNL     1       0.787   3.966   0.716  1.00  0.00     0.015 C 
HETATM   19  C11 UNL     1       0.667   5.446   0.446  1.00  0.00     0.001 C 
HETATM   20  C12 UNL     1      -0.277   5.517  -0.716  1.00  0.00     0.001 C 
HETATM   21  C13 UNL     1      -1.306   4.471  -0.382  1.00  0.00     0.015 C 
ENDBRANCH  16  17
ENDBRANCH   1  16
BRANCH   1  22
HETATM   22  C14 UNL     1      -0.615  -0.733   0.122  1.00  0.00     0.236 C 
HETATM   23  O1  UNL     1       0.039  -1.773  -0.095  1.00  0.00    -0.272 OA
HETATM   24  N5  UNL     1      -2.032  -0.702  -0.135  1.00  0.00    -0.355 N 
ATOM     25  H5  UNL     1      -2.536   0.164   0.055  1.00  0.00     0.162 HD
BRANCH  24  26
HETATM   26  C15 UNL     1      -2.766  -1.806  -0.637  1.00  0.00     0.084 C 
HETATM   27  C16 UNL     1      -3.863  -2.302   0.297  1.00  0.00     0.025 C 
HETATM   28  C17 UNL     1      -4.685  -3.181  -0.597  1.00  0.00     0.002 C 
HETATM   29  C18 UNL     1      -4.368  -2.794  -2.027  1.00  0.00     0.002 C 
HETATM   30  C19 UNL     1      -3.549  -1.524  -1.887  1.00  0.00     0.025 C 
ENDBRANCH  24  26
ENDBRANCH   1  22
TORSDOF 6
