REMARK  6 active torsions:
REMARK  status: ('A' for Active; 'I' for Inactive)
REMARK    1  A    between atoms: C4_5  and  C5_6 
REMARK    2  A    between atoms: C6_9  and  C7_10 
REMARK    3  A    between atoms: C7_10  and  N2_11 
REMARK    4  A    between atoms: N2_11  and  C8_13 
REMARK    5  A    between atoms: N3_19  and  C14_20 
REMARK    6  A    between atoms: C14_20  and  C15_21 
ROOT
HETATM    1  C7  UNL     1       1.232   1.293  -0.118  1.00  0.00     0.193 C 
ENDROOT
BRANCH   1   2
HETATM    2  C6  UNL     1       2.646   1.025   0.222  1.00  0.00     0.121 A 
HETATM    3  N1  UNL     1       3.395   0.029  -0.278  1.00  0.00    -0.321 N 
HETATM    4  C5  UNL     1       4.622   0.100   0.255  1.00  0.00     0.182 A 
ATOM      5  H1  UNL     1       3.081  -0.668  -0.953  1.00  0.00     0.169 HD
HETATM    6  O1  UNL     1       4.601   1.130   1.067  1.00  0.00    -0.217 OA
HETATM    7  N4  UNL     1       3.447   1.695   1.068  1.00  0.00    -0.245 N 
ATOM      8  H4  UNL     1       3.184   2.513   1.617  1.00  0.00     0.196 HD
BRANCH   4   9
HETATM    9  C4  UNL     1       5.771  -0.759   0.018  1.00  0.00     0.017 A 
HETATM   10  C3  UNL     1       5.668  -1.827  -0.873  1.00  0.00     0.019 A 
HETATM   11  C2  UNL     1       6.764  -2.652  -1.107  1.00  0.00     0.043 A 
HETATM   12  C1  UNL     1       7.968  -2.409  -0.446  1.00  0.00     0.116 A 
HETATM   13  F1  UNL     1       9.046  -3.217  -0.674  1.00  0.00    -0.206 F 
HETATM   14  C20 UNL     1       8.097  -1.360   0.439  1.00  0.00     0.043 A 
HETATM   15  C19 UNL     1       6.984  -0.577   0.633  1.00  0.00     0.019 A 
ENDBRANCH   4   9
ENDBRANCH   1   2
BRANCH   1  16
HETATM   16  N2  UNL     1       0.385   0.648   0.836  1.00  0.00    -0.406 N 
ATOM     17  H2  UNL     1       0.761   0.090   1.603  1.00  0.00     0.154 HD
BRANCH  16  18
HETATM   18  C8  UNL     1      -1.014   0.832   0.651  1.00  0.00     0.030 C 
HETATM   19  C9  UNL     1      -1.486   2.246   0.755  1.00  0.00     0.035 C 
HETATM   20  C10 UNL     1      -3.007   2.244   0.547  1.00  0.00    -0.008 C 
HETATM   21  C11 UNL     1      -3.356   1.700  -0.812  1.00  0.00     0.040 C 
HETATM   22  C17 UNL     1      -3.706   1.469   1.615  1.00  0.00     0.040 C 
HETATM   23  C12 UNL     1      -2.952   0.238  -0.830  1.00  0.00     0.226 C 
HETATM   24  C13 UNL     1      -1.431   0.202  -0.656  1.00  0.00     0.066 C 
HETATM   25  N3  UNL     1      -3.534  -0.508   0.236  1.00  0.00     0.098 N 
HETATM   26  C16 UNL     1      -3.204   0.036   1.540  1.00  0.00     0.226 C 
HETATM   27  C18 UNL     1      -1.724   0.048   1.759  1.00  0.00     0.066 C 
BRANCH  25  28
HETATM   28  C14 UNL     1      -4.950  -0.703   0.099  1.00  0.00     0.284 C 
BRANCH  28  29
HETATM   29  C15 UNL     1      -5.311  -1.615  -1.051  1.00  0.00     0.116 C 
HETATM   30  S1  UNL     1      -4.575  -3.264  -0.847  1.00  0.00    -0.096 SA
ENDBRANCH  28  29
ENDBRANCH  25  28
ENDBRANCH  16  18
ENDBRANCH   1  16
TORSDOF 6
