REMARK  0 active torsions:
REMARK  status: ('A' for Active; 'I' for Inactive)
ROOT
HETATM    1  C1  UNL     1       2.769  -0.140  -0.216  1.00  0.00     0.032 C 
HETATM    2  C2  UNL     1       1.330  -0.107   0.326  1.00  0.00     0.075 C 
HETATM    3  C3  UNL     1       0.772   1.230  -0.004  1.00  0.00     0.057 C 
HETATM    4  C4  UNL     1      -0.716   1.264  -0.174  1.00  0.00     0.188 C 
HETATM    5  C5  UNL     1      -1.464   0.768   1.030  1.00  0.00     0.035 C 
HETATM    6  C6  UNL     1      -1.123  -0.671   1.350  1.00  0.00     0.028 C 
HETATM    7  C7  UNL     1      -0.724  -1.342   0.072  1.00  0.00     0.102 C 
HETATM    8  C8  UNL     1      -1.541  -0.760  -1.085  1.00  0.00     0.257 C 
HETATM    9  N1  UNL     1      -1.126   0.579  -1.373  1.00  0.00    -0.069 N 
ATOM     10  H11 UNL     1      -0.397   0.601  -2.086  1.00  0.00     0.277 HD
ATOM     11  H12 UNL     1      -1.849   1.097  -1.873  1.00  0.00     0.277 HD
HETATM   12  N2  UNL     1       0.648  -1.214  -0.265  1.00  0.00    -0.412 N 
ATOM     13  H2  UNL     1       1.117  -1.870  -0.889  1.00  0.00     0.154 HD
ENDROOT
TORSDOF 0
