REMARK  1 active torsions:
REMARK  status: ('A' for Active; 'I' for Inactive)
REMARK    1  A    between atoms: C2_3  and  C3_4 
ROOT
HETATM    1  N1  UNL     1      -2.922   0.203   1.789  1.00  0.00    -0.197 NA
HETATM    2  C1  UNL     1      -2.601   0.249   0.671  1.00  0.00     0.059 C 
HETATM    3  C2  UNL     1      -2.222   0.309  -0.742  1.00  0.00     0.128 C 
ENDROOT
BRANCH   3   4
HETATM    4  C3  UNL     1      -0.707   0.105  -0.909  1.00  0.00     0.000 C 
HETATM    5  C4  UNL     1      -0.363  -1.215  -0.363  1.00  0.00     0.007 C 
HETATM    6  C5  UNL     1       0.974  -1.396   0.228  1.00  0.00     0.028 C 
HETATM    7  C6  UNL     1       2.019  -0.428  -0.205  1.00  0.00     0.232 C 
HETATM    8  N2  UNL     1       2.067   0.645   0.795  1.00  0.00    -0.075 N 
HETATM    9  C7  UNL     1       0.672   1.088   0.947  1.00  0.00     0.232 C 
ATOM     10  H22 UNL     1       2.512   0.373   1.672  1.00  0.00     0.277 HD
ATOM     11  H21 UNL     1       2.716   1.397   0.563  1.00  0.00     0.277 HD
HETATM   12  C8  UNL     1       0.020   1.278  -0.375  1.00  0.00     0.033 C 
ENDBRANCH   3   4
TORSDOF 1
