REMARK  9 active torsions:
REMARK  status: ('A' for Active; 'I' for Inactive)
REMARK    1  A    between atoms: C2_2  and  C24_32 
REMARK    2  A    between atoms: C3_3  and  C4_4 
REMARK    3  A    between atoms: C5_5  and  C6_7 
REMARK    4  A    between atoms: C6_7  and  C7_9 
REMARK    5  A    between atoms: C7_9  and  O2_10 
REMARK    6  A    between atoms: C7_9  and  C8_12 
REMARK    7  A    between atoms: C15_19  and  O3_20 
REMARK    8  A    between atoms: C15_19  and  C16_22 
REMARK    9  A    between atoms: C24_32  and  O5_33 
ROOT
HETATM    1  C8  UNL     1      -0.169  -0.330   0.323  1.00  0.00     0.039 C 
HETATM    2  C9  UNL     1      -0.715  -1.703   0.801  1.00  0.00     0.017 C 
HETATM    3  C10 UNL     1      -0.665  -2.643  -0.341  1.00  0.00     0.006 C 
HETATM    4  C11 UNL     1      -0.438  -1.723  -1.525  1.00  0.00    -0.003 C 
HETATM    5  C12 UNL     1      -1.776  -1.150  -1.868  1.00  0.00     0.047 C 
HETATM    6  C13 UNL     1      -2.313  -0.120  -0.977  1.00  0.00     0.106 C 
HETATM    7  C14 UNL     1      -3.074   0.928  -1.838  1.00  0.00     0.110 C 
HETATM    8  C15 UNL     1      -4.303   0.039  -1.583  1.00  0.00     0.168 C 
HETATM    9  O4  UNL     1      -3.593  -0.416  -0.494  1.00  0.00    -0.340 OA
HETATM   10  C19 UNL     1      -1.370   0.489   0.036  1.00  0.00     0.142 C 
HETATM   11  C20 UNL     1      -2.189   0.843   1.245  1.00  0.00     0.056 C 
HETATM   12  F1  UNL     1      -1.072   1.732  -0.569  1.00  0.00    -0.239 F 
HETATM   13  C21 UNL     1       0.542  -0.748  -0.910  1.00  0.00    -0.030 C 
HETATM   14  C22 UNL     1       1.791  -1.540  -0.743  1.00  0.00     0.016 C 
HETATM   15  C23 UNL     1       0.812   0.333  -1.907  1.00  0.00     0.016 C 
ENDROOT
BRANCH   1  16
HETATM   16  C7  UNL     1       0.660   0.099   1.473  1.00  0.00     0.206 C 
BRANCH  16  17
HETATM   17  C6  UNL     1       1.389   1.342   1.483  1.00  0.00     0.196 C 
HETATM   18  O1  UNL     1       0.672   2.419   1.386  1.00  0.00    -0.289 OA
BRANCH  17  19
HETATM   19  C5  UNL     1       2.787   1.623   1.584  1.00  0.00     0.059 C 
HETATM   20  C4  UNL     1       3.809   0.797   1.693  1.00  0.00     0.023 C 
HETATM   21 BR1  UNL     1       3.302   3.499   1.574  1.00  0.00    -0.047 Br
BRANCH  20  22
HETATM   22  C3  UNL     1       5.186   1.280   1.794  1.00  0.00     0.006 C 
HETATM   23  C2  UNL     1       6.264   0.573   1.904  1.00  0.00    -0.060 C 
HETATM   24  C1  UNL     1       7.628   1.225   1.999  1.00  0.00     0.045 C 
BRANCH  23  25
HETATM   25  C24 UNL     1       6.281  -0.897   1.948  1.00  0.00     0.198 C 
BRANCH  25  26
HETATM   26  O5  UNL     1       7.031  -1.420   0.889  1.00  0.00    -0.397 OA
ATOM     27  H5  UNL     1       7.042  -2.370   0.917  1.00  0.00     0.209 HD
ENDBRANCH  25  26
ENDBRANCH  23  25
ENDBRANCH  20  22
ENDBRANCH  17  19
ENDBRANCH  16  17
BRANCH  16  28
HETATM   28  O2  UNL     1       1.581  -0.928   1.819  1.00  0.00    -0.387 OA
ATOM     29  H2  UNL     1       1.100  -1.747   1.812  1.00  0.00     0.210 HD
ENDBRANCH  16  28
ENDBRANCH   1  16
BRANCH   8  30
HETATM   30  O3  UNL     1      -4.451  -0.961  -2.543  1.00  0.00    -0.365 OA
ATOM     31  H3  UNL     1      -5.210  -1.510  -2.386  1.00  0.00     0.213 HD
ENDBRANCH   8  30
BRANCH   8  32
HETATM   32  C16 UNL     1      -5.516   0.855  -1.414  1.00  0.00     0.040 C 
HETATM   33  C17 UNL     1      -5.560   1.841  -0.311  1.00  0.00     0.015 C 
HETATM   34  C18 UNL     1      -6.705  -0.097  -1.199  1.00  0.00     0.015 C 
ENDBRANCH   8  32
TORSDOF 9
