REMARK  11 active torsions:
REMARK  status: ('A' for Active; 'I' for Inactive)
REMARK    1  A    between atoms: N1_1  and  N2_4 
REMARK    2  A    between atoms: N2_4  and  C1_6 
REMARK    3  A    between atoms: C1_6  and  C3_13 
REMARK    4  A    between atoms: N3_7  and  O1_9 
REMARK    5  A    between atoms: O1_9  and  C2_10 
REMARK       I    between atoms: C3_13  and  N5_15 
REMARK    6  A    between atoms: N5_15  and  N6_17 
REMARK    7  A    between atoms: N6_17  and  C4_19 
REMARK    8  A    between atoms: C5_20  and  N7_21 
REMARK    9  A    between atoms: N7_21  and  C6_23 
REMARK   10  A    between atoms: C9_26  and  N8_27 
REMARK   11  A    between atoms: C11_31  and  N9_32 
ROOT
HETATM    1  C4  UNL     1       0.029  -0.186   0.980  1.00  0.00     0.133 A 
HETATM    2  C5  UNL     1      -0.912  -1.180   1.094  1.00  0.00     0.120 A 
HETATM    3  C12 UNL     1      -0.562  -1.388   2.406  1.00  0.00     0.253 A 
HETATM    4  O8  UNL     1      -0.919  -2.147   3.345  1.00  0.00    -0.281 OA
HETATM    5  C13 UNL     1       0.383  -0.391   2.294  1.00  0.00     0.254 A 
HETATM    6  O9  UNL     1       1.254   0.159   3.058  1.00  0.00    -0.281 OA
ENDROOT
BRANCH   1   7
HETATM    7  N6  UNL     1       0.450   0.718  -0.063  1.00  0.00    -0.292 N 
ATOM      8  H6  UNL     1      -0.089   0.772  -0.927  1.00  0.00     0.187 HD
BRANCH   7   9
HETATM    9  N5  UNL     1       1.589   1.525   0.092  1.00  0.00    -0.263 N 
HETATM   10  C3  UNL     1       2.888   0.936   0.110  1.00  0.00     0.307 C 
HETATM   11  O3  UNL     1       3.003  -0.307  -0.008  1.00  0.00    -0.262 OA
ATOM     12  H5  UNL     1       1.487   2.535   0.192  1.00  0.00     0.190 HD
BRANCH  10  13
HETATM   13  C1  UNL     1       4.064   1.751   0.263  1.00  0.00     0.210 C 
HETATM   14  N3  UNL     1       5.229   1.179   0.276  1.00  0.00    -0.234 N 
ATOM     15  H3  UNL     1       6.068   1.749   0.383  1.00  0.00     0.197 HD
BRANCH  13  16
HETATM   16  N2  UNL     1       3.945   3.148   0.396  1.00  0.00    -0.286 N 
ATOM     17  H2  UNL     1       3.341   3.560   1.107  1.00  0.00     0.188 HD
BRANCH  16  18
HETATM   18  N1  UNL     1       4.681   3.949  -0.477  1.00  0.00    -0.343 N 
ATOM     19  H12 UNL     1       5.281   3.522  -1.183  1.00  0.00     0.176 HD
ATOM     20  H11 UNL     1       4.595   4.961  -0.381  1.00  0.00     0.176 HD
ENDBRANCH  16  18
ENDBRANCH  13  16
BRANCH  14  21
HETATM   21  O1  UNL     1       5.349  -0.186   0.147  1.00  0.00    -0.182 OA
BRANCH  21  22
HETATM   22  C2  UNL     1       6.191  -0.693  -0.832  1.00  0.00     0.394 C 
HETATM   23  N4  UNL     1       6.372  -2.075  -1.036  1.00  0.00    -0.031 NA
HETATM   24  O2  UNL     1       6.804   0.130  -1.552  1.00  0.00    -0.240 OA
ENDBRANCH  21  22
ENDBRANCH  14  21
ENDBRANCH  10  13
ENDBRANCH   7   9
ENDBRANCH   1   7
BRANCH   2  25
HETATM   25  N7  UNL     1      -1.876  -1.788   0.190  1.00  0.00    -0.349 N 
ATOM     26  H7  UNL     1      -1.624  -2.623  -0.339  1.00  0.00     0.166 HD
BRANCH  25  27
HETATM   27  C6  UNL     1      -3.155  -1.223   0.047  1.00  0.00     0.066 A 
HETATM   28  C7  UNL     1      -3.485  -0.152   0.867  1.00  0.00     0.034 A 
HETATM   29  C8  UNL     1      -4.703   0.444   0.832  1.00  0.00     0.038 A 
HETATM   30  C9  UNL     1      -5.641  -0.065  -0.080  1.00  0.00     0.105 A 
HETATM   31  C10 UNL     1      -5.321  -1.117  -0.887  1.00  0.00     0.074 A 
HETATM   32  C11 UNL     1      -4.056  -1.730  -0.845  1.00  0.00     0.131 A 
BRANCH  30  33
HETATM   33  N8  UNL     1      -6.924   0.521  -0.162  1.00  0.00    -0.116 N 
HETATM   34  O4  UNL     1      -7.746   0.069  -0.967  1.00  0.00    -0.532 OA
HETATM   35  O5  UNL     1      -7.257   1.575   0.642  1.00  0.00    -0.532 OA
ENDBRANCH  30  33
BRANCH  32  36
HETATM   36  N9  UNL     1      -3.818  -2.814  -1.728  1.00  0.00    -0.113 N 
HETATM   37  O6  UNL     1      -4.822  -3.532  -2.072  1.00  0.00    -0.532 OA
HETATM   38  O7  UNL     1      -2.637  -3.200  -2.271  1.00  0.00    -0.532 OA
ENDBRANCH  32  36
ENDBRANCH  25  27
ENDBRANCH   2  25
TORSDOF 11
