REMARK  3 active torsions:
REMARK  status: ('A' for Active; 'I' for Inactive)
REMARK    1  A    between atoms: C2_2  and  O1_3 
REMARK    2  A    between atoms: C2_2  and  C3_5 
REMARK    3  A    between atoms: C3_5  and  N1_6 
ROOT
HETATM    1  N1  UNL     1      -0.697   0.020   0.379  1.00  0.00     0.096 N 
HETATM    2  C4  UNL     1      -0.403  -0.881  -0.657  1.00  0.00     0.282 C 
HETATM    3  C5  UNL     1       1.062  -1.336  -0.440  1.00  0.00     0.074 C 
HETATM    4  C6  UNL     1       1.774  -1.453  -1.744  1.00  0.00     0.017 C 
HETATM    5  C7  UNL     1       1.552  -0.195   0.431  1.00  0.00     0.195 C 
HETATM    6  C8  UNL     1       0.332  -0.096   1.365  1.00  0.00     0.341 C 
HETATM    7  O2  UNL     1       1.677   0.939  -0.330  1.00  0.00    -0.351 OA
HETATM    8  C9  UNL     1       2.904   1.534   0.041  1.00  0.00     0.198 C 
HETATM    9  C10 UNL     1       3.135   0.879   1.392  1.00  0.00     0.198 C 
HETATM   10  O3  UNL     1       2.720  -0.441   1.096  1.00  0.00    -0.351 OA
ENDROOT
BRANCH   1  11
HETATM   11  C3  UNL     1      -1.975   0.086   0.956  1.00  0.00     0.303 C 
BRANCH  11  12
HETATM   12  C2  UNL     1      -3.055   0.673   0.095  1.00  0.00     0.142 C 
HETATM   13  C1  UNL     1      -3.401  -0.210  -1.051  1.00  0.00     0.041 C 
BRANCH  12  14
HETATM   14  O1  UNL     1      -2.723   1.988  -0.305  1.00  0.00    -0.394 OA
ATOM     15  H1  UNL     1      -2.502   2.552   0.427  1.00  0.00     0.210 HD
ENDBRANCH  12  14
ENDBRANCH  11  12
ENDBRANCH   1  11
TORSDOF 3
