REMARK  7 active torsions:
REMARK  status: ('A' for Active; 'I' for Inactive)
REMARK    1  A    between atoms: C4_4  and  C5_5 
REMARK    2  A    between atoms: C6_12  and  N3_13 
REMARK       I    between atoms: N3_13  and  C7_15 
REMARK    3  A    between atoms: C7_15  and  C8_17 
REMARK    4  A    between atoms: C10_19  and  C11_20 
REMARK    5  A    between atoms: C12_21  and  S1_22 
REMARK    6  A    between atoms: C14_27  and  O5_28 
REMARK    7  A    between atoms: C16_30  and  O6_31 
ROOT
HETATM    1  C1  UNL     1      -3.248  -1.257   1.181  1.00  0.00     0.018 C 
HETATM    2  C2  UNL     1      -3.313  -0.338   0.406  1.00  0.00    -0.072 C 
HETATM    3  C3  UNL     1      -3.413   0.767  -0.501  1.00  0.00     0.089 A 
HETATM    4  C4  UNL     1      -4.309   1.809  -0.325  1.00  0.00     0.081 A 
HETATM    5  N1  UNL     1      -4.144   2.668  -1.342  1.00  0.00    -0.299 N 
ATOM      6  H1  UNL     1      -4.667   3.533  -1.479  1.00  0.00     0.186 HD
HETATM    7  N2  UNL     1      -3.203   2.216  -2.128  1.00  0.00    -0.284 N 
ATOM      8  H2  UNL     1      -2.881   2.681  -2.977  1.00  0.00     0.188 HD
HETATM    9  C6  UNL     1      -2.712   1.033  -1.652  1.00  0.00     0.143 A 
ENDROOT
BRANCH   4  10
HETATM   10  C5  UNL     1      -5.265   1.955   0.766  1.00  0.00     0.230 C 
HETATM   11 CL1  UNL     1      -4.444   2.108   2.359  1.00  0.00    -0.101 Cl
HETATM   12 CL2  UNL     1      -6.405   0.617   0.893  1.00  0.00    -0.101 Cl
ENDBRANCH   4  10
BRANCH   9  13
HETATM   13  N3  UNL     1      -1.790   0.332  -2.179  1.00  0.00    -0.306 N 
HETATM   14  C7  UNL     1      -1.247  -0.880  -1.742  1.00  0.00     0.260 C 
HETATM   15  O1  UNL     1      -1.809  -1.954  -2.049  1.00  0.00    -0.267 OA
ATOM     16  H3  UNL     1      -1.392   0.706  -3.040  1.00  0.00     0.170 HD
BRANCH  14  17
HETATM   17  C8  UNL     1      -0.044  -0.914  -0.939  1.00  0.00     0.069 A 
HETATM   18  C9  UNL     1       0.567   0.271  -0.580  1.00  0.00     0.031 A 
HETATM   19  C10 UNL     1       1.720   0.310   0.203  1.00  0.00    -0.032 A 
HETATM   20  C13 UNL     1       2.233  -0.896   0.612  1.00  0.00     0.051 A 
HETATM   21  C14 UNL     1       1.616  -2.095   0.250  1.00  0.00     0.103 A 
HETATM   22  C16 UNL     1       0.470  -2.118  -0.530  1.00  0.00     0.117 A 
BRANCH  19  23
HETATM   23  C11 UNL     1       2.317   1.600   0.547  1.00  0.00     0.026 C 
HETATM   24  C12 UNL     1       3.397   1.753   1.275  1.00  0.00     0.134 C 
BRANCH  24  25
HETATM   25  S1  UNL     1       4.022   3.349   1.622  1.00  0.00     0.126 S 
HETATM   26  O2  UNL     1       4.280   3.523   3.099  1.00  0.00    -0.592 OA
HETATM   27  O3  UNL     1       3.028   4.373   1.179  1.00  0.00    -0.592 OA
HETATM   28  O4  UNL     1       5.479   3.507   0.786  1.00  0.00    -0.592 OA
ENDBRANCH  24  25
ENDBRANCH  19  23
BRANCH  21  29
HETATM   29  O5  UNL     1       2.147  -3.303   0.671  1.00  0.00    -0.353 OA
HETATM   30  C15 UNL     1       3.314  -3.274   1.466  1.00  0.00     0.210 C 
ENDBRANCH  21  29
BRANCH  22  31
HETATM   31  O6  UNL     1      -0.062  -3.360  -0.834  1.00  0.00    -0.352 OA
HETATM   32  C17 UNL     1       0.305  -4.136  -1.956  1.00  0.00     0.210 C 
ENDBRANCH  22  31
ENDBRANCH  14  17
ENDBRANCH   9  13
TORSDOF 7
