REMARK  1 active torsions:
REMARK  status: ('A' for Active; 'I' for Inactive)
REMARK    1  A    between atoms: O1_1  and  C1_3 
ROOT
HETATM    1  C1  UNL     1      -0.690   1.087   0.466  1.00  0.00     0.202 C 
HETATM    2  C2  UNL     1      -1.243  -0.214   0.987  1.00  0.00     0.291 C 
HETATM    3  O2  UNL     1      -1.863  -0.967   0.007  1.00  0.00    -0.356 OA
HETATM    4  C3  UNL     1      -0.852  -1.590  -0.691  1.00  0.00     0.203 C 
HETATM    5  C4  UNL     1       0.387  -1.371   0.176  1.00  0.00     0.157 C 
HETATM    6  O3  UNL     1      -0.178  -1.008   1.393  1.00  0.00    -0.351 OA
HETATM    7  C5  UNL     1       1.189  -0.292  -0.464  1.00  0.00     0.072 C 
HETATM    8  C6  UNL     1       1.922   0.657   0.399  1.00  0.00     0.178 C 
HETATM    9  O4  UNL     1       1.441   1.709  -0.410  1.00  0.00    -0.382 OA
HETATM   10  C7  UNL     1       0.305   0.920  -0.636  1.00  0.00     0.163 C 
ENDROOT
BRANCH   1  11
HETATM   11  O1  UNL     1      -1.760   1.875   0.080  1.00  0.00    -0.388 OA
ATOM     12  H1  UNL     1      -1.411   2.695  -0.249  1.00  0.00     0.210 HD
ENDBRANCH   1  11
TORSDOF 1
