REMARK  11 active torsions:
REMARK  status: ('A' for Active; 'I' for Inactive)
REMARK    1  A    between atoms: C2_2  and  C3_3 
REMARK    2  A    between atoms: C11_18  and  N4_19 
REMARK       I    between atoms: N4_19  and  C12_21 
REMARK    3  A    between atoms: C12_21  and  C13_23 
REMARK    4  A    between atoms: N5_26  and  C15_27 
REMARK    5  A    between atoms: C15_27  and  C17_29 
REMARK    6  A    between atoms: C17_29  and  C18_30 
REMARK    7  A    between atoms: C18_30  and  C19_31 
REMARK    8  A    between atoms: C19_31  and  C22_34 
REMARK    9  A    between atoms: C22_34  and  N6_35 
REMARK   10  A    between atoms: C24_41  and  C25_42 
REMARK   11  A    between atoms: N7_45  and  C28_46 
ROOT
HETATM    1  C13 UNL     1      -0.328   0.475   1.050  1.00  0.00     0.262 C 
HETATM    2  C14 UNL     1      -1.719   0.139   0.781  1.00  0.00     0.249 C 
HETATM    3  O4  UNL     1      -2.036  -0.991   1.306  1.00  0.00    -0.271 OA
HETATM    4  N5  UNL     1      -2.802   0.735   0.097  1.00  0.00    -0.281 N 
HETATM    5  C23 UNL     1      -2.862   2.112  -0.273  1.00  0.00     0.250 C 
HETATM    6  O5  UNL     1      -3.806   2.353  -1.067  1.00  0.00    -0.271 OA
HETATM    7  C24 UNL     1      -1.972   3.255   0.153  1.00  0.00     0.184 C 
HETATM    8  N7  UNL     1      -0.588   2.929  -0.000  1.00  0.00    -0.329 N 
HETATM    9  C32 UNL     1       0.073   1.858   0.708  1.00  0.00     0.243 C 
HETATM   10  O6  UNL     1       1.226   2.152   1.122  1.00  0.00    -0.272 OA
ENDROOT
BRANCH   1  11
HETATM   11  C12 UNL     1       0.563  -0.526   0.380  1.00  0.00     0.241 C 
HETATM   12  N4  UNL     1       1.953  -0.608   0.642  1.00  0.00    -0.342 N 
ATOM     13  H4  UNL     1       2.377   0.029   1.317  1.00  0.00     0.163 HD
HETATM   14  O3  UNL     1       0.063  -1.321  -0.447  1.00  0.00    -0.272 OA
BRANCH  12  15
HETATM   15  C11 UNL     1       2.791  -1.601  -0.048  1.00  0.00     0.222 C 
HETATM   16  C3  UNL     1       3.882  -0.892  -0.740  1.00  0.00     0.020 C 
HETATM   17  N1  UNL     1       4.981  -0.360  -0.332  1.00  0.00    -0.339 N 
HETATM   18  C4  UNL     1       5.674  -0.185   0.900  1.00  0.00     0.180 A 
ATOM     19  H1  UNL     1       5.501   0.051  -1.108  1.00  0.00     0.167 HD
HETATM   20  O1  UNL     1       6.602   0.778   0.906  1.00  0.00    -0.219 OA
HETATM   21  C7  UNL     1       5.670  -0.743   2.149  1.00  0.00     0.037 A 
HETATM   22  N2  UNL     1       7.160   0.841   2.070  1.00  0.00    -0.263 N 
HETATM   23  C5  UNL     1       6.620  -0.089   2.900  1.00  0.00     0.041 A 
ATOM     24  H2  UNL     1       7.899   1.495   2.328  1.00  0.00     0.194 HD
HETATM   25  C6  UNL     1       6.991  -0.339   4.326  1.00  0.00     0.071 C 
HETATM   26  C8  UNL     1       4.933  -1.808   2.823  1.00  0.00     0.170 C 
HETATM   27  N3  UNL     1       4.179  -2.677   1.993  1.00  0.00    -0.350 N 
HETATM   28  C9  UNL     1       4.461  -4.064   2.296  1.00  0.00     0.153 C 
HETATM   29  C10 UNL     1       3.225  -2.584   0.949  1.00  0.00     0.248 C 
HETATM   30  O2  UNL     1       2.539  -3.659   0.833  1.00  0.00    -0.271 OA
BRANCH  16  31
HETATM   31  C2  UNL     1       3.675  -0.758  -2.229  1.00  0.00     0.051 C 
HETATM   32  C1  UNL     1       4.830  -0.016  -2.859  1.00  0.00     0.011 C 
ENDBRANCH  16  31
ENDBRANCH  12  15
ENDBRANCH   1  11
BRANCH   4  33
HETATM   33  C15 UNL     1      -3.929  -0.102  -0.254  1.00  0.00     0.092 C 
HETATM   34  C16 UNL     1      -4.571  -0.585   1.010  1.00  0.00     0.033 C 
BRANCH  33  35
HETATM   35  C17 UNL     1      -3.582  -1.217  -1.214  1.00  0.00     0.026 C 
BRANCH  35  36
HETATM   36  C18 UNL     1      -4.846  -2.000  -1.484  1.00  0.00     0.012 C 
BRANCH  36  37
HETATM   37  C19 UNL     1      -4.669  -3.145  -2.423  1.00  0.00    -0.024 C 
HETATM   38  C20 UNL     1      -4.175  -2.721  -3.787  1.00  0.00     0.016 C 
HETATM   39  C21 UNL     1      -6.041  -3.774  -2.622  1.00  0.00     0.016 C 
BRANCH  37  40
HETATM   40  C22 UNL     1      -3.756  -4.219  -1.911  1.00  0.00     0.238 C 
BRANCH  40  41
HETATM   41  N6  UNL     1      -4.277  -4.752  -0.692  1.00  0.00    -0.079 N 
ATOM     42  H63 UNL     1      -4.445  -4.026   0.004  1.00  0.00     0.274 HD
ATOM     43  H62 UNL     1      -5.237  -5.081  -0.796  1.00  0.00     0.274 HD
ATOM     44  H61 UNL     1      -3.656  -5.482  -0.344  1.00  0.00     0.274 HD
ENDBRANCH  40  41
ENDBRANCH  37  40
ENDBRANCH  36  37
ENDBRANCH  35  36
ENDBRANCH  33  35
ENDBRANCH   4  33
BRANCH   8  45
HETATM   45  C28 UNL     1       0.279   3.644  -0.895  1.00  0.00     0.025 C 
HETATM   46  C29 UNL     1       0.907   2.699  -1.941  1.00  0.00     0.037 C 
HETATM   47  C30 UNL     1       1.424   4.359  -0.248  1.00  0.00     0.037 C 
HETATM   48  C31 UNL     1      -0.455   4.663  -1.764  1.00  0.00     0.037 C 
ENDBRANCH   8  45
BRANCH   7  49
HETATM   49  C25 UNL     1      -2.417   3.850   1.427  1.00  0.00     0.010 C 
HETATM   50  C26 UNL     1      -2.472   2.986   2.638  1.00  0.00     0.012 C 
HETATM   51  C27 UNL     1      -1.693   5.117   1.831  1.00  0.00     0.012 C 
ENDBRANCH   7  49
TORSDOF 11
