REMARK  7 active torsions:
REMARK  status: ('A' for Active; 'I' for Inactive)
REMARK    1  A    between atoms: C2_2  and  C3_3 
REMARK    2  A    between atoms: C3_3  and  O1_5 
REMARK    3  A    between atoms: C3_3  and  C5_7 
REMARK    4  A    between atoms: C7_9  and  C8_10 
REMARK    5  A    between atoms: C10_14  and  N2_15 
REMARK    6  A    between atoms: N2_15  and  C11_17 
REMARK    7  A    between atoms: C11_17  and  C12_18 
ROOT
HETATM    1  C8  UNL     1       0.527   0.397   0.051  1.00  0.00     0.031 A 
HETATM    2  C9  UNL     1       1.064   1.484   0.704  1.00  0.00     0.121 A 
HETATM    3  N1  UNL     1       2.388   1.491   0.954  1.00  0.00    -0.201 N 
ATOM      4  H1  UNL     1       2.791   2.294   1.437  1.00  0.00     0.183 HD
HETATM    5  C10 UNL     1       3.206   0.471   0.588  1.00  0.00     0.678 A 
HETATM    6  N4  UNL     1       2.657  -0.560  -0.038  1.00  0.00    -0.195 N 
ATOM      7  H4  UNL     1       3.269  -1.328  -0.313  1.00  0.00     0.184 HD
HETATM    8  C15 UNL     1       1.336  -0.667  -0.339  1.00  0.00     0.036 A 
HETATM    9  C16 UNL     1       0.790  -1.870  -0.998  1.00  0.00     0.070 C 
ENDROOT
BRANCH   1  10
HETATM   10  C7  UNL     1      -0.895   0.220  -0.253  1.00  0.00     0.063 A 
HETATM   11  C6  UNL     1      -1.974   0.464   0.562  1.00  0.00     0.061 A 
HETATM   12  C5  UNL     1      -3.104   0.039  -0.146  1.00  0.00     0.064 A 
HETATM   13  N6  UNL     1      -2.715  -0.436  -1.333  1.00  0.00    -0.297 N 
HETATM   14  N5  UNL     1      -1.411  -0.323  -1.376  1.00  0.00    -0.298 N 
HETATM   15  C17 UNL     1      -3.588  -0.949  -2.399  1.00  0.00     0.177 C 
ATOM     16  H5  UNL     1      -0.845  -0.614  -2.173  1.00  0.00     0.187 HD
BRANCH  12  17
HETATM   17  C3  UNL     1      -4.467   0.073   0.407  1.00  0.00     0.097 C 
HETATM   18  C4  UNL     1      -4.534  -0.902   1.595  1.00  0.00     0.053 C 
BRANCH  17  19
HETATM   19  C2  UNL     1      -4.864   1.427   0.916  1.00  0.00     0.039 C 
HETATM   20  C1  UNL     1      -4.819   2.423  -0.222  1.00  0.00     0.008 C 
ENDBRANCH  17  19
BRANCH  17  21
HETATM   21  O1  UNL     1      -5.424  -0.421  -0.497  1.00  0.00    -0.384 OA
ATOM     22  H1  UNL     1      -5.173  -1.279  -0.819  1.00  0.00     0.211 HD
ENDBRANCH  17  21
ENDBRANCH  12  17
ENDBRANCH   1  10
BRANCH   5  23
HETATM   23  N2  UNL     1       4.491   0.562   0.846  1.00  0.00    -0.221 N 
ATOM     24  H2  UNL     1       4.889   1.378   1.312  1.00  0.00     0.178 HD
BRANCH  23  25
HETATM   25  C11 UNL     1       5.310  -0.555   0.435  1.00  0.00     0.189 C 
BRANCH  25  26
HETATM   26  C12 UNL     1       6.733  -0.064   0.343  1.00  0.00     0.058 A 
HETATM   27  S1  UNL     1       7.435   1.466   0.599  1.00  0.00    -0.083 SA
HETATM   28  C13 UNL     1       9.058   1.071   0.239  1.00  0.00     0.141 A 
HETATM   29  N3  UNL     1       8.971  -0.219  -0.060  1.00  0.00    -0.336 N 
HETATM   30  C14 UNL     1       7.819  -0.813  -0.016  1.00  0.00     0.203 A 
ATOM     31  H3  UNL     1       9.807  -0.741  -0.323  1.00  0.00     0.168 HD
HETATM   32  F1  UNL     1       7.686  -2.159  -0.322  1.00  0.00    -0.185 F 
ENDBRANCH  25  26
ENDBRANCH  23  25
ENDBRANCH   5  23
TORSDOF 7
