REMARK  3 active torsions:
REMARK  status: ('A' for Active; 'I' for Inactive)
REMARK    1  A    between atoms: N1_1  and  C1_5 
REMARK    2  A    between atoms: N2_12  and  O2_13 
REMARK    3  A    between atoms: O2_13  and  C6_14 
ROOT
HETATM    1  C1  UNL     1       1.719  -0.875   0.446  1.00  0.00     0.314 C 
HETATM    2  C2  UNL     1       2.791  -0.976  -0.586  1.00  0.00     0.067 C 
HETATM    3  C3  UNL     1       4.100  -0.506   0.058  1.00  0.00     0.078 C 
HETATM    4  S1  UNL     1       4.237   1.249  -0.316  1.00  0.00    -0.160 SA
HETATM    5  C4  UNL     1       2.935   2.168   0.524  1.00  0.00     0.179 C 
HETATM    6  C5  UNL     1       1.584   1.659   0.253  1.00  0.00     0.254 C 
HETATM    7  O1  UNL     1       0.812   2.544  -0.185  1.00  0.00    -0.270 OA
HETATM    8  N2  UNL     1       0.974   0.387   0.383  1.00  0.00    -0.194 N 
ENDROOT
BRANCH   8   9
HETATM    9  O2  UNL     1      -0.338   0.211   0.473  1.00  0.00    -0.268 OA
BRANCH   9  10
HETATM   10  C6  UNL     1      -1.155   0.575  -0.527  1.00  0.00     0.152 C 
HETATM   11  C7  UNL     1      -2.268   1.458   0.047  1.00  0.00     0.034 C 
HETATM   12  C8  UNL     1      -3.002   0.652   1.134  1.00  0.00     0.002 C 
HETATM   13  C9  UNL     1      -3.807  -0.385   0.365  1.00  0.00     0.000 C 
HETATM   14  C10 UNL     1      -2.799  -1.330  -0.256  1.00  0.00     0.002 C 
HETATM   15  C11 UNL     1      -1.894  -0.591  -1.180  1.00  0.00     0.034 C 
ENDBRANCH   9  10
ENDBRANCH   8   9
BRANCH   1  16
HETATM   16  N1  UNL     1       0.876  -2.031   0.339  1.00  0.00    -0.056 N 
ATOM     17  H13 UNL     1       0.503  -2.159  -0.602  1.00  0.00     0.276 HD
ATOM     18  H12 UNL     1       1.399  -2.905   0.401  1.00  0.00     0.276 HD
ATOM     19  H11 UNL     1       0.143  -1.962   1.045  1.00  0.00     0.276 HD
ENDBRANCH   1  16
TORSDOF 3
