REMARK  2 active torsions:
REMARK  status: ('A' for Active; 'I' for Inactive)
REMARK    1  A    between atoms: C2_2  and  C3_3 
REMARK    2  A    between atoms: C3_3  and  O1_4 
ROOT
HETATM    1  C1  UNL     1       1.882   0.861  -1.513  1.00  0.00     0.021 C 
HETATM    2  C2  UNL     1       1.370   0.425  -0.151  1.00  0.00     0.015 C 
HETATM    3  C4  UNL     1       0.464   1.530   0.279  1.00  0.00     0.016 C 
HETATM    4  C5  UNL     1      -0.505   1.362   1.353  1.00  0.00     0.014 C 
HETATM    5  C6  UNL     1      -1.904   0.928   0.959  1.00  0.00     0.037 C 
HETATM    6  C7  UNL     1      -2.382   1.706  -0.188  1.00  0.00    -0.019 C 
HETATM    7  C8  UNL     1      -2.461   1.281  -1.440  1.00  0.00     0.005 C 
HETATM    8  C9  UNL     1      -2.023  -0.113  -1.702  1.00  0.00     0.187 C 
HETATM    9  C10 UNL     1      -2.413  -1.005  -0.589  1.00  0.00     0.074 C 
HETATM   10  C11 UNL     1      -2.060  -0.561   0.786  1.00  0.00    -0.070 C 
HETATM   11  C12 UNL     1      -1.045  -1.384   1.501  1.00  0.00     0.002 C 
HETATM   12  C13 UNL     1       0.315  -1.526   1.054  1.00  0.00     0.015 C 
HETATM   13  C14 UNL     1       0.801  -0.952  -0.232  1.00  0.00     0.120 C 
HETATM   14  C15 UNL     1       1.934  -1.875  -0.685  1.00  0.00     0.055 C 
HETATM   15  O2  UNL     1      -0.158  -1.106  -1.195  1.00  0.00    -0.224 OA
HETATM   16  O3  UNL     1      -0.633  -0.064  -1.757  1.00  0.00    -0.230 OA
ENDROOT
BRANCH   2  17
HETATM   17  C3  UNL     1       2.590   0.497   0.773  1.00  0.00     0.176 C 
BRANCH  17  18
HETATM   18  O1  UNL     1       3.638  -0.299   0.402  1.00  0.00    -0.400 OA
ATOM     19  H1  UNL     1       4.394  -0.254   0.975  1.00  0.00     0.209 HD
ENDBRANCH  17  18
ENDBRANCH   2  17
TORSDOF 2
