REMARK  2 active torsions:
REMARK  status: ('A' for Active; 'I' for Inactive)
REMARK    1  A    between atoms: O1_2  and  C2_3 
REMARK    2  A    between atoms: C2_3  and  N1_4 
ROOT
HETATM    1  N1  UNL     1       0.631   0.097  -0.799  1.00  0.00    -0.237 N 
HETATM    2  C3  UNL     1      -0.543  -0.019  -0.130  1.00  0.00     0.166 A 
HETATM    3  C4  UNL     1      -1.322   1.104   0.161  1.00  0.00     0.162 A 
HETATM    4  C5  UNL     1      -0.859   2.335  -0.253  1.00  0.00     0.281 A 
HETATM    5  O2  UNL     1      -1.571   3.341   0.015  1.00  0.00    -0.265 OA
HETATM    6  N2  UNL     1       0.295   2.394  -0.904  1.00  0.00    -0.273 N 
ATOM      7  H2  UNL     1       0.627   3.310  -1.205  1.00  0.00     0.173 HD
HETATM    8  C6  UNL     1       1.055   1.324  -1.192  1.00  0.00     0.336 A 
HETATM    9  O3  UNL     1       2.134   1.476  -1.815  1.00  0.00    -0.246 OA
HETATM   10  N3  UNL     1      -2.551   0.955   0.868  1.00  0.00    -0.278 N 
ATOM     11  H3  UNL     1      -3.125   1.770   1.084  1.00  0.00     0.188 HD
HETATM   12  N4  UNL     1      -2.956  -0.313   1.259  1.00  0.00    -0.132 N 
ATOM     13  H4  UNL     1      -3.835  -0.422   1.765  1.00  0.00     0.205 HD
HETATM   14  C7  UNL     1      -2.174  -1.460   0.970  1.00  0.00     0.692 A 
HETATM   15  N5  UNL     1      -2.558  -2.651   1.339  1.00  0.00    -0.233 N 
ATOM     16  H51 UNL     1      -1.995  -3.476   1.131  1.00  0.00     0.174 HD
ATOM     17  H52 UNL     1      -3.438  -2.754   1.845  1.00  0.00     0.174 HD
HETATM   18  N6  UNL     1      -0.950  -1.317   0.266  1.00  0.00    -0.172 N 
ATOM     19  H6  UNL     1      -0.375  -2.132   0.050  1.00  0.00     0.186 HD
ENDROOT
BRANCH   1  20
HETATM   20  C2  UNL     1       1.383  -1.038  -1.110  1.00  0.00     0.239 C 
BRANCH  20  21
HETATM   21  O1  UNL     1       2.204  -1.393  -0.059  1.00  0.00    -0.351 OA
HETATM   22  C1  UNL     1       3.107  -0.478   0.376  1.00  0.00     0.210 C 
ENDBRANCH  20  21
ENDBRANCH   1  20
TORSDOF 2
