REMARK  3 active torsions:
REMARK  status: ('A' for Active; 'I' for Inactive)
REMARK    1  A    between atoms: C1_4  and  C2_6 
REMARK    2  A    between atoms: C2_6  and  N3_7 
REMARK    3  A    between atoms: C4_14  and  N5_15 
ROOT
HETATM    1  C2  UNL     1       0.492  -0.308  -0.717  1.00  0.00     0.241 C 
HETATM    2  C3  UNL     1      -0.000   0.806  -1.568  1.00  0.00     0.264 C 
HETATM    3  O3  UNL     1       0.458   1.045  -2.712  1.00  0.00    -0.270 OA
HETATM    4  N4  UNL     1      -1.017   1.454  -0.821  1.00  0.00    -0.302 N 
ATOM      5  H4  UNL     1      -1.354   2.400  -0.997  1.00  0.00     0.166 HD
HETATM    6  C4  UNL     1      -1.503   0.597   0.212  1.00  0.00     0.370 C 
HETATM    7  N6  UNL     1      -1.036   0.843   1.538  1.00  0.00    -0.021 N 
ATOM      8  H61 UNL     1      -1.658   1.231   2.248  1.00  0.00     0.282 HD
ATOM      9  H62 UNL     1      -0.377   1.598   1.728  1.00  0.00     0.282 HD
HETATM   10  C5  UNL     1      -0.617  -0.538   1.596  1.00  0.00     0.252 C 
HETATM   11  C6  UNL     1      -0.664  -0.646   0.131  1.00  0.00     0.149 C 
ENDROOT
BRANCH   1  12
HETATM   12  C1  UNL     1       1.716   0.130  -0.014  1.00  0.00     0.132 C 
HETATM   13  N1  UNL     1       2.131   1.336  -0.103  1.00  0.00    -0.388 N 
ATOM     14  H12 UNL     1       2.976   1.638   0.382  1.00  0.00     0.157 HD
ATOM     15  H11 UNL     1       1.602   1.998  -0.671  1.00  0.00     0.157 HD
HETATM   16  N2  UNL     1       2.450  -0.788   0.774  1.00  0.00    -0.085 NA
ENDBRANCH   1  12
BRANCH   1  17
HETATM   17  N3  UNL     1       0.820  -1.416  -1.615  1.00  0.00    -0.127 N 
HETATM   18  O1  UNL     1       0.624  -1.320  -2.834  1.00  0.00    -0.535 OA
HETATM   19  O2  UNL     1       1.350  -2.600  -1.164  1.00  0.00    -0.535 OA
ENDBRANCH   1  17
BRANCH   6  20
HETATM   20  N5  UNL     1      -2.931   0.351   0.204  1.00  0.00    -0.025 N 
ATOM     21  H53 UNL     1      -3.437   1.237   0.220  1.00  0.00     0.279 HD
ATOM     22  H52 UNL     1      -3.218  -0.006  -0.708  1.00  0.00     0.279 HD
ATOM     23  H51 UNL     1      -3.278  -0.261   0.942  1.00  0.00     0.279 HD
ENDBRANCH   6  20
TORSDOF 3
