REMARK  6 active torsions:
REMARK  status: ('A' for Active; 'I' for Inactive)
REMARK    1  A    between atoms: O1_2  and  C2_3 
REMARK    2  A    between atoms: C4_5  and  C5_6 
REMARK    3  A    between atoms: N1_7  and  N2_9 
REMARK       I    between atoms: N2_9  and  C6_11 
REMARK    4  A    between atoms: C6_11  and  C7_13 
REMARK       I    between atoms: C7_13  and  N3_15 
REMARK       I    between atoms: N3_15  and  C8_17 
REMARK    5  A    between atoms: C11_21  and  O5_22 
REMARK    6  A    between atoms: C13_24  and  O6_25 
ROOT
HETATM    1  C5  UNL     1      -0.143  -0.499   0.091  1.00  0.00     0.118 C 
HETATM    2  N1  UNL     1       0.525  -0.229  -0.993  1.00  0.00    -0.308 N 
ATOM      3  H1  UNL     1       0.004   0.044  -1.826  1.00  0.00     0.186 HD
ENDROOT
BRANCH   1   4
HETATM    4  C4  UNL     1      -1.599  -0.418   0.131  1.00  0.00    -0.014 A 
HETATM    5  C3  UNL     1      -2.347  -0.054  -0.967  1.00  0.00     0.052 A 
HETATM    6  C2  UNL     1      -3.736   0.003  -0.857  1.00  0.00     0.104 A 
HETATM    7  C13 UNL     1      -4.399  -0.293   0.314  1.00  0.00     0.133 A 
HETATM    8  C11 UNL     1      -3.640  -0.656   1.406  1.00  0.00     0.104 A 
HETATM    9  C10 UNL     1      -2.254  -0.711   1.291  1.00  0.00     0.052 A 
BRANCH   6  10
HETATM   10  O1  UNL     1      -4.498   0.365  -1.944  1.00  0.00    -0.353 OA
HETATM   11  C1  UNL     1      -3.949   0.694  -3.207  1.00  0.00     0.210 C 
ENDBRANCH   6  10
BRANCH   7  12
HETATM   12  O6  UNL     1      -5.802  -0.228   0.398  1.00  0.00    -0.356 OA
ATOM     13  H6  UNL     1      -6.259  -0.432   1.205  1.00  0.00     0.218 HD
ENDBRANCH   7  12
BRANCH   8  14
HETATM   14  O5  UNL     1      -4.290  -0.956   2.589  1.00  0.00    -0.353 OA
HETATM   15  C12 UNL     1      -3.530  -1.332   3.725  1.00  0.00     0.210 C 
ENDBRANCH   8  14
ENDBRANCH   1   4
BRANCH   2  16
HETATM   16  N2  UNL     1       1.897  -0.293  -1.073  1.00  0.00    -0.262 N 
HETATM   17  C6  UNL     1       2.737   0.530  -0.250  1.00  0.00     0.328 C 
HETATM   18  O2  UNL     1       2.236   1.334   0.567  1.00  0.00    -0.261 OA
ATOM     19  H2  UNL     1       2.328  -0.941  -1.733  1.00  0.00     0.190 HD
BRANCH  17  20
HETATM   20  C7  UNL     1       4.181   0.442  -0.355  1.00  0.00     0.317 C 
HETATM   21  O3  UNL     1       4.678  -0.354  -1.164  1.00  0.00    -0.262 OA
HETATM   22  N3  UNL     1       4.994   1.262   0.464  1.00  0.00    -0.290 N 
HETATM   23  C8  UNL     1       6.403   1.234   0.421  1.00  0.00     0.220 C 
ATOM     24  H3  UNL     1       4.540   1.902   1.115  1.00  0.00     0.172 HD
HETATM   25  C9  UNL     1       7.164   0.341  -0.489  1.00  0.00     0.117 C 
HETATM   26  O4  UNL     1       7.054   1.991   1.178  1.00  0.00    -0.274 OA
ENDBRANCH  17  20
ENDBRANCH   2  16
TORSDOF 6
