REMARK  3 active torsions:
REMARK  status: ('A' for Active; 'I' for Inactive)
REMARK    1  A    between atoms: C2_2  and  N1_3 
REMARK    2  A    between atoms: N1_3  and  C3_4 
REMARK    3  A    between atoms: N1_3  and  C9_10 
ROOT
HETATM    1  N1  UNL     1       0.549   0.432  -0.369  1.00  0.00     0.099 N 
ENDROOT
BRANCH   1   2
HETATM    2  C2  UNL     1       1.053   1.803  -0.187  1.00  0.00     0.269 C 
HETATM    3  C1  UNL     1       0.459   2.789  -1.132  1.00  0.00     0.037 C 
ENDBRANCH   1   2
BRANCH   1   4
HETATM    4  C3  UNL     1      -0.762   0.214   0.171  1.00  0.00     0.223 C 
HETATM    5  C4  UNL     1      -1.818   1.190  -0.265  1.00  0.00     0.036 C 
HETATM    6  C5  UNL     1      -3.106   0.871   0.525  1.00  0.00     0.002 C 
HETATM    7  C6  UNL     1      -3.612  -0.506   0.329  1.00  0.00     0.000 C 
HETATM    8  C7  UNL     1      -2.476  -1.461   0.633  1.00  0.00     0.002 C 
HETATM    9  C8  UNL     1      -1.390  -1.089  -0.391  1.00  0.00     0.036 C 
ENDBRANCH   1   4
BRANCH   1  10
HETATM   10  C9  UNL     1       1.573  -0.376   0.241  1.00  0.00     0.250 C 
HETATM   11  C10 UNL     1       2.944  -0.217  -0.432  1.00  0.00     0.065 C 
HETATM   12  C11 UNL     1       3.642  -1.570  -0.238  1.00  0.00     0.234 C 
HETATM   13  N2  UNL     1       2.871  -2.187   0.840  1.00  0.00    -0.073 N 
HETATM   14  C12 UNL     1       1.473  -1.811   0.415  1.00  0.00     0.268 C 
ATOM     15  H22 UNL     1       3.037  -3.182   0.991  1.00  0.00     0.277 HD
ATOM     16  H21 UNL     1       3.135  -1.915   1.787  1.00  0.00     0.277 HD
ENDBRANCH   1  10
TORSDOF 3
