REMARK  2 active torsions:
REMARK  status: ('A' for Active; 'I' for Inactive)
REMARK    1  A    between atoms: N1_1  and  C1_4 
REMARK    2  A    between atoms: C2_11  and  N5_12 
REMARK       I    between atoms: N5_12  and  C3_14 
ROOT
HETATM    1  C1  UNL     1      -2.018  -0.818  -0.284  1.00  0.00     0.706 A 
HETATM    2  N2  UNL     1      -2.183  -0.640   1.035  1.00  0.00    -0.117 N 
ATOM      3  H2  UNL     1      -3.029  -0.949   1.515  1.00  0.00     0.207 HD
HETATM    4  N3  UNL     1      -1.198  -0.046   1.682  1.00  0.00    -0.214 N 
ATOM      5  H3  UNL     1      -1.291   0.105   2.687  1.00  0.00     0.209 HD
HETATM    6  N4  UNL     1      -0.090   0.363   1.074  1.00  0.00    -0.116 N 
ATOM      7  H4  UNL     1       0.638   0.817   1.625  1.00  0.00     0.207 HD
HETATM    8  C2  UNL     1       0.100   0.196  -0.250  1.00  0.00     0.716 A 
HETATM    9  N7  UNL     1      -0.895  -0.409  -0.923  1.00  0.00    -0.020 N 
ATOM     10  H7  UNL     1      -0.803  -0.562  -1.927  1.00  0.00     0.203 HD
ENDROOT
BRANCH   8  11
HETATM   11  N5  UNL     1       1.187   0.600  -0.830  1.00  0.00    -0.142 N 
HETATM   12  C3  UNL     1       2.182   1.229  -0.032  1.00  0.00     0.347 C 
HETATM   13  N6  UNL     1       3.511   0.731  -0.112  1.00  0.00    -0.039 NA
HETATM   14  O1  UNL     1       1.945   2.198   0.736  1.00  0.00    -0.250 OA
ATOM     15  H5  UNL     1       1.325   0.470  -1.832  1.00  0.00     0.189 HD
ENDBRANCH   8  11
BRANCH   1  16
HETATM   16  N1  UNL     1      -2.943  -1.390  -0.961  1.00  0.00    -0.233 N 
ATOM     17  H12 UNL     1      -3.788  -1.698  -0.480  1.00  0.00     0.174 HD
ATOM     18  H11 UNL     1      -2.818  -1.525  -1.964  1.00  0.00     0.174 HD
ENDBRANCH   1  16
TORSDOF 2
