REMARK  6 active torsions:
REMARK  status: ('A' for Active; 'I' for Inactive)
REMARK       I    between atoms: C2_2  and  N1_4 
REMARK    1  A    between atoms: N1_4  and  C3_6 
REMARK    2  A    between atoms: C7_10  and  O2_11 
REMARK    3  A    between atoms: C7_10  and  C8_13 
REMARK    4  A    between atoms: C9_14  and  C10_15 
REMARK    5  A    between atoms: C10_15  and  C11_16 
REMARK       I    between atoms: C11_16  and  N2_18 
REMARK    6  A    between atoms: N2_18  and  C12_20 
ROOT
HETATM    1  C3  UNL     1       1.982  -2.104   0.852  1.00  0.00     0.088 C 
HETATM    2  C4  UNL     1       2.441  -1.999   2.257  1.00  0.00     0.025 C 
HETATM    3  C5  UNL     1       3.568  -0.996   2.403  1.00  0.00     0.006 C 
HETATM    4  C6  UNL     1       2.961   0.326   1.967  1.00  0.00     0.051 C 
HETATM    5  C7  UNL     1       2.806   0.259   0.482  1.00  0.00     0.123 C 
HETATM    6  C16 UNL     1       2.498  -1.061  -0.081  1.00  0.00     0.076 C 
ENDROOT
BRANCH   5   7
HETATM    7  O2  UNL     1       4.017   0.752  -0.066  1.00  0.00    -0.377 OA
ATOM      8  H2  UNL     1       3.918   0.709  -1.010  1.00  0.00     0.211 HD
ENDBRANCH   5   7
BRANCH   5   9
HETATM    9  C8  UNL     1       1.780   1.236   0.048  1.00  0.00    -0.068 C 
HETATM   10  C9  UNL     1       0.948   2.033  -0.328  1.00  0.00    -0.094 C 
BRANCH  10  11
HETATM   11  C10 UNL     1      -0.046   2.992  -0.807  1.00  0.00     0.196 C 
BRANCH  11  12
HETATM   12  C11 UNL     1      -1.385   2.412  -0.700  1.00  0.00     0.229 C 
HETATM   13  O3  UNL     1      -1.517   1.253  -0.231  1.00  0.00    -0.273 OA
HETATM   14  N2  UNL     1      -2.576   3.077  -1.096  1.00  0.00    -0.352 N 
ATOM     15  H2  UNL     1      -2.487   4.019  -1.478  1.00  0.00     0.163 HD
BRANCH  14  16
HETATM   16  C12 UNL     1      -3.887   2.526  -0.999  1.00  0.00     0.022 C 
HETATM   17  C13 UNL     1      -4.292   2.165   0.402  1.00  0.00     0.037 C 
HETATM   18  C14 UNL     1      -3.975   1.276  -1.848  1.00  0.00     0.037 C 
HETATM   19  C15 UNL     1      -4.895   3.511  -1.600  1.00  0.00     0.037 C 
ENDBRANCH  14  16
ENDBRANCH  11  12
ENDBRANCH  10  11
ENDBRANCH   5   9
BRANCH   1  20
HETATM   20  N1  UNL     1       2.306  -3.431   0.361  1.00  0.00    -0.357 N 
HETATM   21  C2  UNL     1       1.307  -4.385   0.003  1.00  0.00     0.213 C 
HETATM   22  C1  UNL     1       1.658  -5.722  -0.491  1.00  0.00     0.117 C 
HETATM   23  O1  UNL     1       0.089  -4.091   0.107  1.00  0.00    -0.274 OA
ATOM     24  H1  UNL     1       3.288  -3.692   0.268  1.00  0.00     0.162 HD
ENDBRANCH   1  20
TORSDOF 6
