REMARK  4 active torsions:
REMARK  status: ('A' for Active; 'I' for Inactive)
REMARK    1  A    between atoms: C6_8  and  N2_9 
REMARK    2  A    between atoms: N3_12  and  C9_13 
REMARK    3  A    between atoms: C9_13  and  C10_14 
REMARK    4  A    between atoms: C18_22  and  C19_23 
ROOT
HETATM    1  N1  UNL     1      -6.606   1.890  -1.803  1.00  0.00    -0.191 NA
HETATM    2  C1  UNL     1      -5.707   1.335  -1.259  1.00  0.00     0.101 C 
HETATM    3  C2  UNL     1      -4.656   0.632  -0.572  1.00  0.00     0.068 A 
HETATM    4  C3  UNL     1      -5.030  -0.374   0.335  1.00  0.00    -0.016 A 
HETATM    5  C4  UNL     1      -4.052  -1.063   1.008  1.00  0.00     0.080 A 
HETATM    6  C5  UNL     1      -2.718  -0.776   0.801  1.00  0.00     0.160 A 
HETATM    7  F1  UNL     1      -1.753  -1.453   1.447  1.00  0.00    -0.203 F 
HETATM    8  C6  UNL     1      -2.329   0.232  -0.108  1.00  0.00     0.085 A 
HETATM    9  C18 UNL     1      -3.295   0.925  -0.785  1.00  0.00     0.056 A 
HETATM   10  C20 UNL     1      -4.456  -2.107   1.944  1.00  0.00     0.255 C 
HETATM   11  O1  UNL     1      -3.554  -2.739   2.561  1.00  0.00    -0.268 OA
HETATM   12  N6  UNL     1      -5.830  -2.352   2.106  1.00  0.00    -0.356 N 
ATOM     13  H6  UNL     1      -6.130  -2.900   2.912  1.00  0.00     0.162 HD
HETATM   14  C21 UNL     1      -6.838  -1.872   1.196  1.00  0.00     0.127 C 
HETATM   15  C22 UNL     1      -6.472  -0.616   0.502  1.00  0.00     0.061 C 
ENDROOT
BRANCH   9  16
HETATM   16  C19 UNL     1      -2.961   1.952  -1.731  1.00  0.00     0.124 C 
HETATM   17  N4  UNL     1      -3.919   2.566  -2.347  1.00  0.00    -0.387 N 
ATOM     18  H42 UNL     1      -4.843   2.236  -2.070  1.00  0.00     0.157 HD
ATOM     19  H41 UNL     1      -3.682   3.296  -3.019  1.00  0.00     0.157 HD
HETATM   20  N5  UNL     1      -1.688   2.407  -2.113  1.00  0.00    -0.082 NA
ENDBRANCH   9  16
BRANCH   8  21
HETATM   21  N2  UNL     1      -0.957   0.438  -0.225  1.00  0.00    -0.374 N 
HETATM   22  C7  UNL     1      -0.108   1.318   0.510  1.00  0.00     0.142 C 
HETATM   23  C8  UNL     1       1.141   0.552   0.981  1.00  0.00     0.136 C 
HETATM   24  N3  UNL     1       1.900   0.224  -0.170  1.00  0.00    -0.409 N 
HETATM   25  C16 UNL     1       1.189   0.107  -1.390  1.00  0.00     0.136 C 
HETATM   26  C17 UNL     1      -0.215  -0.403  -1.191  1.00  0.00     0.142 C 
BRANCH  24  27
HETATM   27  C9  UNL     1       3.198   0.781  -0.264  1.00  0.00     0.121 C 
BRANCH  27  28
HETATM   28  C10 UNL     1       4.186   0.252   0.745  1.00  0.00     0.003 C 
HETATM   29  C11 UNL     1       5.505   0.969   0.478  1.00  0.00     0.006 C 
HETATM   30  C12 UNL     1       6.266   0.215  -0.603  1.00  0.00     0.000 C 
HETATM   31  C13 UNL     1       6.845  -1.030   0.040  1.00  0.00     0.000 C 
HETATM   32  C14 UNL     1       5.842  -1.604   1.017  1.00  0.00     0.000 C 
HETATM   33  C15 UNL     1       4.415  -1.226   0.603  1.00  0.00     0.006 C 
ENDBRANCH  27  28
ENDBRANCH  24  27
ENDBRANCH   8  21
TORSDOF 4
