REMARK  7 active torsions:
REMARK  status: ('A' for Active; 'I' for Inactive)
REMARK    1  A    between atoms: C1_2  and  C2_3 
REMARK       I    between atoms: C1_2  and  N2_11 
REMARK    2  A    between atoms: C2_3  and  C3_4 
REMARK    3  A    between atoms: N2_11  and  C7_13 
REMARK    4  A    between atoms: C7_13  and  C8_14 
REMARK    5  A    between atoms: C7_13  and  C16_25 
REMARK       I    between atoms: C8_14  and  N3_16 
REMARK    6  A    between atoms: C11_19  and  C12_20 
REMARK    7  A    between atoms: C12_20  and  C13_21 
ROOT
HETATM    1  C7  UNL     1      -0.019   0.269   0.115  1.00  0.00     0.180 C 
ENDROOT
BRANCH   1   2
HETATM    2  N2  UNL     1      -1.209   0.172   0.948  1.00  0.00    -0.347 N 
HETATM    3  C1  UNL     1      -2.287  -0.687   0.641  1.00  0.00     0.220 C 
HETATM    4  O1  UNL     1      -2.235  -1.400  -0.384  1.00  0.00    -0.274 OA
ATOM      5  H2  UNL     1      -1.266   0.748   1.788  1.00  0.00     0.163 HD
BRANCH   3   6
HETATM    6  C2  UNL     1      -3.490  -0.777   1.493  1.00  0.00     0.135 C 
BRANCH   6   7
HETATM    7  C3  UNL     1      -4.476  -1.777   0.953  1.00  0.00     0.194 C 
HETATM    8  C4  UNL     1      -5.685  -1.837   1.849  1.00  0.00     0.035 C 
HETATM    9  C5  UNL     1      -6.782  -2.143   0.822  1.00  0.00     0.029 C 
HETATM   10  C6  UNL     1      -6.349  -1.253  -0.324  1.00  0.00     0.233 C 
HETATM   11  N1  UNL     1      -4.918  -1.522  -0.381  1.00  0.00    -0.070 N 
ATOM     12  H12 UNL     1      -4.391  -0.778  -0.839  1.00  0.00     0.277 HD
ATOM     13  H11 UNL     1      -4.680  -2.273  -1.029  1.00  0.00     0.277 HD
ENDBRANCH   6   7
ENDBRANCH   3   6
ENDBRANCH   1   2
BRANCH   1  14
HETATM   14  C8  UNL     1       1.163  -0.145   0.872  1.00  0.00     0.243 C 
HETATM   15  O2  UNL     1       1.006  -0.403   2.105  1.00  0.00    -0.271 OA
HETATM   16  N3  UNL     1       2.473  -0.288   0.356  1.00  0.00    -0.350 N 
HETATM   17  C9  UNL     1       3.539  -0.670   1.269  1.00  0.00     0.126 C 
HETATM   18  C15 UNL     1       2.849  -0.103  -1.028  1.00  0.00     0.126 C 
HETATM   19  C10 UNL     1       4.893  -0.658   0.608  1.00  0.00     0.024 C 
HETATM   20  C11 UNL     1       4.844  -1.587  -0.560  1.00  0.00    -0.009 C 
HETATM   21  C14 UNL     1       3.686  -1.309  -1.463  1.00  0.00     0.024 C 
BRANCH  20  22
HETATM   22  C12 UNL     1       6.137  -1.659  -1.333  1.00  0.00     0.036 C 
BRANCH  22  23
HETATM   23  C13 UNL     1       7.287  -2.139  -0.479  1.00  0.00     0.222 C 
HETATM   24  F1  UNL     1       8.423  -2.174  -1.281  1.00  0.00    -0.255 F 
ENDBRANCH  22  23
ENDBRANCH  20  22
ENDBRANCH   1  14
BRANCH   1  25
HETATM   25  C16 UNL     1       0.045   1.699  -0.364  1.00  0.00     0.018 C 
HETATM   26  C17 UNL     1       0.136   2.690   0.760  1.00  0.00     0.007 C 
HETATM   27  C18 UNL     1      -1.120   3.542   0.873  1.00  0.00     0.000 C 
HETATM   28  C19 UNL     1      -1.415   4.336  -0.359  1.00  0.00     0.000 C 
HETATM   29  C20 UNL     1      -1.086   3.497  -1.564  1.00  0.00     0.000 C 
HETATM   30  C21 UNL     1      -1.197   2.037  -1.162  1.00  0.00     0.007 C 
ENDBRANCH   1  25
TORSDOF 7
