REMARK  5 active torsions:
REMARK  status: ('A' for Active; 'I' for Inactive)
REMARK    1  A    between atoms: N1_1  and  C1_5 
REMARK    2  A    between atoms: C1_5  and  C2_6 
REMARK    3  A    between atoms: C2_6  and  N2_7 
REMARK    4  A    between atoms: N2_7  and  N3_9 
REMARK    5  A    between atoms: N3_9  and  C3_11 
ROOT
HETATM    1  N3  UNL     1       0.187  -0.165  -1.749  1.00  0.00    -0.290 N 
ATOM      2  H3  UNL     1       0.240  -0.060  -2.762  1.00  0.00     0.188 HD
ENDROOT
BRANCH   1   3
HETATM    3  N2  UNL     1      -0.993  -0.555  -1.138  1.00  0.00    -0.333 N 
ATOM      4  H2  UNL     1      -1.170  -1.546  -0.975  1.00  0.00     0.180 HD
BRANCH   3   5
HETATM    5  C2  UNL     1      -1.969   0.410  -0.731  1.00  0.00     0.166 C 
BRANCH   5   6
HETATM    6  C1  UNL     1      -3.145  -0.281  -0.100  1.00  0.00     0.250 C 
BRANCH   6   7
HETATM    7  N1  UNL     1      -2.750  -1.035   1.055  1.00  0.00    -0.078 N 
ATOM      8  H13 UNL     1      -2.003  -1.694   0.834  1.00  0.00     0.274 HD
ATOM      9  H12 UNL     1      -2.252  -0.453   1.729  1.00  0.00     0.274 HD
ATOM     10  H11 UNL     1      -3.548  -1.504   1.483  1.00  0.00     0.274 HD
ENDBRANCH   6   7
ENDBRANCH   5   6
ENDBRANCH   3   5
ENDBRANCH   1   3
BRANCH   1  11
HETATM   11  C3  UNL     1       1.213   0.062  -1.011  1.00  0.00     0.119 A 
HETATM   12  C4  UNL     1       1.134  -0.080   0.347  1.00  0.00     0.050 A 
HETATM   13  C5  UNL     1       2.217   0.155   1.193  1.00  0.00     0.005 A 
HETATM   14  C6  UNL     1       3.393   0.543   0.581  1.00  0.00     0.017 A 
HETATM   15  C7  UNL     1       3.486   0.689  -0.775  1.00  0.00     0.089 A 
HETATM   16  N4  UNL     1       2.395   0.444  -1.522  1.00  0.00    -0.351 N 
ATOM     17  H4  UNL     1       2.469   0.554  -2.533  1.00  0.00     0.166 HD
ENDBRANCH   1  11
TORSDOF 5
