REMARK  6 active torsions:
REMARK  status: ('A' for Active; 'I' for Inactive)
REMARK    1  A    between atoms: C2_2  and  C3_4 
REMARK    2  A    between atoms: C3_4  and  C4_5 
REMARK    3  A    between atoms: C4_5  and  C5_6 
REMARK    4  A    between atoms: C5_6  and  C6_7 
REMARK    5  A    between atoms: N1_28  and  C23_29 
REMARK    6  A    between atoms: C23_29  and  O5_30 
ROOT
HETATM    1  C5  UNL     1      -0.425   0.750  -0.452  1.00  0.00     0.208 C 
HETATM    2  O2  UNL     1      -0.208   0.519  -1.849  1.00  0.00    -0.196 OA
HETATM    3  O3  UNL     1       0.752  -0.372  -1.928  1.00  0.00    -0.194 OA
HETATM    4  C16 UNL     1       1.661  -0.069  -0.930  1.00  0.00     0.236 C 
HETATM    5  O4  UNL     1       0.830   0.396   0.043  1.00  0.00    -0.309 OA
HETATM    6  C17 UNL     1       2.730   0.746  -1.505  1.00  0.00     0.237 C 
HETATM    7  F1  UNL     1       2.518   2.027  -1.868  1.00  0.00    -0.243 F 
HETATM    8  C18 UNL     1       4.038   0.750  -0.732  1.00  0.00     0.078 C 
HETATM    9  C19 UNL     1       4.556  -0.610  -0.433  1.00  0.00     0.229 C 
HETATM   10  C20 UNL     1       3.667  -1.616  -1.140  1.00  0.00     0.048 C 
HETATM   11  C21 UNL     1       2.371  -1.338  -0.440  1.00  0.00     0.084 C 
HETATM   12  C22 UNL     1       2.846  -1.161   0.988  1.00  0.00     0.286 C 
HETATM   13  N1  UNL     1       4.245  -0.878   0.959  1.00  0.00     0.116 N 
ENDROOT
BRANCH   1  14
HETATM   14  C4  UNL     1      -0.644   2.161  -0.210  1.00  0.00     0.080 C 
BRANCH  14  15
HETATM   15  C3  UNL     1      -1.609   3.091  -0.745  1.00  0.00     0.083 C 
BRANCH  15  16
HETATM   16  C2  UNL     1      -1.390   4.500  -0.192  1.00  0.00     0.123 C 
HETATM   17  C1  UNL     1      -2.195   5.040   0.909  1.00  0.00     0.091 C 
HETATM   18  O1  UNL     1      -0.513   5.156  -0.709  1.00  0.00    -0.298 OA
ENDBRANCH  15  16
ENDBRANCH  14  15
ENDBRANCH   1  14
BRANCH   1  19
HETATM   19  C6  UNL     1      -1.541  -0.189  -0.145  1.00  0.00     0.020 C 
HETATM   20  C7  UNL     1      -2.671  -0.015  -1.099  1.00  0.00     0.019 C 
HETATM   21  C8  UNL     1      -3.937  -0.747  -0.701  1.00  0.00    -0.013 C 
HETATM   22  C9  UNL     1      -4.310  -0.412   0.707  1.00  0.00     0.009 C 
HETATM   23  C13 UNL     1      -3.616  -2.229  -0.871  1.00  0.00     0.009 C 
HETATM   24  C10 UNL     1      -3.182  -0.866   1.599  1.00  0.00    -0.013 C 
HETATM   25  C11 UNL     1      -2.885  -2.345   1.435  1.00  0.00     0.009 C 
HETATM   26  C15 UNL     1      -1.902  -0.136   1.324  1.00  0.00     0.019 C 
HETATM   27  C12 UNL     1      -2.449  -2.518   0.003  1.00  0.00    -0.013 C 
HETATM   28  C14 UNL     1      -1.214  -1.661  -0.310  1.00  0.00     0.019 C 
ENDBRANCH   1  19
BRANCH  13  29
HETATM   29  C23 UNL     1       5.079  -1.918   1.511  1.00  0.00     0.438 C 
BRANCH  29  30
HETATM   30  O5  UNL     1       6.410  -1.464   1.397  1.00  0.00    -0.373 OA
ATOM     31  H5  UNL     1       6.959  -2.149   1.760  1.00  0.00     0.211 HD
ENDBRANCH  29  30
ENDBRANCH  13  29
TORSDOF 6
