REMARK  6 active torsions:
REMARK  status: ('A' for Active; 'I' for Inactive)
REMARK    1  A    between atoms: C2_2  and  C18_29 
REMARK    2  A    between atoms: N1_3  and  N2_5 
REMARK    3  A    between atoms: N2_5  and  C3_7 
REMARK    4  A    between atoms: C3_7  and  C4_8 
REMARK    5  A    between atoms: C3_7  and  C7_16 
REMARK    6  A    between atoms: C15_24  and  O1_25 
ROOT
HETATM    1  C3  UNL     1       0.185   0.218   0.113  1.00  0.00     0.156 C 
ENDROOT
BRANCH   1   2
HETATM    2  N2  UNL     1       1.148  -0.122  -0.915  1.00  0.00    -0.325 N 
ATOM      3  H2  UNL     1       0.813  -0.469  -1.814  1.00  0.00     0.181 HD
BRANCH   2   4
HETATM    4  N1  UNL     1       2.504   0.011  -0.710  1.00  0.00    -0.308 N 
HETATM    5  C2  UNL     1       3.273  -1.029  -0.694  1.00  0.00     0.033 C 
HETATM    6  C1  UNL     1       2.654  -2.346  -0.902  1.00  0.00     0.070 C 
ATOM      7  H1  UNL     1       2.905   0.938  -0.570  1.00  0.00     0.186 HD
BRANCH   5   8
HETATM    8  C18 UNL     1       4.705  -0.883  -0.476  1.00  0.00     0.009 A 
HETATM    9  C19 UNL     1       5.195   0.412  -0.287  1.00  0.00     0.015 A 
HETATM   10  C20 UNL     1       6.530   0.687  -0.071  1.00  0.00     0.001 A 
HETATM   11  C21 UNL     1       7.442  -0.322  -0.033  1.00  0.00     0.002 A 
HETATM   12  C22 UNL     1       6.998  -1.608  -0.215  1.00  0.00     0.025 A 
HETATM   13  C23 UNL     1       5.636  -1.877  -0.434  1.00  0.00     0.046 A 
HETATM   14 CL1  UNL     1       5.177  -3.532  -0.653  1.00  0.00    -0.083 Cl
ENDBRANCH   5   8
ENDBRANCH   2   4
ENDBRANCH   1   2
BRANCH   1  15
HETATM   15  C4  UNL     1       0.419   1.674   0.390  1.00  0.00     0.068 A 
HETATM   16  C5  UNL     1       0.582   2.355   1.551  1.00  0.00     0.139 A 
HETATM   17  N3  UNL     1       0.760   3.643   1.233  1.00  0.00    -0.291 N 
HETATM   18  C6  UNL     1       0.977   4.785   2.100  1.00  0.00     0.178 C 
HETATM   19  N4  UNL     1       0.712   3.779  -0.101  1.00  0.00    -0.241 N 
HETATM   20  N5  UNL     1       0.505   2.585  -0.614  1.00  0.00    -0.287 N 
ATOM     21  H4  UNL     1       0.817   4.649  -0.622  1.00  0.00     0.208 HD
ATOM     22  H5  UNL     1       0.422   2.376  -1.609  1.00  0.00     0.188 HD
ENDBRANCH   1  15
BRANCH   1  23
HETATM   23  C7  UNL     1      -1.224   0.040  -0.344  1.00  0.00     0.020 C 
HETATM   24  C8  UNL     1      -1.488  -1.397  -0.738  1.00  0.00     0.012 C 
HETATM   25  C9  UNL     1      -2.881  -1.640  -1.219  1.00  0.00    -0.011 C 
HETATM   26  C10 UNL     1      -3.555  -0.473  -1.846  1.00  0.00     0.009 C 
HETATM   27  C17 UNL     1      -3.676  -2.281  -0.104  1.00  0.00     0.042 C 
HETATM   28  C11 UNL     1      -4.222   0.461  -0.895  1.00  0.00    -0.011 C 
HETATM   29  C12 UNL     1      -3.293   1.379  -0.178  1.00  0.00     0.010 C 
HETATM   30  C16 UNL     1      -5.033  -0.281   0.144  1.00  0.00     0.042 C 
HETATM   31  C13 UNL     1      -2.263   0.564   0.586  1.00  0.00    -0.005 C 
HETATM   32  C14 UNL     1      -2.899  -0.487   1.461  1.00  0.00     0.043 C 
HETATM   33  C15 UNL     1      -4.060  -1.196   0.865  1.00  0.00     0.059 C 
BRANCH  33  34
HETATM   34  O1  UNL     1      -4.795  -1.769   1.928  1.00  0.00    -0.390 OA
ATOM     35  H1  UNL     1      -5.538  -2.223   1.547  1.00  0.00     0.210 HD
ENDBRANCH  33  34
ENDBRANCH   1  23
TORSDOF 6
