REMARK  9 active torsions:
REMARK  status: ('A' for Active; 'I' for Inactive)
REMARK    1  A    between atoms: N4_11  and  C5_12 
REMARK    2  A    between atoms: C5_12  and  C6_13 
REMARK    3  A    between atoms: C6_13  and  C7_14 
REMARK    4  A    between atoms: C7_14  and  N5_15 
REMARK    5  A    between atoms: N5_15  and  N6_17 
REMARK    6  A    between atoms: C8_20  and  N8_21 
REMARK    7  A    between atoms: C9_26  and  N10_27 
REMARK    8  A    between atoms: N10_27  and  N11_29 
REMARK    9  A    between atoms: C11_33  and  N12_34 
ROOT
HETATM    1  C6  UNL     1      -0.139   0.217  -1.055  1.00  0.00     0.041 C 
ENDROOT
BRANCH   1   2
HETATM    2  C5  UNL     1       0.388  -0.558   0.129  1.00  0.00     0.136 C 
BRANCH   2   3
HETATM    3  N4  UNL     1       1.612  -1.265  -0.222  1.00  0.00    -0.293 N 
HETATM    4  C4  UNL     1       1.592  -2.547  -0.710  1.00  0.00     0.328 A 
HETATM    5  N3  UNL     1       2.867  -2.878  -0.923  1.00  0.00    -0.292 N 
HETATM    6  O1  UNL     1       0.551  -3.212  -0.894  1.00  0.00    -0.246 OA
HETATM    7  C3  UNL     1       3.677  -1.859  -0.588  1.00  0.00     0.141 A 
ATOM      8  H3  UNL     1       3.182  -3.777  -1.288  1.00  0.00     0.172 HD
HETATM    9  N2  UNL     1       5.004  -1.679  -0.610  1.00  0.00    -0.336 N 
HETATM   10  C10 UNL     1       2.857  -0.818  -0.135  1.00  0.00     0.127 A 
HETATM   11  C2  UNL     1       5.559  -0.523  -0.207  1.00  0.00     0.185 A 
ATOM     12  H2  UNL     1       5.605  -2.434  -0.939  1.00  0.00     0.168 HD
HETATM   13  N1  UNL     1       4.803   0.493   0.233  1.00  0.00    -0.332 N 
HETATM   14  C1  UNL     1       5.353   1.757   0.678  1.00  0.00     0.158 C 
HETATM   15  C11 UNL     1       3.451   0.365   0.276  1.00  0.00     0.133 A 
BRANCH  15  16
HETATM   16  N12 UNL     1       2.707   1.325   0.690  1.00  0.00    -0.383 N 
ATOM     17 2H12 UNL     1       3.144   2.196   0.992  1.00  0.00     0.157 HD
ATOM     18 1H12 UNL     1       1.692   1.229   0.722  1.00  0.00     0.157 HD
ENDBRANCH  15  16
ENDBRANCH   2   3
ENDBRANCH   1   2
BRANCH   1  19
HETATM   19  C7  UNL     1      -1.398   0.957  -0.697  1.00  0.00     0.143 C 
BRANCH  19  20
HETATM   20  N5  UNL     1      -2.434   0.018  -0.295  1.00  0.00    -0.300 N 
ATOM     21  H5  UNL     1      -2.248  -0.985  -0.321  1.00  0.00     0.182 HD
BRANCH  20  22
HETATM   22  N6  UNL     1      -3.682   0.483   0.127  1.00  0.00    -0.008 N 
HETATM   23  N7  UNL     1      -4.011   1.767   0.192  1.00  0.00    -0.096 N 
HETATM   24  C8  UNL     1      -5.270   1.881   0.632  1.00  0.00     0.707 A 
ATOM     25  H7  UNL     1      -3.400   2.545  -0.055  1.00  0.00     0.208 HD
HETATM   26  N9  UNL     1      -5.710   0.630   0.837  1.00  0.00    -0.017 N 
HETATM   27  C9  UNL     1      -4.711  -0.252   0.519  1.00  0.00     0.747 A 
ATOM     28  H9  UNL     1      -6.638   0.377   1.175  1.00  0.00     0.203 HD
BRANCH  24  29
HETATM   29  N8  UNL     1      -5.978   2.958   0.839  1.00  0.00    -0.233 N 
ATOM     30  H82 UNL     1      -5.644   3.909   0.683  1.00  0.00     0.174 HD
ATOM     31  H81 UNL     1      -6.937   3.045   1.174  1.00  0.00     0.174 HD
ENDBRANCH  24  29
BRANCH  27  32
HETATM   32  N10 UNL     1      -4.894  -1.500   0.634  1.00  0.00    -0.135 N 
ATOM     33  H10 UNL     1      -5.816  -1.778   0.971  1.00  0.00     0.205 HD
BRANCH  32  34
HETATM   34  N11 UNL     1      -4.026  -2.532   0.369  1.00  0.00    -0.331 N 
ATOM     35 2H11 UNL     1      -3.110  -2.233   0.033  1.00  0.00     0.177 HD
ATOM     36 1H11 UNL     1      -4.173  -3.537   0.462  1.00  0.00     0.177 HD
ENDBRANCH  32  34
ENDBRANCH  27  32
ENDBRANCH  20  22
ENDBRANCH  19  20
ENDBRANCH   1  19
TORSDOF 9
