REMARK  10 active torsions:
REMARK  status: ('A' for Active; 'I' for Inactive)
REMARK    1  A    between atoms: N1_2  and  C4_5 
REMARK    2  A    between atoms: C4_5  and  C5_6 
REMARK    3  A    between atoms: C5_6  and  N2_7 
REMARK    4  A    between atoms: N2_7  and  C6_9 
REMARK    5  A    between atoms: C9_12  and  C10_13 
REMARK       I    between atoms: C10_13  and  N3_15 
REMARK    6  A    between atoms: N3_15  and  C11_17 
REMARK    7  A    between atoms: C11_17  and  C12_18 
REMARK    8  A    between atoms: C13_22  and  C14_23 
REMARK    9  A    between atoms: C14_23  and  N6_24 
REMARK   10  A    between atoms: N6_24  and  C15_26 
ROOT
HETATM    1  C6  UNL     1      -0.908   0.617   0.288  1.00  0.00     0.088 A 
HETATM    2  C7  UNL     1      -0.392  -0.735  -0.125  1.00  0.00     0.037 A 
HETATM    3  C8  UNL     1       0.981  -0.110  -0.347  1.00  0.00     0.051 A 
HETATM    4  C9  UNL     1       1.946  -0.505   0.695  1.00  0.00     0.079 C 
HETATM    5  N5  UNL     1       2.197   0.571   1.567  1.00  0.00    -0.382 N 
ATOM      6  H5  UNL     1       2.898   0.589   2.308  1.00  0.00     0.160 HD
HETATM    7  C13 UNL     1       1.286   1.650   1.230  1.00  0.00     0.106 C 
HETATM    8  C16 UNL     1       0.420   1.197   0.066  1.00  0.00     0.043 A 
ENDROOT
BRANCH   1   9
HETATM    9  N2  UNL     1      -2.002   1.040  -0.596  1.00  0.00    -0.393 N 
ATOM     10  H2  UNL     1      -1.891   1.235  -1.591  1.00  0.00     0.159 HD
BRANCH   9  11
HETATM   11  C5  UNL     1      -3.230   1.144   0.102  1.00  0.00     0.108 C 
BRANCH  11  12
HETATM   12  C4  UNL     1      -3.953  -0.007   0.617  1.00  0.00     0.217 C 
BRANCH  12  13
HETATM   13  N1  UNL     1      -4.621  -0.949  -0.166  1.00  0.00    -0.057 N 
HETATM   14  C1  UNL     1      -5.755  -0.345  -0.899  1.00  0.00     0.277 C 
HETATM   15  C2  UNL     1      -5.324  -1.817   0.860  1.00  0.00     0.277 C 
HETATM   16  C3  UNL     1      -3.978  -1.869  -1.014  1.00  0.00     0.277 C 
ENDBRANCH  12  13
ENDBRANCH  11  12
ENDBRANCH   9  11
ENDBRANCH   1   9
BRANCH   7  17
HETATM   17  C14 UNL     1       2.190   2.771   0.631  1.00  0.00     0.147 C 
BRANCH  17  18
HETATM   18  N6  UNL     1       1.307   3.891   0.344  1.00  0.00    -0.366 N 
ATOM     19  H6  UNL     1       0.350   3.822   0.691  1.00  0.00     0.161 HD
BRANCH  18  20
HETATM   20  C15 UNL     1       1.636   5.044  -0.354  1.00  0.00     0.348 C 
HETATM   21  O2  UNL     1       2.804   5.186  -0.842  1.00  0.00    -0.284 OA
ENDBRANCH  18  20
ENDBRANCH  17  18
ENDBRANCH   7  17
BRANCH   4  22
HETATM   22  C10 UNL     1       3.033  -1.351   0.198  1.00  0.00     0.268 C 
HETATM   23  O1  UNL     1       3.178  -2.571   0.600  1.00  0.00    -0.266 OA
HETATM   24  N3  UNL     1       3.973  -0.898  -0.736  1.00  0.00    -0.331 N 
ATOM     25  H3  UNL     1       3.863   0.078  -1.010  1.00  0.00     0.168 HD
BRANCH  24  26
HETATM   26  C11 UNL     1       5.040  -1.562  -1.358  1.00  0.00     0.105 C 
BRANCH  26  27
HETATM   27  C12 UNL     1       5.914  -2.482  -0.536  1.00  0.00     0.117 C 
HETATM   28  N4  UNL     1       6.471  -1.941   0.638  1.00  0.00    -0.114 NA
ENDBRANCH  26  27
ENDBRANCH  24  26
ENDBRANCH   4  22
TORSDOF 10
