REMARK  14 active torsions:
REMARK  status: ('A' for Active; 'I' for Inactive)
REMARK    1  A    between atoms: C2_2  and  C3_3 
REMARK    2  A    between atoms: C3_3  and  C4_4 
REMARK    3  A    between atoms: C4_4  and  C5_5 
REMARK    4  A    between atoms: C5_5  and  N1_6 
REMARK       I    between atoms: C6_8  and  N3_10 
REMARK    5  A    between atoms: N3_10  and  C7_12 
REMARK    6  A    between atoms: C7_12  and  C8_13 
REMARK    7  A    between atoms: C8_13  and  C9_14 
REMARK    8  A    between atoms: C9_14  and  N4_15 
REMARK    9  A    between atoms: N4_15  and  C10_17 
REMARK   10  A    between atoms: C11_22  and  N7_23 
REMARK   11  A    between atoms: N7_23  and  C12_25 
REMARK   12  A    between atoms: C12_25  and  C13_26 
REMARK   13  A    between atoms: C13_26  and  N8_27 
REMARK   14  A    between atoms: N10_33  and  O1_34 
ROOT
HETATM    1  C10 UNL     1      -3.049  -0.274  -0.741  1.00  0.00     0.735 A 
HETATM    2  N5  UNL     1      -3.491  -1.353  -0.084  1.00  0.00    -0.114 N 
ATOM      3  H5  UNL     1      -2.823  -2.005   0.326  1.00  0.00     0.206 HD
HETATM    4  N6  UNL     1      -4.785  -1.579   0.037  1.00  0.00    -0.117 N 
ATOM      5  H6  UNL     1      -5.098  -2.408   0.542  1.00  0.00     0.206 HD
HETATM    6  C11 UNL     1      -5.718  -0.735  -0.494  1.00  0.00     0.710 A 
HETATM    7  N9  UNL     1      -5.260   0.325  -1.139  1.00  0.00    -0.089 N 
ATOM      8  H9  UNL     1      -5.927   0.978  -1.550  1.00  0.00     0.209 HD
HETATM    9  N10 UNL     1      -3.953   0.569  -1.271  1.00  0.00     0.032 N 
ENDROOT
BRANCH   1  10
HETATM   10  N4  UNL     1      -1.790  -0.007  -0.876  1.00  0.00    -0.221 N 
ATOM     11  H4  UNL     1      -1.505   0.829  -1.386  1.00  0.00     0.177 HD
BRANCH  10  12
HETATM   12  C9  UNL     1      -0.771  -0.887  -0.307  1.00  0.00     0.140 C 
BRANCH  12  13
HETATM   13  C8  UNL     1       0.552  -0.147  -0.406  1.00  0.00     0.040 C 
BRANCH  13  14
HETATM   14  C7  UNL     1       1.680  -0.967   0.166  1.00  0.00     0.124 C 
BRANCH  14  15
HETATM   15  N3  UNL     1       2.902  -0.227   0.047  1.00  0.00    -0.364 N 
HETATM   16  C6  UNL     1       3.468  -0.004  -1.228  1.00  0.00     0.187 C 
HETATM   17  N1  UNL     1       4.381   0.801  -1.506  1.00  0.00    -0.344 N 
HETATM   18  N2  UNL     1       2.973  -0.770  -2.363  1.00  0.00    -0.064 NA
ATOM     19  H1  UNL     1       4.584   0.741  -2.504  1.00  0.00     0.167 HD
ATOM     20  H3  UNL     1       3.362   0.138   0.881  1.00  0.00     0.162 HD
BRANCH  17  21
HETATM   21  C5  UNL     1       5.208   1.740  -0.936  1.00  0.00     0.063 C 
BRANCH  21  22
HETATM   22  C4  UNL     1       5.710   1.549   0.458  1.00  0.00     0.044 C 
BRANCH  22  23
HETATM   23  C3  UNL     1       6.487   0.248   0.612  1.00  0.00     0.005 C 
BRANCH  23  24
HETATM   24  C2  UNL     1       6.933   0.129   2.052  1.00  0.00    -0.004 C 
HETATM   25  C1  UNL     1       7.696  -1.159   2.207  1.00  0.00     0.005 C 
ENDBRANCH  23  24
ENDBRANCH  22  23
ENDBRANCH  21  22
ENDBRANCH  17  21
ENDBRANCH  14  15
ENDBRANCH  13  14
ENDBRANCH  12  13
ENDBRANCH  10  12
ENDBRANCH   1  10
BRANCH   9  26
HETATM   26  O1  UNL     1      -3.622   1.612  -1.910  1.00  0.00    -0.254 OA
ATOM     27  H1  UNL     1      -4.261   2.207  -2.284  1.00  0.00     0.247 HD
ENDBRANCH   9  26
BRANCH   6  28
HETATM   28  N7  UNL     1      -6.932  -1.057  -0.306  1.00  0.00    -0.222 N 
ATOM     29  H7  UNL     1      -7.092  -1.914   0.223  1.00  0.00     0.177 HD
BRANCH  28  30
HETATM   30  C12 UNL     1      -8.099  -0.365  -0.745  1.00  0.00     0.165 C 
BRANCH  30  31
HETATM   31  C13 UNL     1      -8.899   0.239   0.387  1.00  0.00     0.249 C 
BRANCH  31  32
HETATM   32  N8  UNL     1      -9.369  -0.746   1.332  1.00  0.00    -0.078 N 
ATOM     33  H83 UNL     1      -9.900  -1.479   0.861  1.00  0.00     0.274 HD
ATOM     34  H82 UNL     1      -8.595  -1.305   1.691  1.00  0.00     0.274 HD
ATOM     35  H81 UNL     1      -9.909  -0.339   2.096  1.00  0.00     0.274 HD
ENDBRANCH  31  32
ENDBRANCH  30  31
ENDBRANCH  28  30
ENDBRANCH   6  28
TORSDOF 14
