REMARK  4 active torsions:
REMARK  status: ('A' for Active; 'I' for Inactive)
REMARK    1  A    between atoms: C3_3  and  C4_4 
REMARK    2  A    between atoms: C5_5  and  C6_6 
REMARK    3  A    between atoms: C6_6  and  N1_7 
REMARK    4  A    between atoms: C10_12  and  O1_14 
ROOT
HETATM    1  C1  UNL     1       7.560  -0.547   0.592  1.00  0.00     0.013 C 
HETATM    2  C2  UNL     1       6.568  -1.064   0.179  1.00  0.00    -0.105 C 
HETATM    3  C3  UNL     1       5.355  -1.698  -0.323  1.00  0.00     0.187 C 
ENDROOT
BRANCH   3   4
HETATM    4  C4  UNL     1       4.224  -0.750  -0.389  1.00  0.00    -0.088 C 
HETATM    5  C5  UNL     1       3.283   0.010  -0.446  1.00  0.00    -0.060 C 
BRANCH   5   6
HETATM    6  C6  UNL     1       2.127   0.909  -0.525  1.00  0.00     0.155 C 
BRANCH   6   7
HETATM    7  N1  UNL     1       0.953   0.288  -0.059  1.00  0.00    -0.359 N 
HETATM    8  C7  UNL     1       0.865  -0.003   1.311  1.00  0.00     0.094 C 
HETATM    9  C8  UNL     1      -0.443   0.295   1.948  1.00  0.00     0.317 C 
HETATM   10  N2  UNL     1      -1.549  -0.134   1.157  1.00  0.00     0.103 N 
HETATM   11  C9  UNL     1      -2.680   0.736   1.205  1.00  0.00     0.312 C 
HETATM   12  C14 UNL     1      -1.294  -0.427  -0.201  1.00  0.00     0.262 C 
HETATM   13  C10 UNL     1      -3.601   0.194   0.148  1.00  0.00     0.099 C 
HETATM   14  C11 UNL     1      -4.519   1.274  -0.388  1.00  0.00     0.049 C 
HETATM   15  C12 UNL     1      -2.629  -0.305  -0.884  1.00  0.00     0.163 C 
HETATM   16  C13 UNL     1      -3.023  -1.634  -1.390  1.00  0.00     0.069 C 
HETATM   17  N3  UNL     1      -3.323  -2.693  -1.779  1.00  0.00    -0.197 NA
HETATM   18  C15 UNL     1      -0.244   0.502  -0.787  1.00  0.00     0.165 C 
BRANCH  13  19
HETATM   19  O1  UNL     1      -4.331  -0.888   0.596  1.00  0.00    -0.387 OA
ATOM     20  H1  UNL     1      -4.913  -1.231  -0.072  1.00  0.00     0.210 HD
ENDBRANCH  13  19
ENDBRANCH   6   7
ENDBRANCH   5   6
ENDBRANCH   3   4
TORSDOF 4
