REMARK  3 active torsions:
REMARK  status: ('A' for Active; 'I' for Inactive)
REMARK    1  A    between atoms: O1_1  and  C1_3 
REMARK    2  A    between atoms: C1_3  and  C2_4 
REMARK    3  A    between atoms: C2_4  and  N1_5 
ROOT
HETATM    1  N1  UNL     1      -1.185   0.422   0.056  1.00  0.00    -0.348 N 
HETATM    2  C3  UNL     1      -0.683   1.685   0.421  1.00  0.00     0.098 C 
HETATM    3  C4  UNL     1       0.764   1.868   0.051  1.00  0.00     0.318 C 
HETATM    4  N2  UNL     1       1.616   0.784   0.360  1.00  0.00     0.102 N 
HETATM    5  C5  UNL     1       2.735   0.613  -0.529  1.00  0.00     0.273 C 
HETATM    6  C6  UNL     1       3.284  -0.732  -0.056  1.00  0.00     0.033 C 
HETATM    7  C7  UNL     1       1.968  -1.512   0.064  1.00  0.00     0.043 C 
HETATM    8  C8  UNL     1       1.031  -0.469   0.638  1.00  0.00     0.262 C 
HETATM    9  C9  UNL     1      -0.331  -0.687   0.036  1.00  0.00     0.103 C 
ENDROOT
BRANCH   1  10
HETATM   10  C2  UNL     1      -2.579   0.248   0.136  1.00  0.00     0.094 C 
BRANCH  10  11
HETATM   11  C1  UNL     1      -3.062  -1.140  -0.199  1.00  0.00     0.209 C 
BRANCH  11  12
HETATM   12  O1  UNL     1      -4.464  -1.114  -0.076  1.00  0.00    -0.396 OA
ATOM     13  H1  UNL     1      -4.768  -1.989  -0.287  1.00  0.00     0.209 HD
ENDBRANCH  11  12
ENDBRANCH  10  11
ENDBRANCH   1  10
TORSDOF 3
