REMARK  5 active torsions:
REMARK  status: ('A' for Active; 'I' for Inactive)
REMARK    1  A    between atoms: C4_5  and  C5_6 
REMARK    2  A    between atoms: C7_9  and  C8_10 
REMARK    3  A    between atoms: C11_13  and  C12_14 
REMARK    4  A    between atoms: C16_20  and  O1_21 
REMARK    5  A    between atoms: O1_21  and  C17_22 
ROOT
HETATM    1  N1  UNL     1       1.462   0.417   4.014  1.00  0.00    -0.191 NA
HETATM    2  C1  UNL     1       1.202   0.398   2.872  1.00  0.00     0.102 C 
HETATM    3  C2  UNL     1       0.891   0.380   1.451  1.00  0.00     0.081 A 
HETATM    4  C3  UNL     1      -0.453   0.449   1.069  1.00  0.00     0.056 A 
HETATM    5  C4  UNL     1      -0.793   0.439  -0.239  1.00  0.00     0.044 A 
HETATM    6  N2  UNL     1       0.261   0.359  -1.106  1.00  0.00    -0.362 N 
ATOM      7  H2  UNL     1       0.028   0.349  -2.099  1.00  0.00     0.165 HD
HETATM    8  C15 UNL     1       1.547   0.293  -0.808  1.00  0.00     0.126 A 
HETATM    9  C16 UNL     1       1.885   0.304   0.534  1.00  0.00     0.105 A 
ENDROOT
BRANCH   9  10
HETATM   10  O1  UNL     1       3.204   0.247   0.966  1.00  0.00    -0.343 OA
BRANCH  10  11
HETATM   11  C17 UNL     1       4.296   0.245   0.125  1.00  0.00     0.132 C 
HETATM   12  C18 UNL     1       5.066  -1.083   0.334  1.00  0.00     0.060 C 
HETATM   13  C19 UNL     1       6.331  -1.033  -0.519  1.00  0.00     0.235 C 
HETATM   14  N3  UNL     1       7.159   0.022   0.032  1.00  0.00    -0.075 N 
HETATM   15  C20 UNL     1       6.513   1.286  -0.306  1.00  0.00     0.235 C 
ATOM     16  H32 UNL     1       7.334  -0.085   1.031  1.00  0.00     0.277 HD
ATOM     17  H31 UNL     1       8.130  -0.028  -0.275  1.00  0.00     0.277 HD
HETATM   18  C21 UNL     1       5.232   1.383   0.508  1.00  0.00     0.060 C 
ENDBRANCH  10  11
ENDBRANCH   9  10
BRANCH   5  19
HETATM   19  C5  UNL     1      -2.168   0.499  -0.817  1.00  0.00     0.005 A 
HETATM   20  C6  UNL     1      -2.239   0.788  -2.182  1.00  0.00     0.064 A 
HETATM   21  S1  UNL     1      -3.854   0.613  -2.578  1.00  0.00    -0.105 SA
HETATM   22  C7  UNL     1      -4.473   0.175  -1.029  1.00  0.00    -0.006 A 
HETATM   23  C11 UNL     1      -3.353   0.182  -0.235  1.00  0.00    -0.028 A 
BRANCH  22  24
HETATM   24  C8  UNL     1      -5.931  -0.063  -0.736  1.00  0.00     0.026 A 
HETATM   25  C9  UNL     1      -6.799  -0.052  -2.042  1.00  0.00     0.010 A 
HETATM   26  C10 UNL     1      -6.612  -1.295  -1.306  1.00  0.00     0.010 A 
ENDBRANCH  22  24
BRANCH  23  27
HETATM   27  C12 UNL     1      -3.476   0.037   1.269  1.00  0.00     0.021 A 
HETATM   28  C13 UNL     1      -3.584  -1.384   1.796  1.00  0.00     0.010 A 
HETATM   29  C14 UNL     1      -4.730  -0.452   1.894  1.00  0.00     0.010 A 
ENDBRANCH  23  27
ENDBRANCH   5  19
TORSDOF 5
