REMARK  5 active torsions:
REMARK  status: ('A' for Active; 'I' for Inactive)
REMARK    1  A    between atoms: C2_2  and  C3_3 
REMARK    2  A    between atoms: C4_6  and  C5_7 
REMARK    3  A    between atoms: N3_17  and  C13_18 
REMARK    4  A    between atoms: C13_18  and  C14_19 
REMARK    5  A    between atoms: C14_19  and  N4_20 
ROOT
HETATM    1  C3  UNL     1      -2.141   2.907  -1.200  1.00  0.00     0.084 A 
HETATM    2  N1  UNL     1      -2.514   1.797  -0.570  1.00  0.00    -0.331 N 
ATOM      3  H1  UNL     1      -3.464   1.707  -0.209  1.00  0.00     0.168 HD
HETATM    4  C4  UNL     1      -1.609   0.766  -0.407  1.00  0.00     0.123 A 
HETATM    5  N3  UNL     1      -0.369   0.855  -0.864  1.00  0.00    -0.307 N 
HETATM    6  C20 UNL     1      -0.024   2.008  -1.506  1.00  0.00     0.181 A 
HETATM    7  S1  UNL     1       1.456   2.257  -2.125  1.00  0.00    -0.040 SA
HETATM    8  N5  UNL     1      -0.906   3.012  -1.665  1.00  0.00    -0.322 N 
ATOM      9  H5  UNL     1      -0.620   3.863  -2.149  1.00  0.00     0.169 HD
ENDROOT
BRANCH   4  10
HETATM   10  C5  UNL     1      -2.051  -0.432   0.296  1.00  0.00     0.036 A 
HETATM   11  C6  UNL     1      -2.225  -0.584   1.653  1.00  0.00     0.104 A 
HETATM   12  N2  UNL     1      -2.701  -1.809   1.928  1.00  0.00    -0.364 N 
HETATM   13  C7  UNL     1      -2.845  -2.475   0.746  1.00  0.00     0.043 A 
ATOM     14  H2  UNL     1      -2.916  -2.176   2.855  1.00  0.00     0.165 HD
HETATM   15  C8  UNL     1      -3.304  -3.745   0.463  1.00  0.00     0.030 A 
HETATM   16  C12 UNL     1      -2.445  -1.632  -0.283  1.00  0.00     0.006 A 
HETATM   17  C9  UNL     1      -3.358  -4.154  -0.836  1.00  0.00     0.002 A 
HETATM   18  C10 UNL     1      -2.968  -3.339  -1.875  1.00  0.00     0.001 A 
HETATM   19  C11 UNL     1      -2.510  -2.073  -1.604  1.00  0.00     0.014 A 
ENDBRANCH   4  10
BRANCH   5  20
HETATM   20  C13 UNL     1       0.606  -0.163  -0.662  1.00  0.00     0.163 C 
BRANCH  20  21
HETATM   21  C14 UNL     1       1.434   0.026   0.587  1.00  0.00     0.292 C 
BRANCH  21  22
HETATM   22  N4  UNL     1       2.373  -1.046   0.772  1.00  0.00     0.090 N 
HETATM   23  C15 UNL     1       3.140  -0.875   2.001  1.00  0.00     0.272 C 
HETATM   24  C16 UNL     1       4.193   0.194   1.830  1.00  0.00     0.030 C 
HETATM   25  C17 UNL     1       5.096  -0.144   0.693  1.00  0.00     0.003 C 
HETATM   26  C18 UNL     1       4.274  -0.296  -0.586  1.00  0.00     0.030 C 
HETATM   27  C19 UNL     1       3.222  -1.346  -0.323  1.00  0.00     0.272 C 
ENDBRANCH  21  22
ENDBRANCH  20  21
ENDBRANCH   5  20
BRANCH   1  28
HETATM   28  C2  UNL     1      -3.133   4.033  -1.376  1.00  0.00     0.072 C 
HETATM   29  C1  UNL     1      -2.995   4.919  -0.178  1.00  0.00     0.013 C 
ENDBRANCH   1  28
TORSDOF 5
