REMARK  12 active torsions:
REMARK  status: ('A' for Active; 'I' for Inactive)
REMARK    1  A    between atoms: O1_2  and  C2_3 
REMARK    2  A    between atoms: C2_3  and  C3_5 
REMARK    3  A    between atoms: C3_5  and  N1_7 
REMARK       I    between atoms: N1_7  and  C5_9 
REMARK    4  A    between atoms: C5_9  and  C6_11 
REMARK    5  A    between atoms: C6_11  and  O4_12 
REMARK    6  A    between atoms: O4_12  and  N2_13 
REMARK    7  A    between atoms: C9_18  and  N4_19 
REMARK    8  A    between atoms: N4_19  and  C10_21 
REMARK    9  A    between atoms: C11_24  and  N6_25 
REMARK   10  A    between atoms: C12_30  and  N8_31 
REMARK   11  A    between atoms: C13_34  and  N9_35 
REMARK   12  A    between atoms: N9_35  and  O5_36 
ROOT
HETATM    1  N4  UNL     1       2.711  -1.296   0.153  1.00  0.00    -0.172 N 
ATOM      2  H4  UNL     1       2.840  -1.372   1.162  1.00  0.00     0.186 HD
ENDROOT
BRANCH   1   3
HETATM    3  C9  UNL     1       1.943  -2.302  -0.488  1.00  0.00     0.701 C 
HETATM    4  N2  UNL     1       0.795  -2.062  -1.280  1.00  0.00    -0.086 N 
HETATM    5  C7  UNL     1       0.679  -3.203  -2.170  1.00  0.00     0.195 C 
HETATM    6  C8  UNL     1       1.182  -4.302  -1.216  1.00  0.00     0.161 C 
HETATM    7  N3  UNL     1       2.187  -3.563  -0.433  1.00  0.00    -0.223 N 
ATOM      8  H3  UNL     1       2.961  -3.988   0.077  1.00  0.00     0.177 HD
BRANCH   4   9
HETATM    9  O4  UNL     1      -0.048  -0.975  -1.229  1.00  0.00    -0.255 OA
BRANCH   9  10
HETATM   10  C6  UNL     1      -1.081  -1.222  -0.317  1.00  0.00     0.304 C 
BRANCH  10  11
HETATM   11  C5  UNL     1      -2.014  -0.079  -0.228  1.00  0.00     0.244 C 
HETATM   12  N1  UNL     1      -3.122  -0.152   0.645  1.00  0.00    -0.346 N 
ATOM     13  H1  UNL     1      -3.269  -0.991   1.206  1.00  0.00     0.163 HD
HETATM   14  O3  UNL     1      -1.829   0.961  -0.925  1.00  0.00    -0.271 OA
BRANCH  12  15
HETATM   15  C3  UNL     1      -4.037   0.936   0.750  1.00  0.00     0.180 C 
HETATM   16  C4  UNL     1      -5.457   0.549   0.401  1.00  0.00     0.043 C 
BRANCH  15  17
HETATM   17  C2  UNL     1      -4.084   1.512   2.127  1.00  0.00     0.281 C 
HETATM   18  O2  UNL     1      -3.398   1.093   3.088  1.00  0.00    -0.263 OA
BRANCH  17  19
HETATM   19  O1  UNL     1      -4.947   2.577   2.336  1.00  0.00    -0.325 OA
HETATM   20  C1  UNL     1      -5.080   3.202   3.582  1.00  0.00     0.213 C 
ENDBRANCH  17  19
ENDBRANCH  15  17
ENDBRANCH  12  15
ENDBRANCH  10  11
ENDBRANCH   9  10
ENDBRANCH   4   9
ENDBRANCH   1   3
BRANCH   1  21
HETATM   21  C10 UNL     1       3.308  -0.201  -0.498  1.00  0.00     0.172 A 
HETATM   22  N5  UNL     1       3.192  -0.016  -1.827  1.00  0.00    -0.174 N 
HETATM   23  C11 UNL     1       3.780   1.055  -2.436  1.00  0.00     0.679 A 
ATOM     24  H5  UNL     1       2.659  -0.683  -2.385  1.00  0.00     0.186 HD
HETATM   25  N7  UNL     1       4.493   1.961  -1.737  1.00  0.00    -0.175 N 
HETATM   26  C12 UNL     1       4.639   1.827  -0.427  1.00  0.00     0.150 A 
ATOM     27  H7  UNL     1       4.921   2.752  -2.218  1.00  0.00     0.186 HD
HETATM   28  C13 UNL     1       4.041   0.738   0.194  1.00  0.00     0.181 A 
BRANCH  23  29
HETATM   29  N6  UNL     1       3.675   1.241  -3.709  1.00  0.00    -0.234 N 
ATOM     30  H62 UNL     1       3.136   0.556  -4.238  1.00  0.00     0.174 HD
ATOM     31  H61 UNL     1       4.114   2.041  -4.164  1.00  0.00     0.174 HD
ENDBRANCH  23  29
BRANCH  26  32
HETATM   32  N8  UNL     1       5.309   2.666   0.277  1.00  0.00    -0.383 N 
ATOM     33  H82 UNL     1       5.748   3.466  -0.179  1.00  0.00     0.157 HD
ATOM     34  H81 UNL     1       5.421   2.563   1.286  1.00  0.00     0.157 HD
ENDBRANCH  26  32
BRANCH  28  35
HETATM   35  N9  UNL     1       4.204   0.608   1.583  1.00  0.00    -0.076 N 
HETATM   36  F1  UNL     1       5.242  -0.075   2.066  1.00  0.00    -0.070 F 
BRANCH  35  37
HETATM   37  O5  UNL     1       3.394   1.120   2.355  1.00  0.00    -0.259 OA
ATOM     38  H5  UNL     1       3.504   1.032   3.294  1.00  0.00     0.247 HD
ENDBRANCH  35  37
ENDBRANCH  28  35
ENDBRANCH   1  21
TORSDOF 12
