REMARK  18 active torsions:
REMARK  status: ('A' for Active; 'I' for Inactive)
REMARK    1  A    between atoms: O1_2  and  C2_3 
REMARK    2  A    between atoms: C2_3  and  C3_5 
REMARK    3  A    between atoms: C6_10  and  O3_11 
REMARK    4  A    between atoms: O3_11  and  C7_12 
REMARK    5  A    between atoms: C7_12  and  C8_14 
REMARK    6  A    between atoms: C8_14  and  C9_15 
REMARK    7  A    between atoms: C8_14  and  O6_18 
REMARK    8  A    between atoms: C9_15  and  O5_16 
REMARK    9  A    between atoms: C11_20  and  O7_21 
REMARK   10  A    between atoms: C11_20  and  O8_23 
REMARK   11  A    between atoms: C12_25  and  O9_26 
REMARK   12  A    between atoms: N2_28  and  N3_29 
REMARK   13  A    between atoms: N3_29  and  C13_31 
REMARK   14  A    between atoms: C15_33  and  C16_34 
REMARK       I    between atoms: C16_34  and  N4_36 
REMARK   15  A    between atoms: N4_36  and  S1_38 
REMARK   16  A    between atoms: S1_38  and  C17_41 
REMARK   17  A    between atoms: C20_44  and  C21_45 
REMARK   18  A    between atoms: C25_51  and  O13_52 
ROOT
HETATM    1  C21 UNL     1       8.802   2.149  -1.960  1.00  0.00     0.170 C 
HETATM    2  C22 UNL     1      10.184   2.460  -1.584  1.00  0.00     0.064 C 
HETATM    3  N5  UNL     1      11.271   2.709  -1.287  1.00  0.00    -0.197 NA
ENDROOT
BRANCH   1   4
HETATM    4  C20 UNL     1       8.457   0.825  -1.328  1.00  0.00    -0.003 A 
HETATM    5  C19 UNL     1       8.596  -0.411  -1.896  1.00  0.00     0.017 A 
HETATM    6  C18 UNL     1       8.240  -1.475  -1.176  1.00  0.00     0.034 A 
HETATM    7  C17 UNL     1       7.758  -1.247   0.093  1.00  0.00     0.120 A 
HETATM    8  S2  UNL     1       7.828   0.464   0.210  1.00  0.00    -0.080 SA
BRANCH   7   9
HETATM    9  S1  UNL     1       7.238  -2.434   1.287  1.00  0.00     0.272 S 
HETATM   10  O11 UNL     1       7.411  -3.786   0.686  1.00  0.00    -0.200 OA
HETATM   11  O12 UNL     1       8.190  -2.367   2.467  1.00  0.00    -0.200 OA
BRANCH   9  12
HETATM   12  N4  UNL     1       5.639  -2.117   1.778  1.00  0.00    -0.245 N 
HETATM   13  C16 UNL     1       4.520  -1.959   0.895  1.00  0.00     0.265 C 
HETATM   14  O10 UNL     1       4.699  -2.054  -0.346  1.00  0.00    -0.267 OA
ATOM     15  H4  UNL     1       5.463  -2.033   2.779  1.00  0.00     0.182 HD
BRANCH  13  16
HETATM   16  C15 UNL     1       3.232  -1.696   1.513  1.00  0.00     0.035 A 
HETATM   17  C14 UNL     1       2.245  -0.896   1.020  1.00  0.00     0.051 A 
HETATM   18  C13 UNL     1       1.022  -0.671   1.638  1.00  0.00     0.082 A 
HETATM   19  C25 UNL     1       0.799  -1.318   2.855  1.00  0.00     0.093 A 
HETATM   20  C24 UNL     1       1.768  -2.131   3.384  1.00  0.00     0.040 A 
HETATM   21  C23 UNL     1       2.964  -2.321   2.731  1.00  0.00     0.020 A 
BRANCH  18  22
HETATM   22  N3  UNL     1       0.014   0.159   1.185  1.00  0.00    -0.292 N 
ATOM     23  H3  UNL     1       0.087   1.047   1.681  1.00  0.00     0.187 HD
BRANCH  22  24
HETATM   24  N2  UNL     1      -1.010   0.236   0.351  1.00  0.00    -0.249 N 
HETATM   25  C4  UNL     1      -1.647  -0.212  -0.886  1.00  0.00     0.137 C 
HETATM   26  C3  UNL     1      -2.223  -1.311  -1.135  1.00  0.00     0.096 C 
HETATM   27  N1  UNL     1      -1.725   1.168  -1.110  1.00  0.00    -0.349 N 
HETATM   28  C12 UNL     1      -3.715  -1.347  -1.642  1.00  0.00     0.226 C 
HETATM   29  C11 UNL     1      -4.217  -0.686  -0.311  1.00  0.00     0.222 C 
HETATM   30  C6  UNL     1      -3.611   0.551   0.119  1.00  0.00     0.241 C 
HETATM   31  C5  UNL     1      -2.294   1.037   0.301  1.00  0.00     0.244 C 
ATOM     32  H1  UNL     1      -1.517   1.870  -1.820  1.00  0.00     0.163 HD
BRANCH  26  33
HETATM   33  C2  UNL     1      -1.713  -2.528  -0.687  1.00  0.00     0.295 C 
HETATM   34  O2  UNL     1      -0.673  -2.696  -0.076  1.00  0.00    -0.259 OA
BRANCH  33  35
HETATM   35  O1  UNL     1      -2.411  -3.747  -0.919  1.00  0.00    -0.323 OA
HETATM   36  C1  UNL     1      -1.830  -4.930  -0.437  1.00  0.00     0.213 C 
ENDBRANCH  33  35
ENDBRANCH  26  33
BRANCH  28  37
HETATM   37  O9  UNL     1      -3.874  -0.531  -2.696  1.00  0.00    -0.385 OA
ATOM     38  H9  UNL     1      -4.773  -0.553  -3.002  1.00  0.00     0.210 HD
ENDBRANCH  28  37
BRANCH  29  39
HETATM   39  O7  UNL     1      -5.597  -0.475  -0.519  1.00  0.00    -0.361 OA
ATOM     40  H7  UNL     1      -5.996  -1.289  -0.802  1.00  0.00     0.213 HD
ENDBRANCH  29  39
BRANCH  29  41
HETATM   41  O8  UNL     1      -4.145  -1.650   0.690  1.00  0.00    -0.361 OA
ATOM     42  H8  UNL     1      -4.544  -2.464   0.407  1.00  0.00     0.213 HD
ENDBRANCH  29  41
BRANCH  30  43
HETATM   43  O3  UNL     1      -4.291   1.582  -0.691  1.00  0.00    -0.304 OA
BRANCH  43  44
HETATM   44  C7  UNL     1      -5.207   2.442  -0.193  1.00  0.00     0.290 C 
HETATM   45  O4  UNL     1      -5.499   2.367   1.054  1.00  0.00    -0.262 OA
BRANCH  44  46
HETATM   46  C8  UNL     1      -5.923   3.483  -0.951  1.00  0.00     0.243 C 
BRANCH  46  47
HETATM   47  C9  UNL     1      -6.829   2.885  -2.013  1.00  0.00     0.206 C 
BRANCH  47  48
HETATM   48  O5  UNL     1      -7.469   3.884  -2.728  1.00  0.00    -0.398 OA
ATOM     49  H5  UNL     1      -8.036   3.510  -3.392  1.00  0.00     0.209 HD
ENDBRANCH  47  48
ENDBRANCH  46  47
BRANCH  46  50
HETATM   50  O6  UNL     1      -6.750   4.240  -0.117  1.00  0.00    -0.379 OA
HETATM   51  C10 UNL     1      -6.417   5.602  -0.198  1.00  0.00     0.202 C 
ENDBRANCH  46  50
ENDBRANCH  44  46
ENDBRANCH  43  44
ENDBRANCH  30  43
ENDBRANCH  22  24
ENDBRANCH  18  22
BRANCH  19  52
HETATM   52  O13 UNL     1      -0.388  -1.148   3.535  1.00  0.00    -0.358 OA
ATOM     53  H13 UNL     1      -0.540  -1.588   4.363  1.00  0.00     0.217 HD
ENDBRANCH  19  52
ENDBRANCH  13  16
ENDBRANCH   9  12
ENDBRANCH   7   9
ENDBRANCH   1   4
TORSDOF 18
