REMARK  8 active torsions:
REMARK  status: ('A' for Active; 'I' for Inactive)
REMARK    1  A    between atoms: N1_2  and  C3_4 
REMARK    2  A    between atoms: C3_4  and  C4_6 
REMARK    3  A    between atoms: C4_6  and  O1_7 
REMARK    4  A    between atoms: C4_6  and  N2_9 
REMARK    5  A    between atoms: N2_9  and  C5_11 
REMARK    6  A    between atoms: N4_14  and  C6_15 
REMARK    7  A    between atoms: N5_16  and  C7_18 
REMARK    8  A    between atoms: N9_24  and  O2_26 
ROOT
HETATM    1  C5  UNL     1       0.906  -1.491   0.658  1.00  0.00     0.256 C 
HETATM    2  N3  UNL     1       0.536  -1.598   2.044  1.00  0.00    -0.125 NA
HETATM    3  S2  UNL     1      -1.251  -1.631   2.034  1.00  0.00     0.067 SA
HETATM    4  N4  UNL     1      -1.449  -1.027   0.393  1.00  0.00    -0.251 N 
HETATM    5  C9  UNL     1      -0.131  -0.881  -0.118  1.00  0.00     0.155 C 
HETATM    6  N9  UNL     1       0.057  -0.231  -1.215  1.00  0.00    -0.253 N 
ATOM      7  H9  UNL     1       1.018  -0.151  -1.547  1.00  0.00     0.195 HD
ENDROOT
BRANCH   1   8
HETATM    8  N2  UNL     1       2.198  -0.884   0.607  1.00  0.00    -0.367 N 
ATOM      9  H2  UNL     1       2.619  -0.449   1.428  1.00  0.00     0.158 HD
BRANCH   8  10
HETATM   10  C4  UNL     1       2.870  -0.917  -0.654  1.00  0.00     0.277 C 
BRANCH  10  11
HETATM   11  C3  UNL     1       4.346  -0.654  -0.478  1.00  0.00     0.123 C 
HETATM   12  S1  UNL     1       5.451  -1.788  -0.858  1.00  0.00    -0.061 SA
BRANCH  11  13
HETATM   13  N1  UNL     1       4.804   0.582   0.026  1.00  0.00    -0.380 N 
HETATM   14  C1  UNL     1       3.818   1.610   0.374  1.00  0.00     0.150 C 
HETATM   15  C2  UNL     1       6.207   0.855   0.203  1.00  0.00     0.150 C 
ENDBRANCH  11  13
ENDBRANCH  10  11
BRANCH  10  16
HETATM   16  O1  UNL     1       2.776  -2.183  -1.244  1.00  0.00    -0.370 OA
ATOM     17  H1  UNL     1       1.847  -2.349  -1.355  1.00  0.00     0.212 HD
ENDBRANCH  10  16
ENDBRANCH   8  10
ENDBRANCH   1   8
BRANCH   4  18
HETATM   18  C6  UNL     1      -2.714  -0.766  -0.213  1.00  0.00     0.195 C 
HETATM   19  N5  UNL     1      -3.558   0.015   0.371  1.00  0.00    -0.365 N 
ATOM     20  H5  UNL     1      -3.321   0.445   1.265  1.00  0.00     0.162 HD
BRANCH  19  21
HETATM   21  C7  UNL     1      -4.821   0.276  -0.234  1.00  0.00     0.210 C 
HETATM   22  C8  UNL     1      -4.733   1.598  -0.965  1.00  0.00     0.175 C 
HETATM   23  N6  UNL     1      -5.929   2.265  -0.538  1.00  0.00    -0.127 NA
HETATM   24  N7  UNL     1      -6.773   1.285  -0.002  1.00  0.00    -0.038 NA
HETATM   25  N8  UNL     1      -5.921   0.382   0.678  1.00  0.00    -0.103 NA
ENDBRANCH  19  21
ENDBRANCH   4  18
BRANCH   6  26
HETATM   26  O2  UNL     1      -0.906   0.357  -1.970  1.00  0.00    -0.288 OA
ATOM     27  H2  UNL     1      -0.767   0.836  -2.779  1.00  0.00     0.244 HD
ENDBRANCH   6  26
TORSDOF 8
