REMARK  3 active torsions:
REMARK  status: ('A' for Active; 'I' for Inactive)
REMARK    1  A    between atoms: N1_1  and  C1_5 
REMARK    2  A    between atoms: C1_5  and  N2_6 
REMARK    3  A    between atoms: C1_5  and  C2_10 
ROOT
HETATM    1  C2  UNL     1       0.054  -0.282  -0.235  1.00  0.00     0.072 A 
HETATM    2  C3  UNL     1       0.522   0.970   0.106  1.00  0.00     0.046 A 
HETATM    3  C4  UNL     1       1.876   1.183  -0.014  1.00  0.00     0.095 A 
HETATM    4  N3  UNL     1       2.713   0.205  -0.447  1.00  0.00    -0.319 N 
ATOM      5  H3  UNL     1       3.712   0.398  -0.524  1.00  0.00     0.170 HD
HETATM    6  C5  UNL     1       2.248  -1.012  -0.776  1.00  0.00     0.324 A 
HETATM    7  O1  UNL     1       3.020  -1.939  -1.184  1.00  0.00    -0.247 OA
HETATM    8  N4  UNL     1       0.925  -1.216  -0.658  1.00  0.00    -0.308 N 
ATOM      9  H4  UNL     1       0.559  -2.136  -0.904  1.00  0.00     0.170 HD
ENDROOT
BRANCH   1  10
HETATM   10  C1  UNL     1      -1.419  -0.574  -0.124  1.00  0.00     0.427 C 
BRANCH  10  11
HETATM   11  N1  UNL     1      -1.947  -0.075   1.122  1.00  0.00    -0.045 N 
ATOM     12  H13 UNL     1      -1.956   0.945   1.130  1.00  0.00     0.277 HD
ATOM     13  H12 UNL     1      -2.949  -0.252   1.188  1.00  0.00     0.277 HD
ATOM     14  H11 UNL     1      -1.459  -0.440   1.940  1.00  0.00     0.277 HD
ENDBRANCH  10  11
BRANCH  10  15
HETATM   15  N2  UNL     1      -2.108  -0.059  -1.280  1.00  0.00    -0.045 N 
ATOM     16  H23 UNL     1      -3.110  -0.236  -1.214  1.00  0.00     0.277 HD
ATOM     17  H22 UNL     1      -2.117   0.961  -1.272  1.00  0.00     0.277 HD
ATOM     18  H21 UNL     1      -1.735  -0.412  -2.161  1.00  0.00     0.277 HD
ENDBRANCH  10  15
ENDBRANCH   1  10
TORSDOF 3
