REMARK  0 active torsions:
REMARK  status: ('A' for Active; 'I' for Inactive)
ROOT
HETATM    1  N1  UNL     1      -6.186  -0.360  -0.373  1.00  0.00    -0.191 NA
HETATM    2  C1  UNL     1      -5.044  -0.518  -0.300  1.00  0.00     0.107 C 
HETATM    3  C2  UNL     1      -3.618  -0.744  -0.210  1.00  0.00     0.137 A 
HETATM    4  C3  UNL     1      -2.746   0.378  -0.138  1.00  0.00     0.086 A 
HETATM    5  N2  UNL     1      -3.397   1.601  -0.165  1.00  0.00    -0.100 NA
HETATM    6  C4  UNL     1      -1.419   0.142  -0.054  1.00  0.00     0.029 A 
HETATM    7  C5  UNL     1      -0.503   1.201   0.019  1.00  0.00    -0.011 A 
HETATM    8  C6  UNL     1      -0.979   2.477   0.005  1.00  0.00     0.013 A 
HETATM    9  C7  UNL     1      -0.063   3.549   0.079  1.00  0.00     0.001 A 
HETATM   10  C8  UNL     1       1.261   3.304   0.162  1.00  0.00     0.001 A 
HETATM   11  C9  UNL     1       1.743   1.996   0.177  1.00  0.00     0.013 A 
HETATM   12  C10 UNL     1       0.888   0.936   0.107  1.00  0.00    -0.011 A 
HETATM   13  C11 UNL     1       1.339  -0.367   0.119  1.00  0.00     0.017 A 
HETATM   14  C12 UNL     1       0.417  -1.423   0.045  1.00  0.00     0.005 A 
HETATM   15  C13 UNL     1       0.835  -2.730   0.055  1.00  0.00     0.017 A 
HETATM   16  C14 UNL     1       2.178  -3.020   0.139  1.00  0.00     0.033 A 
HETATM   17  C15 UNL     1       3.100  -1.995   0.213  1.00  0.00     0.060 A 
HETATM   18  N3  UNL     1       4.440  -2.037   0.300  1.00  0.00    -0.350 N 
ATOM     19  H3  UNL     1       5.020  -2.876   0.327  1.00  0.00     0.166 HD
HETATM   20  C16 UNL     1       4.862  -0.797   0.344  1.00  0.00     0.181 A 
HETATM   21  N4  UNL     1       3.784   0.052   0.284  1.00  0.00    -0.350 N 
ATOM     22  H4  UNL     1       3.824   1.071   0.300  1.00  0.00     0.166 HD
HETATM   23  C17 UNL     1       2.691  -0.677   0.203  1.00  0.00     0.072 A 
HETATM   24  C18 UNL     1      -0.937  -1.179  -0.040  1.00  0.00     0.059 A 
HETATM   25  N5  UNL     1      -1.779  -2.206  -0.109  1.00  0.00    -0.321 N 
ATOM     26  H5  UNL     1      -1.416  -3.159  -0.099  1.00  0.00     0.169 HD
HETATM   27  C19 UNL     1      -3.113  -1.996  -0.193  1.00  0.00     0.268 A 
HETATM   28  O1  UNL     1      -3.856  -3.002  -0.255  1.00  0.00    -0.266 OA
ENDROOT
TORSDOF 0
