REMARK  9 active torsions:
REMARK  status: ('A' for Active; 'I' for Inactive)
REMARK    1  A    between atoms: S1_2  and  C2_5 
REMARK    2  A    between atoms: C2_5  and  C3_6 
REMARK    3  A    between atoms: C6_9  and  C7_10 
REMARK    4  A    between atoms: C8_11  and  C9_12 
REMARK    5  A    between atoms: C10_14  and  C11_15 
REMARK    6  A    between atoms: C11_15  and  O4_16 
REMARK    7  A    between atoms: C12_18  and  O5_19 
REMARK    8  A    between atoms: C13_21  and  O6_22 
REMARK    9  A    between atoms: C14_24  and  O7_25 
ROOT
HETATM    1  C9  UNL     1      -2.891  -0.575  -1.214  1.00  0.00     0.232 C 
HETATM    2  O3  UNL     1      -3.337   0.684  -1.158  1.00  0.00    -0.361 OA
HETATM    3  C10 UNL     1      -4.377   1.041  -0.405  1.00  0.00     0.178 C 
HETATM    4  C12 UNL     1      -4.750   0.167   0.738  1.00  0.00     0.180 C 
HETATM    5  C13 UNL     1      -4.852  -1.259   0.179  1.00  0.00     0.181 C 
HETATM    6  C14 UNL     1      -3.441  -1.575  -0.269  1.00  0.00     0.190 C 
ENDROOT
BRANCH   1   7
HETATM    7  C8  UNL     1      -1.409  -0.551  -1.107  1.00  0.00    -0.066 C 
HETATM    8  C7  UNL     1      -0.207  -0.509  -1.022  1.00  0.00    -0.064 C 
BRANCH   8   9
HETATM    9  C6  UNL     1       1.225  -0.444  -0.901  1.00  0.00     0.017 A 
HETATM   10  C5  UNL     1       1.873   0.753  -1.096  1.00  0.00     0.021 A 
HETATM   11  C4  UNL     1       3.241   0.902  -0.998  1.00  0.00     0.009 A 
HETATM   12  C3  UNL     1       3.963  -0.239  -0.685  1.00  0.00    -0.044 A 
HETATM   13  C16 UNL     1       3.370  -1.465  -0.478  1.00  0.00     0.009 A 
HETATM   14  C15 UNL     1       1.998  -1.537  -0.593  1.00  0.00     0.021 A 
BRANCH  12  15
HETATM   15  C2  UNL     1       5.432  -0.124  -0.570  1.00  0.00     0.178 C 
BRANCH  15  16
HETATM   16  S1  UNL     1       5.892   0.274   1.107  1.00  0.00     0.144 S 
HETATM   17  C1  UNL     1       7.685   0.388   1.120  1.00  0.00     0.161 C 
HETATM   18  O1  UNL     1       5.252   1.562   1.470  1.00  0.00    -0.228 OA
HETATM   19  O2  UNL     1       5.539  -0.847   2.040  1.00  0.00    -0.228 OA
ENDBRANCH  15  16
ENDBRANCH  12  15
ENDBRANCH   8   9
ENDBRANCH   1   7
BRANCH   6  20
HETATM   20  O7  UNL     1      -2.672  -1.718   0.900  1.00  0.00    -0.389 OA
ATOM     21  H7  UNL     1      -3.025  -2.359   1.506  1.00  0.00     0.210 HD
ENDBRANCH   6  20
BRANCH   3  22
HETATM   22  C11 UNL     1      -4.157   2.463   0.111  1.00  0.00     0.198 C 
BRANCH  22  23
HETATM   23  O4  UNL     1      -2.994   2.543   0.881  1.00  0.00    -0.398 OA
ATOM     24  H4  UNL     1      -2.857   3.427   1.202  1.00  0.00     0.209 HD
ENDBRANCH  22  23
ENDBRANCH   3  22
BRANCH   5  25
HETATM   25  O6  UNL     1      -5.267  -2.063   1.205  1.00  0.00    -0.390 OA
ATOM     26  H6  UNL     1      -5.330  -2.946   0.859  1.00  0.00     0.210 HD
ENDBRANCH   5  25
BRANCH   4  27
HETATM   27  O5  UNL     1      -5.939   0.552   1.316  1.00  0.00    -0.390 OA
ATOM     28  H5  UNL     1      -6.177  -0.007   2.047  1.00  0.00     0.210 HD
ENDBRANCH   4  27
TORSDOF 9
