REMARK  7 active torsions:
REMARK  status: ('A' for Active; 'I' for Inactive)
REMARK    1  A    between atoms: C8_8  and  C9_9 
REMARK    2  A    between atoms: C9_9  and  C10_10 
REMARK    3  A    between atoms: C10_10  and  O1_11 
REMARK    4  A    between atoms: C13_15  and  O2_16 
REMARK    5  A    between atoms: C14_18  and  C15_19 
REMARK    6  A    between atoms: C16_20  and  O3_21 
REMARK    7  A    between atoms: C19_26  and  O5_27 
ROOT
HETATM    1  C1  UNL     1      -1.016  -3.923  -1.715  1.00  0.00     0.044 C 
HETATM    2  C2  UNL     1      -0.962  -2.668  -0.889  1.00  0.00    -0.069 C 
HETATM    3  C3  UNL     1      -1.743  -2.555   0.166  1.00  0.00    -0.017 C 
HETATM    4  C4  UNL     1      -1.688  -1.338   0.970  1.00  0.00     0.024 C 
HETATM    5  C5  UNL     1      -2.822  -1.093   1.920  1.00  0.00     0.013 C 
HETATM    6  C6  UNL     1      -2.127  -0.172   2.981  1.00  0.00     0.028 C 
HETATM    7  C7  UNL     1      -1.996   1.087   2.130  1.00  0.00    -0.023 C 
HETATM    8  C8  UNL     1      -1.617   1.073   0.867  1.00  0.00    -0.070 C 
HETATM    9  C11 UNL     1      -1.297  -0.162   0.103  1.00  0.00     0.019 C 
HETATM   10  C12 UNL     1      -2.358  -0.132  -1.000  1.00  0.00     0.024 C 
HETATM   11  C13 UNL     1       0.066  -0.484  -0.286  1.00  0.00     0.092 C 
HETATM   12  C14 UNL     1       1.142   0.326  -0.799  1.00  0.00     0.039 C 
HETATM   13  C20 UNL     1       1.981  -0.632  -1.629  1.00  0.00     0.087 C 
HETATM   14  C21 UNL     1       1.396  -1.998  -1.344  1.00  0.00     0.142 C 
HETATM   15  O6  UNL     1       1.992  -2.996  -1.201  1.00  0.00    -0.297 OA
HETATM   16  C22 UNL     1      -0.063  -1.618  -1.320  1.00  0.00     0.072 C 
HETATM   17  C23 UNL     1      -0.302  -1.187  -2.723  1.00  0.00     0.031 C 
ENDROOT
BRANCH  12  18
HETATM   18  C15 UNL     1       2.047   1.018   0.146  1.00  0.00     0.056 C 
HETATM   19  C16 UNL     1       2.834   0.280   1.172  1.00  0.00     0.157 C 
HETATM   20  C17 UNL     1       3.804   1.391   1.537  1.00  0.00     0.182 A 
HETATM   21  O4  UNL     1       5.023   1.677   1.220  1.00  0.00    -0.370 OA
HETATM   22  C18 UNL     1       4.407   1.416   0.096  1.00  0.00     0.182 A 
HETATM   23  C19 UNL     1       3.157   1.840  -0.536  1.00  0.00     0.157 C 
BRANCH  19  24
HETATM   24  O3  UNL     1       3.554  -0.806   0.846  1.00  0.00    -0.392 OA
ATOM     25  H3  UNL     1       4.056  -1.277   1.501  1.00  0.00     0.210 HD
ENDBRANCH  19  24
BRANCH  23  26
HETATM   26  O5  UNL     1       3.194   1.616  -1.906  1.00  0.00    -0.392 OA
ATOM     27  H5  UNL     1       3.879   2.123  -2.327  1.00  0.00     0.210 HD
ENDBRANCH  23  26
ENDBRANCH  12  18
BRANCH  11  28
HETATM   28  O2  UNL     1       0.692  -1.090   0.856  1.00  0.00    -0.387 OA
ATOM     29  H2  UNL     1       1.583  -1.300   0.602  1.00  0.00     0.210 HD
ENDBRANCH  11  28
BRANCH   8  30
HETATM   30  C9  UNL     1      -1.544   2.399   0.140  1.00  0.00     0.060 C 
BRANCH  30  31
HETATM   31  C10 UNL     1      -1.959   3.581   0.917  1.00  0.00     0.168 C 
BRANCH  31  32
HETATM   32  O1  UNL     1      -3.265   3.635   1.339  1.00  0.00    -0.401 OA
ATOM     33  H1  UNL     1      -3.532   4.397   1.840  1.00  0.00     0.209 HD
ENDBRANCH  31  32
ENDBRANCH  30  31
ENDBRANCH   8  30
TORSDOF 7
