REMARK  3 active torsions:
REMARK  status: ('A' for Active; 'I' for Inactive)
REMARK    1  A    between atoms: C2_2  and  C3_3 
REMARK       I    between atoms: C3_3  and  N1_5 
REMARK    2  A    between atoms: N1_5  and  N2_7 
REMARK    3  A    between atoms: C7_17  and  N5_18 
REMARK       I    between atoms: N5_18  and  C8_20 
ROOT
HETATM    1  N2  UNL     1       0.949  -0.788   0.201  1.00  0.00    -0.284 N 
ATOM      2  H2  UNL     1       0.259  -0.837   0.951  1.00  0.00     0.188 HD
HETATM    3  C4  UNL     1       0.531  -0.509  -0.973  1.00  0.00     0.134 C 
HETATM    4  N3  UNL     1       1.377  -0.409  -2.112  1.00  0.00    -0.295 N 
ATOM      5  H3  UNL     1       2.396  -0.451  -2.089  1.00  0.00     0.172 HD
HETATM    6  C5  UNL     1       0.596  -0.242  -3.285  1.00  0.00     0.322 C 
HETATM    7  O2  UNL     1       0.995  -0.118  -4.484  1.00  0.00    -0.247 OA
HETATM    8  N4  UNL     1      -0.744  -0.236  -2.888  1.00  0.00    -0.322 N 
ATOM      9  H4  UNL     1      -1.546  -0.232  -3.519  1.00  0.00     0.165 HD
HETATM   10  C6  UNL     1      -0.817  -0.236  -1.448  1.00  0.00     0.146 C 
HETATM   11  C7  UNL     1      -1.523   0.952  -0.843  1.00  0.00     0.154 C 
HETATM   12  C10 UNL     1      -2.710   0.070  -0.544  1.00  0.00     0.182 C 
HETATM   13  O4  UNL     1      -2.954  -0.184   0.794  1.00  0.00    -0.346 OA
HETATM   14  C11 UNL     1      -2.899  -1.552   0.876  1.00  0.00     0.158 C 
HETATM   15  C12 UNL     1      -2.913  -2.092   2.277  1.00  0.00     0.078 C 
HETATM   16  C13 UNL     1      -3.980  -2.248   0.097  1.00  0.00     0.078 C 
HETATM   17  O5  UNL     1      -1.667  -1.819   0.231  1.00  0.00    -0.345 OA
HETATM   18  C14 UNL     1      -1.910  -1.124  -0.976  1.00  0.00     0.194 C 
ENDROOT
BRANCH  11  19
HETATM   19  N5  UNL     1      -0.897   1.567   0.275  1.00  0.00    -0.351 N 
HETATM   20  C8  UNL     1      -0.597   2.948   0.271  1.00  0.00     0.214 C 
HETATM   21  C9  UNL     1       0.054   3.650   1.402  1.00  0.00     0.117 C 
HETATM   22  O3  UNL     1      -0.898   3.621  -0.744  1.00  0.00    -0.274 OA
ATOM     23  H5  UNL     1      -0.661   1.004   1.092  1.00  0.00     0.163 HD
ENDBRANCH  11  19
BRANCH   1  24
HETATM   24  N1  UNL     1       2.273  -1.029   0.528  1.00  0.00    -0.269 N 
HETATM   25  C3  UNL     1       3.273  -0.017   0.528  1.00  0.00     0.235 C 
HETATM   26  O1  UNL     1       2.992   1.181   0.222  1.00  0.00    -0.272 OA
ATOM     27  H1  UNL     1       2.545  -1.979   0.781  1.00  0.00     0.190 HD
BRANCH  25  28
HETATM   28  C2  UNL     1       4.684  -0.313   0.884  1.00  0.00     0.100 C 
HETATM   29  C1  UNL     1       5.556   0.898   0.815  1.00  0.00     0.014 C 
ENDBRANCH  25  28
ENDBRANCH   1  24
TORSDOF 3
