REMARK  7 active torsions:
REMARK  status: ('A' for Active; 'I' for Inactive)
REMARK    1  A    between atoms: C2_2  and  O1_3 
REMARK    2  A    between atoms: C2_2  and  C3_5 
REMARK    3  A    between atoms: C4_6  and  C5_7 
REMARK    4  A    between atoms: C6_8  and  O2_9 
REMARK    5  A    between atoms: C13_18  and  C14_19 
REMARK    6  A    between atoms: C14_19  and  O4_20 
REMARK    7  A    between atoms: C18_26  and  O6_27 
ROOT
HETATM    1  C5  UNL     1       0.782   0.566  -0.017  1.00  0.00     0.052 C 
HETATM    2  C6  UNL     1       1.322   1.388   1.129  1.00  0.00     0.127 C 
HETATM    3  C7  UNL     1       0.241   2.187   1.742  1.00  0.00     0.037 C 
HETATM    4  C8  UNL     1      -1.131   2.064   1.180  1.00  0.00    -0.010 C 
HETATM    5  C9  UNL     1      -1.351   3.074   0.112  1.00  0.00     0.010 C 
HETATM    6  C10 UNL     1      -1.541   0.646   0.886  1.00  0.00     0.014 C 
HETATM    7  C11 UNL     1      -2.730   0.554   0.019  1.00  0.00     0.047 C 
HETATM    8  C12 UNL     1      -3.703  -0.475   0.668  1.00  0.00     0.177 C 
HETATM    9  O3  UNL     1      -2.994  -1.686   0.488  1.00  0.00    -0.367 OA
HETATM   10  C13 UNL     1      -2.215  -1.543  -0.659  1.00  0.00     0.168 C 
HETATM   11  C15 UNL     1      -0.769  -1.367  -0.352  1.00  0.00     0.175 C 
HETATM   12  O5  UNL     1      -0.013  -2.168  -0.831  1.00  0.00    -0.294 OA
HETATM   13  C16 UNL     1      -0.369  -0.240   0.510  1.00  0.00     0.034 C 
HETATM   14  C17 UNL     1       0.203  -0.961   1.757  1.00  0.00     0.025 C 
HETATM   15  C18 UNL     1      -2.616  -0.214  -1.264  1.00  0.00     0.169 C 
ENDROOT
BRANCH   1  16
HETATM   16  C4  UNL     1       1.808  -0.223  -0.705  1.00  0.00    -0.020 C 
HETATM   17  C3  UNL     1       3.038  -0.304  -0.242  1.00  0.00     0.001 C 
BRANCH  17  18
HETATM   18  C2  UNL     1       4.111  -1.109  -0.934  1.00  0.00     0.136 C 
HETATM   19  C1  UNL     1       5.443  -0.431  -0.756  1.00  0.00     0.043 C 
BRANCH  18  20
HETATM   20  O1  UNL     1       4.140  -2.346  -0.295  1.00  0.00    -0.392 OA
ATOM     21  H1  UNL     1       3.299  -2.774  -0.407  1.00  0.00     0.210 HD
ENDBRANCH  18  20
ENDBRANCH  17  18
ENDBRANCH   1  16
BRANCH   2  22
HETATM   22  O2  UNL     1       2.324   2.273   0.659  1.00  0.00    -0.395 OA
ATOM     23  H2  UNL     1       2.664   2.790   1.380  1.00  0.00     0.210 HD
ENDBRANCH   2  22
BRANCH  10  24
HETATM   24  C14 UNL     1      -2.459  -2.685  -1.618  1.00  0.00     0.213 C 
BRANCH  24  25
HETATM   25  O4  UNL     1      -3.797  -2.724  -2.002  1.00  0.00    -0.397 OA
ATOM     26  H4  UNL     1      -3.950  -3.442  -2.605  1.00  0.00     0.209 HD
ENDBRANCH  24  25
ENDBRANCH  10  24
BRANCH  15  27
HETATM   27  O6  UNL     1      -1.791   0.210  -2.226  1.00  0.00    -0.392 OA
ATOM     28  H6  UNL     1      -1.719  -0.277  -3.039  1.00  0.00     0.210 HD
ENDBRANCH  15  27
TORSDOF 7
