REMARK  8 active torsions:
REMARK  status: ('A' for Active; 'I' for Inactive)
REMARK    1  A    between atoms: C2_2  and  C3_3 
REMARK    2  A    between atoms: C4_4  and  C5_5 
REMARK    3  A    between atoms: C6_6  and  C7_7 
REMARK    4  A    between atoms: C7_7  and  O1_10 
REMARK    5  A    between atoms: C11_14  and  O3_15 
REMARK    6  A    between atoms: C17_23  and  C18_24 
REMARK    7  A    between atoms: C18_24  and  O5_25 
REMARK    8  A    between atoms: C19_27  and  O6_28 
ROOT
HETATM    1  C3  UNL     1       0.373  -0.421   1.164  1.00  0.00     0.010 C 
HETATM    2  C4  UNL     1       1.114   0.038   0.143  1.00  0.00     0.078 C 
HETATM    3  O2  UNL     1       0.500   0.625  -0.991  1.00  0.00    -0.342 OA
HETATM    4  C10 UNL     1      -0.908   0.739  -1.090  1.00  0.00     0.166 C 
HETATM    5  C11 UNL     1      -1.311   1.849  -0.174  1.00  0.00     0.156 C 
HETATM    6  C12 UNL     1      -1.570   1.171   1.123  1.00  0.00     0.065 C 
HETATM    7  C13 UNL     1      -3.050   0.876   1.346  1.00  0.00     0.049 C 
HETATM    8  C14 UNL     1      -2.913  -0.240   2.355  1.00  0.00     0.177 C 
HETATM    9  O4  UNL     1      -1.880  -1.013   1.836  1.00  0.00    -0.374 OA
HETATM   10  C15 UNL     1      -1.089  -0.272   1.016  1.00  0.00     0.104 C 
HETATM   11  C16 UNL     1      -1.442  -0.516  -0.464  1.00  0.00     0.066 C 
HETATM   12  C17 UNL     1      -2.902  -0.702  -0.601  1.00  0.00     0.048 C 
HETATM   13  C19 UNL     1      -3.739   0.278   0.162  1.00  0.00     0.131 C 
ENDROOT
BRANCH   2  14
HETATM   14  C5  UNL     1       2.561  -0.054   0.174  1.00  0.00     0.036 C 
HETATM   15  C6  UNL     1       3.230   0.425  -0.880  1.00  0.00     0.012 C 
BRANCH  15  16
HETATM   16  C7  UNL     1       4.693   0.369  -0.924  1.00  0.00     0.068 C 
HETATM   17  C8  UNL     1       5.116  -1.096  -1.026  1.00  0.00     0.050 C 
HETATM   18  C9  UNL     1       5.214   1.157  -2.097  1.00  0.00     0.050 C 
BRANCH  16  19
HETATM   19  O1  UNL     1       5.268   0.873   0.221  1.00  0.00    -0.387 OA
ATOM     20  H1  UNL     1       6.217   0.837   0.192  1.00  0.00     0.211 HD
ENDBRANCH  16  19
ENDBRANCH  15  16
ENDBRANCH   2  14
BRANCH   1  21
HETATM   21  C2  UNL     1       1.057  -1.008   2.289  1.00  0.00     0.003 C 
HETATM   22  C1  UNL     1       0.536  -1.511   3.376  1.00  0.00     0.012 C 
ENDBRANCH   1  21
BRANCH   5  23
HETATM   23  O3  UNL     1      -2.306   2.671  -0.640  1.00  0.00    -0.392 OA
ATOM     24  H3  UNL     1      -2.562   3.377  -0.058  1.00  0.00     0.210 HD
ENDBRANCH   5  23
BRANCH  12  25
HETATM   25  C18 UNL     1      -3.330  -0.742  -2.054  1.00  0.00     0.172 C 
BRANCH  25  26
HETATM   26  O5  UNL     1      -4.729  -0.922  -2.104  1.00  0.00    -0.400 OA
ATOM     27  H5  UNL     1      -4.997  -0.947  -3.015  1.00  0.00     0.209 HD
ENDBRANCH  25  26
ENDBRANCH  12  25
BRANCH  13  28
HETATM   28  O6  UNL     1      -4.887  -0.386   0.661  1.00  0.00    -0.395 OA
ATOM     29  H6  UNL     1      -5.325  -0.766  -0.092  1.00  0.00     0.210 HD
ENDBRANCH  13  28
TORSDOF 8
