REMARK  6 active torsions:
REMARK  status: ('A' for Active; 'I' for Inactive)
REMARK    1  A    between atoms: O1_2  and  C2_3 
REMARK    2  A    between atoms: C3_4  and  N1_5 
REMARK    3  A    between atoms: C4_9  and  N2_10 
REMARK    4  A    between atoms: C11_18  and  O2_19 
REMARK    5  A    between atoms: C14_25  and  O3_26 
REMARK    6  A    between atoms: C16_30  and  O4_31 
ROOT
HETATM    1  N2  UNL     1       2.051  -0.700   0.446  1.00  0.00    -0.357 N 
HETATM    2  C5  UNL     1       2.478  -1.509   1.452  1.00  0.00     0.092 A 
HETATM    3  C6  UNL     1       3.688  -2.141   1.451  1.00  0.00     0.040 A 
HETATM    4  C7  UNL     1       4.549  -1.970   0.386  1.00  0.00     0.047 A 
HETATM    5  C8  UNL     1       5.840  -2.605   0.319  1.00  0.00     0.099 C 
HETATM    6  N3  UNL     1       6.877  -3.124   0.246  1.00  0.00    -0.191 NA
HETATM    7  C9  UNL     1       4.140  -1.156  -0.644  1.00  0.00     0.040 A 
HETATM    8  C10 UNL     1       2.903  -0.546  -0.582  1.00  0.00     0.092 A 
ENDROOT
BRANCH   1   9
HETATM    9  C4  UNL     1       0.766  -0.067   0.512  1.00  0.00     0.154 C 
HETATM   10  C3  UNL     1       0.805   1.405   0.261  1.00  0.00     0.240 C 
HETATM   11  C2  UNL     1      -0.466   2.008  -0.192  1.00  0.00     0.185 C 
HETATM   12  C16 UNL     1      -1.706   1.266   0.225  1.00  0.00     0.198 C 
HETATM   13  C13 UNL     1      -1.614  -0.206   0.120  1.00  0.00     0.232 C 
HETATM   14  C11 UNL     1      -0.263  -0.695  -0.404  1.00  0.00     0.195 C 
HETATM   15  N4  UNL     1      -2.703  -0.846  -0.565  1.00  0.00    -0.025 N 
HETATM   16  S1  UNL     1      -1.784  -0.981   1.783  1.00  0.00    -0.121 SA
HETATM   17  C14 UNL     1      -3.855  -0.854   0.281  1.00  0.00     0.330 C 
ATOM     18  H42 UNL     1      -2.893  -0.420  -1.472  1.00  0.00     0.282 HD
ATOM     19  H41 UNL     1      -2.458  -1.780  -0.892  1.00  0.00     0.282 HD
HETATM   20  C15 UNL     1      -3.487  -1.636   1.543  1.00  0.00     0.137 C 
BRANCH  10  21
HETATM   21  N1  UNL     1       1.184   2.046   1.525  1.00  0.00    -0.070 N 
ATOM     22  H13 UNL     1       1.232   3.062   1.453  1.00  0.00     0.274 HD
ATOM     23  H12 UNL     1       0.449   1.994   2.230  1.00  0.00     0.274 HD
ATOM     24  H11 UNL     1       2.061   1.630   1.838  1.00  0.00     0.274 HD
ENDBRANCH  10  21
BRANCH  11  25
HETATM   25  O1  UNL     1      -0.577   3.300   0.344  1.00  0.00    -0.386 OA
HETATM   26  C1  UNL     1      -0.683   4.262  -0.653  1.00  0.00     0.202 C 
ENDBRANCH  11  25
BRANCH  12  27
HETATM   27  O4  UNL     1      -2.743   1.717  -0.626  1.00  0.00    -0.389 OA
ATOM     28  H4  UNL     1      -3.526   1.248  -0.363  1.00  0.00     0.210 HD
ENDBRANCH  12  27
BRANCH  14  29
HETATM   29  O2  UNL     1      -0.137  -0.289  -1.709  1.00  0.00    -0.385 OA
HETATM   30  C12 UNL     1      -0.072  -1.353  -2.607  1.00  0.00     0.202 C 
ENDBRANCH  14  29
BRANCH  17  31
HETATM   31  O3  UNL     1      -4.895  -1.451  -0.412  1.00  0.00    -0.369 OA
ATOM     32  H3  UNL     1      -5.661  -1.456   0.150  1.00  0.00     0.212 HD
ENDBRANCH  17  31
ENDBRANCH   1   9
TORSDOF 6
