REMARK  9 active torsions:
REMARK  status: ('A' for Active; 'I' for Inactive)
REMARK    1  A    between atoms: C2_4  and  O3_5 
REMARK    2  A    between atoms: O3_5  and  C3_6 
REMARK    3  A    between atoms: C3_6  and  C4_7 
REMARK    4  A    between atoms: C5_8  and  O4_9 
REMARK    5  A    between atoms: C12_21  and  O5_22 
REMARK    6  A    between atoms: C13_24  and  O6_25 
REMARK    7  A    between atoms: C14_27  and  O7_28 
REMARK    8  A    between atoms: O7_28  and  C15_29 
REMARK    9  A    between atoms: C15_29  and  C16_30 
ROOT
HETATM    1  O1  UNL     1       2.576   0.811   3.396  1.00  0.00    -0.262 OA
HETATM    2  C1  UNL     1       1.913   0.047   2.665  1.00  0.00     0.293 C 
HETATM    3  O2  UNL     1       0.539   0.085   2.714  1.00  0.00    -0.285 OA
HETATM    4  C2  UNL     1      -0.224  -0.043   1.517  1.00  0.00     0.300 C 
HETATM    5  C12 UNL     1       0.435  -0.905   0.489  1.00  0.00     0.205 C 
HETATM    6  C13 UNL     1       1.545  -1.784   1.063  1.00  0.00     0.190 C 
HETATM    7  C14 UNL     1       2.582  -0.885   1.759  1.00  0.00     0.252 C 
ENDROOT
BRANCH   4   8
HETATM    8  O3  UNL     1      -1.479  -0.579   1.792  1.00  0.00    -0.357 OA
BRANCH   8   9
HETATM    9  C3  UNL     1      -2.441   0.362   1.485  1.00  0.00     0.180 C 
BRANCH   9  10
HETATM   10  C4  UNL     1      -2.513   0.774   0.062  1.00  0.00     0.078 C 
HETATM   11  C5  UNL     1      -3.656   1.825  -0.002  1.00  0.00     0.162 C 
HETATM   12  C6  UNL     1      -4.730   0.892  -0.302  1.00  0.00     0.281 C 
HETATM   13  C7  UNL     1      -5.998   1.289  -0.923  1.00  0.00     0.273 C 
HETATM   14  N2  UNL     1      -4.119   0.243  -1.492  1.00  0.00     0.140 N 
HETATM   15  N1  UNL     1      -6.383  -0.019  -1.503  1.00  0.00    -0.038 N 
HETATM   16  C8  UNL     1      -5.137  -0.746  -1.707  1.00  0.00     0.444 C 
ATOM     17  H12 UNL     1      -7.066  -0.529  -0.942  1.00  0.00     0.280 HD
ATOM     18  H11 UNL     1      -6.952   0.060  -2.346  1.00  0.00     0.280 HD
HETATM   19  C9  UNL     1      -4.836  -1.711  -0.606  1.00  0.00     0.036 C 
HETATM   20  C10 UNL     1      -3.616  -1.478  -0.133  1.00  0.00     0.009 C 
HETATM   21  C11 UNL     1      -2.992  -0.359  -0.853  1.00  0.00     0.258 C 
BRANCH  11  22
HETATM   22  O4  UNL     1      -3.323   2.644  -1.087  1.00  0.00    -0.393 OA
ATOM     23  H4  UNL     1      -4.022   3.286  -1.126  1.00  0.00     0.210 HD
ENDBRANCH  11  22
ENDBRANCH   9  10
ENDBRANCH   8   9
ENDBRANCH   4   8
BRANCH   5  24
HETATM   24  O5  UNL     1       0.963  -0.134  -0.538  1.00  0.00    -0.388 OA
ATOM     25  H5  UNL     1       1.382  -0.682  -1.191  1.00  0.00     0.210 HD
ENDBRANCH   5  24
BRANCH   6  26
HETATM   26  O6  UNL     1       2.124  -2.437  -0.024  1.00  0.00    -0.390 OA
ATOM     27  H6  UNL     1       2.814  -2.984   0.333  1.00  0.00     0.210 HD
ENDBRANCH   6  26
BRANCH   7  28
HETATM   28  O7  UNL     1       3.334  -0.302   0.772  1.00  0.00    -0.369 OA
BRANCH  28  29
HETATM   29  C15 UNL     1       4.671  -0.681   0.797  1.00  0.00     0.207 C 
BRANCH  29  30
HETATM   30  C16 UNL     1       5.358   0.022  -0.319  1.00  0.00    -0.035 A 
HETATM   31  C17 UNL     1       5.452  -0.539  -1.587  1.00  0.00     0.009 A 
HETATM   32  C18 UNL     1       6.075   0.076  -2.638  1.00  0.00     0.001 A 
HETATM   33  C19 UNL     1       6.643   1.315  -2.448  1.00  0.00     0.000 A 
HETATM   34  C20 UNL     1       6.575   1.916  -1.199  1.00  0.00     0.001 A 
HETATM   35  C21 UNL     1       5.938   1.265  -0.160  1.00  0.00     0.009 A 
ENDBRANCH  29  30
ENDBRANCH  28  29
ENDBRANCH   7  28
TORSDOF 9
