REMARK  4 active torsions:
REMARK  status: ('A' for Active; 'I' for Inactive)
REMARK    1  A    between atoms: C3_3  and  N1_4 
REMARK    2  A    between atoms: C6_7  and  N2_8 
REMARK    3  A    between atoms: N3_12  and  C10_13 
REMARK    4  A    between atoms: C10_13  and  C11_14 
ROOT
HETATM    1  C1  UNL     1      -7.005   1.959   0.134  1.00  0.00     0.013 C 
HETATM    2  C2  UNL     1      -6.574   0.910  -0.240  1.00  0.00    -0.087 C 
HETATM    3  C3  UNL     1      -6.018  -0.385  -0.684  1.00  0.00     0.364 C 
ENDROOT
BRANCH   3   4
HETATM    4  N1  UNL     1      -4.591  -0.415  -0.427  1.00  0.00     0.099 N 
HETATM    5  C4  UNL     1      -3.859   0.500  -1.260  1.00  0.00     0.275 C 
HETATM    6  C5  UNL     1      -2.386   0.216  -1.080  1.00  0.00     0.055 C 
HETATM    7  C6  UNL     1      -2.195  -0.766   0.083  1.00  0.00     0.086 C 
HETATM    8  C17 UNL     1      -2.878  -0.144   1.275  1.00  0.00     0.055 C 
HETATM    9  C18 UNL     1      -4.357  -0.060   0.966  1.00  0.00     0.275 C 
BRANCH   7  10
HETATM   10  N2  UNL     1      -0.865  -1.144   0.284  1.00  0.00    -0.387 N 
HETATM   11  C7  UNL     1      -0.206  -1.839  -0.767  1.00  0.00     0.127 C 
HETATM   12  C8  UNL     1       1.034  -2.487  -0.240  1.00  0.00     0.064 C 
HETATM   13  C9  UNL     1       2.217  -1.550  -0.119  1.00  0.00     0.065 C 
HETATM   14  N3  UNL     1       1.932  -0.211  -0.450  1.00  0.00    -0.363 N 
HETATM   15  C15 UNL     1       0.989   0.492   0.331  1.00  0.00     0.171 C 
HETATM   16  C16 UNL     1       0.011  -0.372   1.058  1.00  0.00     0.078 C 
BRANCH  14  17
HETATM   17  C10 UNL     1       2.914   0.551  -1.107  1.00  0.00     0.121 C 
BRANCH  17  18
HETATM   18  C11 UNL     1       4.185   0.754  -0.388  1.00  0.00     0.064 A 
HETATM   19  C12 UNL     1       4.411   0.582   0.954  1.00  0.00     0.120 A 
HETATM   20  N4  UNL     1       5.692   0.859   1.231  1.00  0.00    -0.354 N 
HETATM   21  C13 UNL     1       6.270   1.202   0.074  1.00  0.00     0.077 A 
ATOM     22  H4  UNL     1       6.140   0.817   2.146  1.00  0.00     0.166 HD
HETATM   23  C14 UNL     1       7.720   1.593  -0.057  1.00  0.00     0.089 C 
HETATM   24  N5  UNL     1       5.368   1.139  -0.892  1.00  0.00    -0.344 N 
ATOM     25  H5  UNL     1       5.545   1.351  -1.874  1.00  0.00     0.167 HD
ENDBRANCH  17  18
ENDBRANCH  14  17
ENDBRANCH   7  10
ENDBRANCH   3   4
TORSDOF 4
