REMARK  8 active torsions:
REMARK  status: ('A' for Active; 'I' for Inactive)
REMARK    1  A    between atoms: C2_2  and  C3_3 
REMARK    2  A    between atoms: C3_3  and  C4_4 
REMARK    3  A    between atoms: C4_4  and  C5_5 
REMARK    4  A    between atoms: C5_5  and  C6_6 
REMARK    5  A    between atoms: C8_8  and  C9_9 
REMARK       I    between atoms: C9_9  and  N1_11 
REMARK    6  A    between atoms: N1_11  and  C10_13 
REMARK    7  A    between atoms: C16_20  and  C17_21 
REMARK       I    between atoms: C17_21  and  N3_23 
REMARK    8  A    between atoms: N3_23  and  C18_25 
ROOT
HETATM    1  C6  UNL     1      -1.495  -0.333  -1.478  1.00  0.00     0.009 C 
HETATM    2  C7  UNL     1      -0.118  -0.388  -0.985  1.00  0.00    -0.009 C 
HETATM    3  C8  UNL     1       0.532   0.646  -0.519  1.00  0.00     0.019 C 
HETATM    4  C16 UNL     1      -0.068   1.980  -0.439  1.00  0.00     0.116 C 
HETATM    5  C23 UNL     1      -1.409   2.066  -1.135  1.00  0.00     0.020 C 
HETATM    6  C24 UNL     1      -2.228   0.813  -0.868  1.00  0.00     0.009 C 
ENDROOT
BRANCH   3   7
HETATM    7  C9  UNL     1       1.903   0.502  -0.049  1.00  0.00     0.248 C 
HETATM    8  O1  UNL     1       2.545   1.516   0.409  1.00  0.00    -0.268 OA
HETATM    9  N1  UNL     1       2.614  -0.721  -0.059  1.00  0.00    -0.352 N 
ATOM     10  H1  UNL     1       2.167  -1.568  -0.409  1.00  0.00     0.163 HD
BRANCH   9  11
HETATM   11  C10 UNL     1       3.980  -0.770   0.429  1.00  0.00     0.087 C 
HETATM   12  C11 UNL     1       4.077  -1.788   1.535  1.00  0.00     0.044 C 
HETATM   13  C12 UNL     1       4.638  -3.096   1.110  1.00  0.00     0.118 C 
HETATM   14  N2  UNL     1       4.385  -3.467  -0.232  1.00  0.00    -0.416 N 
HETATM   15  C13 UNL     1       4.652  -4.821  -0.565  1.00  0.00     0.143 C 
HETATM   16  C14 UNL     1       4.660  -2.499  -1.226  1.00  0.00     0.118 C 
HETATM   17  C15 UNL     1       4.943  -1.121  -0.684  1.00  0.00     0.044 C 
ENDBRANCH   9  11
ENDBRANCH   3   7
BRANCH   4  18
HETATM   18  C17 UNL     1      -0.231   2.432   0.959  1.00  0.00     0.226 C 
HETATM   19  O2  UNL     1       0.098   1.682   1.897  1.00  0.00    -0.273 OA
HETATM   20  N3  UNL     1      -0.759   3.710   1.236  1.00  0.00    -0.356 N 
ATOM     21  H3  UNL     1      -1.023   4.308   0.453  1.00  0.00     0.162 HD
BRANCH  20  22
HETATM   22  C18 UNL     1      -0.945   4.215   2.587  1.00  0.00     0.084 C 
HETATM   23  C19 UNL     1      -2.370   4.671   2.720  1.00  0.00     0.025 C 
HETATM   24  C20 UNL     1      -2.371   6.179   2.657  1.00  0.00     0.002 C 
HETATM   25  C21 UNL     1      -1.031   6.502   2.032  1.00  0.00     0.002 C 
HETATM   26  C22 UNL     1      -0.108   5.489   2.669  1.00  0.00     0.025 C 
ENDBRANCH  20  22
ENDBRANCH   4  18
BRANCH   1  27
HETATM   27  C5  UNL     1      -2.207  -1.651  -1.222  1.00  0.00     0.008 C 
BRANCH  27  28
HETATM   28  C4  UNL     1      -3.611  -1.555  -1.739  1.00  0.00     0.001 C 
BRANCH  28  29
HETATM   29  C3  UNL     1      -4.388  -2.837  -1.525  1.00  0.00    -0.000 C 
BRANCH  29  30
HETATM   30  C2  UNL     1      -3.765  -4.018  -2.215  1.00  0.00    -0.005 C 
HETATM   31  C1  UNL     1      -4.617  -5.239  -1.939  1.00  0.00     0.005 C 
ENDBRANCH  29  30
ENDBRANCH  28  29
ENDBRANCH  27  28
ENDBRANCH   1  27
TORSDOF 8
