REMARK  9 active torsions:
REMARK  status: ('A' for Active; 'I' for Inactive)
REMARK    1  A    between atoms: C2_5  and  O1_6 
REMARK    2  A    between atoms: C2_5  and  C3_8 
REMARK    3  A    between atoms: C3_8  and  N3_9 
REMARK    4  A    between atoms: N3_9  and  N4_11 
REMARK       I    between atoms: N4_11  and  C4_13 
REMARK    5  A    between atoms: C4_13  and  C5_15 
REMARK    6  A    between atoms: N5_16  and  C6_18 
REMARK    7  A    between atoms: C8_20  and  O3_21 
REMARK    8  A    between atoms: C9_23  and  O4_24 
REMARK    9  A    between atoms: C11_28  and  N6_29 
ROOT
HETATM    1  N3  UNL     1      -1.571  -0.390   0.156  1.00  0.00    -0.329 N 
ATOM      2  H3  UNL     1      -2.108  -0.833   0.901  1.00  0.00     0.180 HD
ENDROOT
BRANCH   1   3
HETATM    3  C3  UNL     1      -2.171   0.488  -0.772  1.00  0.00     0.202 C 
BRANCH   3   4
HETATM    4  C2  UNL     1      -3.617   0.769  -0.620  1.00  0.00     0.181 C 
HETATM    5  N2  UNL     1      -3.917   1.505   0.607  1.00  0.00    -0.330 N 
HETATM    6  C1  UNL     1      -5.150   1.769   0.875  1.00  0.00     0.186 C 
ATOM      7  H2  UNL     1      -3.170   1.802   1.235  1.00  0.00     0.165 HD
HETATM    8  N1  UNL     1      -5.549   2.479   2.042  1.00  0.00    -0.064 NA
HETATM    9  N7  UNL     1      -6.129   1.321  -0.054  1.00  0.00    -0.362 N 
HETATM   10  C12 UNL     1      -5.964   0.023  -0.670  1.00  0.00     0.160 C 
ATOM     11  H7  UNL     1      -6.934   1.905  -0.282  1.00  0.00     0.162 HD
HETATM   12  C11 UNL     1      -4.532  -0.407  -0.791  1.00  0.00     0.257 C 
BRANCH  12  13
HETATM   13  N6  UNL     1      -4.304  -1.487   0.121  1.00  0.00    -0.069 N 
ATOM     14  H63 UNL     1      -3.331  -1.788   0.074  1.00  0.00     0.275 HD
ATOM     15  H62 UNL     1      -4.340  -1.150   1.083  1.00  0.00     0.275 HD
ATOM     16  H61 UNL     1      -4.926  -2.287   0.005  1.00  0.00     0.275 HD
ENDBRANCH  12  13
BRANCH   4  17
HETATM   17  O1  UNL     1      -3.967   1.669  -1.658  1.00  0.00    -0.367 OA
ATOM     18  H1  UNL     1      -3.772   1.191  -2.455  1.00  0.00     0.212 HD
ENDBRANCH   4  17
ENDBRANCH   3   4
ENDBRANCH   1   3
BRANCH   1  19
HETATM   19  N4  UNL     1      -0.224  -0.615   0.001  1.00  0.00    -0.270 N 
HETATM   20  C4  UNL     1       0.393  -1.240  -1.065  1.00  0.00     0.274 C 
HETATM   21  O2  UNL     1      -0.284  -1.679  -2.024  1.00  0.00    -0.265 OA
ATOM     22  H4  UNL     1       0.383  -0.286   0.752  1.00  0.00     0.190 HD
BRANCH  20  23
HETATM   23  C5  UNL     1       1.838  -1.403  -1.097  1.00  0.00     0.161 C 
HETATM   24  N5  UNL     1       2.601  -0.980  -0.151  1.00  0.00    -0.368 N 
ATOM     25  H5  UNL     1       2.209  -0.510   0.665  1.00  0.00     0.161 HD
BRANCH  24  26
HETATM   26  C6  UNL     1       4.025  -1.187  -0.273  1.00  0.00     0.222 C 
HETATM   27  C7  UNL     1       4.674  -1.289   1.075  1.00  0.00     0.088 C 
HETATM   28  C8  UNL     1       6.077  -0.721   1.018  1.00  0.00     0.153 C 
HETATM   29  C9  UNL     1       6.047   0.749   0.639  1.00  0.00     0.170 C 
HETATM   30  C10 UNL     1       4.747   0.986  -0.119  1.00  0.00     0.204 C 
HETATM   31  O5  UNL     1       4.526  -0.092  -0.975  1.00  0.00    -0.364 OA
BRANCH  28  32
HETATM   32  O3  UNL     1       6.789  -1.391   0.045  1.00  0.00    -0.393 OA
ATOM     33  H3  UNL     1       7.669  -1.035   0.009  1.00  0.00     0.210 HD
ENDBRANCH  28  32
BRANCH  29  34
HETATM   34  O4  UNL     1       7.100   1.123  -0.162  1.00  0.00    -0.391 OA
ATOM     35  H4  UNL     1       7.081   2.043  -0.399  1.00  0.00     0.210 HD
ENDBRANCH  29  34
ENDBRANCH  24  26
ENDBRANCH  20  23
ENDBRANCH   1  19
TORSDOF 9
