REMARK  6 active torsions:
REMARK  status: ('A' for Active; 'I' for Inactive)
REMARK    1  A    between atoms: N2_5  and  S1_7 
REMARK    2  A    between atoms: S1_7  and  N3_10 
REMARK    3  A    between atoms: N3_10  and  N4_12 
REMARK    4  A    between atoms: N4_12  and  C4_14 
REMARK    5  A    between atoms: C4_14  and  N5_16 
REMARK    6  A    between atoms: N5_16  and  N6_18 
ROOT
HETATM    1  C1  UNL     1       5.224   1.365  -2.041  1.00  0.00     0.020 C 
HETATM    2  C2  UNL     1       4.895   0.813  -1.020  1.00  0.00    -0.044 C 
HETATM    3  C3  UNL     1       4.528   0.153   0.199  1.00  0.00     0.180 C 
HETATM    4  N1  UNL     1       5.471   0.000   1.242  1.00  0.00    -0.072 NA
HETATM    5  N2  UNL     1       3.350  -0.294   0.338  1.00  0.00    -0.247 N 
ATOM      6  H2  UNL     1       3.111  -0.759   1.214  1.00  0.00     0.182 HD
ENDROOT
BRANCH   5   7
HETATM    7  S1  UNL     1       2.131  -0.159  -0.871  1.00  0.00     0.338 S 
HETATM    8  O1  UNL     1       1.656   1.269  -0.905  1.00  0.00    -0.181 OA
HETATM    9  O2  UNL     1       2.731  -0.526  -2.211  1.00  0.00    -0.181 OA
BRANCH   7  10
HETATM   10  N3  UNL     1       0.860  -1.178  -0.527  1.00  0.00    -0.207 N 
ATOM     11  H3  UNL     1       0.851  -2.134  -0.882  1.00  0.00     0.201 HD
BRANCH  10  12
HETATM   12  N4  UNL     1      -0.161  -0.714   0.232  1.00  0.00    -0.264 N 
ATOM     13  H4  UNL     1      -0.090  -0.762   1.248  1.00  0.00     0.190 HD
BRANCH  12  14
HETATM   14  C4  UNL     1      -1.329  -0.162  -0.359  1.00  0.00     0.206 C 
HETATM   15  S2  UNL     1      -1.462  -0.075  -1.983  1.00  0.00    -0.038 SA
BRANCH  14  16
HETATM   16  N5  UNL     1      -2.398   0.323   0.441  1.00  0.00    -0.273 N 
ATOM     17  H5  UNL     1      -2.305   0.264   1.455  1.00  0.00     0.189 HD
BRANCH  16  18
HETATM   18  N6  UNL     1      -3.555   0.869  -0.075  1.00  0.00    -0.274 N 
HETATM   19  C5  UNL     1      -4.686   0.538   0.442  1.00  0.00     0.215 C 
HETATM   20  N7  UNL     1      -4.770  -0.373   1.526  1.00  0.00    -0.065 NA
HETATM   21  N8  UNL     1      -5.881   1.090  -0.076  1.00  0.00    -0.065 NA
ATOM     22  H6  UNL     1      -3.515   1.525  -0.855  1.00  0.00     0.189 HD
ENDBRANCH  16  18
ENDBRANCH  14  16
ENDBRANCH  12  14
ENDBRANCH  10  12
ENDBRANCH   7  10
ENDBRANCH   5   7
TORSDOF 6
