REMARK  6 active torsions:
REMARK  status: ('A' for Active; 'I' for Inactive)
REMARK       I    between atoms: N1_2  and  C3_4 
REMARK       I    between atoms: C3_4  and  N2_6 
REMARK    1  A    between atoms: N2_6  and  N3_8 
REMARK    2  A    between atoms: N3_8  and  C4_10 
REMARK    3  A    between atoms: C4_10  and  N4_12 
REMARK    4  A    between atoms: N4_12  and  N5_14 
REMARK       I    between atoms: N5_14  and  C5_16 
REMARK    5  A    between atoms: C5_16  and  C6_18 
REMARK    6  A    between atoms: C6_18  and  N6_19 
REMARK       I    between atoms: N6_19  and  C7_21 
ROOT
HETATM    1  N4  UNL     1      -0.433  -1.516   0.750  1.00  0.00    -0.272 N 
ATOM      2  H4  UNL     1      -0.695  -1.681   1.722  1.00  0.00     0.189 HD
ENDROOT
BRANCH   1   3
HETATM    3  C4  UNL     1       0.918  -1.153   0.389  1.00  0.00     0.205 C 
HETATM    4  S1  UNL     1       1.315  -0.894  -1.161  1.00  0.00    -0.038 SA
BRANCH   3   5
HETATM    5  N3  UNL     1       1.892  -1.033   1.401  1.00  0.00    -0.271 N 
ATOM      6  H3  UNL     1       1.661  -1.206   2.379  1.00  0.00     0.189 HD
BRANCH   5   7
HETATM    7  N2  UNL     1       3.193  -0.667   1.014  1.00  0.00    -0.249 N 
HETATM    8  C3  UNL     1       3.405   0.667   0.581  1.00  0.00     0.336 C 
HETATM    9  N1  UNL     1       4.710   1.045   0.187  1.00  0.00    -0.342 N 
HETATM   10  O1  UNL     1       2.435   1.479   0.558  1.00  0.00    -0.245 OA
HETATM   11  C1  UNL     1       4.947   2.394  -0.260  1.00  0.00     0.154 C 
HETATM   12  C2  UNL     1       5.796   0.090   0.231  1.00  0.00     0.154 C 
ATOM     13  H2  UNL     1       3.960  -1.339   1.044  1.00  0.00     0.192 HD
ENDBRANCH   5   7
ENDBRANCH   3   5
ENDBRANCH   1   3
BRANCH   1  14
HETATM   14  N5  UNL     1      -1.365  -1.633  -0.278  1.00  0.00    -0.263 N 
HETATM   15  C5  UNL     1      -2.597  -0.937  -0.224  1.00  0.00     0.275 C 
HETATM   16  O2  UNL     1      -2.812  -0.224   0.777  1.00  0.00    -0.265 OA
ATOM     17  H5  UNL     1      -1.158  -2.228  -1.080  1.00  0.00     0.190 HD
BRANCH  15  18
HETATM   18  C6  UNL     1      -3.599  -1.055  -1.326  1.00  0.00     0.166 C 
BRANCH  18  19
HETATM   19  N6  UNL     1      -4.763  -0.377  -1.218  1.00  0.00    -0.338 N 
HETATM   20  C7  UNL     1      -5.579   0.315  -0.661  1.00  0.00     0.201 C 
HETATM   21  N7  UNL     1      -6.815   0.665  -1.361  1.00  0.00    -0.067 NA
HETATM   22  N8  UNL     1      -5.509   0.864   0.642  1.00  0.00    -0.067 NA
ATOM     23  H6  UNL     1      -5.201  -0.548  -2.123  1.00  0.00     0.167 HD
ENDBRANCH  18  19
ENDBRANCH  15  18
ENDBRANCH   1  14
TORSDOF 6
