REMARK  15 active torsions:
REMARK  status: ('A' for Active; 'I' for Inactive)
REMARK    1  A    between atoms: C2_2  and  C3_3 
REMARK    2  A    between atoms: C3_3  and  C5_5 
REMARK    3  A    between atoms: C5_5  and  C6_6 
REMARK    4  A    between atoms: C5_5  and  C20_33 
REMARK       I    between atoms: C6_6  and  N1_8 
REMARK    5  A    between atoms: N1_8  and  C7_10 
REMARK    6  A    between atoms: C7_10  and  C8_11 
REMARK    7  A    between atoms: C9_13  and  O3_14 
REMARK    8  A    between atoms: O3_14  and  C10_15 
REMARK    9  A    between atoms: C10_15  and  C11_16 
REMARK   10  A    between atoms: C14_19  and  O4_20 
REMARK   11  A    between atoms: C17_24  and  O5_25 
REMARK   12  A    between atoms: C18_27  and  O6_28 
REMARK   13  A    between atoms: C19_30  and  O7_31 
REMARK   14  A    between atoms: C20_33  and  O8_34 
REMARK   15  A    between atoms: C20_33  and  O9_36 
ROOT
HETATM    1  C8  UNL     1       0.245   1.822   0.710  1.00  0.00     0.096 C 
HETATM    2  O2  UNL     1       0.541   0.599   0.168  1.00  0.00    -0.318 OA
HETATM    3  C9  UNL     1       1.492  -0.140   0.800  1.00  0.00     0.297 C 
HETATM    4  C17 UNL     1       1.676   0.072   2.252  1.00  0.00     0.205 C 
HETATM    5  C18 UNL     1       1.413   1.441   2.757  1.00  0.00     0.187 C 
HETATM    6  C19 UNL     1       0.027   1.849   2.167  1.00  0.00     0.207 C 
ENDROOT
BRANCH   1   7
HETATM    7  C7  UNL     1      -0.703   2.608  -0.103  1.00  0.00     0.126 C 
BRANCH   7   8
HETATM    8  N1  UNL     1      -1.961   2.087  -0.450  1.00  0.00    -0.334 N 
HETATM    9  C6  UNL     1      -3.078   1.697   0.295  1.00  0.00     0.230 C 
HETATM   10  O1  UNL     1      -3.098   1.784   1.534  1.00  0.00    -0.273 OA
ATOM     11  H1  UNL     1      -2.085   1.969  -1.455  1.00  0.00     0.168 HD
BRANCH   9  12
HETATM   12  C5  UNL     1      -4.321   1.148  -0.358  1.00  0.00     0.137 C 
BRANCH  12  13
HETATM   13  C3  UNL     1      -3.999  -0.114  -1.115  1.00  0.00    -0.001 C 
HETATM   14  C4  UNL     1      -3.269  -1.123  -0.297  1.00  0.00     0.011 C 
BRANCH  13  15
HETATM   15  C2  UNL     1      -5.225  -0.647  -1.777  1.00  0.00     0.001 C 
HETATM   16  C1  UNL     1      -4.866  -1.803  -2.722  1.00  0.00     0.005 C 
ENDBRANCH  13  15
ENDBRANCH  12  13
BRANCH  12  17
HETATM   17  C20 UNL     1      -5.364   1.005   0.697  1.00  0.00     0.269 C 
BRANCH  17  18
HETATM   18  O8  UNL     1      -5.504   2.315   1.255  1.00  0.00    -0.370 OA
ATOM     19  H8  UNL     1      -6.169   2.224   1.927  1.00  0.00     0.212 HD
ENDBRANCH  17  18
BRANCH  17  20
HETATM   20  O9  UNL     1      -5.021   0.125   1.718  1.00  0.00    -0.365 OA
HETATM   21  C21 UNL     1      -5.980  -0.801   2.035  1.00  0.00     0.204 C 
ENDBRANCH  17  20
ENDBRANCH  12  17
ENDBRANCH   9  12
ENDBRANCH   7   8
ENDBRANCH   1   7
BRANCH   6  22
HETATM   22  O7  UNL     1      -0.289   3.120   2.642  1.00  0.00    -0.386 OA
ATOM     23  H7  UNL     1      -0.430   3.137   3.581  1.00  0.00     0.210 HD
ENDBRANCH   6  22
BRANCH   3  24
HETATM   24  O3  UNL     1       2.701   0.024   0.125  1.00  0.00    -0.357 OA
BRANCH  24  25
HETATM   25  C10 UNL     1       3.134  -1.155  -0.482  1.00  0.00     0.179 C 
BRANCH  25  26
HETATM   26  C11 UNL     1       4.440  -0.891  -1.187  1.00  0.00     0.032 C 
HETATM   27  C12 UNL     1       5.466  -0.433  -0.213  1.00  0.00    -0.021 C 
HETATM   28  C13 UNL     1       6.705  -0.280  -0.681  1.00  0.00     0.001 C 
HETATM   29  C14 UNL     1       6.885  -0.599  -2.142  1.00  0.00     0.140 C 
HETATM   30  C15 UNL     1       6.333  -1.993  -2.362  1.00  0.00     0.036 C 
HETATM   31  C16 UNL     1       4.959  -2.176  -1.801  1.00  0.00     0.013 C 
BRANCH  29  32
HETATM   32  O4  UNL     1       8.237  -0.560  -2.398  1.00  0.00    -0.392 OA
ATOM     33  H4  UNL     1       8.351  -0.761  -3.319  1.00  0.00     0.210 HD
ENDBRANCH  29  32
ENDBRANCH  25  26
ENDBRANCH  24  25
ENDBRANCH   3  24
BRANCH   5  34
HETATM   34  O6  UNL     1       2.320   2.362   2.287  1.00  0.00    -0.390 OA
ATOM     35  H6  UNL     1       2.151   3.239   2.611  1.00  0.00     0.210 HD
ENDBRANCH   5  34
BRANCH   4  36
HETATM   36  O5  UNL     1       2.985  -0.276   2.638  1.00  0.00    -0.388 OA
ATOM     37  H5  UNL     1       3.103  -0.140   3.571  1.00  0.00     0.210 HD
ENDBRANCH   4  36
TORSDOF 15
