REMARK  5 active torsions:
REMARK  status: ('A' for Active; 'I' for Inactive)
REMARK    1  A    between atoms: C3_3  and  N1_4 
REMARK    2  A    between atoms: N1_4  and  C5_6 
REMARK    3  A    between atoms: C7_8  and  C8_9 
REMARK    4  A    between atoms: C8_9  and  C9_10 
REMARK    5  A    between atoms: C11_23  and  N7_24 
ROOT
HETATM    1  C1  UNL     1      -3.689  -3.796   0.239  1.00  0.00     0.013 C 
HETATM    2  C2  UNL     1      -2.728  -3.188  -0.174  1.00  0.00    -0.087 C 
HETATM    3  C3  UNL     1      -1.552  -2.447  -0.704  1.00  0.00     0.365 C 
ENDROOT
BRANCH   3   4
HETATM    4  N1  UNL     1      -1.642  -1.083  -0.125  1.00  0.00     0.104 N 
HETATM    5  C4  UNL     1      -1.346  -1.331   1.303  1.00  0.00     0.311 C 
BRANCH   4   6
HETATM    6  C5  UNL     1      -0.631  -0.292  -0.770  1.00  0.00     0.266 C 
HETATM    7  C6  UNL     1       0.779  -0.695  -0.420  1.00  0.00     0.074 C 
HETATM    8  C7  UNL     1       1.798   0.032  -1.221  1.00  0.00     0.140 C 
HETATM    9  O1  UNL     1       1.256   1.149  -1.950  1.00  0.00    -0.329 OA
HETATM   10  C10 UNL     1       0.229   1.896  -1.339  1.00  0.00     0.169 A 
HETATM   11  N6  UNL     1       0.159   3.214  -1.326  1.00  0.00    -0.170 N 
HETATM   12  C13 UNL     1      -0.782   1.160  -0.705  1.00  0.00     0.068 A 
HETATM   13  C11 UNL     1      -0.840   3.915  -0.733  1.00  0.00     0.679 A 
ATOM     14  H6  UNL     1       0.901   3.738  -1.790  1.00  0.00     0.186 HD
HETATM   15  N8  UNL     1      -1.814   3.237  -0.125  1.00  0.00    -0.178 N 
HETATM   16  C12 UNL     1      -1.793   1.867  -0.106  1.00  0.00     0.144 A 
ATOM     17  H8  UNL     1      -2.577   3.740   0.328  1.00  0.00     0.185 HD
HETATM   18  N9  UNL     1      -2.890   1.266   0.537  1.00  0.00    -0.081 NA
BRANCH   8  19
HETATM   19  C8  UNL     1       2.899   0.635  -0.374  1.00  0.00     0.112 C 
BRANCH  19  20
HETATM   20  C9  UNL     1       3.657  -0.361   0.418  1.00  0.00     0.115 A 
HETATM   21  N2  UNL     1       4.763  -1.061   0.105  1.00  0.00    -0.272 N 
HETATM   22  N3  UNL     1       5.087  -1.823   1.134  1.00  0.00    -0.227 N 
ATOM     23  H2  UNL     1       5.267  -1.011  -0.780  1.00  0.00     0.190 HD
HETATM   24  N4  UNL     1       4.238  -1.647   2.105  1.00  0.00    -0.227 N 
ATOM     25  H3  UNL     1       5.886  -2.457   1.164  1.00  0.00     0.210 HD
HETATM   26  N5  UNL     1       3.359  -0.757   1.683  1.00  0.00    -0.272 N 
ATOM     27  H4  UNL     1       4.250  -2.107   3.015  1.00  0.00     0.210 HD
ATOM     28  H5  UNL     1       2.568  -0.415   2.229  1.00  0.00     0.190 HD
ENDBRANCH  19  20
ENDBRANCH   8  19
BRANCH  13  29
HETATM   29  N7  UNL     1      -0.759   5.188  -0.812  1.00  0.00    -0.234 N 
ATOM     30  H72 UNL     1      -0.014   5.707  -1.277  1.00  0.00     0.174 HD
ATOM     31  H71 UNL     1      -1.510   5.715  -0.366  1.00  0.00     0.174 HD
ENDBRANCH  13  29
ENDBRANCH   4   6
ENDBRANCH   3   4
TORSDOF 5
