REMARK  16 active torsions:
REMARK  status: ('A' for Active; 'I' for Inactive)
REMARK    1  A    between atoms: C2_2  and  C3_3 
REMARK    2  A    between atoms: C3_3  and  O1_4 
REMARK    3  A    between atoms: O1_4  and  C4_5 
REMARK    4  A    between atoms: C5_6  and  C6_7 
REMARK    5  A    between atoms: C6_7  and  C7_8 
REMARK    6  A    between atoms: C7_8  and  C8_9 
REMARK    7  A    between atoms: C8_9  and  C10_11 
REMARK    8  A    between atoms: C8_9  and  O2_13 
REMARK    9  A    between atoms: C16_19  and  O4_20 
REMARK   10  A    between atoms: O4_20  and  C17_21 
REMARK   11  A    between atoms: C21_26  and  O6_27 
REMARK   12  A    between atoms: O6_27  and  C22_28 
REMARK   13  A    between atoms: C25_32  and  O8_33 
REMARK   14  A    between atoms: C26_35  and  O9_36 
REMARK   15  A    between atoms: C28_38  and  O10_39 
REMARK   16  A    between atoms: C33_46  and  N1_47 
ROOT
HETATM    1  C4  UNL     1      -2.371   1.591  -0.166  1.00  0.00     0.174 C 
HETATM    2  C5  UNL     1      -2.405   0.261   0.398  1.00  0.00    -0.040 C 
HETATM    3  C13 UNL     1      -1.748  -0.932  -0.166  1.00  0.00    -0.008 C 
HETATM    4  C14 UNL     1      -1.339  -1.857   0.971  1.00  0.00     0.052 C 
HETATM    5  C15 UNL     1      -0.715  -1.020  -1.162  1.00  0.00     0.189 C 
HETATM    6  O3  UNL     1      -0.987  -0.662  -2.319  1.00  0.00    -0.289 OA
HETATM    7  C16 UNL     1       0.674  -1.510  -0.924  1.00  0.00     0.237 C 
HETATM    8  C19 UNL     1       1.748  -0.448  -1.117  1.00  0.00    -0.019 C 
HETATM    9  C20 UNL     1       2.019  -0.144  -2.352  1.00  0.00     0.020 C 
HETATM   10  C21 UNL     1       2.449   0.161   0.024  1.00  0.00     0.188 C 
HETATM   11  C29 UNL     1       2.473   1.601   0.276  1.00  0.00    -0.005 C 
HETATM   12  C30 UNL     1       3.153   2.426  -0.830  1.00  0.00     0.050 C 
HETATM   13  C31 UNL     1       1.289   2.298   0.799  1.00  0.00     0.156 C 
HETATM   14  O11 UNL     1       1.299   3.232   1.532  1.00  0.00    -0.293 OA
HETATM   15  C32 UNL     1      -0.005   1.746   0.346  1.00  0.00     0.111 C 
HETATM   16  C33 UNL     1      -1.221   2.516   0.476  1.00  0.00     0.118 C 
ENDROOT
BRANCH  10  17
HETATM   17  O6  UNL     1       3.835  -0.155  -0.177  1.00  0.00    -0.344 OA
BRANCH  17  18
HETATM   18  C22 UNL     1       4.297  -1.167   0.587  1.00  0.00     0.292 C 
HETATM   19  O7  UNL     1       4.896  -2.082  -0.277  1.00  0.00    -0.351 OA
HETATM   20  C23 UNL     1       5.927  -1.380  -0.955  1.00  0.00     0.152 C 
HETATM   21  C24 UNL     1       6.229  -1.931  -2.311  1.00  0.00     0.042 C 
HETATM   22  C25 UNL     1       7.085  -1.352  -0.002  1.00  0.00     0.178 C 
HETATM   23  C26 UNL     1       6.687  -0.484   1.149  1.00  0.00     0.185 C 
HETATM   24  C28 UNL     1       5.309  -0.829   1.644  1.00  0.00     0.204 C 
BRANCH  22  25
HETATM   25  O8  UNL     1       7.335  -2.663   0.416  1.00  0.00    -0.390 OA
ATOM     26  H8  UNL     1       8.068  -2.645   1.020  1.00  0.00     0.210 HD
ENDBRANCH  22  25
BRANCH  23  27
HETATM   27  O9  UNL     1       7.541  -0.834   2.234  1.00  0.00    -0.385 OA
HETATM   28  C27 UNL     1       8.201   0.296   2.654  1.00  0.00     0.202 C 
ENDBRANCH  23  27
BRANCH  24  29
HETATM   29  O10 UNL     1       4.884   0.030   2.620  1.00  0.00    -0.388 OA
ATOM     30  H10 UNL     1       5.524   0.244   3.289  1.00  0.00     0.210 HD
ENDBRANCH  24  29
ENDBRANCH  17  18
ENDBRANCH  10  17
BRANCH   7  31
HETATM   31  O4  UNL     1       0.931  -2.607  -1.785  1.00  0.00    -0.304 OA
BRANCH  31  32
HETATM   32  C17 UNL     1       1.314  -3.845  -1.347  1.00  0.00     0.255 C 
HETATM   33  C18 UNL     1       1.594  -5.032  -2.191  1.00  0.00     0.126 C 
HETATM   34  O5  UNL     1       1.446  -4.022  -0.107  1.00  0.00    -0.266 OA
ENDBRANCH  31  32
ENDBRANCH   7  31
BRANCH  16  35
HETATM   35  N1  UNL     1      -1.135   3.693  -0.261  1.00  0.00    -0.413 N 
HETATM   36  C34 UNL     1      -1.242   4.935   0.410  1.00  0.00     0.143 C 
HETATM   37  C35 UNL     1      -0.479   3.786  -1.490  1.00  0.00     0.143 C 
ENDBRANCH  16  35
BRANCH   2  38
HETATM   38  C6  UNL     1      -3.785  -0.295   0.845  1.00  0.00     0.041 C 
BRANCH  38  39
HETATM   39  C7  UNL     1      -4.819  -0.490  -0.157  1.00  0.00     0.046 C 
BRANCH  39  40
HETATM   40  C8  UNL     1      -6.051  -1.269   0.398  1.00  0.00     0.074 C 
HETATM   41  C9  UNL     1      -7.050  -1.332  -0.788  1.00  0.00     0.050 C 
BRANCH  40  42
HETATM   42  C10 UNL     1      -5.699  -2.689   0.636  1.00  0.00     0.000 C 
HETATM   43  C11 UNL     1      -5.289  -3.167   1.782  1.00  0.00     0.010 C 
ENDBRANCH  40  42
BRANCH  40  44
HETATM   44  O2  UNL     1      -6.556  -0.632   1.470  1.00  0.00    -0.381 OA
HETATM   45  C12 UNL     1      -7.662  -1.153   2.076  1.00  0.00     0.202 C 
ENDBRANCH  40  44
ENDBRANCH  39  40
ENDBRANCH  38  39
ENDBRANCH   2  38
BRANCH   1  46
HETATM   46  O1  UNL     1      -3.511   2.267   0.048  1.00  0.00    -0.376 OA
BRANCH  46  47
HETATM   47  C3  UNL     1      -4.176   3.056  -0.793  1.00  0.00     0.195 C 
BRANCH  47  48
HETATM   48  C2  UNL     1      -5.318   3.669  -0.006  1.00  0.00    -0.011 C 
HETATM   49  C1  UNL     1      -6.585   3.516  -0.300  1.00  0.00     0.009 C 
ENDBRANCH  47  48
ENDBRANCH  46  47
ENDBRANCH   1  46
TORSDOF 16
