REMARK  2 active torsions:
REMARK  status: ('A' for Active; 'I' for Inactive)
REMARK    1  A    between atoms: C4_4  and  N1_5 
REMARK    2  A    between atoms: C7_11  and  N2_13 
ROOT
HETATM    1  C1  UNL     1      -1.321  -2.052   0.031  1.00  0.00     0.012 C 
HETATM    2  C2  UNL     1      -0.392  -0.866   0.323  1.00  0.00     0.019 C 
HETATM    3  C3  UNL     1       0.952  -1.239  -0.183  1.00  0.00     0.039 C 
HETATM    4  C4  UNL     1       1.945  -0.157  -0.297  1.00  0.00     0.184 C 
HETATM    5  C5  UNL     1       1.413   1.230  -0.182  1.00  0.00     0.035 C 
HETATM    6  C6  UNL     1       0.047   1.366  -0.748  1.00  0.00     0.040 C 
HETATM    7  C7  UNL     1      -0.942   0.419  -0.146  1.00  0.00     0.123 C 
HETATM    8  C8  UNL     1      -1.676   1.121   1.006  1.00  0.00     0.046 C 
ENDROOT
BRANCH   7   9
HETATM    9  N2  UNL     1      -1.978   0.220  -1.175  1.00  0.00    -0.070 N 
ATOM     10  H23 UNL     1      -1.630  -0.342  -1.951  1.00  0.00     0.275 HD
ATOM     11  H22 UNL     1      -2.715  -0.404  -0.847  1.00  0.00     0.275 HD
ATOM     12  H21 UNL     1      -2.359   1.109  -1.499  1.00  0.00     0.275 HD
ENDBRANCH   7   9
BRANCH   4  13
HETATM   13  N1  UNL     1       3.013  -0.293   0.707  1.00  0.00    -0.075 N 
ATOM     14  H13 UNL     1       2.631  -0.350   1.651  1.00  0.00     0.274 HD
ATOM     15  H12 UNL     1       3.455  -1.211   0.658  1.00  0.00     0.274 HD
ATOM     16  H11 UNL     1       3.701   0.456   0.628  1.00  0.00     0.274 HD
ENDBRANCH   4  13
TORSDOF 2
