REMARK  7 active torsions:
REMARK  status: ('A' for Active; 'I' for Inactive)
REMARK    1  A    between atoms: C2_2  and  C4_4 
REMARK    2  A    between atoms: C4_4  and  S1_5 
REMARK    3  A    between atoms: S1_5  and  C5_6 
REMARK    4  A    between atoms: C5_6  and  N1_8 
REMARK    5  A    between atoms: N1_8  and  C6_10 
REMARK    6  A    between atoms: C6_10  and  C7_15 
REMARK    7  A    between atoms: N2_11  and  O1_13 
ROOT
HETATM    1  C6  UNL     1      -1.849  -1.261  -0.505  1.00  0.00     0.143 C 
HETATM    2  N2  UNL     1      -2.135  -2.420  -0.903  1.00  0.00    -0.252 N 
ATOM      3  H2  UNL     1      -1.327  -3.016  -1.082  1.00  0.00     0.196 HD
ENDROOT
BRANCH   1   4
HETATM    4  N1  UNL     1      -0.476  -0.913  -0.348  1.00  0.00    -0.326 N 
ATOM      5  H1  UNL     1       0.139  -1.548   0.161  1.00  0.00     0.169 HD
BRANCH   4   6
HETATM    6  C5  UNL     1       0.066   0.294  -0.879  1.00  0.00     0.140 C 
HETATM    7  S2  UNL     1      -0.861   1.356  -1.704  1.00  0.00    -0.053 SA
BRANCH   6   8
HETATM    8  S1  UNL     1       1.788   0.721  -0.676  1.00  0.00    -0.100 SA
BRANCH   8   9
HETATM    9  C4  UNL     1       2.651  -0.571   0.255  1.00  0.00     0.085 C 
BRANCH   9  10
HETATM   10  C2  UNL     1       4.097  -0.267   0.454  1.00  0.00    -0.013 C 
HETATM   11  C1  UNL     1       4.829  -0.122  -0.881  1.00  0.00     0.010 C 
HETATM   12  C3  UNL     1       4.350   0.920   1.339  1.00  0.00     0.010 C 
ENDBRANCH   9  10
ENDBRANCH   8   9
ENDBRANCH   6   8
ENDBRANCH   4   6
ENDBRANCH   1   4
BRANCH   1  13
HETATM   13  C7  UNL     1      -2.827  -0.246  -0.209  1.00  0.00     0.093 A 
HETATM   14  C8  UNL     1      -3.892   0.095  -1.020  1.00  0.00     0.175 A 
HETATM   15  F1  UNL     1      -4.058  -0.521  -2.229  1.00  0.00    -0.202 F 
HETATM   16  C9  UNL     1      -4.817   1.064  -0.682  1.00  0.00     0.197 A 
HETATM   17  F2  UNL     1      -5.858   1.387  -1.487  1.00  0.00    -0.199 F 
HETATM   18  C10 UNL     1      -4.677   1.725   0.517  1.00  0.00     0.199 A 
HETATM   19  F3  UNL     1      -5.548   2.696   0.926  1.00  0.00    -0.199 F 
HETATM   20  C11 UNL     1      -3.615   1.390   1.330  1.00  0.00     0.197 A 
HETATM   21  F4  UNL     1      -3.432   2.024   2.538  1.00  0.00    -0.199 F 
HETATM   22  C12 UNL     1      -2.686   0.431   1.014  1.00  0.00     0.175 A 
HETATM   23  F5  UNL     1      -1.639   0.119   1.843  1.00  0.00    -0.202 F 
ENDBRANCH   1  13
BRANCH   2  24
HETATM   24  O1  UNL     1      -3.323  -3.009  -1.133  1.00  0.00    -0.288 OA
ATOM     25  H1  UNL     1      -3.539  -3.884  -1.433  1.00  0.00     0.244 HD
ENDBRANCH   2  24
TORSDOF 7
