REMARK  2 active torsions:
REMARK  status: ('A' for Active; 'I' for Inactive)
REMARK    1  A    between atoms: N1_1  and  C1_4 
REMARK    2  A    between atoms: C2_7  and  C3_8 
ROOT
HETATM    1  C1  UNL     1      -0.217   2.107   0.712  1.00  0.00     0.170 C 
HETATM    2  N2  UNL     1       0.831   1.281   0.887  1.00  0.00    -0.320 N 
ATOM      3  H2  UNL     1       1.609   1.648   1.435  1.00  0.00     0.169 HD
HETATM    4  C2  UNL     1       0.969   0.034   0.425  1.00  0.00     0.175 C 
HETATM    5  N4  UNL     1      -0.045  -0.791   0.095  1.00  0.00    -0.312 N 
ATOM      6  H4  UNL     1       0.254  -1.735  -0.148  1.00  0.00     0.170 HD
HETATM    7  C4  UNL     1      -1.375  -0.608   0.025  1.00  0.00     0.197 C 
HETATM    8  N5  UNL     1      -2.184  -1.757  -0.183  1.00  0.00    -0.063 NA
HETATM    9  N6  UNL     1      -1.998   0.581   0.136  1.00  0.00    -0.294 N 
ATOM     10  H6  UNL     1      -2.997   0.548  -0.065  1.00  0.00     0.172 HD
HETATM   11  C5  UNL     1      -1.542   1.809   0.465  1.00  0.00     0.291 C 
HETATM   12  O2  UNL     1      -2.380   2.743   0.552  1.00  0.00    -0.264 OA
ENDROOT
BRANCH   1  13
HETATM   13  N1  UNL     1       0.072   3.377   0.788  1.00  0.00    -0.381 N 
ATOM     14  H12 UNL     1       1.051   3.597   0.971  1.00  0.00     0.157 HD
ATOM     15  H11 UNL     1      -0.722   4.003   0.655  1.00  0.00     0.157 HD
ENDBRANCH   1  13
BRANCH   4  16
HETATM   16  C3  UNL     1       2.320  -0.496   0.258  1.00  0.00     0.298 C 
HETATM   17  N3  UNL     1       2.518  -1.816  -0.230  1.00  0.00    -0.054 NA
HETATM   18  O1  UNL     1       3.291   0.245   0.556  1.00  0.00    -0.268 OA
ENDBRANCH   4  16
TORSDOF 2
