REMARK  5 active torsions:
REMARK  status: ('A' for Active; 'I' for Inactive)
REMARK    1  A    between atoms: C4_4  and  C5_5 
REMARK    2  A    between atoms: C5_5  and  C6_6 
REMARK    3  A    between atoms: C6_6  and  C7_7 
REMARK    4  A    between atoms: C7_7  and  C8_8 
REMARK    5  A    between atoms: C8_8  and  C9_9 
ROOT
HETATM    1  C6  UNL     1       0.258  -0.216   0.429  1.00  0.00     0.005 C 
ENDROOT
BRANCH   1   2
HETATM    2  C5  UNL     1       1.176   0.334  -0.592  1.00  0.00     0.038 C 
BRANCH   2   3
HETATM    3  C4  UNL     1       2.602   0.239  -0.312  1.00  0.00    -0.058 A 
HETATM    4  C3  UNL     1       3.193   1.286   0.367  1.00  0.00     0.007 A 
HETATM    5  C2  UNL     1       4.537   1.296   0.683  1.00  0.00     0.001 A 
HETATM    6  C1  UNL     1       5.353   0.240   0.326  1.00  0.00     0.000 A 
HETATM    7  C14 UNL     1       4.754  -0.802  -0.352  1.00  0.00     0.001 A 
HETATM    8  C13 UNL     1       3.412  -0.815  -0.669  1.00  0.00     0.007 A 
ENDBRANCH   2   3
ENDBRANCH   1   2
BRANCH   1   9
HETATM    9  C7  UNL     1      -1.168  -0.016  -0.058  1.00  0.00     0.007 C 
BRANCH   9  10
HETATM   10  C8  UNL     1      -2.168  -0.556   0.940  1.00  0.00     0.065 C 
BRANCH  10  11
HETATM   11  C9  UNL     1      -3.526  -0.307   0.361  1.00  0.00     0.052 A 
HETATM   12  C10 UNL     1      -4.705  -0.668   0.994  1.00  0.00     0.034 A 
HETATM   13  C11 UNL     1      -5.724  -0.278   0.159  1.00  0.00     0.027 A 
HETATM   14  C12 UNL     1      -5.148   0.298  -0.938  1.00  0.00     0.142 A 
HETATM   15  O1  UNL     1      -3.848   0.256  -0.770  1.00  0.00    -0.327 OA
ENDBRANCH  10  11
ENDBRANCH   9  10
ENDBRANCH   1   9
TORSDOF 5
