REMARK  4 active torsions:
REMARK  status: ('A' for Active; 'I' for Inactive)
REMARK    1  A    between atoms: N1_1  and  C1_4 
REMARK    2  A    between atoms: N4_14  and  C5_15 
REMARK    3  A    between atoms: C5_15  and  C6_16 
REMARK    4  A    between atoms: C6_16  and  C7_17 
ROOT
HETATM    1  C1  UNL     1       4.025   1.046  -0.715  1.00  0.00     0.680 A 
HETATM    2  N2  UNL     1       4.991   0.336  -0.104  1.00  0.00    -0.154 N 
ATOM      3  H2  UNL     1       5.947   0.691  -0.107  1.00  0.00     0.187 HD
HETATM    4  C2  UNL     1       4.724  -0.832   0.511  1.00  0.00     0.290 A 
HETATM    5  O1  UNL     1       5.634  -1.490   1.080  1.00  0.00    -0.265 OA
HETATM    6  C3  UNL     1       3.411  -1.264   0.483  1.00  0.00     0.149 A 
HETATM    7  N3  UNL     1       2.810  -2.362   0.988  1.00  0.00    -0.325 N 
ATOM      8  H3  UNL     1       3.270  -3.106   1.513  1.00  0.00     0.168 HD
HETATM    9  C4  UNL     1       1.503  -2.309   0.682  1.00  0.00     0.183 A 
HETATM   10 CL1  UNL     1       0.347  -3.525   1.138  1.00  0.00    -0.044 Cl
HETATM   11  N4  UNL     1       1.224  -1.194  -0.017  1.00  0.00    -0.307 N 
HETATM   12  C12 UNL     1       2.411  -0.547  -0.139  1.00  0.00     0.158 A 
HETATM   13  N5  UNL     1       2.754   0.609  -0.731  1.00  0.00    -0.174 N 
ATOM     14  H5  UNL     1       2.038   1.164  -1.200  1.00  0.00     0.186 HD
ENDROOT
BRANCH  11  15
HETATM   15  C5  UNL     1      -0.042  -0.732  -0.549  1.00  0.00     0.133 C 
BRANCH  15  16
HETATM   16  C6  UNL     1      -0.778   0.136   0.450  1.00  0.00     0.025 C 
BRANCH  16  17
HETATM   17  C7  UNL     1      -2.083   0.585  -0.158  1.00  0.00    -0.013 C 
HETATM   18  C8  UNL     1      -2.873   1.453   0.777  1.00  0.00     0.005 C 
HETATM   19  C9  UNL     1      -4.313   1.055   0.645  1.00  0.00     0.000 C 
HETATM   20  C10 UNL     1      -4.372  -0.224  -0.137  1.00  0.00     0.000 C 
HETATM   21  C11 UNL     1      -2.971  -0.567  -0.525  1.00  0.00     0.005 C 
ENDBRANCH  16  17
ENDBRANCH  15  16
ENDBRANCH  11  15
BRANCH   1  22
HETATM   22  N1  UNL     1       4.321   2.151  -1.288  1.00  0.00    -0.234 N 
ATOM     23  H12 UNL     1       5.286   2.483  -1.276  1.00  0.00     0.174 HD
ATOM     24  H11 UNL     1       3.589   2.689  -1.751  1.00  0.00     0.174 HD
ENDBRANCH   1  22
TORSDOF 4
