REMARK  7 active torsions:
REMARK  status: ('A' for Active; 'I' for Inactive)
REMARK    1  A    between atoms: O1_2  and  N1_3 
REMARK    2  A    between atoms: N1_3  and  C2_5 
REMARK    3  A    between atoms: C3_9  and  N3_10 
REMARK    4  A    between atoms: C4_12  and  C5_13 
REMARK    5  A    between atoms: C5_13  and  C6_14 
REMARK    6  A    between atoms: C9_17  and  O2_18 
REMARK    7  A    between atoms: C10_20  and  C11_21 
ROOT
HETATM    1  C2  UNL     1       0.942  -0.552   1.887  1.00  0.00     0.123 A 
HETATM    2  S1  UNL     1       2.401  -0.171   2.658  1.00  0.00     0.008 SA
HETATM    3  N2  UNL     1       3.635   0.178   1.564  1.00  0.00    -0.308 N 
ATOM      4  H2  UNL     1       4.582   0.429   1.849  1.00  0.00     0.176 HD
HETATM    5  C3  UNL     1       3.248   0.093   0.273  1.00  0.00     0.145 A 
HETATM    6  C9  UNL     1       2.019  -0.230  -0.194  1.00  0.00     0.122 A 
HETATM    7  C10 UNL     1       0.880  -0.548   0.485  1.00  0.00     0.044 A 
ENDROOT
BRANCH   7   8
HETATM    8  C11 UNL     1      -0.432  -0.878  -0.086  1.00  0.00     0.066 C 
HETATM    9  C12 UNL     1      -0.584  -1.158  -1.535  1.00  0.00     0.068 C 
HETATM   10  C13 UNL     1      -1.788  -2.032  -1.104  1.00  0.00     0.130 C 
HETATM   11  C14 UNL     1      -0.959  -2.263   0.170  1.00  0.00     0.068 C 
HETATM   12  O3  UNL     1      -2.917  -1.326  -0.879  1.00  0.00    -0.355 OA
HETATM   13  C15 UNL     1      -2.760  -0.165  -0.120  1.00  0.00     0.139 C 
HETATM   14  C16 UNL     1      -3.738  -0.367   1.057  1.00  0.00     0.094 C 
HETATM   15  C23 UNL     1      -3.368   0.951  -0.942  1.00  0.00     0.049 C 
HETATM   16  N4  UNL     1      -1.441   0.062   0.322  1.00  0.00    -0.378 N 
HETATM   17  C17 UNL     1      -4.966  -0.934   0.461  1.00  0.00    -0.082 C 
HETATM   18  C18 UNL     1      -5.574  -2.187   0.928  1.00  0.00     0.043 C 
HETATM   19  C19 UNL     1      -5.519  -0.259  -0.535  1.00  0.00    -0.015 C 
HETATM   20  C20 UNL     1      -4.850   1.000  -0.953  1.00  0.00    -0.022 C 
HETATM   21  C21 UNL     1      -5.441   2.098  -0.102  1.00  0.00     0.019 C 
HETATM   22  C22 UNL     1      -5.347   1.274  -2.384  1.00  0.00     0.019 C 
HETATM   23  C24 UNL     1      -2.740   2.300  -0.645  1.00  0.00     0.016 C 
ATOM     24  H4  UNL     1      -1.211   0.863   0.910  1.00  0.00     0.157 HD
ENDBRANCH   7   8
BRANCH   1  25
HETATM   25  N1  UNL     1      -0.107  -0.845   2.591  1.00  0.00    -0.258 N 
ATOM     26  H1  UNL     1      -0.987  -1.074   2.128  1.00  0.00     0.195 HD
BRANCH  25  27
HETATM   27  O1  UNL     1      -0.029  -0.845   3.954  1.00  0.00    -0.284 OA
HETATM   28  C1  UNL     1      -0.011   0.295   4.764  1.00  0.00     0.237 C 
ENDBRANCH  25  27
ENDBRANCH   1  25
BRANCH   6  29
HETATM   29  O2  UNL     1       1.893  -0.239  -1.598  1.00  0.00    -0.356 OA
ATOM     30  H2  UNL     1       1.031  -0.466  -1.926  1.00  0.00     0.218 HD
ENDBRANCH   6  29
BRANCH   5  31
HETATM   31  N3  UNL     1       4.334   0.400  -0.644  1.00  0.00    -0.353 N 
HETATM   32  C4  UNL     1       5.270  -0.474  -0.757  1.00  0.00     0.063 C 
ATOM     33  H3  UNL     1       4.352   1.271  -1.175  1.00  0.00     0.166 HD
BRANCH  32  34
HETATM   34  C5  UNL     1       6.420  -0.247  -1.670  1.00  0.00     0.048 C 
BRANCH  34  35
HETATM   35  C6  UNL     1       7.686  -0.076  -0.862  1.00  0.00    -0.018 C 
HETATM   36  C7  UNL     1       7.480   1.124   0.043  1.00  0.00     0.010 C 
HETATM   37  C8  UNL     1       8.851   0.206  -1.774  1.00  0.00     0.010 C 
ENDBRANCH  34  35
ENDBRANCH  32  34
ENDBRANCH   5  31
TORSDOF 7
