REMARK  6 active torsions:
REMARK  status: ('A' for Active; 'I' for Inactive)
REMARK    1  A    between atoms: C3_5  and  C4_6 
REMARK       I    between atoms: C4_6  and  N2_8 
REMARK    2  A    between atoms: N2_8  and  N3_10 
REMARK    3  A    between atoms: C5_13  and  C6_14 
REMARK    4  A    between atoms: C6_14  and  O3_16 
REMARK    5  A    between atoms: O3_16  and  C7_17 
REMARK    6  A    between atoms: C7_17  and  N4_18 
ROOT
HETATM    1  C6  UNL     1      -0.121   1.778  -0.282  1.00  0.00     0.304 C 
HETATM    2  O2  UNL     1       0.247   3.015  -0.417  1.00  0.00    -0.259 OA
ENDROOT
BRANCH   1   3
HETATM    3  C5  UNL     1      -1.559   1.539  -0.405  1.00  0.00     0.114 A 
HETATM    4  C3  UNL     1      -2.342   0.426  -0.334  1.00  0.00     0.126 A 
HETATM    5  N1  UNL     1      -3.630   0.592  -0.498  1.00  0.00    -0.348 N 
HETATM    6  C2  UNL     1      -4.143   1.770  -0.720  1.00  0.00     0.048 A 
ATOM      7  H1  UNL     1      -4.247  -0.219  -0.451  1.00  0.00     0.166 HD
HETATM    8  C1  UNL     1      -5.596   2.151  -0.932  1.00  0.00     0.076 C 
HETATM    9  S1  UNL     1      -2.766   2.765  -0.710  1.00  0.00    -0.069 SA
BRANCH   4  10
HETATM   10  C4  UNL     1      -1.821  -0.953  -0.083  1.00  0.00     0.287 C 
HETATM   11  O1  UNL     1      -0.624  -1.192   0.082  1.00  0.00    -0.264 OA
HETATM   12  N2  UNL     1      -2.708  -2.064  -0.023  1.00  0.00    -0.271 N 
ATOM     13  H2  UNL     1      -3.711  -1.930  -0.151  1.00  0.00     0.189 HD
BRANCH  12  14
HETATM   14  N3  UNL     1      -2.193  -3.332   0.212  1.00  0.00    -0.342 N 
ATOM     15  H32 UNL     1      -1.188  -3.449   0.338  1.00  0.00     0.176 HD
ATOM     16  H31 UNL     1      -2.829  -4.128   0.255  1.00  0.00     0.176 HD
ENDBRANCH  12  14
ENDBRANCH   4  10
ENDBRANCH   1   3
BRANCH   1  17
HETATM   17  O3  UNL     1       0.884   0.912  -0.051  1.00  0.00    -0.296 OA
BRANCH  17  18
HETATM   18  C7  UNL     1       2.211   1.324   0.036  1.00  0.00     0.319 C 
BRANCH  18  19
HETATM   19  N4  UNL     1       3.139   0.271   0.286  1.00  0.00    -0.228 N 
HETATM   20  C8  UNL     1       3.749  -0.440  -0.676  1.00  0.00     0.336 A 
HETATM   21  O4  UNL     1       3.464  -0.134  -1.873  1.00  0.00    -0.246 OA
HETATM   22  N5  UNL     1       4.611  -1.418  -0.363  1.00  0.00    -0.260 N 
HETATM   23  C9  UNL     1       4.888  -1.712   0.926  1.00  0.00     0.332 A 
ATOM     24  H5  UNL     1       5.064  -1.947  -1.108  1.00  0.00     0.175 HD
HETATM   25  O5  UNL     1       5.696  -2.628   1.210  1.00  0.00    -0.246 OA
HETATM   26  N6  UNL     1       4.296  -1.023   1.894  1.00  0.00    -0.260 N 
HETATM   27  C10 UNL     1       3.430  -0.041   1.560  1.00  0.00     0.336 A 
ATOM     28  H6  UNL     1       4.491  -1.231   2.873  1.00  0.00     0.175 HD
HETATM   29  O6  UNL     1       2.881   0.600   2.501  1.00  0.00    -0.246 OA
ENDBRANCH  18  19
ENDBRANCH  17  18
ENDBRANCH   1  17
TORSDOF 6
