REMARK  5 active torsions:
REMARK  status: ('A' for Active; 'I' for Inactive)
REMARK    1  A    between atoms: C2_2  and  C5_5 
REMARK    2  A    between atoms: C8_8  and  C9_9 
REMARK    3  A    between atoms: C9_9  and  C10_10 
REMARK    4  A    between atoms: C10_10  and  N1_11 
REMARK    5  A    between atoms: N1_11  and  C11_13 
ROOT
HETATM    1  C10 UNL     1      -1.706   0.026   0.511  1.00  0.00     0.056 C 
ENDROOT
BRANCH   1   2
HETATM    2  C9  UNL     1      -1.050   0.773  -0.568  1.00  0.00     0.049 C 
BRANCH   2   3
HETATM    3  C8  UNL     1       0.463   0.645  -0.448  1.00  0.00    -0.010 C 
HETATM    4  C7  UNL     1       0.867  -0.809  -0.523  1.00  0.00     0.005 C 
HETATM    5  C6  UNL     1       2.338  -0.947  -0.875  1.00  0.00     0.005 C 
HETATM    6  C5  UNL     1       3.045   0.311  -0.445  1.00  0.00    -0.007 C 
HETATM    7  C17 UNL     1       2.489   0.693   0.917  1.00  0.00     0.005 C 
HETATM    8  C16 UNL     1       1.100   1.306   0.693  1.00  0.00     0.005 C 
BRANCH   6   9
HETATM    9  C2  UNL     1       4.546   0.108  -0.380  1.00  0.00    -0.048 C 
HETATM   10  C1  UNL     1       5.277   1.350   0.041  1.00  0.00     0.015 C 
HETATM   11  C3  UNL     1       4.910  -1.010   0.574  1.00  0.00     0.015 C 
HETATM   12  C4  UNL     1       5.025  -0.299  -1.758  1.00  0.00     0.015 C 
ENDBRANCH   6   9
ENDBRANCH   2   3
ENDBRANCH   1   2
BRANCH   1  13
HETATM   13  N1  UNL     1      -3.055  -0.038   0.726  1.00  0.00    -0.397 N 
ATOM     14  H1  UNL     1      -3.387   0.417   1.577  1.00  0.00     0.159 HD
BRANCH  13  15
HETATM   15  C11 UNL     1      -4.026  -0.631  -0.046  1.00  0.00     0.090 C 
HETATM   16  C12 UNL     1      -4.306  -0.012  -1.385  1.00  0.00     0.052 C 
HETATM   17  C13 UNL     1      -5.414   1.051  -1.211  1.00  0.00     0.179 C 
HETATM   18  O1  UNL     1      -6.623   0.312  -1.053  1.00  0.00    -0.339 OA
HETATM   19  C14 UNL     1      -6.489  -0.815  -0.217  1.00  0.00     0.113 C 
HETATM   20  N2  UNL     1      -7.255  -1.834  -0.284  1.00  0.00    -0.383 N 
HETATM   21  C15 UNL     1      -5.347  -0.683   0.758  1.00  0.00     0.108 C 
ATOM     22  H22 UNL     1      -8.028  -1.923  -0.944  1.00  0.00     0.157 HD
ATOM     23  H21 UNL     1      -7.158  -2.650   0.321  1.00  0.00     0.157 HD
ENDBRANCH  13  15
ENDBRANCH   1  13
TORSDOF 5
