REMARK  7 active torsions:
REMARK  status: ('A' for Active; 'I' for Inactive)
REMARK    1  A    between atoms: C2_2  and  C3_3 
REMARK    2  A    between atoms: C4_4  and  C5_5 
REMARK    3  A    between atoms: C14_14  and  O1_15 
REMARK    4  A    between atoms: O1_15  and  C15_16 
REMARK    5  A    between atoms: C15_16  and  O2_17 
REMARK    6  A    between atoms: C15_16  and  N1_19 
REMARK    7  A    between atoms: N1_19  and  N2_20 
ROOT
HETATM    1  C3  UNL     1      -2.329  -0.185   1.649  1.00  0.00     0.020 C 
HETATM    2  C4  UNL     1      -2.658  -1.448   0.828  1.00  0.00    -0.003 C 
HETATM    3  C7  UNL     1      -1.608  -1.568  -0.234  1.00  0.00     0.039 C 
HETATM    4  C8  UNL     1      -0.412  -0.937   0.502  1.00  0.00    -0.078 C 
HETATM    5  C9  UNL     1       0.815  -0.910  -0.259  1.00  0.00    -0.016 C 
HETATM    6  C10 UNL     1       1.174   0.061  -1.266  1.00  0.00     0.038 C 
HETATM    7  C11 UNL     1       0.157   1.176  -1.518  1.00  0.00     0.015 C 
HETATM    8  C12 UNL     1       0.251   1.933  -0.193  1.00  0.00    -0.011 C 
HETATM    9  C13 UNL     1       1.605   1.566   0.399  1.00  0.00     0.038 C 
HETATM   10  C14 UNL     1       2.297   0.993  -0.845  1.00  0.00     0.141 C 
HETATM   11  C16 UNL     1      -0.946   1.528   0.568  1.00  0.00     0.014 C 
HETATM   12  C17 UNL     1      -0.960   0.217   1.243  1.00  0.00     0.022 C 
ENDROOT
BRANCH  10  13
HETATM   13  O1  UNL     1       3.583   0.620  -0.753  1.00  0.00    -0.298 OA
BRANCH  13  14
HETATM   14  C15 UNL     1       4.572   1.280  -1.620  1.00  0.00     0.360 C 
BRANCH  14  15
HETATM   15  O2  UNL     1       3.895   2.133  -2.354  1.00  0.00    -0.314 OA
ATOM     16  H2  UNL     1       4.533   2.559  -2.914  1.00  0.00     0.222 HD
ENDBRANCH  14  15
BRANCH  14  17
HETATM   17  N1  UNL     1       5.849   1.099  -1.698  1.00  0.00    -0.280 NA
BRANCH  17  18
HETATM   18  N2  UNL     1       7.210   0.906  -1.781  1.00  0.00    -0.276 N 
ATOM     19  H22 UNL     1       6.202   1.045  -1.715  1.00  0.00     0.191 HD
ATOM     20  H21 UNL     1       8.218   0.763  -1.843  1.00  0.00     0.191 HD
ENDBRANCH  17  18
ENDBRANCH  14  17
ENDBRANCH  13  14
ENDBRANCH  10  13
BRANCH   2  21
HETATM   21  C5  UNL     1      -2.727  -2.636   1.736  1.00  0.00     0.001 C 
HETATM   22  C6  UNL     1      -3.102  -3.860   0.914  1.00  0.00     0.005 C 
ENDBRANCH   2  21
BRANCH   1  23
HETATM   23  C2  UNL     1      -3.494   0.651   1.576  1.00  0.00    -0.031 C 
HETATM   24  C1  UNL     1      -3.922   1.796   1.259  1.00  0.00     0.007 C 
ENDBRANCH   1  23
TORSDOF 7
