REMARK  6 active torsions:
REMARK  status: ('A' for Active; 'I' for Inactive)
REMARK    1  A    between atoms: C3_3  and  C4_4 
REMARK    2  A    between atoms: C5_5  and  O1_6 
REMARK    3  A    between atoms: O1_6  and  C6_7 
REMARK    4  A    between atoms: C9_10  and  N1_11 
REMARK    5  A    between atoms: N4_22  and  N5_24 
REMARK    6  A    between atoms: N5_24  and  C14_26 
ROOT
HETATM    1  C4  UNL     1      -0.227   0.153   0.314  1.00  0.00     0.060 A 
HETATM    2  C5  UNL     1       0.744   1.060   0.774  1.00  0.00     0.163 A 
HETATM    3  N2  UNL     1       0.646   2.355   0.429  1.00  0.00    -0.332 N 
ATOM      4  H2  UNL     1       1.352   3.009   0.767  1.00  0.00     0.168 HD
HETATM    5  C12 UNL     1      -0.347   2.818  -0.343  1.00  0.00     0.184 A 
HETATM    6  N3  UNL     1      -1.281   1.979  -0.793  1.00  0.00    -0.337 N 
ATOM      7  H3  UNL     1      -2.034   2.339  -1.380  1.00  0.00     0.168 HD
HETATM    8  C13 UNL     1      -1.252   0.657  -0.487  1.00  0.00     0.135 A 
HETATM    9  N4  UNL     1      -2.199  -0.086  -0.921  1.00  0.00    -0.289 N 
ATOM     10  H4  UNL     1      -2.217  -1.077  -0.682  1.00  0.00     0.188 HD
ENDROOT
BRANCH   2  11
HETATM   11  O1  UNL     1       1.824   0.676   1.579  1.00  0.00    -0.293 OA
BRANCH  11  12
HETATM   12  C6  UNL     1       3.088   0.416   1.129  1.00  0.00     0.078 A 
HETATM   13  C7  UNL     1       3.520  -0.830   0.828  1.00  0.00     0.040 A 
HETATM   14  C8  UNL     1       4.829  -1.008   0.371  1.00  0.00     0.039 A 
HETATM   15  C9  UNL     1       5.663   0.077   0.231  1.00  0.00     0.103 A 
HETATM   16  C10 UNL     1       5.202   1.332   0.544  1.00  0.00     0.039 A 
HETATM   17  C11 UNL     1       3.929   1.530   0.991  1.00  0.00     0.040 A 
BRANCH  15  18
HETATM   18  N1  UNL     1       7.007  -0.052  -0.231  1.00  0.00    -0.116 N 
HETATM   19  O2  UNL     1       7.754   0.933  -0.354  1.00  0.00    -0.532 OA
HETATM   20  O3  UNL     1       7.456  -1.310  -0.539  1.00  0.00    -0.532 OA
ENDBRANCH  15  18
ENDBRANCH  11  12
ENDBRANCH   2  11
BRANCH   1  21
HETATM   21  C3  UNL     1      -0.123  -1.191   0.769  1.00  0.00     0.015 C 
HETATM   22  C2  UNL     1      -0.566  -2.365   0.518  1.00  0.00    -0.030 C 
HETATM   23  C1  UNL     1      -1.471  -2.989  -0.439  1.00  0.00     0.036 C 
ENDBRANCH   1  21
BRANCH   9  24
HETATM   24  N5  UNL     1      -3.196   0.447  -1.711  1.00  0.00    -0.331 N 
ATOM     25  H5  UNL     1      -2.983   0.854  -2.621  1.00  0.00     0.180 HD
BRANCH  24  26
HETATM   26  C14 UNL     1      -4.562   0.411  -1.207  1.00  0.00     0.091 C 
HETATM   27  C15 UNL     1      -4.959  -1.016  -0.979  1.00  0.00     0.033 C 
HETATM   28  C16 UNL     1      -4.581   1.194   0.113  1.00  0.00     0.033 C 
ENDBRANCH  24  26
ENDBRANCH   9  24
TORSDOF 6
