REMARK  11 active torsions:
REMARK  status: ('A' for Active; 'I' for Inactive)
REMARK    1  A    between atoms: C4_4  and  O1_5 
REMARK    2  A    between atoms: O1_5  and  C5_6 
REMARK    3  A    between atoms: N2_10  and  C7_11 
REMARK    4  A    between atoms: C7_11  and  C8_12 
REMARK    5  A    between atoms: C8_12  and  N3_13 
REMARK    6  A    between atoms: C15_20  and  C16_21 
REMARK    7  A    between atoms: C17_22  and  C18_23 
REMARK    8  A    between atoms: C19_24  and  O2_25 
REMARK    9  A    between atoms: O2_25  and  C20_26 
REMARK   10  A    between atoms: C26_35  and  C27_36 
REMARK   11  A    between atoms: C29_41  and  C30_42 
ROOT
HETATM    1  C16 UNL     1      -2.029   0.949   0.280  1.00  0.00     0.016 C 
HETATM    2  C17 UNL     1      -3.000   1.665  -0.169  1.00  0.00     0.016 C 
ENDROOT
BRANCH   1   3
HETATM    3  C15 UNL     1      -1.315  -0.217  -0.228  1.00  0.00     0.013 A 
HETATM    4  C4  UNL     1      -0.156  -0.612   0.428  1.00  0.00     0.089 A 
HETATM    5  C3  UNL     1       0.509  -1.730  -0.009  1.00  0.00     0.062 A 
HETATM    6  C2  UNL     1       0.076  -2.483  -1.077  1.00  0.00     0.007 A 
HETATM    7  C1  UNL     1       0.815  -3.711  -1.523  1.00  0.00     0.068 C 
HETATM    8  N5  UNL     1      -1.028  -2.075  -1.677  1.00  0.00    -0.368 N 
HETATM    9  C31 UNL     1      -1.731  -0.984  -1.299  1.00  0.00     0.102 A 
ATOM     10  H5  UNL     1      -1.370  -2.615  -2.472  1.00  0.00     0.165 HD
BRANCH   4  11
HETATM   11  O1  UNL     1       0.325   0.141   1.511  1.00  0.00    -0.307 OA
BRANCH  11  12
HETATM   12  C5  UNL     1       1.593  -0.265   1.948  1.00  0.00     0.110 A 
HETATM   13  C6  UNL     1       2.021  -1.009   2.999  1.00  0.00     0.146 A 
HETATM   14  N1  UNL     1       3.390  -1.091   2.915  1.00  0.00    -0.307 N 
HETATM   15  N2  UNL     1       3.847  -0.447   1.875  1.00  0.00    -0.299 N 
ATOM     16  H1  UNL     1       3.976  -1.593   3.582  1.00  0.00     0.186 HD
HETATM   17  C14 UNL     1       2.759   0.083   1.248  1.00  0.00     0.148 A 
BRANCH  15  18
HETATM   18  C7  UNL     1       5.232  -0.300   1.402  1.00  0.00     0.168 C 
BRANCH  18  19
HETATM   19  C8  UNL     1       5.873   0.909   1.973  1.00  0.00     0.143 C 
BRANCH  19  20
HETATM   20  N3  UNL     1       7.191   1.172   1.545  1.00  0.00    -0.392 N 
HETATM   21  C9  UNL     1       7.433   1.576   0.221  1.00  0.00     0.058 C 
HETATM   22  C10 UNL     1       7.974   0.553  -0.726  1.00  0.00     0.044 C 
HETATM   23  C11 UNL     1       8.685  -0.574   0.001  1.00  0.00     0.007 C 
HETATM   24  C12 UNL     1       9.298  -0.054   1.276  1.00  0.00     0.020 C 
HETATM   25  C13 UNL     1       8.243   0.515   2.220  1.00  0.00     0.122 C 
ENDBRANCH  19  20
ENDBRANCH  18  19
ENDBRANCH  15  18
ENDBRANCH  11  12
ENDBRANCH   4  11
ENDBRANCH   1   3
BRANCH   2  26
HETATM   26  C18 UNL     1      -3.734   1.544  -1.390  1.00  0.00     0.012 A 
HETATM   27  C19 UNL     1      -4.914   0.810  -1.412  1.00  0.00     0.081 A 
HETATM   28  C25 UNL     1      -5.528   0.710  -2.697  1.00  0.00     0.053 A 
HETATM   29  C26 UNL     1      -5.044   1.269  -3.827  1.00  0.00     0.051 A 
HETATM   30  C28 UNL     1      -3.880   1.988  -3.744  1.00  0.00     0.033 A 
HETATM   31  C29 UNL     1      -3.218   2.138  -2.559  1.00  0.00     0.061 A 
BRANCH  27  32
HETATM   32  O2  UNL     1      -5.539   0.197  -0.404  1.00  0.00    -0.345 OA
BRANCH  32  33
HETATM   33  C20 UNL     1      -5.514   0.166   0.941  1.00  0.00     0.132 C 
HETATM   34  C21 UNL     1      -6.969   0.327   1.480  1.00  0.00     0.060 C 
HETATM   35  C22 UNL     1      -7.652  -0.990   1.378  1.00  0.00     0.235 C 
HETATM   36  N4  UNL     1      -7.143  -1.970   2.291  1.00  0.00    -0.075 N 
HETATM   37  C23 UNL     1      -5.846  -1.511   2.796  1.00  0.00     0.235 C 
ATOM     38  H42 UNL     1      -7.801  -2.184   3.041  1.00  0.00     0.277 HD
ATOM     39  H41 UNL     1      -7.094  -2.901   1.877  1.00  0.00     0.277 HD
HETATM   40  C24 UNL     1      -5.018  -1.122   1.589  1.00  0.00     0.060 C 
ENDBRANCH  32  33
ENDBRANCH  27  32
BRANCH  29  41
HETATM   41  C27 UNL     1      -5.744   1.105  -5.125  1.00  0.00     0.417 C 
HETATM   42  F1  UNL     1      -7.071   1.424  -4.881  1.00  0.00    -0.166 F 
HETATM   43  F2  UNL     1      -5.237   1.977  -6.053  1.00  0.00    -0.166 F 
HETATM   44  F3  UNL     1      -5.634  -0.180  -5.628  1.00  0.00    -0.166 F 
ENDBRANCH  29  41
BRANCH  31  45
HETATM   45  C30 UNL     1      -1.977   2.978  -2.477  1.00  0.00     0.418 C 
HETATM   46  F4  UNL     1      -2.124   4.008  -1.533  1.00  0.00    -0.166 F 
HETATM   47  F5  UNL     1      -2.001   3.745  -3.692  1.00  0.00    -0.166 F 
HETATM   48  F6  UNL     1      -0.803   2.346  -2.465  1.00  0.00    -0.166 F 
ENDBRANCH  31  45
ENDBRANCH   2  26
TORSDOF 11
