REMARK  2 active torsions:
REMARK  status: ('A' for Active; 'I' for Inactive)
REMARK    1  A    between atoms: C5_7  and  C6_8 
REMARK    2  A    between atoms: C6_8  and  N2_10 
ROOT
HETATM    1  C1  UNL     1      -2.979  -1.730  -0.188  1.00  0.00     0.089 C 
HETATM    2  C2  UNL     1      -1.829  -0.805  -0.026  1.00  0.00     0.077 A 
HETATM    3  N1  UNL     1      -1.957   0.532   0.273  1.00  0.00    -0.348 N 
ATOM      4  H1  UNL     1      -2.836   1.031   0.410  1.00  0.00     0.167 HD
HETATM    5  C3  UNL     1      -0.717   1.072   0.354  1.00  0.00     0.031 A 
HETATM    6  C4  UNL     1      -0.436   2.478   0.649  1.00  0.00     0.070 C 
HETATM    7  C5  UNL     1       0.221   0.080   0.111  1.00  0.00     0.063 A 
HETATM    8  N3  UNL     1      -0.506  -1.023  -0.112  1.00  0.00    -0.346 N 
ATOM      9  H3  UNL     1      -0.098  -1.933  -0.325  1.00  0.00     0.167 HD
ENDROOT
BRANCH   7  10
HETATM   10  C6  UNL     1       1.672   0.288   0.070  1.00  0.00     0.230 C 
HETATM   11  C7  UNL     1       2.478  -0.960   0.348  1.00  0.00     0.046 C 
BRANCH  10  12
HETATM   12  N2  UNL     1       2.037   0.736  -1.310  1.00  0.00    -0.070 N 
ATOM     13  H23 UNL     1       1.710   0.094  -2.032  1.00  0.00     0.275 HD
ATOM     14  H22 UNL     1       1.512   1.558  -1.610  1.00  0.00     0.275 HD
ATOM     15  H21 UNL     1       3.046   0.881  -1.339  1.00  0.00     0.275 HD
ENDBRANCH  10  12
ENDBRANCH   7  10
TORSDOF 2
