REMARK  2 active torsions:
REMARK  status: ('A' for Active; 'I' for Inactive)
REMARK    1  A    between atoms: C2_2  and  N1_3 
REMARK    2  A    between atoms: C2_2  and  C3_7 
ROOT
HETATM    1  C3  UNL     1       0.382  -0.048   0.327  1.00  0.00     0.017 C 
HETATM    2  C4  UNL     1      -0.131  -1.446   0.012  1.00  0.00     0.008 C 
HETATM    3  C5  UNL     1      -1.580  -1.311  -0.367  1.00  0.00     0.020 C 
HETATM    4  C6  UNL     1      -2.368  -0.469   0.587  1.00  0.00     0.113 C 
HETATM    5  N2  UNL     1      -2.008   0.898   0.627  1.00  0.00    -0.421 N 
ATOM      6  H2  UNL     1      -2.195   1.482   1.442  1.00  0.00     0.153 HD
HETATM    7  C7  UNL     1      -1.369   1.411  -0.537  1.00  0.00     0.114 C 
HETATM    8  C8  UNL     1      -0.019   0.837  -0.822  1.00  0.00     0.025 C 
ENDROOT
BRANCH   1   9
HETATM    9  C2  UNL     1       1.872  -0.052   0.567  1.00  0.00     0.183 C 
HETATM   10  C1  UNL     1       2.660  -0.540  -0.611  1.00  0.00     0.040 C 
BRANCH   9  11
HETATM   11  N1  UNL     1       2.251   1.297   0.945  1.00  0.00    -0.075 N 
ATOM     12  H13 UNL     1       3.254   1.368   1.114  1.00  0.00     0.274 HD
ATOM     13  H12 UNL     1       2.176   1.939   0.156  1.00  0.00     0.274 HD
ATOM     14  H11 UNL     1       1.715   1.629   1.747  1.00  0.00     0.274 HD
ENDBRANCH   9  11
ENDBRANCH   1   9
TORSDOF 2
