REMARK  1 active torsions:
REMARK  status: ('A' for Active; 'I' for Inactive)
REMARK    1  A    between atoms: N1_2  and  C3_4 
ROOT
HETATM    1  C3  UNL     1       0.389  -0.182  -0.098  1.00  0.00     0.696 A 
HETATM    2  N2  UNL     1       1.136  -1.320  -0.075  1.00  0.00    -0.130 N 
ATOM      3  H2  UNL     1       0.771  -2.269  -0.162  1.00  0.00     0.205 HD
HETATM    4  N3  UNL     1       2.410  -0.999   0.078  1.00  0.00    -0.261 N 
ATOM      5  H3  UNL     1       3.182  -1.664   0.127  1.00  0.00     0.190 HD
HETATM    6  C4  UNL     1       2.531   0.329   0.158  1.00  0.00     0.205 A 
HETATM    7  S1  UNL     1       3.880   1.234   0.348  1.00  0.00    -0.039 SA
HETATM    8  N4  UNL     1       1.273   0.822   0.047  1.00  0.00    -0.164 N 
ATOM      9  H4  UNL     1       1.031   1.813   0.070  1.00  0.00     0.186 HD
ENDROOT
BRANCH   1  10
HETATM   10  N1  UNL     1      -1.027  -0.087  -0.245  1.00  0.00    -0.225 N 
HETATM   11  C1  UNL     1      -1.624   1.226  -0.244  1.00  0.00     0.168 C 
HETATM   12  C2  UNL     1      -1.858  -1.237  -0.392  1.00  0.00     0.168 C 
ENDBRANCH   1  10
TORSDOF 1
