REMARK  10 active torsions:
REMARK  status: ('A' for Active; 'I' for Inactive)
REMARK    1  A    between atoms: O1_2  and  C2_3 
REMARK    2  A    between atoms: C2_3  and  C3_4 
REMARK    3  A    between atoms: C2_3  and  C12_30 
REMARK       I    between atoms: C3_4  and  N1_6 
REMARK    4  A    between atoms: N1_6  and  C4_8 
REMARK    5  A    between atoms: C4_8  and  C6_10 
REMARK    6  A    between atoms: C8_14  and  N3_15 
REMARK    7  A    between atoms: C11_26  and  N7_27 
REMARK    8  A    between atoms: C12_30  and  O3_31 
REMARK    9  A    between atoms: C12_30  and  C13_33 
REMARK   10  A    between atoms: C14_37  and  N9_38 
ROOT
HETATM    1  C3  UNL     1       0.643   0.589   1.412  1.00  0.00     0.249 C 
HETATM    2  O2  UNL     1       0.713   0.038   2.554  1.00  0.00    -0.271 OA
HETATM    3  N1  UNL     1      -0.607   0.952   0.855  1.00  0.00    -0.349 N 
ATOM      4  H1  UNL     1      -0.647   1.395  -0.063  1.00  0.00     0.163 HD
ENDROOT
BRANCH   3   5
HETATM    5  C4  UNL     1      -1.825   0.696   1.585  1.00  0.00     0.134 C 
HETATM    6  C5  UNL     1      -2.463   2.001   2.053  1.00  0.00     0.039 C 
BRANCH   5   7
HETATM    7  C6  UNL     1      -2.841  -0.034   0.799  1.00  0.00     0.076 A 
HETATM    8  N2  UNL     1      -4.085   0.461   0.675  1.00  0.00    -0.349 N 
HETATM    9  C7  UNL     1      -5.039  -0.171  -0.028  1.00  0.00     0.121 A 
ATOM     10  H2  UNL     1      -4.312   1.345   1.130  1.00  0.00     0.166 HD
HETATM   11  C8  UNL     1      -6.307   0.322  -0.160  1.00  0.00     0.130 A 
HETATM   12  C10 UNL     1      -4.717  -1.365  -0.636  1.00  0.00     0.138 A 
HETATM   13  N4  UNL     1      -7.228  -0.339  -0.869  1.00  0.00    -0.337 N 
HETATM   14  C9  UNL     1      -6.902  -1.505  -1.459  1.00  0.00     0.183 A 
ATOM     15  H4  UNL     1      -8.171   0.037  -0.962  1.00  0.00     0.168 HD
HETATM   16  N5  UNL     1      -5.652  -2.001  -1.334  1.00  0.00    -0.337 N 
ATOM     17  H5  UNL     1      -5.420  -2.885  -1.786  1.00  0.00     0.168 HD
HETATM   18  N6  UNL     1      -3.488  -1.896  -0.538  1.00  0.00    -0.325 N 
HETATM   19  C11 UNL     1      -2.565  -1.233   0.172  1.00  0.00     0.125 A 
ATOM     20  H6  UNL     1      -3.263  -2.781  -0.992  1.00  0.00     0.169 HD
BRANCH  11  21
HETATM   21  N3  UNL     1      -6.652   1.447   0.399  1.00  0.00    -0.383 N 
ATOM     22  H32 UNL     1      -5.949   1.951   0.940  1.00  0.00     0.157 HD
ATOM     23  H31 UNL     1      -7.598   1.815   0.300  1.00  0.00     0.157 HD
ENDBRANCH  11  21
BRANCH  19  24
HETATM   24  N7  UNL     1      -1.373  -1.706   0.291  1.00  0.00    -0.384 N 
ATOM     25  H72 UNL     1      -0.670  -1.201   0.831  1.00  0.00     0.157 HD
ATOM     26  H71 UNL     1      -1.169  -2.592  -0.172  1.00  0.00     0.157 HD
ENDBRANCH  19  24
ENDBRANCH   5   7
ENDBRANCH   3   5
BRANCH   1  27
HETATM   27  C2  UNL     1       1.935   0.839   0.680  1.00  0.00     0.243 C 
BRANCH  27  28
HETATM   28  O1  UNL     1       1.620   1.432  -0.519  1.00  0.00    -0.379 OA
HETATM   29  C1  UNL     1       2.055   2.742  -0.579  1.00  0.00     0.202 C 
ENDBRANCH  27  28
BRANCH  27  30
HETATM   30  C12 UNL     1       2.629  -0.472   0.513  1.00  0.00     0.196 C 
BRANCH  30  31
HETATM   31  O3  UNL     1       2.921  -1.032   1.754  1.00  0.00    -0.390 OA
ATOM     32  H3  UNL     1       3.363  -1.866   1.648  1.00  0.00     0.210 HD
ENDBRANCH  30  31
BRANCH  30  33
HETATM   33  C13 UNL     1       3.873  -0.341  -0.336  1.00  0.00     0.312 C 
HETATM   34  N8  UNL     1       4.462  -1.647  -0.556  1.00  0.00    -0.013 N 
HETATM   35  C14 UNL     1       5.882  -1.511  -0.589  1.00  0.00     0.486 C 
ATOM     36  H82 UNL     1       4.152  -2.335   0.130  1.00  0.00     0.282 HD
ATOM     37  H81 UNL     1       4.095  -2.105  -1.390  1.00  0.00     0.282 HD
HETATM   38  N10 UNL     1       6.181  -0.150  -0.139  1.00  0.00    -0.309 N 
HETATM   39  C15 UNL     1       4.964   0.369   0.382  1.00  0.00     0.254 C 
ATOM     40  H10 UNL     1       7.080   0.329  -0.189  1.00  0.00     0.166 HD
HETATM   41  O4  UNL     1       4.917   1.253   1.273  1.00  0.00    -0.271 OA
BRANCH  35  42
HETATM   42  N9  UNL     1       6.419  -1.729  -1.920  1.00  0.00    -0.033 N 
ATOM     43  H93 UNL     1       6.125  -2.631  -2.294  1.00  0.00     0.278 HD
ATOM     44  H92 UNL     1       5.973  -1.118  -2.604  1.00  0.00     0.278 HD
ATOM     45  H91 UNL     1       7.434  -1.632  -1.944  1.00  0.00     0.278 HD
ENDBRANCH  35  42
ENDBRANCH  30  33
ENDBRANCH  27  30
ENDBRANCH   1  27
TORSDOF 10
