REMARK  6 active torsions:
REMARK  status: ('A' for Active; 'I' for Inactive)
REMARK    1  A    between atoms: N1_1  and  C1_5 
REMARK    2  A    between atoms: C1_5  and  C2_6 
REMARK       I    between atoms: C2_6  and  N2_8 
REMARK    3  A    between atoms: N2_8  and  C3_10 
REMARK    4  A    between atoms: C7_19  and  N6_20 
REMARK    5  A    between atoms: N6_20  and  C8_22 
REMARK    6  A    between atoms: C8_22  and  C9_23 
ROOT
HETATM    1  C3  UNL     1       1.904   0.504  -0.212  1.00  0.00     0.714 A 
HETATM    2  N3  UNL     1       2.243  -0.766  -0.009  1.00  0.00    -0.020 N 
ATOM      3  H3  UNL     1       3.225  -1.037   0.033  1.00  0.00     0.203 HD
HETATM    4  C4  UNL     1       1.281  -1.683   0.140  1.00  0.00     0.717 A 
HETATM    5  N4  UNL     1       1.384  -3.026   0.355  1.00  0.00    -0.199 N 
ATOM      6  H4  UNL     1       2.261  -3.540   0.436  1.00  0.00     0.183 HD
HETATM    7  C5  UNL     1       0.185  -3.561   0.443  1.00  0.00     0.125 A 
HETATM    8  C6  UNL     1      -0.718  -2.500   0.275  1.00  0.00     0.151 A 
HETATM    9  N5  UNL     1      -0.026  -1.353   0.090  1.00  0.00     0.014 N 
HETATM   10  C7  UNL     1      -0.400  -0.060  -0.116  1.00  0.00     0.717 A 
HETATM   11  N9  UNL     1       0.621   0.830  -0.261  1.00  0.00    -0.020 N 
ATOM     12  H9  UNL     1       0.383   1.809  -0.417  1.00  0.00     0.203 HD
ENDROOT
BRANCH  10  13
HETATM   13  N6  UNL     1      -1.585   0.312  -0.173  1.00  0.00    -0.199 N 
ATOM     14  H6  UNL     1      -1.656   1.317  -0.334  1.00  0.00     0.183 HD
BRANCH  13  15
HETATM   15  C8  UNL     1      -2.842  -0.281  -0.075  1.00  0.00     0.119 C 
BRANCH  15  16
HETATM   16  C9  UNL     1      -3.867   0.824  -0.179  1.00  0.00    -0.002 A 
HETATM   17  C10 UNL     1      -4.180   1.503   0.973  1.00  0.00     0.032 A 
HETATM   18  C11 UNL     1      -5.102   2.531   0.994  1.00  0.00     0.108 A 
HETATM   19  N7  UNL     1      -5.685   2.841  -0.172  1.00  0.00    -0.312 N 
HETATM   20  N8  UNL     1      -5.382   2.185  -1.285  1.00  0.00    -0.311 N 
ATOM     21  H7  UNL     1      -6.373   3.593  -0.205  1.00  0.00     0.186 HD
HETATM   22  C12 UNL     1      -4.487   1.178  -1.339  1.00  0.00     0.119 A 
ATOM     23  H8  UNL     1      -5.852   2.458  -2.148  1.00  0.00     0.186 HD
ENDBRANCH  15  16
ENDBRANCH  13  15
ENDBRANCH  10  13
BRANCH   1  24
HETATM   24  N2  UNL     1       2.765   1.448  -0.365  1.00  0.00    -0.157 N 
HETATM   25  C2  UNL     1       4.159   1.319  -0.348  1.00  0.00     0.261 C 
HETATM   26  O1  UNL     1       4.876   2.355  -0.566  1.00  0.00    -0.271 OA
ATOM     27  H2  UNL     1       2.394   2.386  -0.514  1.00  0.00     0.187 HD
BRANCH  25  28
HETATM   28  C1  UNL     1       4.896   0.058  -0.092  1.00  0.00     0.332 C 
BRANCH  28  29
HETATM   29  N1  UNL     1       6.341   0.286  -0.148  1.00  0.00    -0.071 N 
ATOM     30  H13 UNL     1       6.623   0.717  -1.028  1.00  0.00     0.274 HD
ATOM     31  H12 UNL     1       6.632   1.030   0.486  1.00  0.00     0.274 HD
ATOM     32  H11 UNL     1       6.848  -0.581   0.028  1.00  0.00     0.274 HD
ENDBRANCH  28  29
ENDBRANCH  25  28
ENDBRANCH   1  24
TORSDOF 6
