REMARK  2 active torsions:
REMARK  status: ('A' for Active; 'I' for Inactive)
REMARK    1  A    between atoms: O1_2  and  C2_3 
REMARK    2  A    between atoms: C10_14  and  O3_15 
ROOT
HETATM    1  C2  UNL     1       1.687   0.529   0.409  1.00  0.00     0.121 C 
HETATM    2  C3  UNL     1       0.862  -0.449   0.072  1.00  0.00     0.081 C 
HETATM    3 CL1  UNL     1       1.342  -2.008  -0.532  1.00  0.00    -0.083 Cl
HETATM    4  C4  UNL     1      -0.480   0.074   0.322  1.00  0.00     0.110 C 
HETATM    5  C5  UNL     1      -1.186   0.625  -0.922  1.00  0.00     0.050 C 
HETATM    6  C6  UNL     1      -2.477  -0.162  -0.832  1.00  0.00     0.008 C 
HETATM    7  C7  UNL     1      -1.869  -1.561  -0.616  1.00  0.00     0.015 C 
HETATM    8  C8  UNL     1      -1.457  -0.969   0.710  1.00  0.00     0.045 C 
HETATM    9  C9  UNL     1      -2.826  -0.258   0.624  1.00  0.00     0.093 C 
HETATM   10 CL2  UNL     1      -2.900   1.246   1.516  1.00  0.00    -0.124 Cl
HETATM   11  O2  UNL     1      -0.334   1.090   1.270  1.00  0.00    -0.338 OA
HETATM   12  C10 UNL     1       0.854   1.699   0.883  1.00  0.00     0.318 C 
ENDROOT
BRANCH   1  13
HETATM   13  O1  UNL     1       3.063   0.560   0.369  1.00  0.00    -0.354 OA
HETATM   14  C1  UNL     1       3.816  -0.562  -0.007  1.00  0.00     0.209 C 
ENDBRANCH   1  13
BRANCH  12  15
HETATM   15  O3  UNL     1       0.741   2.620  -0.122  1.00  0.00    -0.365 OA
ATOM     16  H3  UNL     1       0.218   3.355   0.176  1.00  0.00     0.213 HD
ENDBRANCH  12  15
TORSDOF 2
