REMARK  1 active torsions:
REMARK  status: ('A' for Active; 'I' for Inactive)
REMARK    1  A    between atoms: N1_1  and  C1_5 
ROOT
HETATM    1  C1  UNL     1       0.395  -0.613  -0.388  1.00  0.00     0.183 C 
HETATM    2  C2  UNL     1      -0.637  -0.573   0.737  1.00  0.00     0.033 C 
HETATM    3  C3  UNL     1      -1.319   0.558  -0.039  1.00  0.00     0.004 C 
HETATM    4  C4  UNL     1       0.039   0.837  -0.656  1.00  0.00     0.033 C 
ENDROOT
BRANCH   1   5
HETATM    5  N1  UNL     1       1.742  -0.765   0.081  1.00  0.00    -0.075 N 
ATOM      6  H13 UNL     1       1.973  -0.039   0.759  1.00  0.00     0.274 HD
ATOM      7  H12 UNL     1       1.826  -1.587   0.679  1.00  0.00     0.274 HD
ATOM      8  H11 UNL     1       2.431  -0.792  -0.670  1.00  0.00     0.274 HD
ENDBRANCH   1   5
TORSDOF 1
