REMARK  7 active torsions:
REMARK  status: ('A' for Active; 'I' for Inactive)
REMARK    1  A    between atoms: O1_2  and  C2_3 
REMARK    2  A    between atoms: C2_3  and  C3_4 
REMARK    3  A    between atoms: C5_8  and  C6_9 
REMARK    4  A    between atoms: C7_11  and  N2_12 
REMARK    5  A    between atoms: C9_17  and  C10_18 
REMARK    6  A    between atoms: C17_27  and  O3_28 
REMARK    7  A    between atoms: C17_27  and  O4_30 
ROOT
HETATM    1  C3  UNL     1       1.273  -0.280  -0.293  1.00  0.00     0.131 C 
HETATM    2  C4  UNL     1       0.584  -0.825  -1.507  1.00  0.00     0.238 C 
HETATM    3  O2  UNL     1       1.136  -1.447  -2.453  1.00  0.00    -0.272 OA
HETATM    4  N1  UNL     1      -0.786  -0.518  -1.394  1.00  0.00    -0.333 N 
HETATM    5  C5  UNL     1      -2.213  -0.625  -1.553  1.00  0.00     0.129 C 
HETATM    6  C7  UNL     1      -2.592  -0.877  -0.018  1.00  0.00     0.214 C 
HETATM    7  C8  UNL     1      -1.274  -0.616   0.502  1.00  0.00     0.062 C 
HETATM    8  C9  UNL     1      -0.542  -0.111   1.548  1.00  0.00     0.034 C 
HETATM    9  C11 UNL     1      -0.884   1.377   1.497  1.00  0.00     0.019 C 
HETATM   10  C12 UNL     1      -1.495   1.571   0.065  1.00  0.00     0.033 C 
HETATM   11  C13 UNL     1      -0.787   0.496  -0.481  1.00  0.00     0.054 C 
HETATM   12  C14 UNL     1       0.577   1.007  -0.551  1.00  0.00     0.043 A 
HETATM   13  C15 UNL     1       1.180   2.290  -0.551  1.00  0.00     0.054 A 
HETATM   14  C16 UNL     1       0.755   1.772  -1.867  1.00  0.00     0.183 A 
HETATM   15  F1  UNL     1       1.587   1.367  -2.834  1.00  0.00    -0.248 F 
HETATM   16  C17 UNL     1       0.881  -0.476   1.094  1.00  0.00     0.188 C 
ENDROOT
BRANCH   6  17
HETATM   17  N2  UNL     1      -3.769  -0.276   0.384  1.00  0.00    -0.073 N 
ATOM     18  H23 UNL     1      -3.745   0.724   0.183  1.00  0.00     0.274 HD
ATOM     19  H22 UNL     1      -4.538  -0.558  -0.224  1.00  0.00     0.274 HD
ATOM     20  H21 UNL     1      -4.010  -0.437   1.362  1.00  0.00     0.274 HD
ENDBRANCH   6  17
BRANCH   5  21
HETATM   21  C6  UNL     1      -2.646  -1.743  -2.406  1.00  0.00     0.112 C 
HETATM   22 BR1  UNL     1      -4.579  -1.732  -2.507  1.00  0.00    -0.094 Br
ENDBRANCH   5  21
BRANCH   8  23
HETATM   23  C10 UNL     1      -0.676  -0.666   2.937  1.00  0.00     0.100 C 
HETATM   24 BR2  UNL     1      -2.474  -0.502   3.605  1.00  0.00    -0.096 Br
ENDBRANCH   8  23
BRANCH  16  25
HETATM   25  O3  UNL     1       0.944  -1.869   1.359  1.00  0.00    -0.364 OA
ATOM     26  H3  UNL     1       0.688  -1.997   2.265  1.00  0.00     0.213 HD
ENDBRANCH  16  25
BRANCH  16  27
HETATM   27  O4  UNL     1       1.713   0.119   1.985  1.00  0.00    -0.364 OA
ATOM     28  H4  UNL     1       1.457  -0.009   2.891  1.00  0.00     0.213 HD
ENDBRANCH  16  27
BRANCH   1  29
HETATM   29  C2  UNL     1       2.712  -0.385  -0.491  1.00  0.00     0.193 C 
BRANCH  29  30
HETATM   30  O1  UNL     1       3.534   0.069   0.521  1.00  0.00    -0.394 OA
HETATM   31  C1  UNL     1       4.871  -0.066   0.255  1.00  0.00     0.201 C 
ENDBRANCH  29  30
ENDBRANCH   1  29
TORSDOF 7
