REMARK  4 active torsions:
REMARK  status: ('A' for Active; 'I' for Inactive)
REMARK    1  A    between atoms: C1_2  and  C2_4 
REMARK    2  A    between atoms: C7_9  and  C8_10 
REMARK       I    between atoms: C8_10  and  N2_12 
REMARK    3  A    between atoms: C14_18  and  C15_19 
REMARK       I    between atoms: C15_19  and  N3_21 
REMARK    4  A    between atoms: N3_21  and  C16_23 
ROOT
HETATM    1  C2  UNL     1      -1.665   2.696   0.283  1.00  0.00     0.140 C 
HETATM    2  C3  UNL     1      -1.501   3.200  -1.136  1.00  0.00     0.052 C 
HETATM    3  C4  UNL     1      -0.501   2.350  -1.893  1.00  0.00    -0.010 C 
HETATM    4  C5  UNL     1      -1.242   1.171  -2.416  1.00  0.00     0.006 C 
HETATM    5  C6  UNL     1      -0.917  -0.011  -1.564  1.00  0.00     0.021 C 
HETATM    6  C7  UNL     1      -0.714   0.357  -0.083  1.00  0.00     0.062 C 
HETATM    7  C13 UNL     1      -1.898   1.229   0.356  1.00  0.00     0.068 C 
HETATM    8  C14 UNL     1       0.519   1.167   0.107  1.00  0.00     0.079 C 
HETATM    9  C22 UNL     1       0.334   2.170   1.271  1.00  0.00     0.190 C 
HETATM   10  O4  UNL     1      -0.573   3.149   0.991  1.00  0.00    -0.369 OA
HETATM   11  C23 UNL     1       0.726   2.066  -1.113  1.00  0.00     0.027 C 
ENDROOT
BRANCH   8  12
HETATM   12  C15 UNL     1       1.792   0.484   0.424  1.00  0.00     0.234 C 
HETATM   13  O3  UNL     1       2.212   0.642   1.633  1.00  0.00    -0.272 OA
HETATM   14  N3  UNL     1       2.565  -0.297  -0.443  1.00  0.00    -0.326 N 
ATOM     15  H3  UNL     1       2.206  -0.388  -1.393  1.00  0.00     0.169 HD
BRANCH  14  16
HETATM   16  C16 UNL     1       3.769  -0.973  -0.181  1.00  0.00     0.036 A 
HETATM   17  C17 UNL     1       4.511  -1.455  -1.270  1.00  0.00     0.031 A 
HETATM   18  C18 UNL     1       5.694  -2.141  -1.088  1.00  0.00     0.028 A 
HETATM   19  C19 UNL     1       6.193  -2.379   0.161  1.00  0.00     0.055 A 
HETATM   20 CL1  UNL     1       7.708  -3.258   0.339  1.00  0.00    -0.083 Cl
HETATM   21  C20 UNL     1       5.500  -1.926   1.236  1.00  0.00     0.058 A 
HETATM   22 CL2  UNL     1       6.130  -2.225   2.849  1.00  0.00    -0.082 Cl
HETATM   23  C21 UNL     1       4.306  -1.235   1.048  1.00  0.00     0.055 A 
ENDBRANCH  14  16
ENDBRANCH   8  12
BRANCH   6  24
HETATM   24  C8  UNL     1      -0.754  -0.935   0.635  1.00  0.00     0.230 C 
HETATM   25  O2  UNL     1       0.332  -1.299   1.232  1.00  0.00    -0.272 OA
HETATM   26  N2  UNL     1      -1.801  -1.839   0.771  1.00  0.00    -0.351 N 
HETATM   27  C9  UNL     1      -3.136  -1.867   0.310  1.00  0.00     0.126 C 
HETATM   28  C12 UNL     1      -1.688  -3.108   1.535  1.00  0.00     0.126 C 
HETATM   29  C10 UNL     1      -3.156  -3.259  -0.376  1.00  0.00     0.021 C 
HETATM   30  C11 UNL     1      -2.500  -4.089   0.715  1.00  0.00     0.021 C 
ENDBRANCH   6  24
BRANCH   1  31
HETATM   31  C1  UNL     1      -2.862   3.378   0.826  1.00  0.00     0.266 C 
HETATM   32  N1  UNL     1      -2.786   4.313   1.886  1.00  0.00    -0.059 NA
HETATM   33  O1  UNL     1      -3.983   3.122   0.333  1.00  0.00    -0.273 OA
ENDBRANCH   1  31
TORSDOF 4
