REMARK  2 active torsions:
REMARK  status: ('A' for Active; 'I' for Inactive)
REMARK    1  A    between atoms: C2_2  and  C4_4 
REMARK    2  A    between atoms: C9_9  and  O1_10 
ROOT
HETATM    1  C4  UNL     1      -1.147   0.104  -0.518  1.00  0.00    -0.006 A 
HETATM    2  C5  UNL     1      -0.523   1.407  -0.688  1.00  0.00     0.015 A 
HETATM    3  C6  UNL     1       0.710   0.974   0.108  1.00  0.00    -0.037 A 
HETATM    4  C7  UNL     1       0.877   1.694   1.424  1.00  0.00     0.015 C 
HETATM    5  C8  UNL     1       1.981   0.920  -0.656  1.00  0.00     0.041 C 
HETATM    6  C9  UNL     1       2.864  -0.142  -0.016  1.00  0.00     0.118 C 
HETATM    7  C10 UNL     1       2.310  -1.526  -0.232  1.00  0.00     0.032 C 
HETATM    8  C11 UNL     1       0.848  -1.436  -0.581  1.00  0.00     0.008 C 
HETATM    9  C12 UNL     1       0.107  -0.394   0.188  1.00  0.00    -0.002 A 
ENDROOT
BRANCH   1  10
HETATM   10  C2  UNL     1      -2.344  -0.125   0.307  1.00  0.00    -0.018 C 
HETATM   11  C1  UNL     1      -2.727  -1.596   0.265  1.00  0.00     0.010 C 
HETATM   12  C3  UNL     1      -3.561   0.671  -0.015  1.00  0.00     0.010 C 
ENDBRANCH   1  10
BRANCH   6  13
HETATM   13  O1  UNL     1       4.155  -0.122  -0.544  1.00  0.00    -0.396 OA
ATOM     14  H1  UNL     1       4.706  -0.785  -0.145  1.00  0.00     0.210 HD
ENDBRANCH   6  13
TORSDOF 2
