REMARK  16 active torsions:
REMARK  status: ('A' for Active; 'I' for Inactive)
REMARK    1  A    between atoms: O1_1  and  N1_3 
REMARK    2  A    between atoms: C5_8  and  C6_9 
REMARK    3  A    between atoms: C6_9  and  O2_10 
REMARK    4  A    between atoms: O2_10  and  C7_11 
REMARK    5  A    between atoms: C9_13  and  O3_14 
REMARK    6  A    between atoms: C10_16  and  O4_17 
REMARK    7  A    between atoms: C11_19  and  O5_20 
REMARK    8  A    between atoms: O5_20  and  C12_21 
REMARK    9  A    between atoms: C12_21  and  C13_22 
REMARK   10  A    between atoms: C16_25  and  O6_26 
REMARK   11  A    between atoms: C19_30  and  O7_31 
REMARK   12  A    between atoms: O7_31  and  C20_32 
REMARK   13  A    between atoms: C20_32  and  C21_33 
REMARK   14  A    between atoms: C27_39  and  O8_40 
REMARK   15  A    between atoms: O8_40  and  C28_41 
REMARK   16  A    between atoms: C28_41  and  C29_42 
ROOT
HETATM    1  C7  UNL     1      -1.095   1.822  -1.064  1.00  0.00     0.156 C 
HETATM    2  C8  UNL     1      -0.511   3.216  -0.958  1.00  0.00     0.069 C 
HETATM    3  C9  UNL     1       0.962   3.279  -1.170  1.00  0.00     0.152 C 
HETATM    4  C10 UNL     1       1.467   2.348  -2.238  1.00  0.00     0.178 C 
HETATM    5  C11 UNL     1       1.964   1.103  -1.553  1.00  0.00     0.184 C 
HETATM    6  C19 UNL     1       0.723   0.212  -1.373  1.00  0.00     0.184 C 
HETATM    7  C27 UNL     1      -0.230   0.798  -0.356  1.00  0.00     0.182 C 
ENDROOT
BRANCH   1   8
HETATM    8  O2  UNL     1      -2.370   1.884  -0.518  1.00  0.00    -0.377 OA
BRANCH   8   9
HETATM    9  C6  UNL     1      -3.282   1.500  -1.493  1.00  0.00     0.228 C 
BRANCH   9  10
HETATM   10  C5  UNL     1      -4.678   1.533  -0.993  1.00  0.00     0.063 A 
HETATM   11  N1  UNL     1      -4.987   1.897   0.263  1.00  0.00    -0.238 N 
HETATM   12  C1  UNL     1      -6.281   1.895   0.624  1.00  0.00     0.123 A 
HETATM   13  C2  UNL     1      -7.300   1.540  -0.229  1.00  0.00     0.020 A 
HETATM   14  C3  UNL     1      -6.997   1.164  -1.524  1.00  0.00     0.003 A 
HETATM   15  C4  UNL     1      -5.666   1.166  -1.894  1.00  0.00     0.030 A 
BRANCH  11  16
HETATM   16  O1  UNL     1      -3.972   2.250   1.109  1.00  0.00    -0.283 OA
ATOM     17  H1  UNL     1      -3.057   2.251   0.854  1.00  0.00     0.245 HD
ENDBRANCH  11  16
ENDBRANCH   9  10
ENDBRANCH   8   9
ENDBRANCH   1   8
BRANCH   7  18
HETATM   18  O8  UNL     1      -0.979  -0.193   0.259  1.00  0.00    -0.376 OA
BRANCH  18  19
HETATM   19  C28 UNL     1      -0.797  -0.200   1.631  1.00  0.00     0.207 C 
BRANCH  19  20
HETATM   20  C29 UNL     1      -1.600  -1.257   2.283  1.00  0.00    -0.035 A 
HETATM   21  C30 UNL     1      -1.548  -1.449   3.647  1.00  0.00     0.009 A 
HETATM   22  C31 UNL     1      -2.296  -2.435   4.277  1.00  0.00     0.001 A 
HETATM   23  C32 UNL     1      -3.116  -3.250   3.523  1.00  0.00     0.000 A 
HETATM   24  C33 UNL     1      -3.194  -3.088   2.156  1.00  0.00     0.001 A 
HETATM   25  C34 UNL     1      -2.430  -2.091   1.571  1.00  0.00     0.009 A 
ENDBRANCH  19  20
ENDBRANCH  18  19
ENDBRANCH   7  18
BRANCH   3  26
HETATM   26  O3  UNL     1       1.277   4.607  -1.533  1.00  0.00    -0.393 OA
ATOM     27  H3  UNL     1       2.216   4.647  -1.668  1.00  0.00     0.210 HD
ENDBRANCH   3  26
BRANCH   6  28
HETATM   28  O7  UNL     1       1.078  -1.084  -1.099  1.00  0.00    -0.376 OA
BRANCH  28  29
HETATM   29  C20 UNL     1       0.693  -1.920  -2.120  1.00  0.00     0.207 C 
BRANCH  29  30
HETATM   30  C21 UNL     1       1.052  -3.336  -1.871  1.00  0.00    -0.035 A 
HETATM   31  C22 UNL     1       0.738  -4.297  -2.812  1.00  0.00     0.009 A 
HETATM   32  C23 UNL     1       1.049  -5.631  -2.629  1.00  0.00     0.001 A 
HETATM   33  C24 UNL     1       1.693  -6.058  -1.487  1.00  0.00     0.000 A 
HETATM   34  C25 UNL     1       2.013  -5.097  -0.535  1.00  0.00     0.001 A 
HETATM   35  C26 UNL     1       1.695  -3.761  -0.729  1.00  0.00     0.009 A 
ENDBRANCH  29  30
ENDBRANCH  28  29
ENDBRANCH   6  28
BRANCH   4  36
HETATM   36  O4  UNL     1       2.446   2.946  -3.037  1.00  0.00    -0.390 OA
ATOM     37  H4  UNL     1       2.765   2.358  -3.712  1.00  0.00     0.210 HD
ENDBRANCH   4  36
BRANCH   5  38
HETATM   38  O5  UNL     1       2.538   1.344  -0.322  1.00  0.00    -0.376 OA
BRANCH  38  39
HETATM   39  C12 UNL     1       3.773   0.755  -0.243  1.00  0.00     0.207 C 
BRANCH  39  40
HETATM   40  C13 UNL     1       4.468   0.972   1.029  1.00  0.00    -0.034 A 
HETATM   41  C14 UNL     1       5.401   2.008   1.086  1.00  0.00     0.012 A 
HETATM   42  C15 UNL     1       6.119   2.326   2.201  1.00  0.00     0.037 A 
HETATM   43  C16 UNL     1       5.917   1.581   3.354  1.00  0.00     0.065 A 
HETATM   44  C17 UNL     1       4.997   0.549   3.321  1.00  0.00     0.037 A 
HETATM   45  C18 UNL     1       4.272   0.236   2.177  1.00  0.00     0.012 A 
BRANCH  43  46
HETATM   46  O6  UNL     1       6.657   1.928   4.463  1.00  0.00    -0.361 OA
ATOM     47  H6  UNL     1       6.519   1.418   5.252  1.00  0.00     0.217 HD
ENDBRANCH  43  46
ENDBRANCH  39  40
ENDBRANCH  38  39
ENDBRANCH   5  38
TORSDOF 16
