REMARK  12 active torsions:
REMARK  status: ('A' for Active; 'I' for Inactive)
REMARK    1  A    between atoms: C2_2  and  C3_3 
REMARK    2  A    between atoms: C3_3  and  N1_4 
REMARK    3  A    between atoms: C7_10  and  C8_11 
REMARK    4  A    between atoms: C11_14  and  O1_15 
REMARK    5  A    between atoms: O1_15  and  C12_16 
REMARK    6  A    between atoms: C12_16  and  C13_17 
REMARK       I    between atoms: C13_17  and  N3_19 
REMARK    7  A    between atoms: N3_19  and  C14_21 
REMARK    8  A    between atoms: C17_24  and  O3_25 
REMARK    9  A    between atoms: O3_25  and  C18_26 
REMARK   10  A    between atoms: C18_26  and  C19_27 
REMARK   11  A    between atoms: C23_33  and  C24_34 
REMARK   12  A    between atoms: C24_34  and  N5_35 
REMARK       I    between atoms: N5_35  and  C25_37 
ROOT
HETATM    1  C13 UNL     1       1.023  -0.781  -0.693  1.00  0.00     0.246 C 
HETATM    2  O2  UNL     1       1.072  -1.690  -1.519  1.00  0.00    -0.271 OA
HETATM    3  N3  UNL     1       2.120  -0.135  -0.157  1.00  0.00    -0.325 N 
ATOM      4  H3  UNL     1       1.939   0.609   0.517  1.00  0.00     0.169 HD
ENDROOT
BRANCH   1   5
HETATM    5  C12 UNL     1      -0.354  -0.332  -0.226  1.00  0.00     0.278 C 
BRANCH   5   6
HETATM    6  O1  UNL     1      -1.348  -1.073  -0.861  1.00  0.00    -0.342 OA
BRANCH   6   7
HETATM    7  C11 UNL     1      -2.700  -0.967  -0.710  1.00  0.00     0.069 A 
HETATM    8  C10 UNL     1      -3.501  -1.828  -1.465  1.00  0.00     0.037 A 
HETATM    9  C9  UNL     1      -4.866  -1.821  -1.404  1.00  0.00     0.015 A 
HETATM   10  C8  UNL     1      -5.480  -0.924  -0.560  1.00  0.00    -0.026 A 
HETATM   11  C29 UNL     1      -4.720  -0.062   0.198  1.00  0.00     0.015 A 
HETATM   12  C28 UNL     1      -3.322  -0.080   0.126  1.00  0.00     0.037 A 
BRANCH  10  13
HETATM   13  C7  UNL     1      -6.929  -0.878  -0.469  1.00  0.00    -0.024 A 
HETATM   14  C6  UNL     1      -7.608  -0.533   0.681  1.00  0.00     0.042 A 
HETATM   15  C5  UNL     1      -8.983  -0.492   0.745  1.00  0.00     0.049 A 
HETATM   16  N2  UNL     1      -9.635  -0.153   1.874  1.00  0.00    -0.351 N 
HETATM   17  C32 UNL     1      -9.744  -0.803  -0.362  1.00  0.00     0.059 A 
HETATM   18  C4  UNL     1     -10.998  -0.125   1.899  1.00  0.00     0.186 A 
ATOM     19  H2  UNL     1      -9.107   0.084   2.714  1.00  0.00     0.166 HD
HETATM   20  N1  UNL     1     -11.746  -0.425   0.826  1.00  0.00    -0.306 N 
HETATM   21  C33 UNL     1     -11.144  -0.771  -0.329  1.00  0.00     0.261 A 
HETATM   22  O5  UNL     1     -11.829  -1.056  -1.347  1.00  0.00    -0.267 OA
HETATM   23  C31 UNL     1      -9.092  -1.152  -1.525  1.00  0.00     0.020 A 
HETATM   24  C30 UNL     1      -7.717  -1.189  -1.578  1.00  0.00     0.013 A 
BRANCH  20  25
HETATM   25  C3  UNL     1     -13.193  -0.366   0.944  1.00  0.00     0.159 C 
BRANCH  25  26
HETATM   26  C2  UNL     1     -13.710   0.987   0.604  1.00  0.00    -0.017 C 
HETATM   27  C1  UNL     1     -14.386   1.678   1.512  1.00  0.00     0.008 C 
ENDBRANCH  25  26
ENDBRANCH  20  25
ENDBRANCH  10  13
ENDBRANCH   6   7
ENDBRANCH   5   6
ENDBRANCH   1   5
BRANCH   3  28
HETATM   28  C14 UNL     1       3.466  -0.415  -0.461  1.00  0.00     0.035 A 
HETATM   29  C15 UNL     1       3.924  -1.556  -1.072  1.00  0.00     0.032 A 
HETATM   30  C16 UNL     1       5.276  -1.768  -1.368  1.00  0.00     0.039 A 
HETATM   31  C17 UNL     1       6.218  -0.812  -1.048  1.00  0.00     0.069 A 
HETATM   32  C26 UNL     1       5.777   0.328  -0.440  1.00  0.00     0.039 A 
HETATM   33  C27 UNL     1       4.463   0.524  -0.157  1.00  0.00     0.032 A 
BRANCH  31  34
HETATM   34  O3  UNL     1       7.505  -1.064  -1.360  1.00  0.00    -0.347 OA
BRANCH  34  35
HETATM   35  C18 UNL     1       8.627  -0.310  -1.133  1.00  0.00     0.216 C 
BRANCH  35  36
HETATM   36  C19 UNL     1       9.034  -0.111   0.275  1.00  0.00    -0.010 A 
HETATM   37  C20 UNL     1       8.445  -0.708   1.365  1.00  0.00     0.012 A 
HETATM   38  C21 UNL     1       8.956  -0.466   2.612  1.00  0.00     0.018 A 
HETATM   39  C22 UNL     1      10.054   0.367   2.785  1.00  0.00     0.088 A 
HETATM   40  N4  UNL     1      10.601   0.931   1.689  1.00  0.00    -0.367 N 
HETATM   41  C23 UNL     1      10.139   0.725   0.463  1.00  0.00     0.035 A 
ATOM     42  H4  UNL     1      11.407   1.544   1.808  1.00  0.00     0.165 HD
BRANCH  41  43
HETATM   43  C24 UNL     1      10.768   1.359  -0.698  1.00  0.00     0.181 C 
BRANCH  43  44
HETATM   44  N5  UNL     1      11.890   2.184  -0.298  1.00  0.00    -0.340 N 
HETATM   45  C25 UNL     1      12.640   2.888  -1.257  1.00  0.00     0.329 C 
HETATM   46  N6  UNL     1      13.747   3.708  -0.918  1.00  0.00    -0.040 NA
HETATM   47  O4  UNL     1      12.344   2.813  -2.493  1.00  0.00    -0.251 OA
ATOM     48  H5  UNL     1      12.138   2.255   0.689  1.00  0.00     0.164 HD
ENDBRANCH  43  44
ENDBRANCH  41  43
ENDBRANCH  35  36
ENDBRANCH  34  35
ENDBRANCH  31  34
ENDBRANCH   3  28
TORSDOF 12
