REMARK  13 active torsions:
REMARK  status: ('A' for Active; 'I' for Inactive)
REMARK    1  A    between atoms: C2_2  and  C3_3 
REMARK    2  A    between atoms: C3_3  and  N1_4 
REMARK    3  A    between atoms: N2_7  and  C6_8 
REMARK    4  A    between atoms: C6_8  and  C7_9 
REMARK    5  A    between atoms: C7_9  and  C8_10 
REMARK    6  A    between atoms: C8_10  and  C9_11 
REMARK    7  A    between atoms: C9_11  and  N3_12 
REMARK    8  A    between atoms: N3_12  and  C10_14 
REMARK    9  A    between atoms: C11_17  and  N5_18 
REMARK   10  A    between atoms: C16_24  and  O1_25 
REMARK   11  A    between atoms: C19_33  and  C20_34 
REMARK   12  A    between atoms: C20_34  and  C21_35 
REMARK   13  A    between atoms: C24_38  and  O2_39 
ROOT
HETATM    1  C10 UNL     1      -2.254   0.871  -0.890  1.00  0.00     0.131 A 
HETATM    2  N4  UNL     1      -2.291  -0.474  -0.758  1.00  0.00    -0.176 N 
ATOM      3  H4  UNL     1      -1.498  -0.931  -0.307  1.00  0.00     0.186 HD
HETATM    4  C11 UNL     1      -3.298  -1.244  -1.180  1.00  0.00     0.685 A 
HETATM    5  N7  UNL     1      -4.329  -0.655  -1.767  1.00  0.00    -0.175 N 
ATOM      6  H7  UNL     1      -5.112  -1.217  -2.100  1.00  0.00     0.186 HD
HETATM    7  C17 UNL     1      -4.349   0.677  -1.926  1.00  0.00     0.135 A 
HETATM    8  N8  UNL     1      -5.278   1.481  -2.510  1.00  0.00    -0.350 N 
ATOM      9  H8  UNL     1      -6.153   1.161  -2.925  1.00  0.00     0.166 HD
HETATM   10  C18 UNL     1      -4.873   2.751  -2.458  1.00  0.00     0.098 A 
HETATM   11  C19 UNL     1      -3.618   2.804  -1.811  1.00  0.00    -0.021 A 
HETATM   12  C27 UNL     1      -3.321   1.517  -1.499  1.00  0.00     0.061 A 
ENDROOT
BRANCH   1  13
HETATM   13  N3  UNL     1      -1.259   1.563  -0.524  1.00  0.00    -0.375 N 
ATOM     14  H3  UNL     1      -1.334   2.570  -0.670  1.00  0.00     0.161 HD
BRANCH  13  15
HETATM   15  C9  UNL     1      -0.035   1.099   0.073  1.00  0.00     0.121 C 
BRANCH  15  16
HETATM   16  C8  UNL     1       1.134   1.999  -0.260  1.00  0.00     0.021 C 
BRANCH  16  17
HETATM   17  C7  UNL     1       2.375   1.459   0.399  1.00  0.00     0.032 C 
BRANCH  17  18
HETATM   18  C6  UNL     1       2.730   0.085  -0.049  1.00  0.00     0.272 C 
BRANCH  18  19
HETATM   19  N2  UNL     1       3.926  -0.436   0.567  1.00  0.00     0.091 N 
HETATM   20  C5  UNL     1       4.143  -1.757   0.043  1.00  0.00     0.302 C 
HETATM   21  C4  UNL     1       5.364  -2.336   0.709  1.00  0.00     0.302 C 
HETATM   22  N1  UNL     1       6.482  -1.512   0.294  1.00  0.00     0.091 N 
HETATM   23  C29 UNL     1       6.336  -0.200   0.819  1.00  0.00     0.302 C 
HETATM   24  C28 UNL     1       5.062   0.439   0.386  1.00  0.00     0.302 C 
BRANCH  22  25
HETATM   25  C3  UNL     1       7.702  -2.162   0.583  1.00  0.00     0.272 C 
BRANCH  25  26
HETATM   26  C2  UNL     1       8.940  -1.404   0.207  1.00  0.00     0.026 C 
HETATM   27  C1  UNL     1      10.185  -2.194   0.559  1.00  0.00     0.007 C 
ENDBRANCH  25  26
ENDBRANCH  22  25
ENDBRANCH  18  19
ENDBRANCH  17  18
ENDBRANCH  16  17
ENDBRANCH  15  16
ENDBRANCH  13  15
ENDBRANCH   1  13
BRANCH   4  28
HETATM   28  N5  UNL     1      -3.256  -2.653  -1.002  1.00  0.00    -0.188 N 
HETATM   29  C12 UNL     1      -2.080  -3.235  -0.372  1.00  0.00     0.174 C 
HETATM   30  C13 UNL     1      -1.970  -4.718  -0.625  1.00  0.00     0.292 C 
HETATM   31  N6  UNL     1      -3.149  -5.442  -0.274  1.00  0.00     0.090 N 
HETATM   32  C14 UNL     1      -3.065  -6.066   1.031  1.00  0.00     0.310 C 
HETATM   33  C15 UNL     1      -4.373  -4.752  -0.494  1.00  0.00     0.326 C 
HETATM   34  C16 UNL     1      -4.293  -3.552  -1.398  1.00  0.00     0.265 C 
BRANCH  34  35
HETATM   35  O1  UNL     1      -4.002  -4.020  -2.698  1.00  0.00    -0.374 OA
ATOM     36  H1  UNL     1      -4.692  -4.618  -2.961  1.00  0.00     0.212 HD
ENDBRANCH  34  35
ENDBRANCH   4  28
BRANCH  11  37
HETATM   37  C20 UNL     1      -2.895   4.042  -1.482  1.00  0.00     0.081 C 
BRANCH  37  38
HETATM   38  C21 UNL     1      -3.334   4.595  -0.201  1.00  0.00    -0.038 A 
HETATM   39  C22 UNL     1      -2.672   4.538   0.978  1.00  0.00     0.013 A 
HETATM   40  C23 UNL     1      -3.165   5.084   2.148  1.00  0.00     0.056 A 
HETATM   41  C24 UNL     1      -4.383   5.713   2.101  1.00  0.00     0.141 A 
HETATM   42  N9  UNL     1      -5.077   5.792   0.943  1.00  0.00    -0.346 N 
HETATM   43  C26 UNL     1      -4.579   5.250  -0.192  1.00  0.00     0.097 A 
ATOM     44  H9  UNL     1      -5.981   6.263   0.925  1.00  0.00     0.167 HD
BRANCH  41  45
HETATM   45  O2  UNL     1      -4.889   6.265   3.260  1.00  0.00    -0.341 OA
HETATM   46  C25 UNL     1      -6.144   6.912   3.209  1.00  0.00     0.211 C 
ENDBRANCH  41  45
ENDBRANCH  37  38
ENDBRANCH  11  37
TORSDOF 13
