REMARK  15 active torsions:
REMARK  status: ('A' for Active; 'I' for Inactive)
REMARK    1  A    between atoms: C1_2  and  C2_3 
REMARK       I    between atoms: C1_2  and  N5_40 
REMARK    2  A    between atoms: C2_3  and  C3_4 
REMARK    3  A    between atoms: C3_4  and  N1_5 
REMARK    4  A    between atoms: C3_4  and  C22_31 
REMARK    5  A    between atoms: N1_5  and  N2_7 
REMARK       I    between atoms: N2_7  and  C4_9 
REMARK    6  A    between atoms: C4_9  and  C5_11 
REMARK    7  A    between atoms: C5_11  and  C6_12 
REMARK    8  A    between atoms: C6_12  and  C7_13 
REMARK    9  A    between atoms: C7_13  and  C8_14 
REMARK   10  A    between atoms: C8_14  and  C9_15 
REMARK       I    between atoms: C9_15  and  N3_17 
REMARK   11  A    between atoms: N3_17  and  C10_19 
REMARK   12  A    between atoms: C10_19  and  C11_20 
REMARK   13  A    between atoms: C11_20  and  C12_21 
REMARK   14  A    between atoms: C25_34  and  N4_35 
REMARK   15  A    between atoms: N5_40  and  C28_42 
ROOT
HETATM    1  N1  UNL     1      -3.243   0.719   0.821  1.00  0.00    -0.301 N 
ATOM      2  H1  UNL     1      -2.918   1.443   1.462  1.00  0.00     0.186 HD
ENDROOT
BRANCH   1   3
HETATM    3  C3  UNL     1      -4.432   0.765   0.334  1.00  0.00     0.044 C 
BRANCH   3   4
HETATM    4  C2  UNL     1      -4.954  -0.260  -0.602  1.00  0.00     0.162 C 
BRANCH   4   5
HETATM    5  C1  UNL     1      -6.062  -1.052  -0.041  1.00  0.00     0.229 C 
HETATM    6  O1  UNL     1      -6.408  -0.859   1.146  1.00  0.00    -0.273 OA
HETATM    7  N5  UNL     1      -6.757  -2.034  -0.809  1.00  0.00    -0.306 N 
ATOM      8  H5  UNL     1      -6.427  -2.291  -1.739  1.00  0.00     0.171 HD
BRANCH   7   9
HETATM    9  C28 UNL     1      -7.825  -2.602  -0.303  1.00  0.00     0.167 A 
HETATM   10  N6  UNL     1      -8.601  -3.534  -0.865  1.00  0.00    -0.279 N 
HETATM   11  N7  UNL     1      -9.598  -3.965  -0.212  1.00  0.00    -0.303 N 
ATOM     12  H6  UNL     1      -8.395  -3.890  -1.798  1.00  0.00     0.189 HD
HETATM   13  C29 UNL     1      -9.863  -3.502   1.000  1.00  0.00     0.160 A 
ATOM     14  H7  UNL     1     -10.202  -4.676  -0.624  1.00  0.00     0.186 HD
HETATM   15  S1  UNL     1      -8.593  -2.374   1.206  1.00  0.00    -0.046 SA
ENDBRANCH   7   9
ENDBRANCH   4   5
ENDBRANCH   3   4
BRANCH   3  16
HETATM   16  C22 UNL     1      -5.282   1.889   0.774  1.00  0.00    -0.012 A 
HETATM   17  C23 UNL     1      -6.552   2.109   0.292  1.00  0.00     0.016 A 
HETATM   18  C24 UNL     1      -7.333   3.169   0.733  1.00  0.00     0.037 A 
HETATM   19  C25 UNL     1      -6.850   4.045   1.679  1.00  0.00     0.102 A 
HETATM   20  C26 UNL     1      -5.563   3.837   2.179  1.00  0.00     0.037 A 
HETATM   21  C27 UNL     1      -4.810   2.772   1.720  1.00  0.00     0.016 A 
BRANCH  19  22
HETATM   22  N4  UNL     1      -7.603   5.141   2.162  1.00  0.00    -0.116 N 
HETATM   23  O4  UNL     1      -7.151   5.920   3.011  1.00  0.00    -0.532 OA
HETATM   24  O5  UNL     1      -8.864   5.346   1.677  1.00  0.00    -0.532 OA
ENDBRANCH  19  22
ENDBRANCH   3  16
ENDBRANCH   1   3
BRANCH   1  25
HETATM   25  N2  UNL     1      -2.406  -0.332   0.462  1.00  0.00    -0.270 N 
HETATM   26  C4  UNL     1      -1.537  -0.242  -0.660  1.00  0.00     0.235 C 
HETATM   27  O2  UNL     1      -1.504   0.794  -1.363  1.00  0.00    -0.272 OA
ATOM     28  H2  UNL     1      -2.416  -1.188   1.017  1.00  0.00     0.190 HD
BRANCH  26  29
HETATM   29  C5  UNL     1      -0.638  -1.381  -1.035  1.00  0.00     0.104 C 
BRANCH  29  30
HETATM   30  C6  UNL     1       0.135  -1.037  -2.298  1.00  0.00     0.010 C 
BRANCH  30  31
HETATM   31  C7  UNL     1       1.034  -2.167  -2.682  1.00  0.00     0.010 C 
BRANCH  31  32
HETATM   32  C8  UNL     1       2.055  -2.510  -1.643  1.00  0.00     0.103 C 
BRANCH  32  33
HETATM   33  C9  UNL     1       3.002  -1.419  -1.369  1.00  0.00     0.217 C 
HETATM   34  O3  UNL     1       3.015  -0.345  -2.046  1.00  0.00    -0.274 OA
HETATM   35  N3  UNL     1       3.949  -1.583  -0.290  1.00  0.00    -0.361 N 
ATOM     36  H3  UNL     1       3.947  -2.442   0.260  1.00  0.00     0.162 HD
BRANCH  35  37
HETATM   37  C10 UNL     1       4.900  -0.536   0.015  1.00  0.00     0.127 C 
BRANCH  37  38
HETATM   38  C11 UNL     1       5.775  -0.940   1.176  1.00  0.00     0.059 C 
BRANCH  38  39
HETATM   39  C12 UNL     1       6.739   0.152   1.446  1.00  0.00    -0.045 A 
HETATM   40  C13 UNL     1       6.528   1.072   2.467  1.00  0.00     0.008 A 
HETATM   41  C14 UNL     1       7.387   2.116   2.729  1.00  0.00     0.001 A 
HETATM   42  C15 UNL     1       8.494   2.215   1.916  1.00  0.00     0.012 A 
HETATM   43  C16 UNL     1       8.731   1.304   0.883  1.00  0.00    -0.025 A 
HETATM   44  C17 UNL     1       9.866   1.458   0.108  1.00  0.00     0.012 A 
HETATM   45  C21 UNL     1       7.855   0.270   0.644  1.00  0.00    -0.020 A 
HETATM   46  C18 UNL     1      10.109   0.559  -0.908  1.00  0.00     0.001 A 
HETATM   47  C19 UNL     1       9.233  -0.477  -1.147  1.00  0.00     0.001 A 
HETATM   48  C20 UNL     1       8.107  -0.624  -0.373  1.00  0.00     0.013 A 
ENDBRANCH  38  39
ENDBRANCH  37  38
ENDBRANCH  35  37
ENDBRANCH  32  33
ENDBRANCH  31  32
ENDBRANCH  30  31
ENDBRANCH  29  30
ENDBRANCH  26  29
ENDBRANCH   1  25
TORSDOF 15
