REMARK  18 active torsions:
REMARK  status: ('A' for Active; 'I' for Inactive)
REMARK    1  A    between atoms: O1_2  and  C2_3 
REMARK    2  A    between atoms: C2_3  and  C3_5 
REMARK       I    between atoms: N1_7  and  C5_9 
REMARK    3  A    between atoms: C5_9  and  C6_11 
REMARK    4  A    between atoms: C6_11  and  C7_12 
REMARK    5  A    between atoms: C6_11  and  C28_41 
REMARK    6  A    between atoms: C8_13  and  C9_14 
REMARK    7  A    between atoms: C9_14  and  C11_16 
REMARK       I    between atoms: C11_16  and  N2_18 
REMARK    8  A    between atoms: N2_18  and  C12_20 
REMARK    9  A    between atoms: C12_20  and  C13_21 
REMARK   10  A    between atoms: C12_20  and  C17_25 
REMARK   11  A    between atoms: C13_21  and  C14_22 
REMARK   12  A    between atoms: C17_25  and  C18_27 
REMARK   13  A    between atoms: C18_27  and  C19_28 
REMARK   14  A    between atoms: C18_27  and  N3_32 
REMARK   15  A    between atoms: C19_28  and  C20_29 
REMARK       I    between atoms: N3_32  and  C23_34 
REMARK   16  A    between atoms: C23_34  and  O7_36 
REMARK   17  A    between atoms: O7_36  and  C24_37 
REMARK   18  A    between atoms: C28_41  and  O8_44 
ROOT
HETATM    1  C11 UNL     1       0.275  -2.199   0.176  1.00  0.00     0.225 C 
HETATM    2  O4  UNL     1      -0.371  -3.265  -0.116  1.00  0.00    -0.273 OA
HETATM    3  N2  UNL     1      -0.191  -0.949  -0.334  1.00  0.00    -0.349 N 
ATOM      4  H2  UNL     1       0.330  -0.099  -0.118  1.00  0.00     0.163 HD
ENDROOT
BRANCH   3   5
HETATM    5  C12 UNL     1      -1.386  -0.858  -1.151  1.00  0.00     0.156 C 
BRANCH   5   6
HETATM    6  C13 UNL     1      -1.101  -0.120  -2.408  1.00  0.00     0.037 C 
BRANCH   6   7
HETATM    7  C14 UNL     1      -0.105  -0.657  -3.352  1.00  0.00    -0.020 C 
HETATM    8  C15 UNL     1      -0.043   0.316  -4.556  1.00  0.00     0.009 C 
HETATM    9  C16 UNL     1       1.290  -0.829  -2.897  1.00  0.00     0.009 C 
ENDBRANCH   6   7
ENDBRANCH   5   6
BRANCH   5  10
HETATM   10  C17 UNL     1      -2.353  -0.035  -0.329  1.00  0.00     0.172 C 
HETATM   11  O5  UNL     1      -1.873   0.943   0.225  1.00  0.00    -0.293 OA
BRANCH  10  12
HETATM   12  C18 UNL     1      -3.785  -0.332  -0.163  1.00  0.00     0.159 C 
BRANCH  12  13
HETATM   13  C19 UNL     1      -4.355  -1.147  -1.248  1.00  0.00     0.037 C 
BRANCH  13  14
HETATM   14  C20 UNL     1      -5.798  -1.513  -1.157  1.00  0.00    -0.020 C 
HETATM   15  C21 UNL     1      -6.774  -0.402  -1.132  1.00  0.00     0.009 C 
HETATM   16  C22 UNL     1      -6.170  -2.475  -2.288  1.00  0.00     0.009 C 
ENDBRANCH  13  14
ENDBRANCH  12  13
BRANCH  12  17
HETATM   17  N3  UNL     1      -4.456   0.895   0.166  1.00  0.00    -0.325 N 
HETATM   18  C23 UNL     1      -4.942   1.234   1.458  1.00  0.00     0.361 C 
HETATM   19  O6  UNL     1      -4.784   0.421   2.403  1.00  0.00    -0.238 OA
ATOM     20  H3  UNL     1      -4.594   1.573  -0.583  1.00  0.00     0.165 HD
BRANCH  18  21
HETATM   21  O7  UNL     1      -5.582   2.417   1.732  1.00  0.00    -0.294 OA
BRANCH  21  22
HETATM   22  C24 UNL     1      -6.093   2.854   2.947  1.00  0.00     0.061 C 
HETATM   23  C25 UNL     1      -6.697   4.243   2.689  1.00  0.00     0.046 C 
HETATM   24  C26 UNL     1      -7.197   1.998   3.492  1.00  0.00     0.046 C 
HETATM   25  C27 UNL     1      -5.031   3.037   4.010  1.00  0.00     0.046 C 
ENDBRANCH  21  22
ENDBRANCH  18  21
ENDBRANCH  12  17
ENDBRANCH  10  12
ENDBRANCH   5  10
ENDBRANCH   3   5
BRANCH   1  26
HETATM   26  C9  UNL     1       1.465  -2.353   1.035  1.00  0.00     0.096 C 
HETATM   27  C10 UNL     1       1.091  -1.719   2.376  1.00  0.00     0.024 C 
BRANCH  26  28
HETATM   28  C8  UNL     1       2.701  -1.770   0.501  1.00  0.00    -0.016 C 
HETATM   29  C7  UNL     1       3.803  -2.439   0.233  1.00  0.00    -0.013 C 
BRANCH  29  30
HETATM   30  C6  UNL     1       5.050  -1.856  -0.303  1.00  0.00     0.134 C 
BRANCH  30  31
HETATM   31  C5  UNL     1       4.921  -0.381  -0.510  1.00  0.00     0.232 C 
HETATM   32  N1  UNL     1       4.860   0.563   0.486  1.00  0.00    -0.325 N 
HETATM   33  C3  UNL     1       5.405   1.664   0.725  1.00  0.00     0.083 C 
ATOM     34  H1  UNL     1       4.202   0.299   1.219  1.00  0.00     0.168 HD
HETATM   35  C4  UNL     1       4.992   2.351   2.008  1.00  0.00     0.075 C 
HETATM   36  O3  UNL     1       4.861  -0.002  -1.734  1.00  0.00    -0.272 OA
BRANCH  33  37
HETATM   37  C2  UNL     1       6.379   2.330  -0.100  1.00  0.00     0.305 C 
HETATM   38  O2  UNL     1       6.840   3.454   0.294  1.00  0.00    -0.258 OA
BRANCH  37  39
HETATM   39  O1  UNL     1       6.892   1.887  -1.300  1.00  0.00    -0.322 OA
HETATM   40  C1  UNL     1       7.859   2.611  -2.057  1.00  0.00     0.213 C 
ENDBRANCH  37  39
ENDBRANCH  33  37
ENDBRANCH  30  31
BRANCH  30  41
HETATM   41  C28 UNL     1       6.212  -2.117   0.642  1.00  0.00     0.066 C 
HETATM   42  C29 UNL     1       7.479  -1.574   0.053  1.00  0.00     0.046 C 
HETATM   43  C30 UNL     1       6.015  -1.567   2.013  1.00  0.00     0.046 C 
BRANCH  41  44
HETATM   44  O8  UNL     1       6.328  -3.516   0.724  1.00  0.00    -0.389 OA
ATOM     45  H8  UNL     1       7.054  -3.679   1.314  1.00  0.00     0.210 HD
ENDBRANCH  41  44
ENDBRANCH  30  41
ENDBRANCH  29  30
ENDBRANCH  26  28
ENDBRANCH   1  26
TORSDOF 18
