REMARK  17 active torsions:
REMARK  status: ('A' for Active; 'I' for Inactive)
REMARK    1  A    between atoms: O1_2  and  C2_3 
REMARK    2  A    between atoms: C4_5  and  O2_6 
REMARK    3  A    between atoms: O2_6  and  C5_7 
REMARK    4  A    between atoms: C12_14  and  O3_15 
REMARK    5  A    between atoms: C15_18  and  C16_19 
REMARK    6  A    between atoms: C16_19  and  O4_20 
REMARK    7  A    between atoms: C16_19  and  N1_22 
REMARK    8  A    between atoms: N1_22  and  N2_24 
REMARK    9  A    between atoms: C17_26  and  O5_27 
REMARK   10  A    between atoms: C17_26  and  C18_29 
REMARK   11  A    between atoms: C18_29  and  C19_30 
REMARK   12  A    between atoms: C19_30  and  C20_31 
REMARK       I    between atoms: C20_31  and  N3_33 
REMARK   13  A    between atoms: N3_33  and  C21_34 
REMARK   14  A    between atoms: C21_34  and  C22_35 
REMARK   15  A    between atoms: C22_35  and  C23_36 
REMARK   16  A    between atoms: C26_39  and  O7_40 
REMARK   17  A    between atoms: C28_42  and  O8_43 
ROOT
HETATM    1  N1  UNL     1      -0.064  -0.457  -1.558  1.00  0.00    -0.278 N 
ATOM      2  H1  UNL     1       0.319  -1.286  -2.012  1.00  0.00     0.189 HD
ENDROOT
BRANCH   1   3
HETATM    3  C16 UNL     1      -0.973  -0.438  -0.527  1.00  0.00     0.165 C 
BRANCH   3   4
HETATM    4  C15 UNL     1      -1.805  -0.980   0.398  1.00  0.00     0.021 A 
HETATM    5  C14 UNL     1      -2.855  -0.147   0.923  1.00  0.00     0.053 A 
HETATM    6  C4  UNL     1      -3.852  -0.643   1.677  1.00  0.00     0.079 A 
HETATM    7  C3  UNL     1      -3.848  -1.944   1.951  1.00  0.00     0.074 A 
HETATM    8  C2  UNL     1      -2.916  -2.865   1.509  1.00  0.00     0.071 A 
HETATM    9  C31 UNL     1      -1.905  -2.349   0.740  1.00  0.00     0.052 A 
BRANCH   6  10
HETATM   10  O2  UNL     1      -4.916   0.212   2.138  1.00  0.00    -0.308 OA
BRANCH  10  11
HETATM   11  C5  UNL     1      -6.114  -0.222   1.485  1.00  0.00     0.110 A 
HETATM   12  C6  UNL     1      -7.211  -0.602   2.251  1.00  0.00     0.047 A 
HETATM   13  C7  UNL     1      -8.395  -1.076   1.668  1.00  0.00    -0.053 A 
HETATM   14  C8  UNL     1      -9.609  -1.396   2.449  1.00  0.00     0.049 C 
HETATM   15  C9  UNL     1      -8.410  -1.141   0.302  1.00  0.00    -0.053 A 
HETATM   16  C10 UNL     1      -9.629  -1.848  -0.271  1.00  0.00     0.049 C 
HETATM   17  C11 UNL     1      -7.403  -0.775  -0.486  1.00  0.00     0.047 A 
HETATM   18  C12 UNL     1      -6.166  -0.273   0.133  1.00  0.00     0.102 A 
BRANCH  18  19
HETATM   19  O3  UNL     1      -5.204   0.128  -0.718  1.00  0.00    -0.353 OA
HETATM   20  C13 UNL     1      -5.419   0.144  -2.122  1.00  0.00     0.210 C 
ENDBRANCH  18  19
ENDBRANCH  10  11
ENDBRANCH   6  10
BRANCH   8  21
HETATM   21  O1  UNL     1      -3.003  -4.246   1.806  1.00  0.00    -0.356 OA
HETATM   22  C1  UNL     1      -4.226  -4.485   2.608  1.00  0.00     0.210 C 
ENDBRANCH   8  21
ENDBRANCH   3   4
BRANCH   3  23
HETATM   23  O4  UNL     1      -1.105   0.998  -0.333  1.00  0.00    -0.344 OA
ATOM     24  H4  UNL     1      -0.523   1.377  -0.981  1.00  0.00     0.219 HD
ENDBRANCH   3  23
ENDBRANCH   1   3
BRANCH   1  25
HETATM   25  N2  UNL     1       0.258   0.961  -1.890  1.00  0.00    -0.282 N 
HETATM   26  C17 UNL     1       1.167   1.624  -1.214  1.00  0.00     0.130 C 
ATOM     27  H2  UNL     1      -0.236   1.423  -2.654  1.00  0.00     0.189 HD
BRANCH  26  28
HETATM   28  O5  UNL     1       1.844   0.967  -0.212  1.00  0.00    -0.348 OA
ATOM     29  H5  UNL     1       2.502   1.447   0.277  1.00  0.00     0.219 HD
ENDBRANCH  26  28
BRANCH  26  30
HETATM   30  C18 UNL     1       1.633   3.028  -1.332  1.00  0.00     0.095 C 
BRANCH  30  31
HETATM   31  C19 UNL     1       2.213   3.318   0.005  1.00  0.00     0.127 C 
BRANCH  31  32
HETATM   32  C20 UNL     1       3.089   4.818  -0.179  1.00  0.00     0.286 C 
HETATM   33  O6  UNL     1       2.073   5.467  -0.151  1.00  0.00    -0.258 OA
HETATM   34  N3  UNL     1       4.249   4.291  -0.223  1.00  0.00    -0.415 NA
BRANCH  34  35
HETATM   35  C21 UNL     1       5.604   3.703  -0.274  1.00  0.00     0.226 C 
BRANCH  35  36
HETATM   36  C22 UNL     1       5.268   2.205  -0.289  1.00  0.00     0.072 C 
BRANCH  36  37
HETATM   37  C23 UNL     1       6.317   1.270  -0.600  1.00  0.00    -0.053 A 
HETATM   38  C24 UNL     1       6.239   0.499  -1.729  1.00  0.00     0.010 A 
HETATM   39  C25 UNL     1       7.183  -0.503  -2.006  1.00  0.00     0.040 A 
HETATM   40  C26 UNL     1       8.216  -0.760  -1.204  1.00  0.00     0.101 A 
HETATM   41  C28 UNL     1       8.325   0.042  -0.041  1.00  0.00     0.102 A 
HETATM   42  C30 UNL     1       7.416   1.007   0.263  1.00  0.00     0.046 A 
BRANCH  40  43
HETATM   43  O7  UNL     1       9.163  -1.751  -1.366  1.00  0.00    -0.353 OA
HETATM   44  C27 UNL     1       8.963  -2.726  -2.371  1.00  0.00     0.210 C 
ENDBRANCH  40  43
BRANCH  41  45
HETATM   45  O8  UNL     1       9.450  -0.214   0.760  1.00  0.00    -0.353 OA
HETATM   46  C29 UNL     1       9.616   0.679   1.866  1.00  0.00     0.210 C 
ENDBRANCH  41  45
ENDBRANCH  36  37
ENDBRANCH  35  36
ENDBRANCH  34  35
ENDBRANCH  31  32
ENDBRANCH  30  31
ENDBRANCH  26  30
ENDBRANCH   1  25
TORSDOF 17
