REMARK  19 active torsions:
REMARK  status: ('A' for Active; 'I' for Inactive)
REMARK    1  A    between atoms: C2_2  and  C3_3 
REMARK    2  A    between atoms: C3_3  and  C4_4 
REMARK    3  A    between atoms: C4_4  and  O1_5 
REMARK    4  A    between atoms: O1_5  and  C5_6 
REMARK       I    between atoms: C5_6  and  N1_8 
REMARK    5  A    between atoms: C9_12  and  C10_13 
REMARK    6  A    between atoms: C10_13  and  C11_14 
REMARK    7  A    between atoms: C11_14  and  C12_15 
REMARK    8  A    between atoms: C11_14  and  N2_24 
REMARK    9  A    between atoms: C12_15  and  S1_16 
REMARK   10  A    between atoms: S1_16  and  C13_17 
REMARK   11  A    between atoms: C13_17  and  O4_19 
REMARK   12  A    between atoms: O4_19  and  C14_20 
REMARK   13  A    between atoms: C14_20  and  C15_21 
REMARK   14  A    between atoms: N2_24  and  C18_25 
REMARK   15  A    between atoms: C18_25  and  O5_26 
REMARK   16  A    between atoms: C18_25  and  C19_28 
REMARK   17  A    between atoms: C19_28  and  N3_30 
REMARK   18  A    between atoms: C19_28  and  C28_42 
REMARK       I    between atoms: N3_30  and  C21_32 
REMARK       I    between atoms: C21_32  and  N4_34 
REMARK   19  A    between atoms: N5_37  and  C24_38 
ROOT
HETATM    1  C11 UNL     1      -1.919   0.443  -0.155  1.00  0.00     0.095 C 
ENDROOT
BRANCH   1   2
HETATM    2  C10 UNL     1      -2.552   0.007  -1.406  1.00  0.00     0.039 C 
BRANCH   2   3
HETATM    3  C9  UNL     1      -3.303  -1.244  -1.513  1.00  0.00     0.115 C 
HETATM    4  N1  UNL     1      -4.494  -1.467  -0.785  1.00  0.00    -0.320 N 
HETATM    5  C5  UNL     1      -4.738  -2.167   0.399  1.00  0.00     0.363 C 
HETATM    6  C6  UNL     1      -5.610  -0.820  -1.518  1.00  0.00     0.129 C 
HETATM    7  O2  UNL     1      -5.898  -2.249   0.917  1.00  0.00    -0.238 OA
HETATM    8  C7  UNL     1      -5.072  -0.481  -2.880  1.00  0.00     0.022 C 
HETATM    9  C8  UNL     1      -3.824  -1.318  -2.969  1.00  0.00     0.031 C 
BRANCH   5  10
HETATM   10  O1  UNL     1      -3.707  -2.802   1.055  1.00  0.00    -0.304 OA
BRANCH  10  11
HETATM   11  C4  UNL     1      -3.773  -3.525   2.240  1.00  0.00     0.180 C 
BRANCH  11  12
HETATM   12  C3  UNL     1      -4.705  -4.714   2.206  1.00  0.00     0.026 C 
BRANCH  12  13
HETATM   13  C2  UNL     1      -4.334  -5.731   1.165  1.00  0.00    -0.002 C 
HETATM   14  C1  UNL     1      -5.370  -6.847   1.268  1.00  0.00     0.005 C 
ENDBRANCH  12  13
ENDBRANCH  11  12
ENDBRANCH  10  11
ENDBRANCH   5  10
ENDBRANCH   2   3
ENDBRANCH   1   2
BRANCH   1  15
HETATM   15  C12 UNL     1      -2.717   0.744   1.063  1.00  0.00     0.157 C 
BRANCH  15  16
HETATM   16  S1  UNL     1      -4.113   1.823   0.821  1.00  0.00    -0.054 SA
BRANCH  16  17
HETATM   17  C13 UNL     1      -3.694   3.491   0.361  1.00  0.00     0.322 C 
HETATM   18  O3  UNL     1      -4.649   4.284   0.205  1.00  0.00    -0.252 OA
BRANCH  17  19
HETATM   19  O4  UNL     1      -2.439   3.958   0.173  1.00  0.00    -0.312 OA
BRANCH  19  20
HETATM   20  C14 UNL     1      -1.925   5.188  -0.158  1.00  0.00     0.184 C 
BRANCH  20  21
HETATM   21  C15 UNL     1      -1.977   6.320   0.784  1.00  0.00     0.010 A 
HETATM   22  C16 UNL     1      -3.117   6.988   1.386  1.00  0.00     0.007 A 
HETATM   23  C17 UNL     1      -2.464   7.654   0.164  1.00  0.00     0.007 A 
ENDBRANCH  20  21
ENDBRANCH  19  20
ENDBRANCH  17  19
ENDBRANCH  16  17
ENDBRANCH  15  16
ENDBRANCH   1  15
BRANCH   1  24
HETATM   24  N2  UNL     1      -0.694   0.592  -0.047  1.00  0.00    -0.386 NA
BRANCH  24  25
HETATM   25  C18 UNL     1       0.574   0.743   0.053  1.00  0.00     0.227 C 
BRANCH  25  26
HETATM   26  O5  UNL     1       1.100   1.554   0.957  1.00  0.00    -0.337 OA
ATOM     27  H5  UNL     1       2.040   1.666   1.031  1.00  0.00     0.220 HD
ENDBRANCH  25  26
BRANCH  25  28
HETATM   28  C19 UNL     1       1.642   0.071  -0.785  1.00  0.00     0.188 C 
HETATM   29  C20 UNL     1       1.420   0.330  -2.249  1.00  0.00     0.059 C 
BRANCH  28  30
HETATM   30  N3  UNL     1       2.951   0.527  -0.380  1.00  0.00    -0.318 N 
HETATM   31  C21 UNL     1       4.086   0.032  -1.098  1.00  0.00     0.319 C 
HETATM   32  O6  UNL     1       3.928  -0.781  -2.061  1.00  0.00    -0.247 OA
HETATM   33  N4  UNL     1       5.406   0.412  -0.786  1.00  0.00    -0.331 N 
HETATM   34  C22 UNL     1       5.658   1.332   0.291  1.00  0.00     0.158 C 
HETATM   35  C27 UNL     1       6.508  -0.110  -1.543  1.00  0.00     0.158 C 
HETATM   36  C23 UNL     1       7.033   1.087   0.908  1.00  0.00     0.292 C 
HETATM   37  N5  UNL     1       7.385  -0.292   0.666  1.00  0.00     0.091 N 
HETATM   38  C26 UNL     1       7.732  -0.422  -0.734  1.00  0.00     0.292 C 
ATOM     39  H3  UNL     1       3.063   1.182   0.394  1.00  0.00     0.166 HD
BRANCH  37  40
HETATM   40  C24 UNL     1       8.446  -0.752   1.534  1.00  0.00     0.268 C 
HETATM   41  C25 UNL     1       9.763  -0.078   1.225  1.00  0.00     0.037 C 
ENDBRANCH  37  40
ENDBRANCH  28  30
BRANCH  28  42
HETATM   42  C28 UNL     1       1.593  -1.379  -0.520  1.00  0.00     0.268 C 
HETATM   43  N6  UNL     1       0.491  -2.157  -0.923  1.00  0.00    -0.059 NA
HETATM   44  O7  UNL     1       2.530  -2.005   0.079  1.00  0.00    -0.273 OA
ENDBRANCH  28  42
ENDBRANCH  25  28
ENDBRANCH  24  25
ENDBRANCH   1  24
TORSDOF 19
