REMARK  1 active torsions:
REMARK  status: ('A' for Active; 'I' for Inactive)
REMARK    1  A    between atoms: N1_1  and  C1_4 
ROOT
HETATM    1  C1  UNL     1       1.916  -0.082   0.010  1.00  0.00     0.693 A 
HETATM    2  N2  UNL     1       1.198   0.996   0.355  1.00  0.00    -0.167 N 
ATOM      3  H2  UNL     1       1.591   1.887   0.659  1.00  0.00     0.186 HD
HETATM    4  C2  UNL     1      -0.129   0.729   0.240  1.00  0.00     0.228 A 
HETATM    5  C3  UNL     1      -1.411   1.220   0.378  1.00  0.00     0.306 A 
HETATM    6  O1  UNL     1      -1.703   2.387   0.761  1.00  0.00    -0.263 OA
HETATM    7  N3  UNL     1      -2.247   0.229   0.032  1.00  0.00    -0.245 N 
ATOM      8  H3  UNL     1      -3.266   0.268   0.025  1.00  0.00     0.187 HD
HETATM    9  N4  UNL     1      -1.496  -0.807  -0.298  1.00  0.00     0.006 NA
HETATM   10  N5  UNL     1      -0.207  -0.544  -0.185  1.00  0.00    -0.143 N 
HETATM   11  N6  UNL     1       1.027  -1.034  -0.324  1.00  0.00    -0.111 N 
ATOM     12  H6  UNL     1       1.258  -1.978  -0.634  1.00  0.00     0.207 HD
ENDROOT
BRANCH   1  13
HETATM   13  N1  UNL     1       3.199  -0.252  -0.021  1.00  0.00    -0.233 N 
ATOM     14  H12 UNL     1       3.873   0.470   0.232  1.00  0.00     0.174 HD
ATOM     15  H11 UNL     1       3.745  -1.072  -0.284  1.00  0.00     0.174 HD
ENDBRANCH   1  13
TORSDOF 1
