REMARK  17 active torsions:
REMARK  status: ('A' for Active; 'I' for Inactive)
REMARK    1  A    between atoms: C2_2  and  O1_3 
REMARK    2  A    between atoms: O1_3  and  C3_4 
REMARK    3  A    between atoms: C3_4  and  C4_6 
REMARK    4  A    between atoms: C4_6  and  N1_7 
REMARK    5  A    between atoms: N1_7  and  C5_9 
REMARK    6  A    between atoms: C5_9  and  O3_10 
REMARK    7  A    between atoms: C5_9  and  C6_12 
REMARK    8  A    between atoms: C6_12  and  C20_44 
REMARK    9  A    between atoms: N2_13  and  O4_15 
REMARK   10  A    between atoms: O4_15  and  C7_16 
REMARK   11  A    between atoms: C8_17  and  C9_18 
REMARK   12  A    between atoms: C11_26  and  N6_27 
REMARK       I    between atoms: N6_27  and  C12_29 
REMARK   13  A    between atoms: C12_29  and  C13_31 
REMARK   14  A    between atoms: C13_31  and  O8_32 
REMARK   15  A    between atoms: N7_34  and  O9_36 
REMARK   16  A    between atoms: O9_36  and  C14_37 
REMARK   17  A    between atoms: C22_47  and  N8_48 
ROOT
HETATM    1  C6  UNL     1      -3.174   1.275   0.523  1.00  0.00     0.132 C 
HETATM    2  N2  UNL     1      -1.894   1.260   0.577  1.00  0.00    -0.255 N 
ATOM      3  H2  UNL     1      -1.493   0.337   0.412  1.00  0.00     0.195 HD
ENDROOT
BRANCH   2   4
HETATM    4  O4  UNL     1      -0.987   2.191   0.802  1.00  0.00    -0.238 OA
BRANCH   4   5
HETATM    5  C7  UNL     1       0.005   2.591  -0.059  1.00  0.00     0.119 C 
HETATM    6  C8  UNL     1       1.136   3.095   0.443  1.00  0.00     0.148 C 
HETATM    7  N3  UNL     1       2.197   3.569  -0.331  1.00  0.00    -0.295 N 
HETATM    8  C10 UNL     1       3.299   4.462  -0.087  1.00  0.00     0.194 C 
HETATM    9  C18 UNL     1       2.480   3.216  -1.743  1.00  0.00     0.197 C 
HETATM   10  N4  UNL     1       3.247   5.589   0.817  1.00  0.00    -0.063 NA
HETATM   11  N5  UNL     1       4.317   4.122  -0.801  1.00  0.00    -0.340 N 
HETATM   12  C11 UNL     1       3.953   2.926  -1.610  1.00  0.00     0.220 C 
ATOM     13  H5  UNL     1       5.221   4.594  -0.810  1.00  0.00     0.164 HD
HETATM   14  S1  UNL     1       1.403   1.911  -2.250  1.00  0.00    -0.133 SA
HETATM   15  C19 UNL     1      -0.247   2.423  -1.519  1.00  0.00     0.146 C 
BRANCH   6  16
HETATM   16  C9  UNL     1       1.256   3.185   1.918  1.00  0.00     0.229 C 
HETATM   17  O5  UNL     1       0.269   2.810   2.640  1.00  0.00    -0.643 OA
HETATM   18  O6  UNL     1       2.384   3.647   2.520  1.00  0.00    -0.643 OA
ENDBRANCH   6  16
BRANCH  12  19
HETATM   19  N6  UNL     1       4.216   1.821  -0.712  1.00  0.00    -0.330 N 
HETATM   20  C12 UNL     1       5.108   0.800  -1.091  1.00  0.00     0.295 C 
HETATM   21  O7  UNL     1       5.659   0.860  -2.218  1.00  0.00    -0.264 OA
ATOM     22  H6  UNL     1       3.754   1.782   0.197  1.00  0.00     0.165 HD
BRANCH  20  23
HETATM   23  C13 UNL     1       5.402  -0.322  -0.204  1.00  0.00     0.230 C 
HETATM   24  N7  UNL     1       6.212  -1.238  -0.563  1.00  0.00    -0.239 N 
ATOM     25  H7  UNL     1       6.645  -1.165  -1.484  1.00  0.00     0.196 HD
BRANCH  23  26
HETATM   26  O8  UNL     1       4.820  -0.428   1.044  1.00  0.00    -0.341 OA
ATOM     27  H8  UNL     1       5.011  -1.158   1.621  1.00  0.00     0.219 HD
ENDBRANCH  23  26
BRANCH  24  28
HETATM   28  O9  UNL     1       6.533  -2.315   0.219  1.00  0.00    -0.268 OA
BRANCH  28  29
HETATM   29  C14 UNL     1       7.681  -3.086   0.024  1.00  0.00     0.078 C 
HETATM   30  C15 UNL     1       7.609  -3.683  -1.376  1.00  0.00     0.048 C 
HETATM   31  C16 UNL     1       8.964  -2.312   0.206  1.00  0.00     0.048 C 
HETATM   32  C17 UNL     1       7.746  -4.261   0.993  1.00  0.00     0.048 C 
ENDBRANCH  28  29
ENDBRANCH  24  28
ENDBRANCH  20  23
ENDBRANCH  12  19
ENDBRANCH   4   5
ENDBRANCH   2   4
BRANCH   1  33
HETATM   33  C5  UNL     1      -3.799  -0.004   0.235  1.00  0.00     0.171 C 
BRANCH  33  34
HETATM   34  N1  UNL     1      -5.165  -0.328   0.222  1.00  0.00    -0.305 N 
ATOM     35  H1  UNL     1      -5.848   0.389   0.467  1.00  0.00     0.166 HD
BRANCH  34  36
HETATM   36  C4  UNL     1      -5.632  -1.663  -0.133  1.00  0.00     0.452 C 
HETATM   37  N10 UNL     1      -7.091  -1.668  -0.216  1.00  0.00    -0.011 N 
HETATM   38  C23 UNL     1      -7.404  -0.940  -1.453  1.00  0.00     0.266 C 
ATOM     39 2H10 UNL     1      -7.504  -2.599  -0.169  1.00  0.00     0.283 HD
ATOM     40 1H10 UNL     1      -7.553  -1.293   0.612  1.00  0.00     0.283 HD
HETATM   41  C24 UNL     1      -6.053  -0.835  -2.166  1.00  0.00     0.266 C 
HETATM   42  N11 UNL     1      -5.302  -1.913  -1.529  1.00  0.00    -0.011 N 
ATOM     43 2H11 UNL     1      -4.307  -1.952  -1.750  1.00  0.00     0.283 HD
ATOM     44 1H11 UNL     1      -5.499  -2.854  -1.870  1.00  0.00     0.283 HD
BRANCH  36  45
HETATM   45  C3  UNL     1      -5.179  -2.730   0.744  1.00  0.00     0.346 C 
HETATM   46  O2  UNL     1      -4.474  -2.480   1.749  1.00  0.00    -0.258 OA
BRANCH  45  47
HETATM   47  O1  UNL     1      -5.503  -4.059   0.509  1.00  0.00    -0.317 OA
BRANCH  47  48
HETATM   48  C2  UNL     1      -5.047  -5.067   1.379  1.00  0.00     0.174 C 
HETATM   49  C1  UNL     1      -5.552  -6.417   0.881  1.00  0.00     0.034 C 
ENDBRANCH  47  48
ENDBRANCH  45  47
ENDBRANCH  36  45
ENDBRANCH  34  36
ENDBRANCH  33  34
BRANCH  33  50
HETATM   50  O3  UNL     1      -2.950  -0.948  -0.053  1.00  0.00    -0.344 OA
ATOM     51  H3  UNL     1      -2.026  -0.729  -0.044  1.00  0.00     0.219 HD
ENDBRANCH  33  50
ENDBRANCH   1  33
BRANCH   1  52
HETATM   52  C20 UNL     1      -3.939   2.528   0.783  1.00  0.00     0.074 A 
HETATM   53  C21 UNL     1      -3.383   3.500   1.581  1.00  0.00     0.085 A 
HETATM   54  S2  UNL     1      -4.527   4.765   1.477  1.00  0.00    -0.064 SA
HETATM   55  C22 UNL     1      -5.638   4.009   0.441  1.00  0.00     0.142 A 
HETATM   56  N9  UNL     1      -5.082   2.813   0.216  1.00  0.00    -0.335 N 
ATOM     57  H9  UNL     1      -5.543   2.134  -0.389  1.00  0.00     0.168 HD
BRANCH  55  58
HETATM   58  N8  UNL     1      -6.784   4.448  -0.051  1.00  0.00    -0.380 N 
ATOM     59  H82 UNL     1      -7.208   5.360   0.121  1.00  0.00     0.158 HD
ATOM     60  H81 UNL     1      -7.452   3.994  -0.674  1.00  0.00     0.158 HD
ENDBRANCH  55  58
ENDBRANCH   1  52
TORSDOF 17
