REMARK  9 active torsions:
REMARK  status: ('A' for Active; 'I' for Inactive)
REMARK    1  A    between atoms: N1_2  and  C2_5 
REMARK    2  A    between atoms: C2_5  and  C4_7 
REMARK       I    between atoms: C4_7  and  N2_9 
REMARK       I    between atoms: N2_9  and  C5_11 
REMARK    3  A    between atoms: C5_11  and  C6_13 
REMARK    4  A    between atoms: C6_13  and  N3_14 
REMARK    5  A    between atoms: C6_13  and  C24_39 
REMARK    6  A    between atoms: C7_15  and  C8_16 
REMARK       I    between atoms: C8_16  and  N4_18 
REMARK    7  A    between atoms: N4_18  and  C9_20 
REMARK    8  A    between atoms: C9_20  and  C10_21 
REMARK    9  A    between atoms: C9_20  and  C16_31 
REMARK       I    between atoms: C10_21  and  N5_23 
ROOT
HETATM    1  C10 UNL     1       2.575   0.996  -1.140  1.00  0.00     0.244 C 
HETATM    2  O4  UNL     1       1.719   0.745  -2.052  1.00  0.00    -0.271 OA
HETATM    3  N5  UNL     1       3.252   2.233  -1.177  1.00  0.00    -0.330 N 
HETATM    4  C11 UNL     1       4.229   2.813  -0.280  1.00  0.00     0.164 C 
HETATM    5  C12 UNL     1       5.324   3.286  -1.239  1.00  0.00     0.191 C 
HETATM    6  F1  UNL     1       5.977   4.358  -0.706  1.00  0.00    -0.248 F 
HETATM    7  C13 UNL     1       4.556   3.628  -2.509  1.00  0.00     0.079 C 
HETATM    8  C14 UNL     1       3.117   3.273  -2.221  1.00  0.00     0.197 C 
HETATM    9  C15 UNL     1       2.413   4.408  -1.650  1.00  0.00     0.085 C 
HETATM   10  N6  UNL     1       1.861   5.326  -1.202  1.00  0.00    -0.195 NA
ENDROOT
BRANCH   1  11
HETATM   11  C9  UNL     1       2.769  -0.066  -0.115  1.00  0.00     0.180 C 
BRANCH  11  12
HETATM   12  N4  UNL     1       1.486  -0.739   0.146  1.00  0.00    -0.346 N 
HETATM   13  C8  UNL     1       0.729  -0.500   1.287  1.00  0.00     0.252 C 
HETATM   14  O3  UNL     1       1.215   0.347   2.121  1.00  0.00    -0.271 OA
ATOM     15  H4  UNL     1       1.138  -1.409  -0.540  1.00  0.00     0.163 HD
BRANCH  13  16
HETATM   16  C7  UNL     1      -0.564  -1.080   1.687  1.00  0.00     0.316 C 
HETATM   17  N3  UNL     1      -1.131  -2.017   0.748  1.00  0.00     0.121 N 
HETATM   18  C23 UNL     1      -1.060  -3.318   1.387  1.00  0.00     0.229 A 
HETATM   19  C20 UNL     1      -0.509  -3.170   2.790  1.00  0.00     0.021 A 
HETATM   20  C22 UNL     1       0.168  -4.121   1.043  1.00  0.00     0.036 A 
HETATM   21  C19 UNL     1      -0.369  -1.717   3.013  1.00  0.00     0.052 C 
HETATM   22  C21 UNL     1       0.764  -3.866   2.383  1.00  0.00     0.009 A 
BRANCH  17  23
HETATM   23  C6  UNL     1      -2.552  -1.681   0.551  1.00  0.00     0.323 C 
BRANCH  23  24
HETATM   24  C5  UNL     1      -2.613  -0.195   0.148  1.00  0.00     0.258 C 
HETATM   25  N2  UNL     1      -3.774   0.542   0.490  1.00  0.00    -0.294 N 
HETATM   26  C4  UNL     1      -4.014   1.883   0.208  1.00  0.00     0.254 C 
ATOM     27  H2  UNL     1      -4.506   0.040   0.992  1.00  0.00     0.171 HD
HETATM   28  O1  UNL     1      -5.173   2.342   0.546  1.00  0.00    -0.271 OA
HETATM   29  O2  UNL     1      -1.689   0.362  -0.452  1.00  0.00    -0.271 OA
BRANCH  26  30
HETATM   30  C2  UNL     1      -3.136   2.869  -0.424  1.00  0.00     0.273 C 
HETATM   31  C3  UNL     1      -1.925   3.226   0.460  1.00  0.00     0.050 C 
BRANCH  30  32
HETATM   32  N1  UNL     1      -3.820   4.124  -0.705  1.00  0.00    -0.067 N 
HETATM   33  C1  UNL     1      -4.330   4.788   0.452  1.00  0.00     0.267 C 
ATOM     34  H12 UNL     1      -4.563   3.979  -1.389  1.00  0.00     0.277 HD
ATOM     35  H11 UNL     1      -3.213   4.749  -1.236  1.00  0.00     0.277 HD
ENDBRANCH  30  32
ENDBRANCH  26  30
ENDBRANCH  23  24
BRANCH  23  36
HETATM   36  C24 UNL     1      -3.166  -2.396  -0.632  1.00  0.00    -0.011 C 
HETATM   37  C25 UNL     1      -3.291  -3.875  -0.591  1.00  0.00     0.017 C 
HETATM   38  C26 UNL     1      -2.444  -1.959  -1.927  1.00  0.00     0.017 C 
HETATM   39  C27 UNL     1      -4.607  -1.902  -0.856  1.00  0.00     0.017 C 
ENDBRANCH  23  36
ENDBRANCH  17  23
ENDBRANCH  13  16
ENDBRANCH  11  12
BRANCH  11  40
HETATM   40  C16 UNL     1       3.723  -1.128  -0.613  1.00  0.00     0.009 C 
HETATM   41  C17 UNL     1       5.099  -0.606  -0.939  1.00  0.00     0.012 C 
HETATM   42  C18 UNL     1       3.798  -2.316   0.311  1.00  0.00     0.012 C 
ENDBRANCH  11  40
ENDBRANCH   1  11
TORSDOF 9
