REMARK  6 active torsions:
REMARK  status: ('A' for Active; 'I' for Inactive)
REMARK    1  A    between atoms: N4_14  and  C7_15 
REMARK    2  A    between atoms: C7_15  and  C8_16 
REMARK    3  A    between atoms: C8_16  and  N5_17 
REMARK    4  A    between atoms: C9_22  and  N6_23 
REMARK    5  A    between atoms: N6_23  and  C10_25 
REMARK    6  A    between atoms: C11_28  and  N8_29 
ROOT
HETATM    1  C1  UNL     1       1.426  -3.343   0.697  1.00  0.00     0.070 C 
HETATM    2  C2  UNL     1       2.395  -2.382   0.130  1.00  0.00     0.036 A 
HETATM    3  N1  UNL     1       3.728  -2.477   0.301  1.00  0.00    -0.343 N 
ATOM      4  H1  UNL     1       4.108  -3.248   0.849  1.00  0.00     0.167 HD
HETATM    5  C3  UNL     1       4.571  -1.570  -0.240  1.00  0.00     0.129 A 
HETATM    6  N2  UNL     1       5.815  -1.720  -0.043  1.00  0.00    -0.384 N 
ATOM      7  H21 UNL     1       6.451  -1.035  -0.451  1.00  0.00     0.157 HD
ATOM      8  H22 UNL     1       6.148  -2.509   0.511  1.00  0.00     0.157 HD
HETATM    9  C4  UNL     1       4.127  -0.517  -0.980  1.00  0.00     0.109 A 
HETATM   10  C5  UNL     1       2.763  -0.396  -1.170  1.00  0.00     0.093 A 
HETATM   11  N3  UNL     1       2.577   0.686  -1.911  1.00  0.00    -0.348 N 
ATOM     12  H3  UNL     1       1.678   1.050  -2.227  1.00  0.00     0.167 HD
HETATM   13  C6  UNL     1       3.776   1.217  -2.172  1.00  0.00     0.184 A 
HETATM   14  N4  UNL     1       4.753   0.487  -1.604  1.00  0.00    -0.334 N 
HETATM   15  C9  UNL     1       1.906  -1.320  -0.620  1.00  0.00     0.100 A 
ENDROOT
BRANCH  15  16
HETATM   16  N6  UNL     1       0.514  -1.149  -0.847  1.00  0.00    -0.187 N 
ATOM     17  H6  UNL     1       0.111  -1.469  -1.727  1.00  0.00     0.184 HD
BRANCH  16  18
HETATM   18  C10 UNL     1      -0.258  -0.595   0.039  1.00  0.00     0.684 A 
HETATM   19  N7  UNL     1      -1.569  -0.456  -0.224  1.00  0.00    -0.173 N 
HETATM   20  C11 UNL     1      -2.440   0.098   0.619  1.00  0.00     0.159 A 
ATOM     21  H7  UNL     1      -1.917  -0.794  -1.121  1.00  0.00     0.186 HD
HETATM   22  C18 UNL     1      -1.974   0.555   1.827  1.00  0.00     0.176 A 
HETATM   23  F2  UNL     1      -2.799   1.124   2.714  1.00  0.00    -0.201 F 
HETATM   24  C19 UNL     1      -0.605   0.408   2.095  1.00  0.00     0.152 A 
HETATM   25  N9  UNL     1       0.216  -0.154   1.215  1.00  0.00    -0.199 N 
ATOM     26  H9  UNL     1       1.208  -0.251   1.433  1.00  0.00     0.183 HD
BRANCH  20  27
HETATM   27  N8  UNL     1      -3.803   0.205   0.269  1.00  0.00    -0.364 N 
HETATM   28  C12 UNL     1      -4.717  -0.510   1.137  1.00  0.00     0.124 C 
HETATM   29  C13 UNL     1      -5.861   0.421   1.490  1.00  0.00     0.020 C 
HETATM   30  C14 UNL     1      -6.913   0.257   0.419  1.00  0.00     0.002 C 
HETATM   31  C15 UNL     1      -6.589   1.031  -0.827  1.00  0.00     0.002 C 
HETATM   32  C16 UNL     1      -5.389   0.523  -1.562  1.00  0.00     0.020 C 
HETATM   33  C17 UNL     1      -4.105   1.012  -0.909  1.00  0.00     0.124 C 
ENDBRANCH  20  27
ENDBRANCH  16  18
ENDBRANCH  15  16
BRANCH  14  34
HETATM   34  C7  UNL     1       6.137   0.795  -1.692  1.00  0.00     0.196 C 
BRANCH  34  35
HETATM   35  C8  UNL     1       6.585   1.729  -0.559  1.00  0.00     0.383 C 
HETATM   36  F1  UNL     1       7.934   1.905  -0.574  1.00  0.00    -0.218 F 
BRANCH  35  37
HETATM   37  N5  UNL     1       5.833   2.970  -0.638  1.00  0.00    -0.047 N 
ATOM     38  H53 UNL     1       5.907   3.410  -1.555  1.00  0.00     0.277 HD
ATOM     39  H52 UNL     1       4.825   2.813  -0.635  1.00  0.00     0.277 HD
ATOM     40  H51 UNL     1       6.131   3.591   0.115  1.00  0.00     0.277 HD
ENDBRANCH  35  37
ENDBRANCH  34  35
ENDBRANCH  14  34
TORSDOF 6
