REMARK  6 active torsions:
REMARK  status: ('A' for Active; 'I' for Inactive)
REMARK    1  A    between atoms: O1_2  and  C2_3 
REMARK    2  A    between atoms: C3_4  and  N1_5 
REMARK    3  A    between atoms: N2_11  and  C8_13 
REMARK    4  A    between atoms: C11_16  and  O2_17 
REMARK    5  A    between atoms: C11_16  and  C12_19 
REMARK    6  A    between atoms: C19_32  and  N5_33 
ROOT
HETATM    1  N1  UNL     1      -2.905  -1.137  -0.062  1.00  0.00    -0.318 N 
HETATM    2  C4  UNL     1      -3.762  -2.256  -0.433  1.00  0.00     0.135 C 
HETATM    3  C5  UNL     1      -2.839  -3.440  -0.634  1.00  0.00     0.065 C 
HETATM    4  C6  UNL     1      -1.455  -2.879  -0.198  1.00  0.00     0.239 C 
HETATM    5  F1  UNL     1      -1.515  -3.006   1.181  1.00  0.00    -0.241 F 
HETATM    6  C7  UNL     1      -1.655  -1.462  -0.682  1.00  0.00     0.116 C 
HETATM    7  N2  UNL     1      -0.656  -0.587  -0.811  1.00  0.00    -0.367 N 
ATOM      8  H2  UNL     1      -0.543  -0.260  -1.770  1.00  0.00     0.161 HD
ENDROOT
BRANCH   1   9
HETATM    9  C3  UNL     1      -3.386  -0.087   0.708  1.00  0.00     0.147 A 
HETATM   10  C2  UNL     1      -3.829   1.075   0.087  1.00  0.00     0.156 A 
HETATM   11  C19 UNL     1      -4.327   2.132   0.836  1.00  0.00     0.137 A 
HETATM   12  N4  UNL     1      -4.369   2.002   2.168  1.00  0.00    -0.337 N 
HETATM   13  C18 UNL     1      -3.933   0.860   2.773  1.00  0.00     0.183 A 
ATOM     14  H4  UNL     1      -4.732   2.767   2.737  1.00  0.00     0.168 HD
HETATM   15  N3  UNL     1      -3.454  -0.153   2.035  1.00  0.00    -0.336 N 
ATOM     16  H3  UNL     1      -3.132  -0.999   2.505  1.00  0.00     0.168 HD
BRANCH  10  17
HETATM   17  O1  UNL     1      -3.803   1.254  -1.283  1.00  0.00    -0.349 OA
HETATM   18  C1  UNL     1      -4.871   0.908  -2.135  1.00  0.00     0.210 C 
ENDBRANCH  10  17
BRANCH  11  19
HETATM   19  N5  UNL     1      -4.752   3.220   0.321  1.00  0.00    -0.383 N 
ATOM     20  H52 UNL     1      -4.720   3.319  -0.694  1.00  0.00     0.157 HD
ATOM     21  H51 UNL     1      -5.118   3.997   0.871  1.00  0.00     0.157 HD
ENDBRANCH  11  19
ENDBRANCH   1   9
BRANCH   7  22
HETATM   22  C8  UNL     1       0.251  -0.028   0.046  1.00  0.00     0.155 C 
HETATM   23  C9  UNL     1       1.238  -1.020   0.591  1.00  0.00     0.034 C 
HETATM   24  C10 UNL     1       2.585  -0.796  -0.127  1.00  0.00     0.041 C 
HETATM   25  C11 UNL     1       3.113   0.480   0.432  1.00  0.00     0.070 C 
HETATM   26  C16 UNL     1       2.178   1.585   0.058  1.00  0.00     0.119 C 
HETATM   27  C17 UNL     1       0.931   1.155  -0.633  1.00  0.00     0.266 C 
HETATM   28  F2  UNL     1       1.065   0.972  -1.993  1.00  0.00    -0.204 F 
HETATM   29  F3  UNL     1       0.055   2.257  -0.530  1.00  0.00    -0.204 F 
BRANCH  25  30
HETATM   30  O2  UNL     1       3.066   0.367   1.839  1.00  0.00    -0.389 OA
ATOM     31  H2  UNL     1       3.403   1.181   2.195  1.00  0.00     0.210 HD
ENDBRANCH  25  30
BRANCH  25  32
HETATM   32  C12 UNL     1       4.543   0.752   0.066  1.00  0.00    -0.020 C 
HETATM   33  C13 UNL     1       4.748   0.846  -1.434  1.00  0.00     0.017 C 
HETATM   34  C14 UNL     1       5.380  -0.418   0.539  1.00  0.00     0.017 C 
HETATM   35  C15 UNL     1       5.042   2.016   0.730  1.00  0.00     0.017 C 
ENDBRANCH  25  32
ENDBRANCH   7  22
TORSDOF 6
