REMARK  7 active torsions:
REMARK  status: ('A' for Active; 'I' for Inactive)
REMARK    1  A    between atoms: O1_1  and  C1_3 
REMARK    2  A    between atoms: C2_4  and  C3_5 
REMARK    3  A    between atoms: C4_8  and  O3_9 
REMARK    4  A    between atoms: O3_9  and  C5_10 
REMARK    5  A    between atoms: C5_10  and  C6_11 
REMARK    6  A    between atoms: C13_26  and  O4_27 
REMARK    7  A    between atoms: C14_29  and  O5_30 
ROOT
HETATM    1  C5  UNL     1       0.666   2.104  -1.045  1.00  0.00     0.247 C 
ENDROOT
BRANCH   1   2
HETATM    2  O3  UNL     1      -0.524   1.398  -1.076  1.00  0.00    -0.351 OA
BRANCH   2   3
HETATM    3  C4  UNL     1      -0.903   0.858   0.135  1.00  0.00     0.292 C 
HETATM    4  O2  UNL     1      -2.079   1.466   0.523  1.00  0.00    -0.348 OA
HETATM    5  C2  UNL     1      -3.206   1.060  -0.122  1.00  0.00     0.184 C 
HETATM    6  C1  UNL     1      -3.335  -0.396  -0.397  1.00  0.00     0.180 C 
HETATM    7  C14 UNL     1      -2.375  -1.134   0.504  1.00  0.00     0.183 C 
HETATM    8  C13 UNL     1      -0.985  -0.646   0.116  1.00  0.00     0.204 C 
BRANCH   5   9
HETATM    9  C3  UNL     1      -4.393   1.543   0.695  1.00  0.00     0.256 C 
HETATM   10  F1  UNL     1      -5.587   1.354   0.069  1.00  0.00    -0.253 F 
ENDBRANCH   5   9
BRANCH   6  11
HETATM   11  O1  UNL     1      -4.642  -0.832  -0.243  1.00  0.00    -0.390 OA
ATOM     12  H1  UNL     1      -4.724  -1.762  -0.419  1.00  0.00     0.210 HD
ENDBRANCH   6  11
BRANCH   7  13
HETATM   13  O5  UNL     1      -2.438  -2.504   0.292  1.00  0.00    -0.390 OA
ATOM     14  H5  UNL     1      -1.834  -2.969   0.859  1.00  0.00     0.210 HD
ENDBRANCH   7  13
BRANCH   8  15
HETATM   15  O4  UNL     1      -0.779  -1.099  -1.197  1.00  0.00    -0.388 OA
ATOM     16  H4  UNL     1      -0.831  -2.048  -1.209  1.00  0.00     0.210 HD
ENDBRANCH   8  15
ENDBRANCH   2   3
ENDBRANCH   1   2
BRANCH   1  17
HETATM   17  C6  UNL     1       1.796   1.218  -0.635  1.00  0.00     0.106 A 
HETATM   18  N1  UNL     1       2.457   0.335  -1.442  1.00  0.00    -0.341 N 
HETATM   19  C7  UNL     1       3.424  -0.297  -0.760  1.00  0.00     0.086 A 
ATOM     20  H1  UNL     1       2.244   0.178  -2.427  1.00  0.00     0.167 HD
HETATM   21  C8  UNL     1       4.350  -1.258  -1.111  1.00  0.00     0.086 A 
HETATM   22  C12 UNL     1       3.391   0.192   0.539  1.00  0.00     0.086 A 
HETATM   23 CL1  UNL     1       4.439  -1.911  -2.730  1.00  0.00    -0.080 Cl
HETATM   24  C9  UNL     1       5.234  -1.723  -0.170  1.00  0.00     0.081 A 
HETATM   25 CL2  UNL     1       6.403  -2.937  -0.618  1.00  0.00    -0.081 Cl
HETATM   26  C10 UNL     1       5.188  -1.226   1.118  1.00  0.00     0.081 A 
HETATM   27 CL3  UNL     1       6.306  -1.802   2.345  1.00  0.00    -0.081 Cl
HETATM   28  C11 UNL     1       4.277  -0.268   1.501  1.00  0.00     0.086 A 
HETATM   29 CL4  UNL     1       4.231   0.351   3.135  1.00  0.00    -0.080 Cl
HETATM   30  N2  UNL     1       2.399   1.095   0.559  1.00  0.00    -0.341 N 
ATOM     31  H2  UNL     1       2.133   1.628   1.387  1.00  0.00     0.167 HD
ENDBRANCH   1  17
TORSDOF 7
