REMARK  7 active torsions:
REMARK  status: ('A' for Active; 'I' for Inactive)
REMARK    1  A    between atoms: N2_11  and  C8_12 
REMARK    2  A    between atoms: C9_13  and  O1_14 
REMARK    3  A    between atoms: C10_16  and  O2_17 
REMARK    4  A    between atoms: C11_19  and  O3_20 
REMARK    5  A    between atoms: C12_22  and  O4_23 
REMARK    6  A    between atoms: O4_23  and  C13_24 
REMARK    7  A    between atoms: C13_24  and  C14_25 
ROOT
HETATM    1  C8  UNL     1       0.927   1.194  -1.156  1.00  0.00     0.153 C 
HETATM    2  C9  UNL     1       0.290   2.506  -0.748  1.00  0.00     0.175 C 
HETATM    3  C10 UNL     1      -0.708   2.766  -1.871  1.00  0.00     0.180 C 
HETATM    4  C11 UNL     1      -0.821   1.499  -2.657  1.00  0.00     0.180 C 
HETATM    5  C12 UNL     1      -0.249   0.437  -1.704  1.00  0.00     0.178 C 
ENDROOT
BRANCH   1   6
HETATM    6  N2  UNL     1       1.594   0.555  -0.075  1.00  0.00    -0.333 N 
HETATM    7  C4  UNL     1       2.059  -0.705  -0.016  1.00  0.00     0.120 A 
HETATM    8  N1  UNL     1       2.211  -1.889  -0.651  1.00  0.00    -0.332 N 
HETATM    9  C5  UNL     1       2.641  -0.902   1.235  1.00  0.00     0.018 A 
HETATM   10  C3  UNL     1       2.834  -2.781   0.107  1.00  0.00     0.112 A 
ATOM     11  H1  UNL     1       1.885  -2.074  -1.600  1.00  0.00     0.168 HD
HETATM   12  C2  UNL     1       3.126  -2.191   1.318  1.00  0.00    -0.009 A 
HETATM   13 CL1  UNL     1       3.262  -4.451  -0.270  1.00  0.00    -0.064 Cl
HETATM   14  C1  UNL     1       3.828  -2.831   2.482  1.00  0.00     0.052 C 
HETATM   15  C6  UNL     1       2.517   0.264   1.923  1.00  0.00     0.033 A 
HETATM   16  C7  UNL     1       1.860   1.168   1.093  1.00  0.00     0.094 A 
ENDBRANCH   1   6
BRANCH   2  17
HETATM   17  O1  UNL     1       1.199   3.548  -0.719  1.00  0.00    -0.391 OA
ATOM     18  H1  UNL     1       0.799   4.371  -0.463  1.00  0.00     0.210 HD
ENDBRANCH   2  17
BRANCH   5  19
HETATM   19  O4  UNL     1      -1.230   0.173  -0.781  1.00  0.00    -0.380 OA
BRANCH  19  20
HETATM   20  C13 UNL     1      -1.681  -1.140  -0.872  1.00  0.00     0.183 C 
BRANCH  20  21
HETATM   21  C14 UNL     1      -2.753  -1.464   0.120  1.00  0.00     0.071 C 
HETATM   22  C15 UNL     1      -2.355  -1.302   1.537  1.00  0.00     0.018 C 
HETATM   23  C16 UNL     1      -2.790   0.040   2.033  1.00  0.00     0.011 C 
HETATM   24  C17 UNL     1      -4.225   0.254   1.673  1.00  0.00     0.074 C 
HETATM   25  S1  UNL     1      -4.213  -0.409  -0.043  1.00  0.00    -0.162 SA
ENDBRANCH  20  21
ENDBRANCH  19  20
ENDBRANCH   5  19
BRANCH   3  26
HETATM   26  O2  UNL     1      -0.249   3.777  -2.724  1.00  0.00    -0.390 OA
ATOM     27  H2  UNL     1      -0.871   3.939  -3.424  1.00  0.00     0.210 HD
ENDBRANCH   3  26
BRANCH   4  28
HETATM   28  O3  UNL     1       0.046   1.535  -3.755  1.00  0.00    -0.390 OA
ATOM     29  H3  UNL     1      -0.026   0.730  -4.254  1.00  0.00     0.210 HD
ENDBRANCH   4  28
TORSDOF 7
