REMARK  8 active torsions:
REMARK  status: ('A' for Active; 'I' for Inactive)
REMARK    1  A    between atoms: C2_2  and  S1_4 
REMARK    2  A    between atoms: S1_4  and  C4_5 
REMARK    3  A    between atoms: C6_7  and  C7_8 
REMARK    4  A    between atoms: C8_10  and  C9_11 
REMARK    5  A    between atoms: C9_11  and  O2_12 
REMARK    6  A    between atoms: C10_14  and  O3_15 
REMARK    7  A    between atoms: C11_17  and  O4_18 
REMARK    8  A    between atoms: C12_20  and  O5_21 
ROOT
HETATM    1  C7  UNL     1      -1.443   0.509   0.249  1.00  0.00     0.089 C 
HETATM    2  O1  UNL     1      -2.267  -0.335   0.883  1.00  0.00    -0.342 OA
HETATM    3  C8  UNL     1      -3.567   0.044   1.006  1.00  0.00     0.183 C 
HETATM    4  C10 UNL     1      -4.127   0.325  -0.381  1.00  0.00     0.181 C 
HETATM    5  C11 UNL     1      -3.295   1.165  -1.261  1.00  0.00     0.184 C 
HETATM    6  C12 UNL     1      -1.827   1.304  -0.901  1.00  0.00     0.207 C 
ENDROOT
BRANCH   1   7
HETATM    7  C6  UNL     1      -0.059  -0.056   0.174  1.00  0.00     0.004 A 
HETATM    8  C5  UNL     1       1.076   0.665   0.498  1.00  0.00     0.034 A 
HETATM    9  C4  UNL     1       2.332   0.076   0.681  1.00  0.00     0.024 A 
HETATM   10  C15 UNL     1       2.425  -1.283   0.525  1.00  0.00     0.057 A 
HETATM   11  C14 UNL     1       1.282  -2.041   0.191  1.00  0.00    -0.028 A 
HETATM   12 CL1  UNL     1       3.970  -2.111   0.791  1.00  0.00    -0.082 Cl
HETATM   13  C13 UNL     1       0.062  -1.449   0.018  1.00  0.00    -0.037 A 
HETATM   14  C16 UNL     1       1.189  -3.500  -0.084  1.00  0.00     0.041 C 
HETATM   15  C18 UNL     1      -0.919  -2.470  -0.419  1.00  0.00     0.040 C 
HETATM   16  C17 UNL     1      -0.271  -3.783  -0.043  1.00  0.00     0.009 C 
BRANCH   9  17
HETATM   17  S1  UNL     1       3.739   0.998   1.162  1.00  0.00    -0.124 SA
BRANCH  17  18
HETATM   18  C2  UNL     1       4.832   1.488  -0.150  1.00  0.00     0.044 C 
HETATM   19  C1  UNL     1       5.663   0.365  -0.739  1.00  0.00     0.021 C 
HETATM   20  C3  UNL     1       5.789   2.591   0.235  1.00  0.00     0.021 C 
ENDBRANCH  17  18
ENDBRANCH   9  17
ENDBRANCH   1   7
BRANCH   6  21
HETATM   21  O5  UNL     1      -1.531   2.638  -0.767  1.00  0.00    -0.386 OA
ATOM     22  H5  UNL     1      -1.783   3.159  -1.521  1.00  0.00     0.210 HD
ENDBRANCH   6  21
BRANCH   3  23
HETATM   23  C9  UNL     1      -3.935   1.071   2.000  1.00  0.00     0.199 C 
BRANCH  23  24
HETATM   24  O2  UNL     1      -3.424   2.329   1.874  1.00  0.00    -0.398 OA
ATOM     25  H2  UNL     1      -3.661   2.990   2.514  1.00  0.00     0.209 HD
ENDBRANCH  23  24
ENDBRANCH   3  23
BRANCH   5  26
HETATM   26  O4  UNL     1      -3.364   0.630  -2.553  1.00  0.00    -0.390 OA
ATOM     27  H4  UNL     1      -2.828   1.171  -3.120  1.00  0.00     0.210 HD
ENDBRANCH   5  26
BRANCH   4  28
HETATM   28  O3  UNL     1      -4.374  -0.937  -0.972  1.00  0.00    -0.390 OA
ATOM     29  H3  UNL     1      -4.724  -0.762  -1.838  1.00  0.00     0.210 HD
ENDBRANCH   4  28
TORSDOF 8
