REMARK  6 active torsions:
REMARK  status: ('A' for Active; 'I' for Inactive)
REMARK    1  A    between atoms: O1_2  and  C2_3 
REMARK       I    between atoms: C2_3  and  N1_5 
REMARK    2  A    between atoms: N1_5  and  C3_7 
REMARK    3  A    between atoms: C6_10  and  C7_11 
REMARK    4  A    between atoms: C7_11  and  N2_12 
REMARK    5  A    between atoms: C10_15  and  O3_16 
REMARK    6  A    between atoms: C13_20  and  C14_21 
ROOT
HETATM    1  N2  UNL     1      -0.744   0.132   0.564  1.00  0.00     0.096 N 
HETATM    2  C8  UNL     1      -0.492   0.479   1.951  1.00  0.00     0.276 C 
HETATM    3  C9  UNL     1      -1.259  -0.598   2.741  1.00  0.00     0.070 C 
HETATM    4  C10 UNL     1      -2.273  -1.126   1.765  1.00  0.00     0.090 C 
HETATM    5  C11 UNL     1      -3.702  -0.963   2.244  1.00  0.00     0.040 C 
HETATM    6  C12 UNL     1      -4.615  -0.445   1.200  1.00  0.00     0.008 C 
HETATM    7  C13 UNL     1      -4.289  -0.819  -0.216  1.00  0.00    -0.009 C 
HETATM    8  C17 UNL     1      -2.835  -0.592  -0.589  1.00  0.00     0.044 C 
HETATM    9  C18 UNL     1      -2.124  -0.157   0.616  1.00  0.00     0.257 C 
ENDROOT
BRANCH   1  10
HETATM   10  C7  UNL     1       0.141  -0.895   0.161  1.00  0.00     0.277 C 
BRANCH  10  11
HETATM   11  C6  UNL     1       1.562  -0.386   0.080  1.00  0.00     0.014 C 
HETATM   12  C5  UNL     1       1.727   0.741  -0.908  1.00  0.00     0.008 C 
HETATM   13  C4  UNL     1       3.176   0.847  -1.279  1.00  0.00     0.026 C 
HETATM   14  C3  UNL     1       4.121   0.318  -0.224  1.00  0.00     0.086 C 
HETATM   15  C20 UNL     1       3.883  -1.146   0.063  1.00  0.00     0.026 C 
HETATM   16  C19 UNL     1       2.504  -1.496  -0.407  1.00  0.00     0.008 C 
BRANCH  14  17
HETATM   17  N1  UNL     1       5.452   0.431  -0.765  1.00  0.00    -0.332 N 
HETATM   18  C2  UNL     1       6.417   1.283  -0.166  1.00  0.00     0.360 C 
HETATM   19  O2  UNL     1       6.112   1.951   0.851  1.00  0.00    -0.239 OA
ATOM     20  H1  UNL     1       5.705  -0.110  -1.592  1.00  0.00     0.165 HD
BRANCH  18  21
HETATM   21  O1  UNL     1       7.699   1.405  -0.672  1.00  0.00    -0.309 OA
HETATM   22  C1  UNL     1       8.605   2.261  -0.039  1.00  0.00     0.215 C 
ENDBRANCH  18  21
ENDBRANCH  14  17
ENDBRANCH  10  11
ENDBRANCH   1  10
BRANCH   4  23
HETATM   23  O3  UNL     1      -2.100  -2.443   1.450  1.00  0.00    -0.388 OA
ATOM     24  H3  UNL     1      -2.741  -2.777   0.833  1.00  0.00     0.210 HD
ENDBRANCH   4  23
BRANCH   7  25
HETATM   25  C14 UNL     1      -5.237  -0.002  -1.084  1.00  0.00    -0.019 C 
HETATM   26  C15 UNL     1      -5.055  -0.247  -2.547  1.00  0.00     0.010 C 
HETATM   27  C16 UNL     1      -5.224   1.459  -0.722  1.00  0.00     0.010 C 
ENDBRANCH   7  25
TORSDOF 6
