REMARK  14 active torsions:
REMARK  status: ('A' for Active; 'I' for Inactive)
REMARK    1  A    between atoms: C6_11  and  C7_12 
REMARK       I    between atoms: C7_12  and  N3_14 
REMARK    2  A    between atoms: N3_14  and  S1_16 
REMARK    3  A    between atoms: S1_16  and  C8_19 
REMARK    4  A    between atoms: C10_21  and  N4_22 
REMARK       I    between atoms: N6_30  and  C12_31 
REMARK    5  A    between atoms: C12_31  and  C13_33 
REMARK    6  A    between atoms: C13_33  and  C14_35 
REMARK    7  A    between atoms: C14_35  and  O8_36 
REMARK    8  A    between atoms: C14_35  and  N7_38 
REMARK    9  A    between atoms: N7_38  and  O9_39 
REMARK   10  A    between atoms: O9_39  and  C15_40 
REMARK   11  A    between atoms: C15_40  and  C16_41 
REMARK   12  A    between atoms: C15_40  and  C17_44 
REMARK   13  A    between atoms: C17_44  and  O12_45 
REMARK   14  A    between atoms: C17_44  and  O13_47 
ROOT
HETATM    1  C1  UNL     1      -4.400  -4.973   0.376  1.00  0.00     0.089 C 
HETATM    2  C2  UNL     1      -3.001  -4.494   0.190  1.00  0.00     0.080 A 
HETATM    3  N1  UNL     1      -2.030  -5.321   0.650  1.00  0.00    -0.312 N 
ATOM      4  H1  UNL     1      -2.274  -6.208   1.091  1.00  0.00     0.170 HD
HETATM    5  C3  UNL     1      -0.749  -4.960   0.519  1.00  0.00     0.267 A 
HETATM    6  O1  UNL     1       0.140  -5.729   0.947  1.00  0.00    -0.267 OA
HETATM    7  C4  UNL     1      -0.479  -3.752  -0.082  1.00  0.00     0.115 A 
HETATM    8  C5  UNL     1      -1.446  -2.910  -0.551  1.00  0.00     0.068 A 
HETATM    9  N2  UNL     1      -2.737  -3.308  -0.402  1.00  0.00    -0.346 N 
ATOM     10  H2  UNL     1      -3.499  -2.717  -0.734  1.00  0.00     0.167 HD
HETATM   11  C6  UNL     1      -0.922  -1.668  -1.187  1.00  0.00     0.244 C 
HETATM   12  N6  UNL     1       0.299  -1.283  -0.554  1.00  0.00    -0.260 N 
HETATM   13  C12 UNL     1       0.966  -0.155  -0.123  1.00  0.00     0.305 C 
HETATM   14  O6  UNL     1       0.512   1.001  -0.267  1.00  0.00    -0.263 OA
HETATM   15  S3  UNL     1       1.076  -2.924  -0.398  1.00  0.00    -0.001 SA
ENDROOT
BRANCH  11  16
HETATM   16  C7  UNL     1      -1.986  -0.688  -1.294  1.00  0.00     0.261 C 
HETATM   17  O2  UNL     1      -2.072   0.302  -0.560  1.00  0.00    -0.270 OA
HETATM   18  N3  UNL     1      -2.986  -0.862  -2.295  1.00  0.00    -0.248 N 
ATOM     19  H3  UNL     1      -2.938  -1.671  -2.914  1.00  0.00     0.182 HD
BRANCH  18  20
HETATM   20  S1  UNL     1      -4.270   0.264  -2.479  1.00  0.00     0.272 S 
HETATM   21  O3  UNL     1      -3.842   1.468  -3.268  1.00  0.00    -0.200 OA
HETATM   22  O4  UNL     1      -5.394  -0.421  -3.228  1.00  0.00    -0.200 OA
BRANCH  20  23
HETATM   23  C8  UNL     1      -4.891   0.791  -0.931  1.00  0.00     0.129 A 
HETATM   24  C9  UNL     1      -4.860   2.113  -0.575  1.00  0.00     0.081 A 
HETATM   25  C10 UNL     1      -5.321   2.617   0.601  1.00  0.00     0.103 A 
HETATM   26  N5  UNL     1      -5.877   1.939   1.606  1.00  0.00    -0.304 N 
HETATM   27  C11 UNL     1      -6.089   0.616   1.648  1.00  0.00     0.290 A 
ATOM     28  H5  UNL     1      -6.169   2.479   2.421  1.00  0.00     0.171 HD
HETATM   29  O5  UNL     1      -6.620   0.025   2.627  1.00  0.00    -0.260 OA
HETATM   30  S2  UNL     1      -5.574  -0.235   0.242  1.00  0.00    -0.015 SA
BRANCH  25  31
HETATM   31  N4  UNL     1      -5.207   3.915   0.765  1.00  0.00    -0.385 N 
ATOM     32  H42 UNL     1      -4.782   4.434  -0.004  1.00  0.00     0.157 HD
ATOM     33  H41 UNL     1      -5.553   4.293   1.647  1.00  0.00     0.157 HD
ENDBRANCH  25  31
ENDBRANCH  20  23
ENDBRANCH  18  20
ENDBRANCH  11  16
BRANCH  13  34
HETATM   34  C13 UNL     1       2.262  -0.239   0.537  1.00  0.00     0.263 C 
HETATM   35  O7  UNL     1       2.771  -1.374   0.705  1.00  0.00    -0.283 OA
BRANCH  34  36
HETATM   36  C14 UNL     1       3.011   0.960   1.024  1.00  0.00     0.319 C 
BRANCH  36  37
HETATM   37  O8  UNL     1       2.339   2.136   0.784  1.00  0.00    -0.370 OA
ATOM     38  H8  UNL     1       2.815   2.898   1.093  1.00  0.00     0.212 HD
ENDBRANCH  36  37
BRANCH  36  39
HETATM   39  N7  UNL     1       4.290   0.958   0.350  1.00  0.00    -0.059 NA
BRANCH  39  40
HETATM   40  O9  UNL     1       5.067   1.995   0.742  1.00  0.00    -0.262 OA
BRANCH  40  41
HETATM   41  C15 UNL     1       6.199   2.129  -0.026  1.00  0.00     0.302 C 
BRANCH  41  42
HETATM   42  C16 UNL     1       6.263   3.471  -0.613  1.00  0.00     0.210 C 
HETATM   43  O10 UNL     1       7.224   3.827  -1.365  1.00  0.00    -0.646 OA
HETATM   44  O11 UNL     1       5.277   4.404  -0.367  1.00  0.00    -0.646 OA
ENDBRANCH  41  42
BRANCH  41  45
HETATM   45  C17 UNL     1       7.469   1.886   0.796  1.00  0.00     0.295 C 
BRANCH  45  46
HETATM   46  O12 UNL     1       7.586   2.772   1.844  1.00  0.00    -0.368 OA
ATOM     47  H12 UNL     1       8.373   2.621   2.354  1.00  0.00     0.212 HD
ENDBRANCH  45  46
BRANCH  45  48
HETATM   48  O13 UNL     1       8.587   1.927  -0.016  1.00  0.00    -0.368 OA
ATOM     49  H13 UNL     1       9.374   1.776   0.494  1.00  0.00     0.212 HD
ENDBRANCH  45  48
ENDBRANCH  41  45
ENDBRANCH  40  41
ENDBRANCH  39  40
ENDBRANCH  36  39
ENDBRANCH  34  36
ENDBRANCH  13  34
TORSDOF 14
