REMARK  5 active torsions:
REMARK  status: ('A' for Active; 'I' for Inactive)
REMARK    1  A    between atoms: C1_2  and  C2_3 
REMARK    2  A    between atoms: C1_2  and  C14_18 
REMARK    3  A    between atoms: C5_6  and  S1_7 
REMARK    4  A    between atoms: S1_7  and  C6_10 
REMARK    5  A    between atoms: C18_25  and  O5_26 
ROOT
HETATM    1  C2  UNL     1      -1.285  -0.118   0.672  1.00  0.00     0.015 A 
HETATM    2  C3  UNL     1      -0.727   0.530  -0.405  1.00  0.00     0.017 A 
HETATM    3  C4  UNL     1       0.582   0.983  -0.386  1.00  0.00     0.025 A 
HETATM    4  C5  UNL     1       1.395   0.810   0.706  1.00  0.00     0.064 A 
HETATM    5  C12 UNL     1       0.834   0.159   1.783  1.00  0.00     0.025 A 
HETATM    6  C13 UNL     1      -0.454  -0.299   1.794  1.00  0.00     0.017 A 
ENDROOT
BRANCH   1   7
HETATM    7  C1  UNL     1      -2.658  -0.588   0.740  1.00  0.00     0.196 C 
HETATM    8  O1  UNL     1      -2.872  -1.636   1.465  1.00  0.00    -0.286 OA
BRANCH   7   9
HETATM    9  C14 UNL     1      -3.821  -0.037   0.101  1.00  0.00     0.066 A 
HETATM   10  C15 UNL     1      -3.819   1.225  -0.417  1.00  0.00     0.025 A 
HETATM   11  C16 UNL     1      -4.970   1.741  -0.980  1.00  0.00     0.075 A 
HETATM   12  C17 UNL     1      -6.120   0.992  -1.021  1.00  0.00     0.247 A 
HETATM   13  O4  UNL     1      -7.188   1.458  -1.538  1.00  0.00    -0.268 OA
HETATM   14  N1  UNL     1      -6.141  -0.250  -0.515  1.00  0.00    -0.303 N 
HETATM   15  C18 UNL     1      -5.020  -0.741   0.028  1.00  0.00     0.157 A 
ATOM     16  H1  UNL     1      -6.994  -0.809  -0.543  1.00  0.00     0.171 HD
BRANCH  15  17
HETATM   17  O5  UNL     1      -5.010  -2.036   0.565  1.00  0.00    -0.345 OA
ATOM     18  H5  UNL     1      -5.828  -2.516   0.515  1.00  0.00     0.219 HD
ENDBRANCH  15  17
ENDBRANCH   7   9
ENDBRANCH   1   7
BRANCH   4  19
HETATM   19  S1  UNL     1       3.043   1.336   0.832  1.00  0.00     0.206 S 
HETATM   20  O2  UNL     1       3.189   2.628   0.040  1.00  0.00    -0.217 OA
HETATM   21  O3  UNL     1       3.281   1.739   2.280  1.00  0.00    -0.217 OA
BRANCH  19  22
HETATM   22  C6  UNL     1       4.179   0.155   0.299  1.00  0.00     0.064 A 
HETATM   23  C7  UNL     1       4.686  -0.760   1.194  1.00  0.00     0.024 A 
HETATM   24  C8  UNL     1       5.606  -1.731   0.801  1.00  0.00     0.002 A 
HETATM   25  C9  UNL     1       6.038  -1.804  -0.504  1.00  0.00     0.000 A 
HETATM   26  C10 UNL     1       5.535  -0.892  -1.404  1.00  0.00     0.002 A 
HETATM   27  C11 UNL     1       4.618   0.073  -1.003  1.00  0.00     0.024 A 
ENDBRANCH  19  22
ENDBRANCH   4  19
TORSDOF 5
