REMARK  4 active torsions:
REMARK  status: ('A' for Active; 'I' for Inactive)
REMARK    1  A    between atoms: O1_1  and  N1_3 
REMARK       I    between atoms: C1_5  and  N2_6 
REMARK       I    between atoms: C1_5  and  N4_18 
REMARK    2  A    between atoms: N2_6  and  N3_8 
REMARK    3  A    between atoms: C2_10  and  C3_11 
REMARK    4  A    between atoms: N4_18  and  C10_20 
ROOT
HETATM    1  N1  UNL     1       1.524   2.275   1.341  1.00  0.00    -0.097 N 
ATOM      2  H1  UNL     1       1.093   3.172   1.119  1.00  0.00     0.213 HD
HETATM    3  C1  UNL     1       1.651   1.392   0.417  1.00  0.00     0.716 C 
HETATM    4  N2  UNL     1       1.180   1.711  -0.883  1.00  0.00    -0.131 N 
ATOM      5  H2  UNL     1       1.818   2.046  -1.605  1.00  0.00     0.205 HD
HETATM    6  N4  UNL     1       2.233   0.131   0.633  1.00  0.00    -0.189 N 
ATOM      7  H4  UNL     1       1.689  -0.613   1.070  1.00  0.00     0.184 HD
ENDROOT
BRANCH   1   8
HETATM    8  O1  UNL     1       1.954   2.038   2.613  1.00  0.00    -0.276 OA
ATOM      9  H1  UNL     1       1.860   2.691   3.296  1.00  0.00     0.245 HD
ENDBRANCH   1   8
BRANCH   4  10
HETATM   10  N3  UNL     1      -0.173   1.554  -1.143  1.00  0.00    -0.301 N 
HETATM   11  C2  UNL     1      -0.876   0.540  -0.795  1.00  0.00     0.085 C 
ATOM     12  H3  UNL     1      -0.645   2.303  -1.650  1.00  0.00     0.186 HD
BRANCH  11  13
HETATM   13  C3  UNL     1      -2.301   0.512  -1.140  1.00  0.00     0.025 C 
HETATM   14  C4  UNL     1      -3.107   1.367  -0.218  1.00  0.00     0.010 C 
HETATM   15  C5  UNL     1      -3.573   0.647   1.019  1.00  0.00     0.001 C 
HETATM   16  C6  UNL     1      -4.645  -0.371   0.713  1.00  0.00     0.000 C 
HETATM   17  C7  UNL     1      -4.079  -1.776   0.637  1.00  0.00     0.000 C 
HETATM   18  C8  UNL     1      -2.718  -1.697  -0.020  1.00  0.00     0.001 C 
HETATM   19  C9  UNL     1      -2.844  -0.894  -1.273  1.00  0.00     0.010 C 
ENDBRANCH  11  13
ENDBRANCH   4  10
BRANCH   6  20
HETATM   20  C10 UNL     1       3.571  -0.108   0.246  1.00  0.00     0.051 A 
HETATM   21  C11 UNL     1       4.354   0.880  -0.354  1.00  0.00     0.030 A 
HETATM   22  C12 UNL     1       5.656   0.655  -0.733  1.00  0.00     0.004 A 
HETATM   23  C13 UNL     1       6.197  -0.587  -0.508  1.00  0.00     0.024 A 
HETATM   24  C14 UNL     1       5.442  -1.583   0.085  1.00  0.00     0.036 A 
HETATM   25 CL1  UNL     1       6.140  -3.174   0.371  1.00  0.00    -0.084 Cl
HETATM   26  C15 UNL     1       4.147  -1.344   0.457  1.00  0.00     0.053 A 
ENDBRANCH   6  20
TORSDOF 4
