REMARK  5 active torsions:
REMARK  status: ('A' for Active; 'I' for Inactive)
REMARK    1  A    between atoms: N1_1  and  N2_4 
REMARK    2  A    between atoms: C1_6  and  C2_7 
REMARK    3  A    between atoms: C6_14  and  C7_15 
REMARK    4  A    between atoms: C10_18  and  C11_19 
REMARK    5  A    between atoms: C17_25  and  O1_26 
ROOT
HETATM    1  C7  UNL     1      -1.154   0.099   0.066  1.00  0.00     0.015 A 
HETATM    2  C8  UNL     1      -0.650   0.058  -1.197  1.00  0.00     0.013 A 
HETATM    3  C9  UNL     1       0.728   0.210  -1.411  1.00  0.00     0.015 A 
HETATM    4  C10 UNL     1       1.612   0.407  -0.379  1.00  0.00     0.003 A 
HETATM    5  C17 UNL     1       1.085   0.454   0.878  1.00  0.00     0.115 A 
HETATM    6  C18 UNL     1      -0.256   0.304   1.131  1.00  0.00     0.158 A 
HETATM    7  F1  UNL     1      -0.709   0.388   2.395  1.00  0.00    -0.203 F 
ENDROOT
BRANCH   1   8
HETATM    8  C6  UNL     1      -2.560  -0.199   0.399  1.00  0.00     0.230 C 
HETATM    9  C2  UNL     1      -3.568   0.018  -0.653  1.00  0.00     0.061 C 
HETATM   10  C3  UNL     1      -3.944  -1.154  -1.497  1.00  0.00     0.014 C 
HETATM   11  C4  UNL     1      -4.137  -2.418  -0.696  1.00  0.00     0.028 C 
HETATM   12  C5  UNL     1      -3.731  -2.302   0.743  1.00  0.00     0.233 C 
HETATM   13  N3  UNL     1      -2.501  -1.604   0.847  1.00  0.00    -0.066 N 
ATOM     14  H32 UNL     1      -2.139  -1.659   1.799  1.00  0.00     0.278 HD
ATOM     15  H31 UNL     1      -1.764  -2.105   0.351  1.00  0.00     0.278 HD
BRANCH   9  16
HETATM   16  C1  UNL     1      -4.871   0.491  -0.003  1.00  0.00     0.086 C 
HETATM   17  N2  UNL     1      -5.079   1.622   0.350  1.00  0.00    -0.322 N 
ATOM     18  H2  UNL     1      -6.022   1.606   0.738  1.00  0.00     0.185 HD
BRANCH  17  19
HETATM   19  N1  UNL     1      -4.678   2.879   0.480  1.00  0.00    -0.346 N 
ATOM     20  H12 UNL     1      -3.738   2.858   0.085  1.00  0.00     0.176 HD
ATOM     21  H11 UNL     1      -4.854   3.838   0.779  1.00  0.00     0.176 HD
ENDBRANCH  17  19
ENDBRANCH   9  16
ENDBRANCH   1   8
BRANCH   5  22
HETATM   22  O1  UNL     1       1.951   0.678   2.007  1.00  0.00    -0.357 OA
ATOM     23  H1  UNL     1       1.584   0.711   2.883  1.00  0.00     0.218 HD
ENDBRANCH   5  22
BRANCH   4  24
HETATM   24  C11 UNL     1       3.060   0.324  -0.582  1.00  0.00    -0.067 C 
HETATM   25  C12 UNL     1       3.795   1.616  -0.719  1.00  0.00     0.035 C 
HETATM   26  C13 UNL     1       5.226   1.372  -1.089  1.00  0.00     0.004 C 
HETATM   27  C14 UNL     1       5.894   0.332  -0.252  1.00  0.00     0.001 C 
HETATM   28  C15 UNL     1       5.061  -0.354   0.773  1.00  0.00     0.004 C 
HETATM   29  C16 UNL     1       3.761  -0.778   0.125  1.00  0.00     0.035 C 
ENDBRANCH   4  24
TORSDOF 5
