REMARK  3 active torsions:
REMARK  status: ('A' for Active; 'I' for Inactive)
REMARK       I    between atoms: N1_2  and  C2_4 
REMARK       I    between atoms: C2_4  and  N2_6 
REMARK    1  A    between atoms: N2_6  and  C3_8 
REMARK    2  A    between atoms: C12_19  and  N3_20 
REMARK    3  A    between atoms: N3_20  and  C13_22 
ROOT
HETATM    1  C3  UNL     1       0.887   0.441  -0.318  1.00  0.00     0.179 A 
HETATM    2  O2  UNL     1       1.015  -0.766   0.187  1.00  0.00    -0.290 OA
HETATM    3  C4  UNL     1      -0.070  -1.487   0.052  1.00  0.00     0.098 A 
HETATM    4  C5  UNL     1      -0.397  -2.787   0.420  1.00  0.00    -0.005 A 
HETATM    5  C6  UNL     1       0.571  -3.669   1.119  1.00  0.00     0.053 C 
HETATM    6  C7  UNL     1      -1.654  -3.274   0.132  1.00  0.00     0.048 A 
HETATM    7 CL1  UNL     1      -2.099  -4.915   0.586  1.00  0.00    -0.083 Cl
HETATM    8  C8  UNL     1      -2.609  -2.506  -0.518  1.00  0.00    -0.039 A 
HETATM    9  C9  UNL     1      -3.949  -3.083  -0.804  1.00  0.00     0.050 C 
HETATM   10  C10 UNL     1      -2.250  -1.220  -0.869  1.00  0.00     0.025 A 
HETATM   11  C11 UNL     1      -1.000  -0.691  -0.599  1.00  0.00     0.030 A 
HETATM   12  C12 UNL     1      -0.385   0.524  -0.828  1.00  0.00     0.093 A 
ENDROOT
BRANCH   1  13
HETATM   13  N2  UNL     1       1.903   1.468  -0.325  1.00  0.00    -0.287 N 
HETATM   14  C2  UNL     1       3.183   1.182   0.264  1.00  0.00     0.321 C 
HETATM   15  N1  UNL     1       4.215   2.138   0.289  1.00  0.00    -0.347 N 
HETATM   16  O1  UNL     1       3.385   0.045   0.770  1.00  0.00    -0.247 OA
HETATM   17  C1  UNL     1       5.482   1.815   0.887  1.00  0.00     0.151 C 
ATOM     18  H1  UNL     1       4.064   3.061  -0.118  1.00  0.00     0.163 HD
ATOM     19  H2  UNL     1       1.715   2.380  -0.741  1.00  0.00     0.172 HD
ENDBRANCH   1  13
BRANCH  12  20
HETATM   20  N3  UNL     1      -0.949   1.658  -1.463  1.00  0.00    -0.381 N 
ATOM     21  H3  UNL     1      -0.799   1.741  -2.468  1.00  0.00     0.160 HD
BRANCH  20  22
HETATM   22  C13 UNL     1      -1.706   2.696  -0.840  1.00  0.00     0.082 A 
HETATM   23  C14 UNL     1      -1.175   3.559   0.253  1.00  0.00     0.027 A 
HETATM   24  C15 UNL     1      -2.255   2.532   0.538  1.00  0.00     0.027 A 
ENDBRANCH  20  22
ENDBRANCH  12  20
TORSDOF 3
