REMARK  6 active torsions:
REMARK  status: ('A' for Active; 'I' for Inactive)
REMARK    1  A    between atoms: C2_2  and  N1_5 
REMARK    2  A    between atoms: N1_5  and  C5_7 
REMARK    3  A    between atoms: C8_10  and  C9_11 
REMARK    4  A    between atoms: C9_11  and  N2_12 
REMARK       I    between atoms: N2_12  and  C10_13 
REMARK    5  A    between atoms: C10_13  and  O2_15 
REMARK    6  A    between atoms: O2_15  and  C11_16 
ROOT
HETATM    1  C5  UNL     1       2.901  -0.280  -0.639  1.00  0.00     0.050 A 
HETATM    2  C6  UNL     1       2.366   0.066   0.569  1.00  0.00     0.032 A 
HETATM    3  C7  UNL     1       1.037  -0.208   0.951  1.00  0.00     0.016 A 
HETATM    4  C8  UNL     1       0.201  -0.871   0.069  1.00  0.00    -0.005 A 
HETATM    5  C15 UNL     1       0.706  -1.228  -1.168  1.00  0.00     0.040 A 
HETATM    6  C16 UNL     1       1.997  -0.941  -1.497  1.00  0.00     0.061 A 
HETATM    7 CL1  UNL     1       2.631  -1.429  -3.073  1.00  0.00    -0.082 Cl
ENDROOT
BRANCH   4   8
HETATM    8  C9  UNL     1      -1.094  -1.308   0.594  1.00  0.00     0.200 C 
BRANCH   8   9
HETATM    9  N2  UNL     1      -2.327  -0.984   0.304  1.00  0.00    -0.358 NA
HETATM   10  C10 UNL     1      -3.615  -0.652  -0.011  1.00  0.00     0.440 C 
HETATM   11  O1  UNL     1      -4.229  -0.913  -1.079  1.00  0.00    -0.221 OA
BRANCH  10  12
HETATM   12  O2  UNL     1      -4.489   0.056   0.862  1.00  0.00    -0.282 OA
BRANCH  12  13
HETATM   13  C11 UNL     1      -5.801   0.402   0.578  1.00  0.00     0.062 C 
HETATM   14  C12 UNL     1      -6.296   1.220   1.802  1.00  0.00     0.046 C 
HETATM   15  C13 UNL     1      -5.928   1.245  -0.671  1.00  0.00     0.046 C 
HETATM   16  C14 UNL     1      -6.771  -0.747   0.473  1.00  0.00     0.046 C 
ENDBRANCH  12  13
ENDBRANCH  10  12
ENDBRANCH   8   9
ENDBRANCH   4   8
BRANCH   1  17
HETATM   17  N1  UNL     1       4.235  -0.119  -1.049  1.00  0.00    -0.380 N 
ATOM     18  H1  UNL     1       4.380  -0.312  -2.040  1.00  0.00     0.160 HD
BRANCH  17  19
HETATM   19  C2  UNL     1       5.421   0.256  -0.370  1.00  0.00     0.019 C 
HETATM   20  C1  UNL     1       6.610  -0.608  -0.957  1.00  0.00     0.037 C 
HETATM   21  C3  UNL     1       5.869   1.677  -0.758  1.00  0.00     0.037 C 
HETATM   22  C4  UNL     1       5.507   0.123   1.096  1.00  0.00     0.037 C 
ENDBRANCH  17  19
ENDBRANCH   1  17
TORSDOF 6
