REMARK  7 active torsions:
REMARK  status: ('A' for Active; 'I' for Inactive)
REMARK    1  A    between atoms: C2_2  and  C4_4 
REMARK    2  A    between atoms: C4_4  and  N1_5 
REMARK    3  A    between atoms: C8_9  and  N2_10 
REMARK    4  A    between atoms: N2_10  and  C9_12 
REMARK    5  A    between atoms: C13_18  and  C14_19 
REMARK    6  A    between atoms: C18_29  and  O3_30 
REMARK    7  A    between atoms: C18_29  and  C19_32 
ROOT
HETATM    1  N1  UNL     1      -3.159  -0.366   0.033  1.00  0.00     0.092 N 
HETATM    2  C5  UNL     1      -2.431  -0.448   1.300  1.00  0.00     0.277 C 
HETATM    3  C6  UNL     1      -0.959  -0.492   1.140  1.00  0.00     0.072 C 
HETATM    4  C7  UNL     1      -0.415   0.698   0.360  1.00  0.00    -0.013 A 
HETATM    5  C8  UNL     1       0.898   0.711   0.021  1.00  0.00     0.042 A 
HETATM    6  C16 UNL     1       1.328   1.807  -0.676  1.00  0.00     0.080 A 
HETATM    7  S1  UNL     1      -0.060   2.765  -0.840  1.00  0.00    -0.100 SA
HETATM    8  C17 UNL     1      -1.176   1.759  -0.016  1.00  0.00     0.036 A 
HETATM    9  C18 UNL     1      -2.630   2.066   0.212  1.00  0.00     0.216 C 
HETATM   10  C20 UNL     1      -3.478   0.974  -0.307  1.00  0.00     0.325 C 
ENDROOT
BRANCH   5  11
HETATM   11  N2  UNL     1       1.854  -0.329   0.366  1.00  0.00    -0.383 N 
ATOM     12  H2  UNL     1       1.534  -1.101   0.951  1.00  0.00     0.160 HD
BRANCH  11  13
HETATM   13  C9  UNL     1       3.218  -0.332  -0.067  1.00  0.00     0.102 C 
HETATM   14  C10 UNL     1       3.454  -0.606  -1.512  1.00  0.00     0.034 C 
HETATM   15  C11 UNL     1       4.894  -0.884  -1.832  1.00  0.00     0.080 C 
HETATM   16  C12 UNL     1       5.836  -0.697  -0.724  1.00  0.00     0.100 A 
HETATM   17  N3  UNL     1       7.142  -0.344  -0.637  1.00  0.00    -0.324 N 
HETATM   18  N5  UNL     1       5.433  -0.897   0.539  1.00  0.00    -0.277 N 
HETATM   19  C13 UNL     1       7.535  -0.326   0.651  1.00  0.00     0.200 A 
ATOM     20  H3  UNL     1       7.741  -0.124  -1.433  1.00  0.00     0.169 HD
HETATM   21  N4  UNL     1       6.456  -0.673   1.373  1.00  0.00    -0.276 N 
ATOM     22  H4  UNL     1       6.422  -0.753   2.389  1.00  0.00     0.189 HD
HETATM   23  C15 UNL     1       4.056  -1.290   0.760  1.00  0.00     0.175 C 
BRANCH  19  24
HETATM   24  C14 UNL     1       8.851  -0.005   1.170  1.00  0.00     0.246 C 
HETATM   25  O1  UNL     1       9.072  -0.029   2.403  1.00  0.00    -0.642 OA
HETATM   26  O2  UNL     1       9.860   0.327   0.300  1.00  0.00    -0.642 OA
ENDBRANCH  19  24
ENDBRANCH  11  13
ENDBRANCH   5  11
BRANCH   9  27
HETATM   27  O3  UNL     1      -2.891   2.529   1.476  1.00  0.00    -0.374 OA
ATOM     28  H3  UNL     1      -3.810   2.723   1.620  1.00  0.00     0.211 HD
ENDBRANCH   9  27
BRANCH   9  29
HETATM   29  C19 UNL     1      -2.906   3.288  -0.703  1.00  0.00     0.425 C 
HETATM   30  F1  UNL     1      -2.091   4.334  -0.329  1.00  0.00    -0.167 F 
HETATM   31  F2  UNL     1      -4.249   3.561  -0.541  1.00  0.00    -0.167 F 
HETATM   32  F3  UNL     1      -2.702   2.903  -2.006  1.00  0.00    -0.167 F 
ENDBRANCH   9  29
BRANCH   1  33
HETATM   33  C4  UNL     1      -4.367  -1.125   0.228  1.00  0.00     0.276 C 
BRANCH  33  34
HETATM   34  C2  UNL     1      -5.215  -1.462  -0.916  1.00  0.00     0.006 C 
HETATM   35  C1  UNL     1      -6.389  -2.300  -0.309  1.00  0.00     0.011 C 
HETATM   36  C3  UNL     1      -5.934  -0.357  -1.641  1.00  0.00     0.011 C 
ENDBRANCH  33  34
ENDBRANCH   1  33
TORSDOF 7
