REMARK  10 active torsions:
REMARK  status: ('A' for Active; 'I' for Inactive)
REMARK    1  A    between atoms: O1_2  and  C2_3 
REMARK    2  A    between atoms: C7_8  and  O2_9 
REMARK    3  A    between atoms: O2_9  and  C8_10 
REMARK       I    between atoms: N1_13  and  C11_14 
REMARK    4  A    between atoms: C11_14  and  O4_16 
REMARK    5  A    between atoms: O4_16  and  C12_17 
REMARK    6  A    between atoms: C12_17  and  C13_18 
REMARK    7  A    between atoms: C12_17  and  C16_23 
REMARK    8  A    between atoms: C13_18  and  O5_21 
REMARK    9  A    between atoms: C18_31  and  C19_32 
REMARK   10  A    between atoms: C20_36  and  N3_37 
ROOT
HETATM    1  C2  UNL     1      -1.654  -0.235  -1.299  1.00  0.00     0.102 A 
HETATM    2  C3  UNL     1      -2.885  -0.692  -1.663  1.00  0.00     0.049 A 
HETATM    3  C4  UNL     1      -3.992  -0.698  -0.831  1.00  0.00    -0.029 A 
HETATM    4  C5  UNL     1      -3.846  -0.215   0.439  1.00  0.00     0.037 A 
HETATM    5  C6  UNL     1      -2.590   0.260   0.836  1.00  0.00     0.069 A 
HETATM    6  C7  UNL     1      -1.506   0.259   0.002  1.00  0.00     0.107 A 
HETATM    7  N2  UNL     1      -4.822  -0.124   1.448  1.00  0.00    -0.375 N 
ATOM      8  H2  UNL     1      -4.434   0.010   2.382  1.00  0.00     0.160 HD
HETATM    9  C18 UNL     1      -6.274  -0.183   1.423  1.00  0.00     0.220 C 
HETATM   10  C20 UNL     1      -6.709  -0.199  -0.000  1.00  0.00     0.215 C 
HETATM   11  C21 UNL     1      -6.282  -1.513  -0.621  1.00  0.00     0.040 C 
HETATM   12  C22 UNL     1      -5.148  -1.264  -1.568  1.00  0.00     0.043 C 
ENDROOT
BRANCH   6  13
HETATM   13  O2  UNL     1      -0.276   0.718   0.373  1.00  0.00    -0.317 OA
BRANCH  13  14
HETATM   14  C8  UNL     1       0.111   1.250   1.595  1.00  0.00     0.270 C 
HETATM   15  C9  UNL     1       0.701   2.635   1.429  1.00  0.00     0.081 C 
HETATM   16  C10 UNL     1       2.119   2.649   0.977  1.00  0.00     0.135 C 
HETATM   17  N1  UNL     1       2.724   1.350   0.841  1.00  0.00    -0.306 N 
HETATM   18  C11 UNL     1       4.043   1.254   0.345  1.00  0.00     0.365 C 
HETATM   19  C17 UNL     1       2.019   0.149   1.197  1.00  0.00     0.301 C 
HETATM   20  O3  UNL     1       4.674   2.290   0.029  1.00  0.00    -0.238 OA
HETATM   21  O6  UNL     1       1.083   0.456   2.207  1.00  0.00    -0.342 OA
BRANCH  18  22
HETATM   22  O4  UNL     1       4.703   0.039   0.182  1.00  0.00    -0.286 OA
BRANCH  22  23
HETATM   23  C12 UNL     1       6.027   0.008  -0.321  1.00  0.00     0.274 C 
BRANCH  23  24
HETATM   24  C13 UNL     1       6.985  -0.600   0.676  1.00  0.00     0.086 C 
HETATM   25  C14 UNL     1       8.402  -0.516   0.184  1.00  0.00     0.048 C 
HETATM   26  C15 UNL     1       6.624  -1.984   1.092  1.00  0.00     0.048 C 
BRANCH  24  27
HETATM   27  O5  UNL     1       6.911   0.223   1.825  1.00  0.00    -0.388 OA
ATOM     28  H5  UNL     1       7.514  -0.159   2.452  1.00  0.00     0.210 HD
ENDBRANCH  24  27
ENDBRANCH  23  24
BRANCH  23  29
HETATM   29  C16 UNL     1       6.020  -0.730  -1.642  1.00  0.00     0.416 C 
HETATM   30  F1  UNL     1       5.162   0.001  -2.476  1.00  0.00    -0.168 F 
HETATM   31  F2  UNL     1       5.518  -1.990  -1.557  1.00  0.00    -0.168 F 
HETATM   32  F3  UNL     1       7.259  -0.662  -2.245  1.00  0.00    -0.168 F 
ENDBRANCH  23  29
ENDBRANCH  22  23
ENDBRANCH  18  22
ENDBRANCH  13  14
ENDBRANCH   6  13
BRANCH   1  33
HETATM   33  O1  UNL     1      -0.566  -0.246  -2.165  1.00  0.00    -0.353 OA
HETATM   34  C1  UNL     1      -0.765  -0.754  -3.466  1.00  0.00     0.210 C 
ENDBRANCH   1  33
BRANCH   9  35
HETATM   35  C19 UNL     1      -6.832   0.955   2.227  1.00  0.00     0.409 C 
HETATM   36  F4  UNL     1      -6.430   2.172   1.712  1.00  0.00    -0.169 F 
HETATM   37  F5  UNL     1      -8.179   0.941   2.359  1.00  0.00    -0.169 F 
HETATM   38  F6  UNL     1      -6.274   0.878   3.503  1.00  0.00    -0.169 F 
ENDBRANCH   9  35
BRANCH  10  39
HETATM   39  N3  UNL     1      -8.134  -0.074  -0.184  1.00  0.00    -0.073 N 
ATOM     40  H33 UNL     1      -8.627  -0.791   0.348  1.00  0.00     0.274 HD
ATOM     41  H32 UNL     1      -8.483   0.761   0.286  1.00  0.00     0.274 HD
ATOM     42  H31 UNL     1      -8.432  -0.085  -1.159  1.00  0.00     0.274 HD
ENDBRANCH  10  39
TORSDOF 10
