REMARK  9 active torsions:
REMARK  status: ('A' for Active; 'I' for Inactive)
REMARK    1  A    between atoms: C2_2  and  C3_4 
REMARK    2  A    between atoms: C3_4  and  N1_5 
REMARK    3  A    between atoms: C3_4  and  C11_21 
REMARK    4  A    between atoms: N1_5  and  C4_7 
REMARK    5  A    between atoms: C4_7  and  N2_8 
REMARK    6  A    between atoms: C4_7  and  C10_17 
REMARK       I    between atoms: N2_8  and  C5_10 
REMARK    7  A    between atoms: C5_10  and  O2_12 
REMARK    8  A    between atoms: O2_12  and  C6_13 
REMARK       I    between atoms: C11_21  and  N3_23 
REMARK    9  A    between atoms: C12_24  and  O4_25 
ROOT
HETATM    1  C11 UNL     1       2.634  -0.522   0.711  1.00  0.00     0.257 C 
HETATM    2  O3  UNL     1       2.945  -1.301   1.690  1.00  0.00    -0.270 OA
HETATM    3  N3  UNL     1       3.537   0.471   0.379  1.00  0.00    -0.241 N 
HETATM    4  C12 UNL     1       3.398   1.427  -0.547  1.00  0.00     0.191 A 
HETATM    5  C13 UNL     1       4.573   2.196  -0.552  1.00  0.00     0.189 A 
HETATM    6  C14 UNL     1       4.882   3.321  -1.370  1.00  0.00     0.124 C 
HETATM    7  N4  UNL     1       5.130   4.229  -2.038  1.00  0.00    -0.190 NA
HETATM    8  N5  UNL     1       5.390   1.665   0.392  1.00  0.00    -0.222 N 
HETATM    9  N6  UNL     1       6.588   1.844   0.923  1.00  0.00    -0.266 N 
ATOM     10  H6  UNL     1       7.248   2.575   0.657  1.00  0.00     0.190 HD
HETATM   11  C15 UNL     1       6.799   0.920   1.861  1.00  0.00     0.206 A 
HETATM   12  F2  UNL     1       7.898   0.736   2.654  1.00  0.00    -0.185 F 
HETATM   13  C16 UNL     1       5.662   0.145   1.892  1.00  0.00     0.113 A 
HETATM   14  C17 UNL     1       4.756   0.623   0.948  1.00  0.00     0.144 A 
ENDROOT
BRANCH   4  15
HETATM   15  O4  UNL     1       2.378   1.744  -1.412  1.00  0.00    -0.343 OA
ATOM     16  H4  UNL     1       2.279   2.423  -2.069  1.00  0.00     0.219 HD
ENDBRANCH   4  15
BRANCH   1  17
HETATM   17  C3  UNL     1       1.312  -0.836   0.086  1.00  0.00     0.206 C 
BRANCH  17  18
HETATM   18  C2  UNL     1       1.578  -2.112  -0.732  1.00  0.00     0.197 C 
HETATM   19  C1  UNL     1       2.583  -1.783  -1.841  1.00  0.00     0.048 C 
HETATM   20  F1  UNL     1       0.474  -2.567  -1.402  1.00  0.00    -0.247 F 
ENDBRANCH  17  18
BRANCH  17  21
HETATM   21  N1  UNL     1       0.413  -1.078   1.146  1.00  0.00    -0.383 N 
ATOM     22  H1  UNL     1       0.757  -0.972   2.100  1.00  0.00     0.156 HD
BRANCH  21  23
HETATM   23  C4  UNL     1      -0.919  -1.454   0.966  1.00  0.00     0.237 C 
BRANCH  23  24
HETATM   24  N2  UNL     1      -1.855  -0.340   1.078  1.00  0.00    -0.312 N 
HETATM   25  C5  UNL     1      -2.956  -0.277   0.199  1.00  0.00     0.363 C 
HETATM   26  O1  UNL     1      -3.132  -1.163  -0.668  1.00  0.00    -0.238 OA
ATOM     27  H2  UNL     1      -1.715   0.384   1.783  1.00  0.00     0.167 HD
BRANCH  25  28
HETATM   28  O2  UNL     1      -3.876   0.754   0.256  1.00  0.00    -0.294 OA
BRANCH  28  29
HETATM   29  C6  UNL     1      -4.993   0.917  -0.554  1.00  0.00     0.061 C 
HETATM   30  C7  UNL     1      -5.709   2.206  -0.121  1.00  0.00     0.046 C 
HETATM   31  C8  UNL     1      -6.012  -0.194  -0.398  1.00  0.00     0.046 C 
HETATM   32  C9  UNL     1      -4.708   1.066  -2.024  1.00  0.00     0.046 C 
ENDBRANCH  28  29
ENDBRANCH  25  28
ENDBRANCH  23  24
BRANCH  23  33
HETATM   33  C10 UNL     1      -1.227  -2.383   2.175  1.00  0.00     0.225 C 
HETATM   34 CL1  UNL     1      -0.086  -3.736   2.043  1.00  0.00    -0.080 Cl
HETATM   35 CL2  UNL     1      -0.940  -1.539   3.704  1.00  0.00    -0.080 Cl
HETATM   36 CL3  UNL     1      -2.862  -3.026   2.052  1.00  0.00    -0.080 Cl
ENDBRANCH  23  33
ENDBRANCH  21  23
ENDBRANCH  17  21
ENDBRANCH   1  17
TORSDOF 9
