REMARK  11 active torsions:
REMARK  status: ('A' for Active; 'I' for Inactive)
REMARK    1  A    between atoms: N1_1  and  N2_4 
REMARK    2  A    between atoms: N2_4  and  C1_5 
REMARK    3  A    between atoms: C1_5  and  O1_6 
REMARK    4  A    between atoms: C1_5  and  N3_8 
REMARK    5  A    between atoms: C5_15  and  O3_16 
REMARK    6  A    between atoms: C5_15  and  C6_18 
REMARK    7  A    between atoms: C6_18  and  O4_19 
REMARK    8  A    between atoms: C7_22  and  O6_23 
REMARK    9  A    between atoms: C7_22  and  C8_25 
REMARK   10  A    between atoms: C8_25  and  S1_26 
REMARK   11  A    between atoms: S1_26  and  N5_27 
ROOT
HETATM    1  N3  UNL     1       1.851  -0.461   0.606  1.00  0.00    -0.210 N 
HETATM    2  N4  UNL     1       0.864   0.329   0.997  1.00  0.00    -0.290 N 
ATOM      3  H4  UNL     1       1.010   1.227   1.458  1.00  0.00     0.187 HD
HETATM    4  C2  UNL     1      -0.339  -0.171   0.726  1.00  0.00     0.106 A 
HETATM    5  C3  UNL     1      -0.080  -1.389   0.109  1.00  0.00     0.105 A 
HETATM    6  C4  UNL     1       1.265  -1.530   0.053  1.00  0.00     0.279 A 
HETATM    7  O2  UNL     1       1.913  -2.513  -0.441  1.00  0.00    -0.266 OA
HETATM    8  C5  UNL     1      -1.378  -2.023  -0.196  1.00  0.00     0.223 C 
HETATM    9  O5  UNL     1      -2.334  -1.281   0.426  1.00  0.00    -0.305 OA
HETATM   10  C7  UNL     1      -1.781  -0.039   0.773  1.00  0.00     0.226 C 
ENDROOT
BRANCH  10  11
HETATM   11  O6  UNL     1      -2.199   0.185   2.088  1.00  0.00    -0.360 OA
ATOM     12  H6  UNL     1      -3.145   0.272   2.119  1.00  0.00     0.213 HD
ENDBRANCH  10  11
BRANCH  10  13
HETATM   13  C8  UNL     1      -2.331   0.990  -0.123  1.00  0.00     0.238 C 
BRANCH  13  14
HETATM   14  S1  UNL     1      -1.812   2.648   0.104  1.00  0.00     0.230 S 
HETATM   15  O7  UNL     1      -2.050   3.198   1.470  1.00  0.00    -0.206 OA
HETATM   16  O8  UNL     1      -0.354   2.871  -0.249  1.00  0.00    -0.206 OA
BRANCH  14  17
HETATM   17  N5  UNL     1      -2.659   3.685  -1.047  1.00  0.00    -0.328 N 
ATOM     18  H52 UNL     1      -3.341   3.356  -1.731  1.00  0.00     0.168 HD
ATOM     19  H51 UNL     1      -2.357   4.650  -0.915  1.00  0.00     0.168 HD
ENDBRANCH  14  17
ENDBRANCH  13  14
ENDBRANCH  10  13
BRANCH   8  20
HETATM   20  O3  UNL     1      -1.387  -3.325   0.376  1.00  0.00    -0.360 OA
ATOM     21  H3  UNL     1      -2.222  -3.733   0.180  1.00  0.00     0.213 HD
ENDBRANCH   8  20
BRANCH   8  22
HETATM   22  C6  UNL     1      -1.568  -2.201  -1.655  1.00  0.00     0.238 C 
BRANCH  22  23
HETATM   23  O4  UNL     1      -0.545  -2.987  -2.215  1.00  0.00    -0.395 OA
ATOM     24  H4  UNL     1      -0.667  -3.101  -3.150  1.00  0.00     0.209 HD
ENDBRANCH  22  23
ENDBRANCH   8  22
BRANCH   1  25
HETATM   25  C1  UNL     1       3.276  -0.226   0.744  1.00  0.00     0.362 C 
BRANCH  25  26
HETATM   26  N2  UNL     1       3.810   0.611  -0.281  1.00  0.00    -0.093 NA
BRANCH  26  27
HETATM   27  N1  UNL     1       3.263   1.892  -0.296  1.00  0.00    -0.344 N 
ATOM     28  H12 UNL     1       2.549   2.188   0.370  1.00  0.00     0.172 HD
ATOM     29  H11 UNL     1       3.645   2.490  -1.029  1.00  0.00     0.172 HD
ENDBRANCH  26  27
ENDBRANCH  25  26
BRANCH  25  30
HETATM   30  O1  UNL     1       3.558   0.403   1.978  1.00  0.00    -0.360 OA
ATOM     31  H1  UNL     1       3.203  -0.154   2.660  1.00  0.00     0.213 HD
ENDBRANCH  25  30
ENDBRANCH   1  25
TORSDOF 11
