REMARK  11 active torsions:
REMARK  status: ('A' for Active; 'I' for Inactive)
REMARK    1  A    between atoms: C5_6  and  C6_7 
REMARK    2  A    between atoms: C6_7  and  O2_8 
REMARK    3  A    between atoms: C6_7  and  O3_10 
REMARK    4  A    between atoms: C8_14  and  N1_15 
REMARK    5  A    between atoms: C8_14  and  C9_19 
REMARK    6  A    between atoms: C9_19  and  N3_23 
REMARK    7  A    between atoms: N3_23  and  N4_25 
REMARK    8  A    between atoms: C11_30  and  O6_31 
REMARK    9  A    between atoms: C11_30  and  C12_33 
REMARK   10  A    between atoms: C12_33  and  O7_34 
REMARK   11  A    between atoms: C12_33  and  O8_36 
ROOT
HETATM    1  C1  UNL     1      -1.071  -0.680   2.243  1.00  0.00     0.048 C 
HETATM    2  C2  UNL     1      -0.096  -1.003   1.161  1.00  0.00     0.084 C 
HETATM    3  C3  UNL     1       0.231  -2.500   1.404  1.00  0.00     0.048 C 
HETATM    4  O1  UNL     1       1.069  -0.312   1.363  1.00  0.00    -0.366 OA
HETATM    5  C4  UNL     1       1.601   0.327   0.257  1.00  0.00     0.206 C 
HETATM    6  C5  UNL     1       0.938   1.678  -0.016  1.00  0.00     0.148 C 
HETATM    7  C7  UNL     1      -0.432   1.511  -0.508  1.00  0.00     0.184 C 
HETATM    8  O4  UNL     1      -0.967   2.557  -0.819  1.00  0.00    -0.294 OA
HETATM    9  C8  UNL     1      -1.251   0.315  -0.687  1.00  0.00     0.270 C 
HETATM   10  C10 UNL     1      -0.601  -0.958  -0.240  1.00  0.00     0.210 C 
HETATM   11  O5  UNL     1       0.467  -1.332  -1.055  1.00  0.00    -0.337 OA
HETATM   12  C11 UNL     1       1.556  -0.505  -1.009  1.00  0.00     0.241 C 
ENDROOT
BRANCH   9  13
HETATM   13  N1  UNL     1      -1.470   0.161  -2.142  1.00  0.00    -0.053 N 
ATOM     14  H13 UNL     1      -1.870   0.991  -2.578  1.00  0.00     0.276 HD
ATOM     15  H12 UNL     1      -0.603   0.139  -2.679  1.00  0.00     0.276 HD
ATOM     16  H11 UNL     1      -2.042  -0.674  -2.267  1.00  0.00     0.276 HD
ENDBRANCH   9  13
BRANCH   9  17
HETATM   17  C9  UNL     1      -2.619   0.480  -0.158  1.00  0.00     0.136 C 
HETATM   18  N2  UNL     1      -3.095   1.460   0.479  1.00  0.00    -0.385 N 
ATOM     19  H22 UNL     1      -2.434   2.222   0.633  1.00  0.00     0.157 HD
ATOM     20  H21 UNL     1      -4.040   1.574   0.845  1.00  0.00     0.157 HD
BRANCH  17  21
HETATM   21  N3  UNL     1      -3.558  -0.603  -0.377  1.00  0.00    -0.293 N 
ATOM     22  H3  UNL     1      -3.519  -1.455   0.182  1.00  0.00     0.187 HD
BRANCH  21  23
HETATM   23  N4  UNL     1      -4.520  -0.441  -1.380  1.00  0.00    -0.344 N 
ATOM     24  H42 UNL     1      -4.546   0.417  -1.930  1.00  0.00     0.176 HD
ATOM     25  H41 UNL     1      -5.181  -1.203  -1.534  1.00  0.00     0.176 HD
ENDBRANCH  21  23
ENDBRANCH  17  21
ENDBRANCH   9  17
BRANCH   6  26
HETATM   26  C6  UNL     1       1.176   2.687   1.028  1.00  0.00     0.267 C 
BRANCH  26  27
HETATM   27  O2  UNL     1       0.772   2.438   2.297  1.00  0.00    -0.371 OA
ATOM     28  H2  UNL     1       0.926   3.090   2.971  1.00  0.00     0.212 HD
ENDBRANCH  26  27
BRANCH  26  29
HETATM   29  O3  UNL     1       2.570   2.956   1.090  1.00  0.00    -0.371 OA
ATOM     30  H3  UNL     1       2.724   3.608   1.764  1.00  0.00     0.212 HD
ENDBRANCH  26  29
ENDBRANCH   6  26
BRANCH  12  31
HETATM   31  O6  UNL     1       1.464   0.447  -2.069  1.00  0.00    -0.360 OA
ATOM     32  H6  UNL     1       1.436  -0.075  -2.863  1.00  0.00     0.213 HD
ENDBRANCH  12  31
BRANCH  12  33
HETATM   33  C12 UNL     1       2.884  -1.183  -1.229  1.00  0.00     0.320 C 
BRANCH  33  34
HETATM   34  O7  UNL     1       2.894  -1.824  -2.494  1.00  0.00    -0.366 OA
ATOM     35  H7  UNL     1       3.731  -2.251  -2.633  1.00  0.00     0.212 HD
ENDBRANCH  33  34
BRANCH  33  36
HETATM   36  O8  UNL     1       3.308  -2.016  -0.217  1.00  0.00    -0.366 OA
ATOM     37  H8  UNL     1       4.145  -2.443  -0.356  1.00  0.00     0.212 HD
ENDBRANCH  33  36
ENDBRANCH  12  33
TORSDOF 11
