REMARK  7 active torsions:
REMARK  status: ('A' for Active; 'I' for Inactive)
REMARK    1  A    between atoms: N1_2  and  C2_3 
REMARK       I    between atoms: N1_2  and  C6_7 
REMARK    2  A    between atoms: C2_3  and  C3_4 
REMARK    3  A    between atoms: C6_7  and  O2_9 
REMARK    4  A    between atoms: O2_9  and  C7_10 
REMARK    5  A    between atoms: C7_10  and  C8_11 
REMARK    6  A    between atoms: C13_16  and  N2_17 
REMARK       I    between atoms: N2_17  and  C14_19 
REMARK    7  A    between atoms: C14_19  and  C15_21 
ROOT
HETATM    1  C8  UNL     1      -0.229  -1.091  -0.916  1.00  0.00     0.033 C 
HETATM    2  C9  UNL     1       0.079  -2.581  -1.092  1.00  0.00     0.009 C 
HETATM    3  C10 UNL     1      -0.044  -2.986  -2.543  1.00  0.00     0.001 C 
HETATM    4  C11 UNL     1      -1.343  -2.582  -3.160  1.00  0.00     0.002 C 
HETATM    5  C12 UNL     1      -1.553  -1.093  -2.953  1.00  0.00     0.026 C 
HETATM    6  C13 UNL     1      -1.639  -0.898  -1.433  1.00  0.00     0.090 C 
ENDROOT
BRANCH   1   7
HETATM    7  C7  UNL     1      -0.208  -0.796   0.551  1.00  0.00     0.187 C 
BRANCH   7   8
HETATM    8  O2  UNL     1       1.009  -1.061   1.180  1.00  0.00    -0.303 OA
BRANCH   8   9
HETATM    9  C6  UNL     1       2.223  -0.473   0.866  1.00  0.00     0.362 C 
HETATM   10  N1  UNL     1       3.387  -0.842   1.595  1.00  0.00    -0.332 N 
HETATM   11  C1  UNL     1       3.331  -1.822   2.662  1.00  0.00     0.155 C 
HETATM   12  O1  UNL     1       2.243   0.373  -0.062  1.00  0.00    -0.238 OA
BRANCH  10  13
HETATM   13  C2  UNL     1       4.667  -0.238   1.280  1.00  0.00     0.132 C 
BRANCH  13  14
HETATM   14  C3  UNL     1       4.931   1.013   2.065  1.00  0.00     0.004 A 
HETATM   15  C4  UNL     1       6.254   1.667   1.762  1.00  0.00     0.007 A 
HETATM   16  C5  UNL     1       5.009   2.318   1.322  1.00  0.00     0.007 A 
ENDBRANCH  13  14
ENDBRANCH  10  13
ENDBRANCH   8   9
ENDBRANCH   7   8
ENDBRANCH   1   7
BRANCH   6  17
HETATM   17  N2  UNL     1      -2.178   0.397  -1.165  1.00  0.00    -0.355 N 
HETATM   18  C14 UNL     1      -3.410   0.503  -0.463  1.00  0.00     0.225 C 
HETATM   19  O3  UNL     1      -3.982  -0.563  -0.103  1.00  0.00    -0.273 OA
ATOM     20  H2  UNL     1      -1.685   1.235  -1.473  1.00  0.00     0.162 HD
BRANCH  18  21
HETATM   21  C15 UNL     1      -4.028   1.822  -0.151  1.00  0.00     0.030 C 
HETATM   22  C16 UNL     1      -5.316   1.562   0.595  1.00  0.00     0.024 C 
HETATM   23  C17 UNL     1      -4.297   2.622  -1.395  1.00  0.00     0.024 C 
HETATM   24  C18 UNL     1      -3.130   2.642   0.771  1.00  0.00     0.024 C 
ENDBRANCH  18  21
ENDBRANCH   6  17
TORSDOF 7
