REMARK  8 active torsions:
REMARK  status: ('A' for Active; 'I' for Inactive)
REMARK    1  A    between atoms: C2_2  and  C3_3 
REMARK    2  A    between atoms: C3_3  and  C4_4 
REMARK    3  A    between atoms: C4_4  and  C5_5 
REMARK    4  A    between atoms: C5_5  and  C6_6 
REMARK    5  A    between atoms: C6_6  and  C7_7 
REMARK    6  A    between atoms: C7_7  and  N1_8 
REMARK       I    between atoms: N1_8  and  C8_10 
REMARK    7  A    between atoms: C8_10  and  C9_12 
REMARK    8  A    between atoms: C26_31  and  C27_32 
ROOT
HETATM    1  C9  UNL     1       0.402  -0.520  -1.007  1.00  0.00     0.087 C 
HETATM    2  C10 UNL     1       0.703   0.899  -1.512  1.00  0.00     0.015 C 
HETATM    3  C11 UNL     1      -0.520   1.622  -1.106  1.00  0.00     0.007 C 
HETATM    4  C12 UNL     1      -1.147   0.912   0.087  1.00  0.00    -0.000 C 
HETATM    5  C13 UNL     1      -2.546   0.644  -0.228  1.00  0.00    -0.005 C 
HETATM    6  C14 UNL     1      -3.105   1.900  -0.920  1.00  0.00     0.007 C 
HETATM    7  C15 UNL     1      -4.320   2.461  -0.212  1.00  0.00     0.026 C 
HETATM    8  C16 UNL     1      -5.458   1.517  -0.111  1.00  0.00     0.095 C 
HETATM    9  N2  UNL     1      -6.189   1.506  -1.348  1.00  0.00    -0.351 N 
HETATM   10  C17 UNL     1      -6.385   2.751  -2.057  1.00  0.00     0.153 C 
HETATM   11  C18 UNL     1      -6.738   0.342  -1.924  1.00  0.00     0.219 C 
HETATM   12  O2  UNL     1      -7.461   0.394  -2.931  1.00  0.00    -0.273 OA
HETATM   13  C19 UNL     1      -6.425  -0.955  -1.287  1.00  0.00     0.103 C 
HETATM   14  C20 UNL     1      -4.980  -0.853  -0.825  1.00  0.00     0.020 C 
HETATM   15  C21 UNL     1      -4.906   0.165   0.261  1.00  0.00    -0.019 C 
HETATM   16  C22 UNL     1      -5.770  -0.350   1.413  1.00  0.00     0.018 C 
HETATM   17  C23 UNL     1      -3.503   0.321   0.844  1.00  0.00     0.000 C 
HETATM   18  C24 UNL     1      -3.250  -0.902   1.663  1.00  0.00     0.007 C 
HETATM   19  C25 UNL     1      -1.774  -0.834   2.093  1.00  0.00     0.013 C 
HETATM   20  C26 UNL     1      -0.991  -1.387   0.899  1.00  0.00     0.064 C 
HETATM   21  C29 UNL     1      -0.203  -0.250   0.321  1.00  0.00    -0.018 C 
HETATM   22  C30 UNL     1       0.840   0.297   1.264  1.00  0.00     0.017 C 
ENDROOT
BRANCH   1  23
HETATM   23  C8  UNL     1       1.597  -1.346  -1.098  1.00  0.00     0.222 C 
HETATM   24  N1  UNL     1       2.885  -0.932  -0.701  1.00  0.00    -0.361 N 
ATOM     25  H1  UNL     1       2.997   0.011  -0.329  1.00  0.00     0.162 HD
HETATM   26  O1  UNL     1       1.508  -2.508  -1.556  1.00  0.00    -0.273 OA
BRANCH  24  27
HETATM   27  C7  UNL     1       4.059  -1.779  -0.794  1.00  0.00     0.122 C 
BRANCH  27  28
HETATM   28  C6  UNL     1       5.239  -0.991  -0.277  1.00  0.00     0.020 C 
BRANCH  28  29
HETATM   29  C5  UNL     1       6.516  -1.776  -0.327  1.00  0.00     0.002 C 
BRANCH  29  30
HETATM   30  C4  UNL     1       7.691  -0.989   0.195  1.00  0.00     0.000 C 
BRANCH  30  31
HETATM   31  C3  UNL     1       7.905   0.263  -0.617  1.00  0.00    -0.000 C 
BRANCH  31  32
HETATM   32  C2  UNL     1       9.099   1.025  -0.066  1.00  0.00    -0.005 C 
HETATM   33  C1  UNL     1       8.901   1.424   1.360  1.00  0.00     0.005 C 
ENDBRANCH  31  32
ENDBRANCH  30  31
ENDBRANCH  29  30
ENDBRANCH  28  29
ENDBRANCH  27  28
ENDBRANCH  24  27
ENDBRANCH   1  23
BRANCH  20  34
HETATM   34  C27 UNL     1      -0.292  -2.562   1.363  1.00  0.00     0.128 C 
HETATM   35  C28 UNL     1       0.715  -2.641   2.435  1.00  0.00     0.091 C 
HETATM   36  O3  UNL     1      -0.541  -3.654   0.823  1.00  0.00    -0.298 OA
ENDBRANCH  20  34
TORSDOF 8
