REMARK  7 active torsions:
REMARK  status: ('A' for Active; 'I' for Inactive)
REMARK    1  A    between atoms: C2_2  and  O2_4 
REMARK    2  A    between atoms: O2_4  and  C3_5 
REMARK    3  A    between atoms: C12_14  and  C13_15 
REMARK       I    between atoms: C13_15  and  N1_17 
REMARK    4  A    between atoms: N1_17  and  C14_19 
REMARK    5  A    between atoms: C14_19  and  C15_20 
REMARK    6  A    between atoms: C15_20  and  C16_21 
REMARK    7  A    between atoms: C16_21  and  N2_22 
ROOT
HETATM    1  C3  UNL     1      -6.513   1.030   0.112  1.00  0.00     0.140 C 
HETATM    2  C4  UNL     1      -6.743   1.176  -1.398  1.00  0.00     0.034 C 
HETATM    3  C5  UNL     1      -5.449   0.720  -2.065  1.00  0.00     0.008 C 
HETATM    4  C6  UNL     1      -4.621   0.263  -0.904  1.00  0.00     0.001 C 
HETATM    5  C7  UNL     1      -3.165   0.117  -1.169  1.00  0.00    -0.005 C 
HETATM    6  C8  UNL     1      -2.902  -1.394  -1.250  1.00  0.00     0.006 C 
HETATM    7  C9  UNL     1      -1.482  -1.701  -1.532  1.00  0.00     0.011 C 
HETATM    8  C10 UNL     1      -0.596  -1.150  -0.445  1.00  0.00    -0.028 C 
HETATM    9  C11 UNL     1      -0.685  -2.154   0.714  1.00  0.00     0.016 C 
HETATM   10  C12 UNL     1       0.818  -1.257  -0.975  1.00  0.00     0.086 C 
HETATM   11  C22 UNL     1       1.056  -0.403  -2.196  1.00  0.00     0.015 C 
HETATM   12  C23 UNL     1       0.297   0.877  -2.129  1.00  0.00     0.001 C 
HETATM   13  C24 UNL     1      -0.053   1.293  -0.724  1.00  0.00     0.006 C 
HETATM   14  C25 UNL     1      -0.905   0.229  -0.025  1.00  0.00    -0.001 C 
HETATM   15  C26 UNL     1      -2.340   0.633  -0.031  1.00  0.00    -0.005 C 
HETATM   16  C27 UNL     1      -2.976   0.369   1.317  1.00  0.00     0.006 C 
HETATM   17  C28 UNL     1      -4.366   0.927   1.423  1.00  0.00     0.012 C 
HETATM   18  C29 UNL     1      -4.995   1.283   0.140  1.00  0.00    -0.013 C 
HETATM   19  C30 UNL     1      -4.821   2.704  -0.305  1.00  0.00     0.018 C 
ENDROOT
BRANCH  10  20
HETATM   20  C13 UNL     1       1.855  -1.104   0.046  1.00  0.00     0.222 C 
HETATM   21  O3  UNL     1       1.536  -0.864   1.229  1.00  0.00    -0.273 OA
HETATM   22  N1  UNL     1       3.204  -1.224  -0.291  1.00  0.00    -0.361 N 
ATOM     23  H1  UNL     1       3.408  -1.427  -1.270  1.00  0.00     0.162 HD
BRANCH  22  24
HETATM   24  C14 UNL     1       4.341  -1.095   0.583  1.00  0.00     0.124 C 
BRANCH  24  25
HETATM   25  C15 UNL     1       4.382   0.285   1.155  1.00  0.00     0.048 C 
BRANCH  25  26
HETATM   26  C16 UNL     1       5.514   0.559   2.076  1.00  0.00     0.238 C 
BRANCH  26  27
HETATM   27  N2  UNL     1       6.836   0.479   1.585  1.00  0.00    -0.071 N 
HETATM   28  C17 UNL     1       7.615   1.464   2.404  1.00  0.00     0.272 C 
HETATM   29  C18 UNL     1       7.064   0.888   0.237  1.00  0.00     0.237 C 
HETATM   30  C19 UNL     1       8.466   0.320  -0.032  1.00  0.00     0.029 C 
HETATM   31  C20 UNL     1       8.322  -1.062   0.570  1.00  0.00     0.029 C 
HETATM   32  C21 UNL     1       7.482  -0.813   1.779  1.00  0.00     0.237 C 
ENDBRANCH  26  27
ENDBRANCH  25  26
ENDBRANCH  24  25
ENDBRANCH  22  24
ENDBRANCH  10  20
BRANCH   1  33
HETATM   33  O2  UNL     1      -6.803  -0.303   0.495  1.00  0.00    -0.316 OA
BRANCH  33  34
HETATM   34  C2  UNL     1      -7.680  -0.626   1.501  1.00  0.00     0.255 C 
HETATM   35  C1  UNL     1      -7.969  -2.053   1.887  1.00  0.00     0.126 C 
HETATM   36  O1  UNL     1      -8.254   0.314   2.112  1.00  0.00    -0.266 OA
ENDBRANCH  33  34
ENDBRANCH   1  33
TORSDOF 7
