REMARK  8 active torsions:
REMARK  status: ('A' for Active; 'I' for Inactive)
REMARK    1  A    between atoms: C2_2  and  N1_3 
REMARK       I    between atoms: N2_5  and  C3_7 
REMARK    2  A    between atoms: C3_7  and  C4_9 
REMARK    3  A    between atoms: C4_9  and  C5_10 
REMARK    4  A    between atoms: C4_9  and  C6_17 
REMARK    5  A    between atoms: C5_10  and  O2_11 
REMARK    6  A    between atoms: N3_13  and  O3_15 
REMARK    7  A    between atoms: C7_21  and  C8_22 
REMARK    8  A    between atoms: N5_29  and  C14_31 
ROOT
HETATM    1  C4  UNL     1       0.134  -0.744  -1.739  1.00  0.00     0.101 C 
ENDROOT
BRANCH   1   2
HETATM    2  C3  UNL     1       0.814  -0.836  -0.456  1.00  0.00     0.273 C 
HETATM    3  N2  UNL     1       1.606   0.168   0.166  1.00  0.00    -0.265 N 
HETATM    4  N1  UNL     1       2.791   0.424  -0.208  1.00  0.00    -0.286 N 
ATOM      5  H2  UNL     1       1.208   0.701   0.939  1.00  0.00     0.190 HD
ATOM      6  H1  UNL     1       3.193  -0.106  -0.981  1.00  0.00     0.188 HD
HETATM    7  O1  UNL     1       0.717  -1.913   0.222  1.00  0.00    -0.266 OA
BRANCH   4   8
HETATM    8  C2  UNL     1       3.570   1.426   0.420  1.00  0.00     0.094 C 
HETATM    9  C1  UNL     1       3.431   2.829  -0.044  1.00  0.00     0.090 C 
HETATM   10  N5  UNL     1       4.398   1.184   1.377  1.00  0.00    -0.322 N 
ATOM     11  H5  UNL     1       4.916   1.971   1.767  1.00  0.00     0.169 HD
BRANCH  10  12
HETATM   12  C14 UNL     1       4.637  -0.091   1.922  1.00  0.00     0.173 C 
HETATM   13  N6  UNL     1       5.193  -1.000   1.175  1.00  0.00    -0.376 N 
ATOM     14  H62 UNL     1       5.439  -0.759   0.215  1.00  0.00     0.158 HD
ATOM     15  H61 UNL     1       5.366  -1.924   1.570  1.00  0.00     0.158 HD
HETATM   16 CL2  UNL     1       4.218  -0.503   3.560  1.00  0.00    -0.045 Cl
ENDBRANCH  10  12
ENDBRANCH   4   8
ENDBRANCH   1   2
BRANCH   1  17
HETATM   17  C5  UNL     1      -0.308  -2.016  -2.294  1.00  0.00     0.174 C 
HETATM   18  N3  UNL     1      -0.138  -3.104  -1.670  1.00  0.00    -0.247 N 
ATOM     19  H3  UNL     1       0.317  -3.103  -0.757  1.00  0.00     0.196 HD
BRANCH  17  20
HETATM   20  O2  UNL     1      -0.927  -2.040  -3.531  1.00  0.00    -0.344 OA
ATOM     21  H2  UNL     1      -1.215  -2.870  -3.893  1.00  0.00     0.219 HD
ENDBRANCH  17  20
BRANCH  18  22
HETATM   22  O3  UNL     1      -0.565  -4.283  -2.221  1.00  0.00    -0.288 OA
ATOM     23  H3  UNL     1      -0.437  -5.100  -1.753  1.00  0.00     0.244 HD
ENDBRANCH  18  22
ENDBRANCH   1  17
BRANCH   1  24
HETATM   24  C6  UNL     1      -0.853   0.415  -1.862  1.00  0.00     0.247 A 
HETATM   25  O4  UNL     1      -0.024   1.588  -1.704  1.00  0.00    -0.263 OA
HETATM   26  N4  UNL     1      -0.704   1.933  -0.652  1.00  0.00    -0.266 N 
HETATM   27  C7  UNL     1      -1.530   0.913  -0.690  1.00  0.00     0.080 A 
ATOM     28  H4  UNL     1      -0.624   2.725  -0.015  1.00  0.00     0.194 HD
BRANCH  27  29
HETATM   29  C8  UNL     1      -2.599   0.701   0.308  1.00  0.00     0.013 A 
HETATM   30  C9  UNL     1      -2.634   1.437   1.473  1.00  0.00     0.015 A 
HETATM   31  C10 UNL     1      -3.560   1.240   2.498  1.00  0.00     0.001 A 
HETATM   32  C11 UNL     1      -4.474   0.233   2.280  1.00  0.00     0.002 A 
HETATM   33  C12 UNL     1      -4.471  -0.515   1.138  1.00  0.00     0.025 A 
HETATM   34  C13 UNL     1      -3.533  -0.275   0.158  1.00  0.00     0.046 A 
HETATM   35 CL1  UNL     1      -3.699  -1.236  -1.305  1.00  0.00    -0.083 Cl
ENDBRANCH  27  29
ENDBRANCH   1  24
TORSDOF 8
