REMARK  5 active torsions:
REMARK  status: ('A' for Active; 'I' for Inactive)
REMARK    1  A    between atoms: C4_4  and  C5_5 
REMARK    2  A    between atoms: N1_9  and  O1_10 
REMARK    3  A    between atoms: C10_15  and  C11_16 
REMARK    4  A    between atoms: C12_17  and  C13_18 
REMARK       I    between atoms: C13_18  and  N3_20 
REMARK    5  A    between atoms: N3_20  and  C14_22 
ROOT
HETATM    1  C1  UNL     1      -3.126   2.767  -2.405  1.00  0.00     0.018 C 
HETATM    2  C2  UNL     1      -3.160   1.810  -1.650  1.00  0.00    -0.076 C 
HETATM    3  C3  UNL     1      -3.182   0.690  -0.751  1.00  0.00     0.039 A 
HETATM    4  C4  UNL     1      -4.350   0.272  -0.140  1.00  0.00    -0.014 A 
HETATM    5  C7  UNL     1      -4.389  -0.800   0.724  1.00  0.00     0.046 A 
HETATM    6  C8  UNL     1      -5.694  -1.207   1.358  1.00  0.00     0.071 C 
HETATM    7  N1  UNL     1      -3.274  -1.472   0.995  1.00  0.00    -0.211 N 
HETATM    8  C9  UNL     1      -2.094  -1.098   0.416  1.00  0.00     0.145 A 
HETATM    9  N2  UNL     1      -0.852  -1.596   0.518  1.00  0.00    -0.341 N 
ATOM     10  H2  UNL     1      -0.603  -2.397   1.098  1.00  0.00     0.167 HD
HETATM   11  C10 UNL     1       0.024  -0.910  -0.238  1.00  0.00     0.037 A 
HETATM   12  C20 UNL     1      -0.720   0.098  -0.865  1.00  0.00     0.044 A 
HETATM   13  C21 UNL     1      -2.028  -0.029  -0.452  1.00  0.00     0.032 A 
ENDROOT
BRANCH   4  14
HETATM   14  C5  UNL     1      -5.616   0.998  -0.418  1.00  0.00     0.037 C 
HETATM   15  C6  UNL     1      -5.696   2.314   0.308  1.00  0.00     0.010 C 
ENDBRANCH   4  14
BRANCH   7  16
HETATM   16  O1  UNL     1      -3.256  -2.546   1.847  1.00  0.00    -0.281 OA
ATOM     17  H1  UNL     1      -2.459  -3.026   2.041  1.00  0.00     0.245 HD
ENDBRANCH   7  16
BRANCH  11  18
HETATM   18  C11 UNL     1       1.468  -1.103  -0.427  1.00  0.00     0.170 C 
HETATM   19  C12 UNL     1       2.275  -0.594   0.749  1.00  0.00     0.209 C 
HETATM   20  N4  UNL     1       3.278  -1.577   0.994  1.00  0.00    -0.323 N 
HETATM   21  C17 UNL     1       4.277  -1.629   2.043  1.00  0.00     0.155 C 
HETATM   22  C18 UNL     1       3.158  -2.587  -0.007  1.00  0.00     0.321 C 
HETATM   23  O3  UNL     1       4.023  -3.437  -0.307  1.00  0.00    -0.247 OA
HETATM   24  N5  UNL     1       1.867  -2.473  -0.629  1.00  0.00    -0.326 N 
HETATM   25  C19 UNL     1       1.105  -3.470  -1.312  1.00  0.00     0.155 C 
BRANCH  19  26
HETATM   26  C13 UNL     1       2.747   0.763   0.493  1.00  0.00     0.243 C 
HETATM   27  O2  UNL     1       1.860   1.667   0.319  1.00  0.00    -0.271 OA
HETATM   28  N3  UNL     1       4.092   1.162   0.422  1.00  0.00    -0.355 N 
ATOM     29  H3  UNL     1       4.818   0.459   0.556  1.00  0.00     0.162 HD
BRANCH  28  30
HETATM   30  C14 UNL     1       4.493   2.542   0.164  1.00  0.00     0.084 A 
HETATM   31  C15 UNL     1       5.871   2.955   0.649  1.00  0.00     0.027 A 
HETATM   32  C16 UNL     1       5.678   2.737  -0.805  1.00  0.00     0.027 A 
ENDBRANCH  28  30
ENDBRANCH  19  26
ENDBRANCH  11  18
TORSDOF 5
