REMARK  3 active torsions:
REMARK  status: ('A' for Active; 'I' for Inactive)
REMARK    1  A    between atoms: N1_2  and  N2_3 
REMARK    2  A    between atoms: N1_2  and  C4_13 
REMARK    3  A    between atoms: N2_3  and  C2_5 
ROOT
HETATM    1  C4  UNL     1      -0.811  -0.466  -0.217  1.00  0.00     0.145 A 
HETATM    2  C5  UNL     1      -1.391   0.776  -0.293  1.00  0.00     0.131 A 
HETATM    3  C6  UNL     1      -1.018   1.760  -1.241  1.00  0.00     0.106 C 
HETATM    4  N5  UNL     1      -0.720   2.558  -2.019  1.00  0.00    -0.191 NA
HETATM    5  C7  UNL     1      -2.407   1.111   0.601  1.00  0.00     0.187 A 
HETATM    6  N6  UNL     1      -2.980   2.270   0.563  1.00  0.00    -0.377 N 
ATOM      7  H61 UNL     1      -3.723   2.515   1.217  1.00  0.00     0.158 HD
ATOM      8  H62 UNL     1      -2.673   2.943  -0.139  1.00  0.00     0.158 HD
HETATM    9  O3  UNL     1      -2.802   0.245   1.504  1.00  0.00    -0.216 OA
HETATM   10  N7  UNL     1      -2.245  -0.924   1.565  1.00  0.00    -0.222 N 
ATOM     11  H7  UNL     1      -2.575  -1.572   2.280  1.00  0.00     0.198 HD
HETATM   12  C8  UNL     1      -1.259  -1.339   0.747  1.00  0.00     0.295 A 
HETATM   13  O4  UNL     1      -0.783  -2.497   0.888  1.00  0.00    -0.264 OA
ENDROOT
BRANCH   1  14
HETATM   14  N1  UNL     1       0.210  -0.810  -1.113  1.00  0.00    -0.276 N 
HETATM   15  C1  UNL     1      -0.193  -1.436  -2.362  1.00  0.00     0.179 C 
BRANCH  14  16
HETATM   16  N2  UNL     1       1.573  -0.602  -0.903  1.00  0.00    -0.128 N 
ATOM     17  H2  UNL     1       2.234  -0.874  -1.630  1.00  0.00     0.206 HD
BRANCH  16  18
HETATM   18  C2  UNL     1       2.068  -0.018   0.304  1.00  0.00     0.721 A 
HETATM   19  N3  UNL     1       1.373   0.406   1.376  1.00  0.00    -0.130 N 
HETATM   20  C3  UNL     1       2.221   0.893   2.302  1.00  0.00     0.401 A 
ATOM     21  H3  UNL     1       0.358   0.365   1.472  1.00  0.00     0.190 HD
HETATM   22  O1  UNL     1       1.975   1.383   3.438  1.00  0.00    -0.236 OA
HETATM   23  O2  UNL     1       3.418   0.769   1.802  1.00  0.00    -0.165 OA
HETATM   24  N4  UNL     1       3.351   0.233   0.622  1.00  0.00    -0.085 N 
ATOM     25  H4  UNL     1       4.152   0.032   0.024  1.00  0.00     0.214 HD
ENDBRANCH  16  18
ENDBRANCH  14  16
ENDBRANCH   1  14
TORSDOF 3
