REMARK  5 active torsions:
REMARK  status: ('A' for Active; 'I' for Inactive)
REMARK    1  A    between atoms: C2_2  and  C4_4 
REMARK    2  A    between atoms: C2_2  and  C5_7 
REMARK    3  A    between atoms: C4_4  and  O1_5 
REMARK       I    between atoms: N3_13  and  C7_15 
REMARK    4  A    between atoms: C7_15  and  C8_17 
REMARK    5  A    between atoms: C17_27  and  C18_28 
ROOT
HETATM    1  C5  UNL     1      -1.087  -1.718  -0.526  1.00  0.00     0.043 A 
HETATM    2  N1  UNL     1      -0.149  -2.674  -0.317  1.00  0.00    -0.302 N 
ATOM      3  H1  UNL     1      -0.411  -3.653  -0.434  1.00  0.00     0.186 HD
HETATM    4  N2  UNL     1       1.075  -2.390   0.028  1.00  0.00    -0.284 N 
ATOM      5  H2  UNL     1       1.741  -3.147   0.181  1.00  0.00     0.188 HD
HETATM    6  C6  UNL     1       1.469  -1.135   0.184  1.00  0.00     0.133 A 
HETATM    7  N3  UNL     1       2.624  -0.841   0.523  1.00  0.00    -0.311 N 
ATOM      8  H3  UNL     1       2.767   0.166   0.599  1.00  0.00     0.170 HD
HETATM    9  C7  UNL     1       3.745  -1.553   0.817  1.00  0.00     0.227 C 
HETATM   10  O2  UNL     1       3.830  -2.683   1.400  1.00  0.00    -0.273 OA
HETATM   11  C11 UNL     1       0.567   0.012  -0.018  1.00  0.00     0.023 A 
HETATM   12  C12 UNL     1       1.193   1.293   0.022  1.00  0.00    -0.032 C 
HETATM   13  C13 UNL     1       1.101   2.307  -1.079  1.00  0.00     0.038 C 
HETATM   14  C14 UNL     1       1.534   3.601  -0.418  1.00  0.00     0.007 C 
HETATM   15  C15 UNL     1       2.420   3.131   0.755  1.00  0.00     0.042 C 
HETATM   16  C16 UNL     1       1.460   2.039   1.292  1.00  0.00     0.200 C 
HETATM   17  F1  UNL     1       2.127   1.419   2.286  1.00  0.00    -0.245 F 
HETATM   18  C17 UNL     1      -0.689  -0.339  -0.350  1.00  0.00    -0.015 A 
ENDROOT
BRANCH   9  19
HETATM   19  C8  UNL     1       5.074  -0.967   0.426  1.00  0.00     0.078 A 
HETATM   20  C9  UNL     1       6.100  -0.894   1.519  1.00  0.00     0.015 A 
HETATM   21  C10 UNL     1       6.211  -1.886   0.364  1.00  0.00     0.015 A 
ENDBRANCH   9  19
BRANCH  18  22
HETATM   22  C18 UNL     1      -1.817   0.500  -0.248  1.00  0.00     0.021 C 
HETATM   23  C19 UNL     1      -1.894   0.697   1.358  1.00  0.00     0.009 C 
HETATM   24  C20 UNL     1      -3.335   0.954   1.740  1.00  0.00     0.001 C 
HETATM   25  C21 UNL     1      -3.553   2.409   1.391  1.00  0.00     0.000 C 
HETATM   26  C22 UNL     1      -3.457   2.384  -0.114  1.00  0.00     0.001 C 
HETATM   27  C23 UNL     1      -2.032   1.921  -0.540  1.00  0.00     0.009 C 
ENDBRANCH  18  22
BRANCH   1  28
HETATM   28  C2  UNL     1      -2.327  -2.188  -0.982  1.00  0.00     0.018 C 
HETATM   29  C1  UNL     1      -2.587  -1.672  -2.389  1.00  0.00     0.024 C 
HETATM   30  C3  UNL     1      -3.600  -2.263  -0.330  1.00  0.00     0.024 C 
BRANCH  28  31
HETATM   31  C4  UNL     1      -2.086  -3.732  -1.425  1.00  0.00     0.179 C 
BRANCH  31  32
HETATM   32  O1  UNL     1      -1.037  -3.709  -2.302  1.00  0.00    -0.400 OA
ATOM     33  H1  UNL     1      -0.896  -4.612  -2.561  1.00  0.00     0.209 HD
ENDBRANCH  31  32
ENDBRANCH  28  31
ENDBRANCH   1  28
TORSDOF 5
