REMARK  5 active torsions:
REMARK  status: ('A' for Active; 'I' for Inactive)
REMARK    1  A    between atoms: O1_2  and  C2_3 
REMARK    2  A    between atoms: C7_9  and  C8_10 
REMARK    3  A    between atoms: C8_10  and  N1_11 
REMARK    4  A    between atoms: C8_10  and  C17_26 
REMARK       I    between atoms: N1_11  and  C9_13 
REMARK       I    between atoms: C9_13  and  N4_18 
REMARK    5  A    between atoms: N4_18  and  C11_20 
ROOT
HETATM    1  N1  UNL     1      -0.175  -0.226  -0.429  1.00  0.00    -0.217 N 
ATOM      2  H1  UNL     1      -0.034  -0.786   0.411  1.00  0.00     0.178 HD
HETATM    3  C9  UNL     1       0.957   0.416  -0.945  1.00  0.00     0.683 C 
HETATM    4  N2  UNL     1       1.240   0.484  -2.208  1.00  0.00    -0.126 N 
ATOM      5  H2  UNL     1       0.603   0.044  -2.872  1.00  0.00     0.197 HD
HETATM    6  C10 UNL     1       2.376   1.131  -2.704  1.00  0.00     0.196 C 
HETATM    7  N3  UNL     1       3.307   1.671  -3.131  1.00  0.00    -0.171 NA
HETATM    8  N4  UNL     1       1.888   1.033  -0.063  1.00  0.00    -0.221 N 
ATOM      9  H4  UNL     1       1.681   1.975   0.270  1.00  0.00     0.178 HD
ENDROOT
BRANCH   1  10
HETATM   10  C8  UNL     1      -1.533  -0.184  -0.957  1.00  0.00     0.139 C 
BRANCH  10  11
HETATM   11  C7  UNL     1      -2.304  -1.351  -0.569  1.00  0.00     0.000 A 
HETATM   12  C2  UNL     1      -1.709  -2.604  -0.572  1.00  0.00     0.076 A 
HETATM   13  C3  UNL     1      -2.417  -3.743  -0.222  1.00  0.00     0.039 A 
HETATM   14  C4  UNL     1      -3.745  -3.649   0.139  1.00  0.00     0.026 A 
HETATM   15  C5  UNL     1      -4.352  -2.429   0.147  1.00  0.00     0.034 A 
HETATM   16 CL1  UNL     1      -6.040  -2.292   0.603  1.00  0.00    -0.084 Cl
HETATM   17  C6  UNL     1      -3.612  -1.297  -0.210  1.00  0.00     0.035 A 
BRANCH  12  18
HETATM   18  O1  UNL     1      -0.382  -2.704  -0.934  1.00  0.00    -0.355 OA
HETATM   19  C1  UNL     1       0.230  -3.976  -0.939  1.00  0.00     0.210 C 
ENDBRANCH  12  18
ENDBRANCH  10  11
BRANCH  10  20
HETATM   20  C17 UNL     1      -2.181   1.133  -0.727  1.00  0.00     0.013 C 
HETATM   21  C18 UNL     1      -2.476   1.473   0.710  1.00  0.00     0.007 C 
HETATM   22  C19 UNL     1      -3.547   2.535   0.734  1.00  0.00     0.000 C 
HETATM   23  C20 UNL     1      -3.681   3.245  -0.560  1.00  0.00     0.000 C 
HETATM   24  C21 UNL     1      -2.383   3.553  -1.266  1.00  0.00     0.000 C 
HETATM   25  C22 UNL     1      -1.511   2.306  -1.366  1.00  0.00     0.007 C 
ENDBRANCH  10  20
ENDBRANCH   1  10
BRANCH   8  26
HETATM   26  C11 UNL     1       3.094   0.415   0.384  1.00  0.00     0.099 C 
HETATM   27  C12 UNL     1       2.858  -0.882   1.153  1.00  0.00     0.026 C 
HETATM   28  C13 UNL     1       4.012  -1.189   2.071  1.00  0.00     0.002 C 
HETATM   29  C14 UNL     1       5.323  -0.670   1.525  1.00  0.00     0.000 C 
HETATM   30  C15 UNL     1       5.277   0.818   1.396  1.00  0.00     0.002 C 
HETATM   31  C16 UNL     1       3.852   1.326   1.322  1.00  0.00     0.026 C 
ENDBRANCH   8  26
TORSDOF 5
