REMARK  14 active torsions:
REMARK  status: ('A' for Active; 'I' for Inactive)
REMARK    1  A    between atoms: C2_2  and  O1_3 
REMARK    2  A    between atoms: O1_3  and  C3_4 
REMARK    3  A    between atoms: C3_4  and  C4_6 
REMARK       I    between atoms: C4_6  and  N1_8 
REMARK    4  A    between atoms: N1_8  and  N2_10 
REMARK    5  A    between atoms: N2_10  and  C6_12 
REMARK    6  A    between atoms: C7_15  and  N4_16 
REMARK    7  A    between atoms: N4_16  and  N5_18 
REMARK    8  A    between atoms: N5_18  and  C8_20 
REMARK    9  A    between atoms: C8_20  and  C9_21 
REMARK   10  A    between atoms: C10_26  and  N8_27 
REMARK   11  A    between atoms: C11_32  and  O4_33 
REMARK   12  A    between atoms: N10_35  and  N11_36 
REMARK   13  A    between atoms: N11_36  and  C12_38 
REMARK   14  A    between atoms: C12_38  and  O5_42 
ROOT
HETATM    1  C6  UNL     1      -0.609  -0.443  -0.409  1.00  0.00     0.730 A 
HETATM    2  N3  UNL     1       0.704  -0.340  -0.148  1.00  0.00    -0.015 N 
ATOM      3  H3  UNL     1       1.204   0.526   0.051  1.00  0.00     0.203 HD
HETATM    4  C7  UNL     1       1.249  -1.564  -0.192  1.00  0.00     0.748 A 
HETATM    5  N10 UNL     1       0.264  -2.462  -0.486  1.00  0.00    -0.001 N 
HETATM    6  N13 UNL     1      -0.832  -1.753  -0.609  1.00  0.00    -0.093 N 
ATOM      7  H13 UNL     1      -1.746  -2.149  -0.830  1.00  0.00     0.208 HD
ENDROOT
BRANCH   4   8
HETATM    8  N4  UNL     1       2.487  -1.823   0.011  1.00  0.00    -0.129 N 
ATOM      9  H4  UNL     1       2.821  -2.785  -0.041  1.00  0.00     0.205 HD
BRANCH   8  10
HETATM   10  N5  UNL     1       3.372  -0.801   0.301  1.00  0.00    -0.295 N 
ATOM     11  H5  UNL     1       3.063  -0.012   0.869  1.00  0.00     0.186 HD
BRANCH  10  12
HETATM   12  C8  UNL     1       4.595  -0.834  -0.142  1.00  0.00     0.143 C 
BRANCH  12  13
HETATM   13  C9  UNL     1       5.529   0.234   0.159  1.00  0.00     0.116 A 
HETATM   14  N6  UNL     1       6.777   0.156  -0.316  1.00  0.00    -0.281 N 
HETATM   15  N7  UNL     1       7.668   1.080  -0.082  1.00  0.00    -0.132 N 
ATOM     16  H6  UNL     1       7.041  -0.652  -0.880  1.00  0.00     0.188 HD
HETATM   17  C10 UNL     1       7.362   2.158   0.654  1.00  0.00     0.692 A 
ATOM     18  H7  UNL     1       8.609   0.981  -0.464  1.00  0.00     0.205 HD
HETATM   19  N9  UNL     1       6.099   2.261   1.149  1.00  0.00    -0.167 N 
HETATM   20  C11 UNL     1       5.162   1.321   0.922  1.00  0.00     0.185 A 
ATOM     21  H9  UNL     1       5.854   3.077   1.710  1.00  0.00     0.186 HD
BRANCH  17  22
HETATM   22  N8  UNL     1       8.243   3.059   0.879  1.00  0.00    -0.233 N 
ATOM     23  H82 UNL     1       9.190   2.982   0.508  1.00  0.00     0.174 HD
ATOM     24  H81 UNL     1       8.010   3.879   1.439  1.00  0.00     0.174 HD
ENDBRANCH  17  22
BRANCH  20  25
HETATM   25  O4  UNL     1       3.870   1.401   1.414  1.00  0.00    -0.344 OA
ATOM     26  H4  UNL     1       3.617   2.150   1.940  1.00  0.00     0.219 HD
ENDBRANCH  20  25
ENDBRANCH  12  13
ENDBRANCH  10  12
ENDBRANCH   8  10
ENDBRANCH   4   8
BRANCH   5  27
HETATM   27  N11 UNL     1       0.448  -3.846  -0.618  1.00  0.00    -0.229 N 
ATOM     28  H11 UNL     1      -0.348  -4.444  -0.841  1.00  0.00     0.193 HD
BRANCH  27  29
HETATM   29  C12 UNL     1       1.725  -4.416  -0.444  1.00  0.00     0.231 C 
HETATM   30  N12 UNL     1       2.508  -4.652  -1.442  1.00  0.00    -0.364 N 
ATOM     31 2H12 UNL     1       2.171  -4.409  -2.373  1.00  0.00     0.159 HD
ATOM     32 1H12 UNL     1       3.432  -5.065  -1.316  1.00  0.00     0.159 HD
BRANCH  29  33
HETATM   33  O5  UNL     1       2.184  -4.747   0.824  1.00  0.00    -0.332 OA
ATOM     34  H5  UNL     1       3.045  -5.131   0.941  1.00  0.00     0.221 HD
ENDBRANCH  29  33
ENDBRANCH  27  29
ENDBRANCH   5  27
BRANCH   1  35
HETATM   35  N2  UNL     1      -1.587   0.620  -0.466  1.00  0.00    -0.123 N 
HETATM   36  C5  UNL     1      -1.162   1.981  -0.214  1.00  0.00     0.197 C 
BRANCH  35  37
HETATM   37  N1  UNL     1      -2.924   0.334  -0.762  1.00  0.00    -0.245 N 
HETATM   38  C4  UNL     1      -3.965   1.073  -0.162  1.00  0.00     0.335 C 
HETATM   39  O3  UNL     1      -3.733   2.000   0.646  1.00  0.00    -0.260 OA
ATOM     40  H1  UNL     1      -3.148  -0.415  -1.417  1.00  0.00     0.191 HD
BRANCH  38  41
HETATM   41  C3  UNL     1      -5.344   0.752  -0.489  1.00  0.00     0.353 C 
HETATM   42  O2  UNL     1      -5.645  -0.172  -1.296  1.00  0.00    -0.254 OA
BRANCH  41  43
HETATM   43  O1  UNL     1      -6.365   1.461   0.084  1.00  0.00    -0.314 OA
BRANCH  43  44
HETATM   44  C2  UNL     1      -7.732   1.198  -0.192  1.00  0.00     0.175 C 
HETATM   45  C1  UNL     1      -8.551   2.175   0.617  1.00  0.00     0.034 C 
ENDBRANCH  43  44
ENDBRANCH  41  43
ENDBRANCH  38  41
ENDBRANCH  35  37
ENDBRANCH   1  35
TORSDOF 14
