REMARK  15 active torsions:
REMARK  status: ('A' for Active; 'I' for Inactive)
REMARK    1  A    between atoms: C2_2  and  C3_3 
REMARK    2  A    between atoms: C3_3  and  N1_4 
REMARK    3  A    between atoms: N1_4  and  C4_5 
REMARK    4  A    between atoms: N1_4  and  C7_8 
REMARK    5  A    between atoms: C4_5  and  C5_6 
REMARK    6  A    between atoms: C7_8  and  C8_9 
REMARK    7  A    between atoms: C8_9  and  C9_10 
REMARK    8  A    between atoms: C9_10  and  C10_11 
REMARK    9  A    between atoms: C10_11  and  O1_12 
REMARK   10  A    between atoms: O1_12  and  C11_13 
REMARK   11  A    between atoms: C14_16  and  N2_17 
REMARK   12  A    between atoms: N2_17  and  N3_18 
REMARK   13  A    between atoms: N3_18  and  C15_20 
REMARK   14  A    between atoms: C17_26  and  O2_27 
REMARK   15  A    between atoms: C19_30  and  O3_31 
ROOT
HETATM    1  C11 UNL     1       1.889   0.728  -0.942  1.00  0.00     0.102 A 
HETATM    2  C12 UNL     1       2.376  -0.179  -1.872  1.00  0.00     0.043 A 
HETATM    3  C13 UNL     1       3.682  -0.588  -1.832  1.00  0.00     0.050 A 
HETATM    4  C14 UNL     1       4.578  -0.120  -0.867  1.00  0.00     0.134 A 
HETATM    5  C18 UNL     1       4.076   0.800   0.078  1.00  0.00     0.086 A 
HETATM    6  C19 UNL     1       2.757   1.186   0.002  1.00  0.00     0.104 A 
ENDROOT
BRANCH   1   7
HETATM    7  O1  UNL     1       0.574   1.169  -0.963  1.00  0.00    -0.348 OA
BRANCH   7   8
HETATM    8  C10 UNL     1      -0.304   0.668  -1.976  1.00  0.00     0.176 C 
BRANCH   8   9
HETATM    9  C9  UNL     1      -1.634   1.263  -1.999  1.00  0.00     0.032 C 
BRANCH   9  10
HETATM   10  C8  UNL     1      -2.564   1.183  -0.860  1.00  0.00     0.046 C 
BRANCH  10  11
HETATM   11  C7  UNL     1      -3.018  -0.135  -0.432  1.00  0.00     0.063 C 
BRANCH  11  12
HETATM   12  N1  UNL     1      -3.897  -0.291   0.654  1.00  0.00    -0.374 N 
BRANCH  12  13
HETATM   13  C3  UNL     1      -3.950  -1.709   1.016  1.00  0.00     0.126 C 
BRANCH  13  14
HETATM   14  C2  UNL     1      -4.590  -2.668   0.134  1.00  0.00     0.016 C 
HETATM   15  C1  UNL     1      -6.010  -2.599  -0.250  1.00  0.00     0.006 C 
ENDBRANCH  13  14
ENDBRANCH  12  13
BRANCH  12  16
HETATM   16  C4  UNL     1      -5.101   0.321   0.872  1.00  0.00     0.062 C 
BRANCH  16  17
HETATM   17  C5  UNL     1      -5.345   1.769   0.551  1.00  0.00     0.040 C 
HETATM   18  C6  UNL     1      -6.752   2.182   1.031  1.00  0.00     0.010 C 
ENDBRANCH  16  17
ENDBRANCH  12  16
ENDBRANCH  11  12
ENDBRANCH  10  11
ENDBRANCH   9  10
ENDBRANCH   8   9
ENDBRANCH   7   8
ENDBRANCH   1   7
BRANCH   6  19
HETATM   19  O3  UNL     1       2.249   2.107   0.947  1.00  0.00    -0.353 OA
HETATM   20  C20 UNL     1       3.173   2.566   1.931  1.00  0.00     0.210 C 
ENDBRANCH   6  19
BRANCH   4  21
HETATM   21  N2  UNL     1       5.858  -0.451  -0.808  1.00  0.00    -0.324 NA
BRANCH  21  22
HETATM   22  N3  UNL     1       6.921  -0.730  -0.741  1.00  0.00    -0.214 N 
ATOM     23  H3  UNL     1       7.369  -0.612  -1.650  1.00  0.00     0.203 HD
BRANCH  22  24
HETATM   24  C15 UNL     1       7.843  -1.190   0.184  1.00  0.00     0.183 A 
HETATM   25  N4  UNL     1       8.534  -2.339   0.126  1.00  0.00    -0.333 N 
HETATM   26  C16 UNL     1       9.316  -2.379   1.211  1.00  0.00     0.184 A 
ATOM     27  H4  UNL     1       8.474  -3.047  -0.606  1.00  0.00     0.168 HD
HETATM   28  N5  UNL     1       9.118  -1.260   1.955  1.00  0.00    -0.330 N 
HETATM   29  C17 UNL     1       8.202  -0.507   1.327  1.00  0.00     0.188 A 
ATOM     30  H5  UNL     1       9.583  -1.033   2.834  1.00  0.00     0.168 HD
BRANCH  29  31
HETATM   31  O2  UNL     1       7.754   0.719   1.804  1.00  0.00    -0.343 OA
ATOM     32  H2  UNL     1       8.001   1.190   2.591  1.00  0.00     0.219 HD
ENDBRANCH  29  31
ENDBRANCH  22  24
ENDBRANCH  21  22
ENDBRANCH   4  21
TORSDOF 15
