REMARK  12 active torsions:
REMARK  status: ('A' for Active; 'I' for Inactive)
REMARK    1  A    between atoms: S1_2  and  C2_3 
REMARK    2  A    between atoms: C2_3  and  C3_4 
REMARK    3  A    between atoms: C4_5  and  S2_6 
REMARK    4  A    between atoms: S2_6  and  C5_7 
REMARK    5  A    between atoms: C5_7  and  C6_8 
REMARK    6  A    between atoms: C6_8  and  C7_9 
REMARK    7  A    between atoms: C14_17  and  C15_18 
REMARK    8  A    between atoms: C16_20  and  C17_21 
REMARK    9  A    between atoms: C17_21  and  O2_22 
REMARK   10  A    between atoms: C18_24  and  O3_25 
REMARK   11  A    between atoms: C19_27  and  O4_28 
REMARK   12  A    between atoms: C20_30  and  O5_31 
ROOT
HETATM    1  C3  UNL     1      -0.346  -1.129  -0.389  1.00  0.00    -0.012 A 
HETATM    2  C4  UNL     1       0.698  -1.483  -1.252  1.00  0.00     0.015 A 
HETATM    3  C13 UNL     1       0.717  -0.915  -2.465  1.00  0.00     0.069 A 
HETATM    4  S3  UNL     1      -0.637   0.078  -2.472  1.00  0.00    -0.098 SA
HETATM    5  C14 UNL     1      -1.252  -0.259  -0.843  1.00  0.00     0.045 A 
ENDROOT
BRANCH   5   6
HETATM    6  C15 UNL     1      -2.573   0.279  -0.457  1.00  0.00     0.096 C 
HETATM    7  O1  UNL     1      -3.213  -0.049   0.648  1.00  0.00    -0.341 OA
HETATM    8  C16 UNL     1      -4.587   0.146   0.441  1.00  0.00     0.183 C 
HETATM    9  C18 UNL     1      -4.887   1.606   0.425  1.00  0.00     0.181 C 
HETATM   10  C19 UNL     1      -3.818   2.439  -0.237  1.00  0.00     0.184 C 
HETATM   11  C20 UNL     1      -2.816   1.670  -1.027  1.00  0.00     0.207 C 
BRANCH   8  12
HETATM   12  C17 UNL     1      -5.331  -0.639   1.479  1.00  0.00     0.199 C 
BRANCH  12  13
HETATM   13  O2  UNL     1      -5.030  -0.240   2.781  1.00  0.00    -0.398 OA
ATOM     14  H2  UNL     1      -5.501  -0.737   3.439  1.00  0.00     0.209 HD
ENDBRANCH  12  13
ENDBRANCH   8  12
BRANCH   9  15
HETATM   15  O3  UNL     1      -6.160   1.884  -0.068  1.00  0.00    -0.390 OA
ATOM     16  H3  UNL     1      -6.351   2.815  -0.078  1.00  0.00     0.210 HD
ENDBRANCH   9  15
BRANCH  10  17
HETATM   17  O4  UNL     1      -4.449   3.321  -1.116  1.00  0.00    -0.390 OA
ATOM     18  H4  UNL     1      -3.776   3.846  -1.533  1.00  0.00     0.210 HD
ENDBRANCH  10  17
BRANCH  11  19
HETATM   19  O5  UNL     1      -3.066   1.665  -2.381  1.00  0.00    -0.386 OA
ATOM     20  H5  UNL     1      -3.218   2.533  -2.737  1.00  0.00     0.210 HD
ENDBRANCH  11  19
ENDBRANCH   5   6
BRANCH   1  21
HETATM   21  C2  UNL     1      -0.245  -1.779   0.972  1.00  0.00     0.114 C 
BRANCH  21  22
HETATM   22  S1  UNL     1      -1.305  -1.329   2.261  1.00  0.00    -0.169 SA
HETATM   23  C1  UNL     1      -0.854   0.291   3.019  1.00  0.00     0.090 C 
ENDBRANCH  21  22
ENDBRANCH   1  21
BRANCH   2  24
HETATM   24  S2  UNL     1       1.990  -2.711  -0.815  1.00  0.00    -0.129 SA
BRANCH  24  25
HETATM   25  C5  UNL     1       3.451  -1.927  -0.159  1.00  0.00     0.084 C 
BRANCH  25  26
HETATM   26  C6  UNL     1       4.211  -1.130  -1.201  1.00  0.00     0.049 C 
BRANCH  26  27
HETATM   27  C7  UNL     1       5.422  -0.545  -0.589  1.00  0.00    -0.057 A 
HETATM   28  C8  UNL     1       5.492   0.692  -0.043  1.00  0.00     0.007 A 
HETATM   29  C9  UNL     1       6.679   1.143   0.514  1.00  0.00     0.001 A 
HETATM   30  C10 UNL     1       7.805   0.322   0.512  1.00  0.00     0.000 A 
HETATM   31  C11 UNL     1       7.748  -0.931  -0.037  1.00  0.00     0.001 A 
HETATM   32  C12 UNL     1       6.554  -1.334  -0.576  1.00  0.00     0.007 A 
ENDBRANCH  26  27
ENDBRANCH  25  26
ENDBRANCH  24  25
ENDBRANCH   2  24
TORSDOF 12
