REMARK  11 active torsions:
REMARK  status: ('A' for Active; 'I' for Inactive)
REMARK    1  A    between atoms: C2_2  and  C3_3 
REMARK    2  A    between atoms: C3_3  and  C4_4 
REMARK    3  A    between atoms: C4_4  and  C5_5 
REMARK    4  A    between atoms: C5_5  and  N1_6 
REMARK    5  A    between atoms: C10_18  and  S1_19 
REMARK    6  A    between atoms: S1_19  and  C11_20 
REMARK    7  A    between atoms: N5_23  and  C14_24 
REMARK    8  A    between atoms: C16_27  and  C17_28 
REMARK    9  A    between atoms: C17_28  and  O1_29 
REMARK   10  A    between atoms: C18_31  and  O2_32 
REMARK   11  A    between atoms: C19_34  and  O3_35 
ROOT
HETATM    1  N1  UNL     1       3.003   0.472  -0.365  1.00  0.00    -0.374 N 
ATOM      2  H1  UNL     1       2.827   1.473  -0.452  1.00  0.00     0.161 HD
HETATM    3  C6  UNL     1       2.032  -0.371  -0.203  1.00  0.00     0.133 A 
HETATM    4  N2  UNL     1       2.274  -1.703  -0.089  1.00  0.00    -0.337 N 
ATOM      5  H2  UNL     1       3.238  -2.032  -0.139  1.00  0.00     0.168 HD
HETATM    6  C7  UNL     1       1.296  -2.601   0.086  1.00  0.00     0.183 A 
HETATM    7  N3  UNL     1       0.032  -2.176   0.150  1.00  0.00    -0.336 N 
ATOM      8  H3  UNL     1      -0.710  -2.863   0.282  1.00  0.00     0.168 HD
HETATM    9  C8  UNL     1      -0.302  -0.875   0.047  1.00  0.00     0.142 A 
HETATM   10  C9  UNL     1       0.717   0.032  -0.132  1.00  0.00     0.123 A 
HETATM   11  N4  UNL     1       0.148   1.235  -0.206  1.00  0.00    -0.330 N 
ATOM     12  H4  UNL     1       0.637   2.120  -0.338  1.00  0.00     0.168 HD
HETATM   13  C10 UNL     1      -1.182   1.081  -0.076  1.00  0.00     0.150 A 
HETATM   14  N5  UNL     1      -1.496  -0.221   0.083  1.00  0.00    -0.295 N 
ENDROOT
BRANCH  14  15
HETATM   15  C14 UNL     1      -2.761  -0.854   0.259  1.00  0.00     0.186 C 
HETATM   16  S2  UNL     1      -4.039   0.272   0.870  1.00  0.00    -0.140 SA
HETATM   17  C15 UNL     1      -5.622  -0.544   0.517  1.00  0.00     0.085 C 
HETATM   18  C16 UNL     1      -5.479  -1.991   0.168  1.00  0.00     0.050 C 
HETATM   19  C18 UNL     1      -4.461  -2.348  -0.836  1.00  0.00     0.156 C 
HETATM   20  C19 UNL     1      -3.274  -1.493  -0.986  1.00  0.00     0.180 C 
BRANCH  18  21
HETATM   21  C17 UNL     1      -5.387  -2.855   1.435  1.00  0.00     0.172 C 
BRANCH  21  22
HETATM   22  O1  UNL     1      -5.254  -4.191   1.043  1.00  0.00    -0.400 OA
ATOM     23  H1  UNL     1      -5.197  -4.725   1.826  1.00  0.00     0.209 HD
ENDBRANCH  21  22
ENDBRANCH  18  21
BRANCH  19  24
HETATM   24  O2  UNL     1      -5.044  -2.491  -2.118  1.00  0.00    -0.392 OA
ATOM     25  H2  UNL     1      -4.388  -2.721  -2.765  1.00  0.00     0.210 HD
ENDBRANCH  19  24
BRANCH  20  26
HETATM   26  O3  UNL     1      -3.491  -0.529  -1.994  1.00  0.00    -0.390 OA
ATOM     27  H3  UNL     1      -3.818  -0.936  -2.788  1.00  0.00     0.210 HD
ENDBRANCH  20  26
ENDBRANCH  14  15
BRANCH  13  28
HETATM   28  S1  UNL     1      -2.391   2.423  -0.111  1.00  0.00    -0.089 SA
BRANCH  28  29
HETATM   29  C11 UNL     1      -1.565   3.995  -0.343  1.00  0.00     0.047 C 
HETATM   30  C12 UNL     1      -0.690   4.387   0.817  1.00  0.00     0.021 C 
HETATM   31  C13 UNL     1      -2.586   5.092  -0.549  1.00  0.00     0.021 C 
ENDBRANCH  28  29
ENDBRANCH  13  28
BRANCH   1  32
HETATM   32  C5  UNL     1       4.345  -0.063  -0.418  1.00  0.00     0.121 C 
BRANCH  32  33
HETATM   33  C4  UNL     1       5.382   1.038  -0.483  1.00  0.00     0.020 C 
BRANCH  33  34
HETATM   34  C3  UNL     1       6.778   0.500  -0.541  1.00  0.00     0.001 C 
BRANCH  34  35
HETATM   35  C2  UNL     1       7.112  -0.347   0.677  1.00  0.00    -0.004 C 
HETATM   36  C1  UNL     1       8.519  -0.863   0.581  1.00  0.00     0.005 C 
ENDBRANCH  34  35
ENDBRANCH  33  34
ENDBRANCH  32  33
ENDBRANCH   1  32
TORSDOF 11
