REMARK  2 active torsions:
REMARK  status: ('A' for Active; 'I' for Inactive)
REMARK    1  A    between atoms: N1_4  and  C4_5 
REMARK    2  A    between atoms: C4_5  and  C5_6 
ROOT
HETATM    1  C1  UNL     1      -3.233   0.011  -0.856  1.00  0.00     0.003 C 
HETATM    2  C2  UNL     1      -2.672  -1.276  -0.249  1.00  0.00     0.030 C 
HETATM    3  C3  UNL     1      -1.222  -1.331  -0.493  1.00  0.00     0.272 C 
HETATM    4  N1  UNL     1      -0.449  -0.167  -0.528  1.00  0.00     0.089 N 
HETATM    5  C8  UNL     1      -1.075   1.089  -0.267  1.00  0.00     0.272 C 
HETATM    6  C9  UNL     1      -2.538   1.099  -0.057  1.00  0.00     0.030 C 
ENDROOT
BRANCH   4   7
HETATM    7  C4  UNL     1       0.707  -0.356   0.340  1.00  0.00     0.289 C 
BRANCH   7   8
HETATM    8  C5  UNL     1       1.705   0.750   0.263  1.00  0.00     0.101 C 
HETATM    9  C6  UNL     1       2.842   0.424   1.226  1.00  0.00     0.185 C 
HETATM   10  O1  UNL     1       3.509  -0.678   0.702  1.00  0.00    -0.380 OA
HETATM   11  C7  UNL     1       4.144  -0.212  -0.474  1.00  0.00     0.242 C 
HETATM   12  S1  UNL     1       2.694   0.574  -1.298  1.00  0.00    -0.134 SA
ENDBRANCH   7   8
ENDBRANCH   4   7
TORSDOF 2
