REMARK  6 active torsions:
REMARK  status: ('A' for Active; 'I' for Inactive)
REMARK    1  A    between atoms: C1_2  and  C2_4 
REMARK    2  A    between atoms: C2_4  and  N2_5 
REMARK    3  A    between atoms: C2_4  and  C3_9 
REMARK    4  A    between atoms: C3_9  and  O1_10 
REMARK    5  A    between atoms: N3_12  and  S2_14 
REMARK    6  A    between atoms: S2_14  and  N4_17 
ROOT
HETATM    1  C3  UNL     1      -1.126   0.444   0.510  1.00  0.00     0.164 C 
HETATM    2  N3  UNL     1      -0.153  -0.371   0.727  1.00  0.00    -0.249 N 
ATOM      3  H3  UNL     1      -0.359  -1.353   0.912  1.00  0.00     0.182 HD
ENDROOT
BRANCH   1   4
HETATM    4  C2  UNL     1      -2.545   0.008   0.518  1.00  0.00     0.316 C 
BRANCH   4   5
HETATM    5  C1  UNL     1      -3.187   0.264  -0.793  1.00  0.00     0.129 C 
HETATM    6  N1  UNL     1      -4.546  -0.100  -0.958  1.00  0.00    -0.092 NA
HETATM    7  S1  UNL     1      -2.355   0.938  -1.990  1.00  0.00    -0.066 SA
ENDBRANCH   4   5
BRANCH   4   8
HETATM    8  N2  UNL     1      -3.292   0.756   1.512  1.00  0.00    -0.062 N 
ATOM      9  H23 UNL     1      -3.369   1.749   1.291  1.00  0.00     0.275 HD
ATOM     10  H22 UNL     1      -4.290   0.543   1.507  1.00  0.00     0.275 HD
ATOM     11  H21 UNL     1      -2.850   0.580   2.414  1.00  0.00     0.275 HD
ENDBRANCH   4   8
ENDBRANCH   1   4
BRANCH   1  12
HETATM   12  O1  UNL     1      -0.824   1.772   0.260  1.00  0.00    -0.347 OA
ATOM     13  H1  UNL     1       0.084   2.051   0.255  1.00  0.00     0.219 HD
ENDBRANCH   1  12
BRANCH   2  14
HETATM   14  S2  UNL     1       1.482   0.153   0.713  1.00  0.00     0.326 S 
HETATM   15  O2  UNL     1       1.554   1.394  -0.145  1.00  0.00    -0.182 OA
HETATM   16  O3  UNL     1       1.944   0.534   2.104  1.00  0.00    -0.182 OA
BRANCH  14  17
HETATM   17  N4  UNL     1       2.535  -1.082   0.130  1.00  0.00    -0.243 N 
HETATM   18  C4  UNL     1       3.704  -0.857  -0.323  1.00  0.00     0.211 C 
HETATM   19  N5  UNL     1       4.487  -1.935  -0.776  1.00  0.00    -0.066 NA
HETATM   20  N6  UNL     1       4.217   0.451  -0.374  1.00  0.00    -0.066 NA
ATOM     21  H4  UNL     1       2.203  -2.046   0.149  1.00  0.00     0.182 HD
ENDBRANCH  14  17
ENDBRANCH   2  14
TORSDOF 6
