REMARK  8 active torsions:
REMARK  status: ('A' for Active; 'I' for Inactive)
REMARK    1  A    between atoms: C2_2  and  N1_4 
REMARK    2  A    between atoms: N1_4  and  C4_6 
REMARK    3  A    between atoms: C6_10  and  C7_11 
REMARK    4  A    between atoms: C7_11  and  O1_12 
REMARK    5  A    between atoms: C7_11  and  C8_14 
REMARK    6  A    between atoms: C11_17  and  N3_18 
REMARK    7  A    between atoms: N3_18  and  C12_20 
REMARK    8  A    between atoms: C15_23  and  O2_24 
ROOT
HETATM    1  C4  UNL     1      -2.133  -0.888   0.044  1.00  0.00     0.679 A 
HETATM    2  N2  UNL     1      -2.870   0.216  -0.039  1.00  0.00    -0.201 N 
ATOM      3  H2  UNL     1      -3.887   0.159  -0.100  1.00  0.00     0.183 HD
HETATM    4  C5  UNL     1      -2.246   1.417  -0.041  1.00  0.00     0.123 A 
HETATM    5  C6  UNL     1      -0.881   1.548   0.040  1.00  0.00     0.053 A 
HETATM    6  C11 UNL     1      -0.133   0.358   0.128  1.00  0.00     0.131 A 
HETATM    7  N4  UNL     1      -0.818  -0.785   0.124  1.00  0.00    -0.176 N 
ATOM      8  H4  UNL     1      -0.284  -1.651   0.188  1.00  0.00     0.186 HD
ENDROOT
BRANCH   6   9
HETATM    9  N3  UNL     1       1.118   0.452   0.204  1.00  0.00    -0.370 N 
ATOM     10  H3  UNL     1       1.468   1.410   0.194  1.00  0.00     0.161 HD
BRANCH   9  11
HETATM   11  C12 UNL     1       2.125  -0.534   0.301  1.00  0.00     0.087 C 
HETATM   12  C13 UNL     1       3.227  -0.173   1.288  1.00  0.00     0.028 C 
HETATM   13  C14 UNL     1       4.164  -1.322   1.480  1.00  0.00     0.034 C 
HETATM   14  C15 UNL     1       4.664  -1.919   0.196  1.00  0.00     0.118 C 
HETATM   15  C16 UNL     1       3.593  -2.086  -0.844  1.00  0.00     0.038 C 
HETATM   16  C17 UNL     1       2.761  -0.863  -1.052  1.00  0.00     0.006 C 
HETATM   17  C18 UNL     1       3.493   0.295  -1.639  1.00  0.00     0.012 C 
BRANCH  14  18
HETATM   18  O2  UNL     1       5.173  -3.184   0.489  1.00  0.00    -0.396 OA
ATOM     19  H2  UNL     1       5.489  -3.562  -0.323  1.00  0.00     0.210 HD
ENDBRANCH  14  18
ENDBRANCH   9  11
ENDBRANCH   6   9
BRANCH   5  20
HETATM   20  C7  UNL     1      -0.169   2.803   0.039  1.00  0.00     0.062 C 
BRANCH  20  21
HETATM   21  O1  UNL     1       1.136   2.694   0.090  1.00  0.00    -0.364 OA
ATOM     22  H1  UNL     1       1.605   3.520   0.089  1.00  0.00     0.217 HD
ENDBRANCH  20  21
BRANCH  20  23
HETATM   23  C8  UNL     1      -0.621   4.180  -0.007  1.00  0.00     0.043 A 
HETATM   24  C9  UNL     1      -1.816   4.638   0.802  1.00  0.00     0.012 A 
HETATM   25  C10 UNL     1      -1.803   4.729  -0.659  1.00  0.00     0.012 A 
ENDBRANCH  20  23
ENDBRANCH   5  20
BRANCH   1  26
HETATM   26  N1  UNL     1      -2.670  -2.032   0.049  1.00  0.00    -0.222 N 
ATOM     27  H1  UNL     1      -2.019  -2.814   0.116  1.00  0.00     0.178 HD
BRANCH  26  28
HETATM   28  C2  UNL     1      -4.044  -2.396  -0.025  1.00  0.00     0.091 C 
HETATM   29  C1  UNL     1      -4.699  -2.039  -1.347  1.00  0.00     0.032 C 
HETATM   30  C3  UNL     1      -4.868  -1.959   1.162  1.00  0.00     0.032 C 
ENDBRANCH  26  28
ENDBRANCH   1  26
TORSDOF 8
