REMARK  3 active torsions:
REMARK  status: ('A' for Active; 'I' for Inactive)
REMARK    1  A    between atoms: C3_4  and  N2_5 
REMARK    2  A    between atoms: N2_5  and  N3_6 
REMARK    3  A    between atoms: N2_5  and  N4_9 
ROOT
HETATM    1  N1  UNL     1      -1.213   3.105   0.327  1.00  0.00    -0.191 NA
HETATM    2  C1  UNL     1      -0.509   2.181   0.234  1.00  0.00     0.109 C 
HETATM    3  C2  UNL     1       0.381   1.048   0.114  1.00  0.00     0.159 A 
HETATM    4  C3  UNL     1      -0.169  -0.207  -0.034  1.00  0.00     0.173 A 
HETATM    5  N5  UNL     1       0.661  -1.282  -0.142  1.00  0.00    -0.315 N 
ATOM      6  H5  UNL     1       0.274  -2.219  -0.253  1.00  0.00     0.170 HD
HETATM    7  C4  UNL     1       1.995  -1.100  -0.102  1.00  0.00     0.180 A 
HETATM    8  S1  UNL     1       3.000  -2.393  -0.232  1.00  0.00    -0.040 SA
HETATM    9  N6  UNL     1       2.553   0.115   0.042  1.00  0.00    -0.299 N 
ATOM     10  H6  UNL     1       3.568   0.214   0.068  1.00  0.00     0.171 HD
HETATM   11  C5  UNL     1       1.765   1.198   0.151  1.00  0.00     0.272 A 
HETATM   12  O1  UNL     1       2.268   2.345   0.286  1.00  0.00    -0.266 OA
ENDROOT
BRANCH   4  13
HETATM   13  N2  UNL     1      -1.590  -0.388  -0.059  1.00  0.00    -0.191 N 
BRANCH  13  14
HETATM   14  N3  UNL     1      -2.295  -0.511   1.166  1.00  0.00    -0.323 N 
ATOM     15  H32 UNL     1      -1.795  -0.470   2.054  1.00  0.00     0.179 HD
ATOM     16  H31 UNL     1      -3.307  -0.640   1.148  1.00  0.00     0.179 HD
ENDBRANCH  13  14
BRANCH  13  17
HETATM   17  N4  UNL     1      -2.272  -0.444  -1.270  1.00  0.00    -0.323 N 
ATOM     18  H42 UNL     1      -1.765  -0.356  -2.151  1.00  0.00     0.179 HD
ATOM     19  H41 UNL     1      -3.284  -0.573  -1.288  1.00  0.00     0.179 HD
ENDBRANCH  13  17
ENDBRANCH   4  13
TORSDOF 3
