REMARK  2 active torsions:
REMARK  status: ('A' for Active; 'I' for Inactive)
REMARK    1  A    between atoms: O1_2  and  N1_3 
REMARK    2  A    between atoms: N1_3  and  C2_5 
ROOT
HETATM    1  C2  UNL     1       0.733  -0.074  -0.377  1.00  0.00     0.196 C 
HETATM    2  N2  UNL     1      -0.306  -0.865  -0.708  1.00  0.00    -0.324 N 
ATOM      3  H2  UNL     1      -0.049  -1.691  -1.249  1.00  0.00     0.169 HD
HETATM    4  C3  UNL     1      -1.629  -0.759  -0.451  1.00  0.00     0.144 C 
HETATM    5  N3  UNL     1      -2.483  -1.832  -0.782  1.00  0.00    -0.081 NA
HETATM    6  C4  UNL     1      -2.240   0.335   0.123  1.00  0.00     0.153 C 
HETATM    7  C5  UNL     1      -3.666   0.329  -0.010  1.00  0.00     0.108 C 
HETATM    8  N4  UNL     1      -4.820   0.324  -0.111  1.00  0.00    -0.191 NA
HETATM    9  C6  UNL     1      -1.693   1.428   0.801  1.00  0.00     0.272 C 
HETATM   10  O2  UNL     1      -2.516   2.118   1.467  1.00  0.00    -0.266 OA
HETATM   11  N5  UNL     1      -0.400   1.794   0.801  1.00  0.00    -0.286 N 
ATOM     12  H5  UNL     1      -0.171   2.636   1.330  1.00  0.00     0.172 HD
HETATM   13  C7  UNL     1       0.628   1.182   0.186  1.00  0.00     0.294 C 
HETATM   14  O3  UNL     1       1.685   1.858   0.099  1.00  0.00    -0.264 OA
ENDROOT
BRANCH   1  15
HETATM   15  N1  UNL     1       1.909  -0.554  -0.615  1.00  0.00    -0.246 N 
ATOM     16  H1  UNL     1       1.992  -1.482  -1.030  1.00  0.00     0.196 HD
BRANCH  15  17
HETATM   17  O1  UNL     1       3.034   0.144  -0.327  1.00  0.00    -0.284 OA
HETATM   18  C1  UNL     1       4.170  -0.386   0.295  1.00  0.00     0.237 C 
ENDBRANCH  15  17
ENDBRANCH   1  15
TORSDOF 2
