REMARK  13 active torsions:
REMARK  status: ('A' for Active; 'I' for Inactive)
REMARK    1  A    between atoms: C5_9  and  N2_10 
REMARK    2  A    between atoms: N2_10  and  C6_12 
REMARK    3  A    between atoms: C7_15  and  S1_16 
REMARK    4  A    between atoms: S1_16  and  N4_19 
REMARK    5  A    between atoms: N4_19  and  C8_21 
REMARK    6  A    between atoms: C8_21  and  N5_23 
REMARK    7  A    between atoms: N5_23  and  C9_24 
REMARK    8  A    between atoms: N5_23  and  N8_30 
REMARK    9  A    between atoms: C9_24  and  C10_25 
REMARK   10  A    between atoms: N8_30  and  C11_31 
REMARK   11  A    between atoms: C11_31  and  O5_32 
REMARK   12  A    between atoms: C11_31  and  N9_34 
REMARK   13  A    between atoms: N9_34  and  N10_36 
ROOT
HETATM    1  S1  UNL     1       0.486  -2.137  -0.022  1.00  0.00     0.280 S 
HETATM    2  O3  UNL     1       1.615  -2.666  -0.760  1.00  0.00    -0.199 OA
HETATM    3  O4  UNL     1      -0.193  -3.268   0.788  1.00  0.00    -0.199 OA
ENDROOT
BRANCH   1   4
HETATM    4  C7  UNL     1      -0.729  -1.662  -1.231  1.00  0.00     0.151 A 
HETATM    5  N3  UNL     1      -1.955  -1.260  -0.919  1.00  0.00    -0.330 N 
HETATM    6  C6  UNL     1      -2.866  -0.907  -1.844  1.00  0.00     0.132 A 
ATOM      7  H3  UNL     1      -2.218  -1.217   0.066  1.00  0.00     0.168 HD
HETATM    8  C14 UNL     1      -2.569  -0.946  -3.183  1.00  0.00     0.090 A 
HETATM    9  C13 UNL     1      -1.302  -1.359  -3.556  1.00  0.00     0.033 A 
HETATM   10  N11 UNL     1      -3.535  -0.573  -4.182  1.00  0.00    -0.098 NA
HETATM   11  C12 UNL     1      -0.398  -1.713  -2.557  1.00  0.00     0.046 A 
BRANCH   6  12
HETATM   12  N2  UNL     1      -4.139  -0.492  -1.420  1.00  0.00    -0.328 N 
ATOM     13  H2  UNL     1      -4.826  -0.222  -2.124  1.00  0.00     0.169 HD
BRANCH  12  14
HETATM   14  C5  UNL     1      -4.511  -0.433  -0.033  1.00  0.00     0.122 A 
HETATM   15  C2  UNL     1      -4.992   0.690   0.759  1.00  0.00     0.123 A 
HETATM   16  C1  UNL     1      -3.985   1.815   0.875  1.00  0.00     0.055 C 
HETATM   17  C3  UNL     1      -6.274   1.291   0.247  1.00  0.00     0.055 C 
HETATM   18  O1  UNL     1      -5.211   0.205   2.057  1.00  0.00    -0.285 OA
HETATM   19  C4  UNL     1      -4.876  -1.143   2.046  1.00  0.00     0.367 A 
HETATM   20  O2  UNL     1      -4.966  -1.865   3.078  1.00  0.00    -0.238 OA
HETATM   21  N1  UNL     1      -4.455  -1.467   0.731  1.00  0.00    -0.289 N 
ATOM     22  H1  UNL     1      -4.150  -2.393   0.432  1.00  0.00     0.172 HD
ENDBRANCH  12  14
ENDBRANCH   6  12
ENDBRANCH   1   4
BRANCH   1  23
HETATM   23  N4  UNL     1       0.818  -0.881   1.033  1.00  0.00    -0.257 N 
ATOM     24  H4  UNL     1       0.005  -0.628   1.594  1.00  0.00     0.181 HD
BRANCH  23  25
HETATM   25  C8  UNL     1       1.908  -0.107   1.332  1.00  0.00     0.179 C 
HETATM   26  S2  UNL     1       1.499   1.086   2.560  1.00  0.00    -0.011 SA
BRANCH  25  27
HETATM   27  N5  UNL     1       3.226   0.033   0.983  1.00  0.00    -0.263 N 
BRANCH  27  28
HETATM   28  C9  UNL     1       4.079  -0.694   0.101  1.00  0.00     0.219 C 
BRANCH  28  29
HETATM   29  C10 UNL     1       4.517  -2.010   0.635  1.00  0.00     0.106 C 
HETATM   30  N6  UNL     1       4.141  -2.376   1.798  1.00  0.00    -0.390 N 
ATOM     31  H62 UNL     1       3.542  -1.781   2.370  1.00  0.00     0.157 HD
ATOM     32  H61 UNL     1       4.442  -3.279   2.164  1.00  0.00     0.157 HD
HETATM   33  N7  UNL     1       5.343  -2.831  -0.154  1.00  0.00    -0.086 NA
ENDBRANCH  28  29
ENDBRANCH  27  28
BRANCH  27  34
HETATM   34  N8  UNL     1       3.939   1.130   1.621  1.00  0.00    -0.082 NA
BRANCH  34  35
HETATM   35  C11 UNL     1       3.791   2.343   0.881  1.00  0.00     0.357 C 
BRANCH  35  36
HETATM   36  O5  UNL     1       4.343   2.182  -0.382  1.00  0.00    -0.360 OA
ATOM     37  H5  UNL     1       4.245   2.989  -0.874  1.00  0.00     0.213 HD
ENDBRANCH  35  36
BRANCH  35  38
HETATM   38  N9  UNL     1       4.397   3.444   1.617  1.00  0.00    -0.232 N 
ATOM     39  H9  UNL     1       3.809   4.235   1.879  1.00  0.00     0.190 HD
BRANCH  38  40
HETATM   40  N10 UNL     1       5.738   3.467   1.979  1.00  0.00    -0.040 N 
HETATM   41  O6  UNL     1       6.635   3.403   1.121  1.00  0.00    -0.517 OA
HETATM   42  O7  UNL     1       6.090   3.564   3.299  1.00  0.00    -0.517 OA
ENDBRANCH  38  40
ENDBRANCH  35  38
ENDBRANCH  34  35
ENDBRANCH  27  34
ENDBRANCH  25  27
ENDBRANCH  23  25
ENDBRANCH   1  23
TORSDOF 13
