REMARK  9 active torsions:
REMARK  status: ('A' for Active; 'I' for Inactive)
REMARK    1  A    between atoms: C2_2  and  O1_3 
REMARK    2  A    between atoms: C2_2  and  C3_5 
REMARK    3  A    between atoms: C2_2  and  S1_18 
REMARK    4  A    between atoms: C3_5  and  N1_6 
REMARK    5  A    between atoms: C6_14  and  N4_15 
REMARK    6  A    between atoms: S1_18  and  C7_19 
REMARK    7  A    between atoms: N8_26  and  C8_27 
REMARK    8  A    between atoms: C10_29  and  C11_30 
REMARK    9  A    between atoms: C14_37  and  O3_38 
ROOT
HETATM    1  C7  UNL     1       0.029  -1.754   0.728  1.00  0.00     0.186 A 
HETATM    2  N5  UNL     1      -0.550  -2.577   1.607  1.00  0.00    -0.262 N 
ATOM      3  H5  UNL     1      -1.544  -2.631   1.828  1.00  0.00     0.190 HD
HETATM    4  N6  UNL     1       0.410  -3.301   2.130  1.00  0.00    -0.226 N 
ATOM      5  H6  UNL     1       0.270  -4.022   2.838  1.00  0.00     0.210 HD
HETATM    6  N7  UNL     1       1.580  -2.973   1.619  1.00  0.00    -0.219 N 
ATOM      7  H7  UNL     1       2.487  -3.380   1.849  1.00  0.00     0.210 HD
HETATM    8  N8  UNL     1       1.337  -2.006   0.745  1.00  0.00    -0.214 N 
ENDROOT
BRANCH   1   9
HETATM    9  S1  UNL     1      -0.773  -0.531  -0.295  1.00  0.00    -0.051 SA
BRANCH   9  10
HETATM   10  C2  UNL     1      -2.580  -0.531   0.015  1.00  0.00     0.128 C 
HETATM   11  C1  UNL     1      -2.866  -0.062   1.412  1.00  0.00     0.060 C 
BRANCH  10  12
HETATM   12  O1  UNL     1      -3.086  -1.829  -0.143  1.00  0.00    -0.378 OA
ATOM     13  H1  UNL     1      -2.905  -2.126  -1.027  1.00  0.00     0.211 HD
ENDBRANCH  10  12
BRANCH  10  14
HETATM   14  C3  UNL     1      -3.183   0.408  -0.992  1.00  0.00     0.217 C 
BRANCH  14  15
HETATM   15  N1  UNL     1      -4.616   0.556  -0.900  1.00  0.00    -0.121 N 
HETATM   16  N2  UNL     1      -5.378  -0.399  -1.466  1.00  0.00    -0.290 N 
HETATM   17  C4  UNL     1      -6.718  -0.373  -1.391  1.00  0.00     0.182 A 
ATOM     18  H2  UNL     1      -4.924  -1.164  -1.966  1.00  0.00     0.187 HD
HETATM   19  C5  UNL     1      -7.375   0.642  -0.727  1.00  0.00     0.276 A 
HETATM   20  O2  UNL     1      -8.631   0.700  -0.634  1.00  0.00    -0.266 OA
HETATM   21  N3  UNL     1      -6.604   1.583  -0.171  1.00  0.00    -0.154 N 
HETATM   22  C6  UNL     1      -5.231   1.551  -0.252  1.00  0.00     0.695 A 
ATOM     23  H3  UNL     1      -7.050   2.351   0.331  1.00  0.00     0.187 HD
BRANCH  22  24
HETATM   24  N4  UNL     1      -4.593   2.518   0.270  1.00  0.00    -0.233 N 
ATOM     25  H42 UNL     1      -3.575   2.494   0.210  1.00  0.00     0.174 HD
ATOM     26  H41 UNL     1      -5.062   3.277   0.764  1.00  0.00     0.174 HD
ENDBRANCH  22  24
ENDBRANCH  14  15
ENDBRANCH  10  14
ENDBRANCH   9  10
ENDBRANCH   1   9
BRANCH   8  27
HETATM   27  C8  UNL     1       2.399  -1.408  -0.001  1.00  0.00     0.094 A 
HETATM   28  C9  UNL     1       3.413  -0.759   0.669  1.00  0.00     0.045 A 
HETATM   29  C10 UNL     1       4.484  -0.156   0.005  1.00  0.00    -0.018 A 
HETATM   30  C12 UNL     1       4.470  -0.246  -1.368  1.00  0.00     0.013 A 
HETATM   31  C13 UNL     1       3.444  -0.903  -2.048  1.00  0.00     0.039 A 
HETATM   32  C14 UNL     1       2.395  -1.493  -1.376  1.00  0.00     0.094 A 
BRANCH  29  33
HETATM   33  C11 UNL     1       5.528   0.519   0.800  1.00  0.00     0.240 C 
HETATM   34  N9  UNL     1       4.938   1.365   1.841  1.00  0.00    -0.101 NA
HETATM   35  N10 UNL     1       5.678   2.548   1.760  1.00  0.00    -0.019 NA
HETATM   36  N11 UNL     1       6.058   2.685   0.399  1.00  0.00    -0.019 NA
HETATM   37  N12 UNL     1       6.393   1.386   0.094  1.00  0.00    -0.101 NA
ENDBRANCH  29  33
BRANCH  32  38
HETATM   38  O3  UNL     1       1.371  -2.149  -2.068  1.00  0.00    -0.358 OA
ATOM     39  H3  UNL     1       1.368  -2.208  -3.016  1.00  0.00     0.217 HD
ENDBRANCH  32  38
ENDBRANCH   8  27
TORSDOF 9
