REMARK  4 active torsions:
REMARK  status: ('A' for Active; 'I' for Inactive)
REMARK    1  A    between atoms: O1_1  and  C1_3 
REMARK    2  A    between atoms: C1_3  and  C2_4 
REMARK    3  A    between atoms: C2_4  and  O2_5 
REMARK    4  A    between atoms: C2_4  and  C3_7 
ROOT
HETATM    1  C3  UNL     1       0.256  -0.653   0.183  1.00  0.00     0.257 C 
HETATM    2  C4  UNL     1      -0.829  -0.534  -0.830  1.00  0.00     0.025 C 
HETATM    3  C5  UNL     1      -1.914  -1.327  -0.081  1.00  0.00     0.037 C 
HETATM    4  C6  UNL     1      -1.557  -1.041   1.365  1.00  0.00     0.273 C 
HETATM    5  N1  UNL     1      -0.437  -0.069   1.314  1.00  0.00     0.096 N 
HETATM    6  C7  UNL     1      -1.041   1.154   0.761  1.00  0.00     0.273 C 
HETATM    7  C8  UNL     1      -1.287   0.900  -0.698  1.00  0.00     0.037 C 
ENDROOT
BRANCH   1   8
HETATM    8  C2  UNL     1       1.597  -0.245  -0.118  1.00  0.00     0.175 C 
BRANCH   8   9
HETATM    9  C1  UNL     1       1.962   1.164  -0.357  1.00  0.00     0.198 C 
BRANCH   9  10
HETATM   10  O1  UNL     1       3.378   1.165  -0.528  1.00  0.00    -0.398 OA
ATOM     11  H1  UNL     1       3.613   2.072  -0.682  1.00  0.00     0.209 HD
ENDBRANCH   9  10
ENDBRANCH   8   9
BRANCH   8  12
HETATM   12  O2  UNL     1       2.031  -0.962  -1.267  1.00  0.00    -0.391 OA
ATOM     13  H2  UNL     1       1.796  -1.869  -1.113  1.00  0.00     0.210 HD
ENDBRANCH   8  12
ENDBRANCH   1   8
TORSDOF 4
