REMARK  2 active torsions:
REMARK  status: ('A' for Active; 'I' for Inactive)
REMARK    1  A    between atoms: C2_2  and  C3_3 
REMARK    2  A    between atoms: C9_10  and  O2_11 
ROOT
HETATM    1  C3  UNL     1      -1.238  -0.142  -0.163  1.00  0.00     0.182 C 
HETATM    2  C4  UNL     1      -2.019  -1.332  -0.684  1.00  0.00     0.084 C 
HETATM    3  O1  UNL     1      -0.324  -0.642   0.752  1.00  0.00    -0.346 OA
HETATM    4  C5  UNL     1       0.680   0.245   1.075  1.00  0.00     0.130 C 
HETATM    5  C6  UNL     1       1.584  -0.448   2.084  1.00  0.00     0.040 C 
HETATM    6  C7  UNL     1       1.525   0.545  -0.136  1.00  0.00     0.065 C 
HETATM    7  C8  UNL     1       2.747  -0.348  -0.218  1.00  0.00     0.017 C 
HETATM    8  C9  UNL     1       0.694   0.272  -1.372  1.00  0.00     0.267 C 
HETATM    9  O3  UNL     1      -0.642   0.576  -1.189  1.00  0.00    -0.322 OA
ENDROOT
BRANCH   1  10
HETATM   10  C2  UNL     1      -2.230   0.769   0.475  1.00  0.00     0.030 C 
HETATM   11  C1  UNL     1      -3.440   0.841  -0.047  1.00  0.00     0.012 C 
ENDBRANCH   1  10
BRANCH   8  12
HETATM   12  O2  UNL     1       1.180   1.109  -2.377  1.00  0.00    -0.371 OA
ATOM     13  H2  UNL     1       0.659   0.938  -3.152  1.00  0.00     0.212 HD
ENDBRANCH   8  12
TORSDOF 2
