REMARK  15 active torsions:
REMARK  status: ('A' for Active; 'I' for Inactive)
REMARK    1  A    between atoms: C2_2  and  O2_4 
REMARK    2  A    between atoms: O2_4  and  C3_5 
REMARK    3  A    between atoms: C3_5  and  C4_6 
REMARK    4  A    between atoms: C3_5  and  C33_40 
REMARK    5  A    between atoms: C4_6  and  C5_7 
REMARK    6  A    between atoms: C5_7  and  C6_8 
REMARK    7  A    between atoms: C10_12  and  O3_13 
REMARK    8  A    between atoms: O3_13  and  C11_14 
REMARK       I    between atoms: C11_14  and  N1_16 
REMARK    9  A    between atoms: C14_19  and  O5_21 
REMARK   10  A    between atoms: C21_28  and  C22_29 
REMARK   11  A    between atoms: C23_30  and  C25_32 
REMARK   12  A    between atoms: C26_33  and  C27_34 
REMARK   13  A    between atoms: C27_34  and  C29_36 
REMARK   14  A    between atoms: C29_36  and  C30_37 
REMARK   15  A    between atoms: C33_40  and  O6_43 
ROOT
HETATM    1  C6  UNL     1       0.317   1.927  -0.197  1.00  0.00     0.022 C 
HETATM    2  C7  UNL     1       1.377   2.423  -1.086  1.00  0.00    -0.080 C 
HETATM    3  C8  UNL     1       1.256   3.699  -1.851  1.00  0.00     0.043 C 
HETATM    4  C9  UNL     1       2.531   1.769  -1.291  1.00  0.00     0.009 C 
HETATM    5  C10 UNL     1       2.660   0.487  -0.545  1.00  0.00     0.165 C 
HETATM    6  C18 UNL     1       1.414  -0.260  -0.854  1.00  0.00    -0.010 C 
HETATM    7  C19 UNL     1       1.463  -1.702  -0.352  1.00  0.00     0.018 C 
HETATM    8  C20 UNL     1       0.945  -0.249  -2.263  1.00  0.00     0.018 C 
HETATM    9  C21 UNL     1       0.294   0.405  -0.031  1.00  0.00     0.027 C 
ENDROOT
BRANCH   1  10
HETATM   10  C5  UNL     1       0.253   2.511   1.154  1.00  0.00     0.012 C 
BRANCH  10  11
HETATM   11  C4  UNL     1       0.022   3.950   1.334  1.00  0.00     0.036 C 
BRANCH  11  12
HETATM   12  C3  UNL     1      -1.301   4.449   0.819  1.00  0.00     0.165 C 
BRANCH  12  13
HETATM   13  O2  UNL     1      -2.426   3.853   1.429  1.00  0.00    -0.313 OA
BRANCH  13  14
HETATM   14  C2  UNL     1      -3.413   3.166   0.790  1.00  0.00     0.255 C 
HETATM   15  C1  UNL     1      -4.583   2.549   1.474  1.00  0.00     0.126 C 
HETATM   16  O1  UNL     1      -3.353   3.034  -0.442  1.00  0.00    -0.266 OA
ENDBRANCH  13  14
ENDBRANCH  12  13
BRANCH  12  17
HETATM   17  C33 UNL     1      -1.385   5.967   0.887  1.00  0.00     0.077 C 
HETATM   18  C34 UNL     1      -0.247   6.658   0.220  1.00  0.00     0.048 C 
HETATM   19  C35 UNL     1      -2.667   6.458   0.245  1.00  0.00     0.048 C 
BRANCH  17  20
HETATM   20  O6  UNL     1      -1.437   6.375   2.228  1.00  0.00    -0.388 OA
ATOM     21  H6  UNL     1      -1.489   7.323   2.270  1.00  0.00     0.210 HD
ENDBRANCH  17  20
ENDBRANCH  12  17
ENDBRANCH  11  12
ENDBRANCH  10  11
ENDBRANCH   1  10
BRANCH   9  22
HETATM   22  C22 UNL     1      -1.009  -0.182  -0.337  1.00  0.00    -0.014 C 
HETATM   23  C23 UNL     1      -1.833  -0.793   0.480  1.00  0.00    -0.066 C 
HETATM   24  C24 UNL     1      -1.570  -1.000   1.915  1.00  0.00     0.048 C 
BRANCH  23  25
HETATM   25  C25 UNL     1      -3.090  -1.307  -0.043  1.00  0.00     0.003 C 
HETATM   26  C26 UNL     1      -3.915  -1.917   0.765  1.00  0.00    -0.022 C 
BRANCH  26  27
HETATM   27  C27 UNL     1      -5.244  -2.487   0.330  1.00  0.00     0.004 C 
HETATM   28  C28 UNL     1      -5.478  -2.056  -1.060  1.00  0.00     0.014 C 
BRANCH  27  29
HETATM   29  C29 UNL     1      -5.203  -3.931   0.614  1.00  0.00     0.012 C 
BRANCH  29  30
HETATM   30  C30 UNL     1      -6.392  -4.746   0.286  1.00  0.00    -0.022 C 
HETATM   31  C31 UNL     1      -7.650  -4.313   1.009  1.00  0.00     0.009 C 
HETATM   32  C32 UNL     1      -6.636  -4.967  -1.189  1.00  0.00     0.009 C 
ENDBRANCH  29  30
ENDBRANCH  27  29
ENDBRANCH  26  27
ENDBRANCH  23  25
ENDBRANCH   9  22
BRANCH   5  33
HETATM   33  O3  UNL     1       3.861  -0.157  -0.679  1.00  0.00    -0.294 OA
BRANCH  33  34
HETATM   34  C11 UNL     1       4.822  -0.421   0.226  1.00  0.00     0.363 C 
HETATM   35  O4  UNL     1       4.650  -0.051   1.381  1.00  0.00    -0.238 OA
HETATM   36  N1  UNL     1       6.005  -1.107  -0.132  1.00  0.00    -0.328 N 
HETATM   37  C12 UNL     1       7.043  -1.398   0.858  1.00  0.00     0.131 C 
HETATM   38  C17 UNL     1       6.259  -1.554  -1.488  1.00  0.00     0.131 C 
HETATM   39  C13 UNL     1       7.274  -2.915   0.868  1.00  0.00     0.057 C 
HETATM   40  C14 UNL     1       7.718  -3.264  -0.547  1.00  0.00     0.057 C 
HETATM   41  C15 UNL     1       8.229  -4.662  -0.658  1.00  0.00     0.046 C 
HETATM   42  C16 UNL     1       6.504  -3.046  -1.439  1.00  0.00     0.057 C 
BRANCH  40  43
HETATM   43  O5  UNL     1       8.711  -2.378  -0.905  1.00  0.00    -0.390 OA
ATOM     44  H5  UNL     1       8.988  -2.596  -1.787  1.00  0.00     0.210 HD
ENDBRANCH  40  43
ENDBRANCH  33  34
ENDBRANCH   5  33
TORSDOF 15
