REMARK  12 active torsions:
REMARK  status: ('A' for Active; 'I' for Inactive)
REMARK    1  A    between atoms: C3_8  and  C4_9 
REMARK    2  A    between atoms: C4_9  and  O1_10 
REMARK    3  A    between atoms: C4_9  and  C5_12 
REMARK    4  A    between atoms: C5_12  and  C6_13 
REMARK    5  A    between atoms: C5_12  and  N4_18 
REMARK    6  A    between atoms: C6_13  and  O2_14 
REMARK    7  A    between atoms: C6_13  and  O3_16 
REMARK    8  A    between atoms: C8_20  and  O4_21 
REMARK    9  A    between atoms: C9_23  and  N5_24 
REMARK   10  A    between atoms: C10_27  and  C11_28 
REMARK   11  A    between atoms: C12_35  and  C13_36 
REMARK   12  A    between atoms: C13_36  and  N10_38 
REMARK       I    between atoms: N10_38  and  C14_40 
ROOT
HETATM    1  N4  UNL     1      -0.403  -0.501   1.897  1.00  0.00    -0.347 N 
HETATM    2  C7  UNL     1       0.079  -1.189   3.023  1.00  0.00     0.124 A 
HETATM    3  C8  UNL     1       1.288  -0.822   2.795  1.00  0.00     0.102 A 
HETATM    4  C9  UNL     1       0.906  -0.077   1.599  1.00  0.00     0.269 A 
ENDROOT
BRANCH   4   5
HETATM    5  N5  UNL     1       1.571  -0.646   0.441  1.00  0.00    -0.241 N 
HETATM    6  N6  UNL     1       1.705  -1.902   0.084  1.00  0.00    -0.276 N 
HETATM    7  C10 UNL     1       2.409  -2.034  -1.049  1.00  0.00     0.163 A 
ATOM      8  H6  UNL     1       1.318  -2.687   0.608  1.00  0.00     0.189 HD
HETATM    9  N9  UNL     1       2.739  -0.774  -1.427  1.00  0.00    -0.321 N 
HETATM   10  C12 UNL     1       2.222   0.065  -0.512  1.00  0.00     0.165 A 
ATOM     11  H9  UNL     1       3.279  -0.512  -2.252  1.00  0.00     0.169 HD
BRANCH   7  12
HETATM   12  C11 UNL     1       2.726  -3.284  -1.694  1.00  0.00     0.155 C 
HETATM   13  N7  UNL     1       3.414  -3.258  -2.784  1.00  0.00    -0.385 N 
ATOM     14  H72 UNL     1       3.723  -2.366  -3.171  1.00  0.00     0.157 HD
ATOM     15  H71 UNL     1       3.638  -4.142  -3.240  1.00  0.00     0.157 HD
HETATM   16  N8  UNL     1       2.300  -4.514  -1.160  1.00  0.00    -0.079 NA
ENDBRANCH   7  12
BRANCH  10  17
HETATM   17  C13 UNL     1       2.340   1.504  -0.534  1.00  0.00     0.149 C 
HETATM   18  S1  UNL     1       1.624   2.349  -1.715  1.00  0.00    -0.056 SA
BRANCH  17  19
HETATM   19  N10 UNL     1       3.069   2.187   0.459  1.00  0.00    -0.319 N 
HETATM   20  C14 UNL     1       3.200   3.605   0.459  1.00  0.00     0.187 C 
HETATM   21  N11 UNL     1       3.851   4.240  -0.456  1.00  0.00    -0.373 N 
HETATM   22  N12 UNL     1       2.607   4.376   1.486  1.00  0.00    -0.064 NA
ATOM     23 2H11 UNL     1       4.279   3.684  -1.197  1.00  0.00     0.158 HD
ATOM     24 1H11 UNL     1       3.945   5.256  -0.456  1.00  0.00     0.158 HD
ATOM     25  H10 UNL     1       3.517   1.649   1.201  1.00  0.00     0.169 HD
ENDBRANCH  17  19
ENDBRANCH  10  17
ENDBRANCH   4   5
BRANCH   1  26
HETATM   26  C5  UNL     1      -1.803  -0.379   1.451  1.00  0.00     0.177 C 
BRANCH  26  27
HETATM   27  C4  UNL     1      -1.918   0.347   0.159  1.00  0.00     0.214 C 
BRANCH  27  28
HETATM   28  C3  UNL     1      -3.272   0.850  -0.164  1.00  0.00     0.130 A 
HETATM   29  N1  UNL     1      -3.544   1.359  -1.403  1.00  0.00    -0.281 N 
HETATM   30  C1  UNL     1      -2.635   1.473  -2.537  1.00  0.00     0.179 C 
HETATM   31  N2  UNL     1      -4.798   1.737  -1.389  1.00  0.00    -0.293 N 
HETATM   32  C2  UNL     1      -5.348   1.492  -0.193  1.00  0.00     0.199 A 
ATOM     33  H2  UNL     1      -5.287   2.159  -2.178  1.00  0.00     0.188 HD
HETATM   34  N3  UNL     1      -4.384   0.943   0.549  1.00  0.00    -0.338 N 
ATOM     35  H3  UNL     1      -4.488   0.641   1.518  1.00  0.00     0.168 HD
ENDBRANCH  27  28
BRANCH  27  36
HETATM   36  O1  UNL     1      -1.310  -0.360  -0.861  1.00  0.00    -0.386 OA
ATOM     37  H1  UNL     1      -0.441  -0.683  -0.654  1.00  0.00     0.210 HD
ENDBRANCH  27  36
ENDBRANCH  26  27
BRANCH  26  38
HETATM   38  C6  UNL     1      -2.368  -1.779   1.446  1.00  0.00     0.279 C 
BRANCH  38  39
HETATM   39  O2  UNL     1      -3.691  -1.855   1.058  1.00  0.00    -0.369 OA
ATOM     40  H2  UNL     1      -4.047  -2.736   1.055  1.00  0.00     0.212 HD
ENDBRANCH  38  39
BRANCH  38  41
HETATM   41  O3  UNL     1      -1.670  -2.650   0.602  1.00  0.00    -0.369 OA
ATOM     42  H3  UNL     1      -2.026  -3.531   0.599  1.00  0.00     0.212 HD
ENDBRANCH  38  41
ENDBRANCH  26  38
ENDBRANCH   1  26
BRANCH   3  43
HETATM   43  O4  UNL     1       2.507  -1.051   3.445  1.00  0.00    -0.360 OA
ATOM     44  H4  UNL     1       3.402  -0.779   3.276  1.00  0.00     0.217 HD
ENDBRANCH   3  43
TORSDOF 12
