REMARK  23 active torsions:
REMARK  status: ('A' for Active; 'I' for Inactive)
REMARK    1  A    between atoms: C2_2  and  O1_3 
REMARK    2  A    between atoms: C3_6  and  C4_7 
REMARK    3  A    between atoms: C4_7  and  O2_8 
REMARK    4  A    between atoms: O2_8  and  C5_9 
REMARK    5  A    between atoms: C6_10  and  O3_11 
REMARK    6  A    between atoms: O3_11  and  C7_12 
REMARK    7  A    between atoms: C8_14  and  C9_15 
REMARK    8  A    between atoms: C9_15  and  O5_16 
REMARK    9  A    between atoms: C10_18  and  O6_19 
REMARK   10  A    between atoms: C11_21  and  O7_22 
REMARK   11  A    between atoms: C12_24  and  O8_25 
REMARK   12  A    between atoms: C13_27  and  O9_28 
REMARK   13  A    between atoms: C14_30  and  O10_31 
REMARK   14  A    between atoms: C15_33  and  O11_34 
REMARK   15  A    between atoms: C15_33  and  C16_36 
REMARK   16  A    between atoms: C16_36  and  O12_37 
REMARK   17  A    between atoms: C16_36  and  C17_39 
REMARK   18  A    between atoms: C17_39  and  S2_40 
REMARK   19  A    between atoms: S2_40  and  O13_41 
REMARK   20  A    between atoms: C18_44  and  C19_45 
REMARK   21  A    between atoms: C19_45  and  O15_46 
REMARK   22  A    between atoms: C20_48  and  O16_49 
REMARK   23  A    between atoms: C20_48  and  N1_51 
ROOT
HETATM    1  C5  UNL     1      -0.451   1.752   0.648  1.00  0.00     0.192 C 
HETATM    2  C6  UNL     1      -1.513   1.259  -0.305  1.00  0.00     0.188 C 
HETATM    3  C13 UNL     1      -2.028   2.458  -1.068  1.00  0.00     0.181 C 
HETATM    4  C14 UNL     1      -0.901   3.452  -0.912  1.00  0.00     0.189 C 
HETATM    5  C15 UNL     1      -0.476   3.275   0.529  1.00  0.00     0.141 C 
ENDROOT
BRANCH   1   6
HETATM    6  O2  UNL     1       0.772   1.247   0.215  1.00  0.00    -0.377 OA
BRANCH   6   7
HETATM    7  C4  UNL     1       1.460   0.544   1.201  1.00  0.00     0.211 C 
BRANCH   7   8
HETATM    8  C3  UNL     1       2.756   0.068   0.572  1.00  0.00     0.210 C 
HETATM    9  S1  UNL     1       3.740  -0.898   1.754  1.00  0.00    -0.093 SA
HETATM   10  C2  UNL     1       4.974  -1.797   0.756  1.00  0.00     0.158 C 
HETATM   11  C1  UNL     1       5.406  -3.051   1.487  1.00  0.00     0.064 C 
HETATM   12  C20 UNL     1       4.406  -2.215  -0.571  1.00  0.00     0.214 C 
HETATM   13  C18 UNL     1       3.572  -1.156  -1.230  1.00  0.00     0.207 C 
HETATM   14  O14 UNL     1       2.499  -0.744  -0.501  1.00  0.00    -0.361 OA
BRANCH  10  15
HETATM   15  O1  UNL     1       6.111  -1.002   0.607  1.00  0.00    -0.374 OA
ATOM     16  H1  UNL     1       5.840  -0.215   0.148  1.00  0.00     0.211 HD
ENDBRANCH  10  15
BRANCH  12  17
HETATM   17  O16 UNL     1       5.462  -2.536  -1.412  1.00  0.00    -0.364 OA
ATOM     18  H16 UNL     1       5.103  -2.800  -2.251  1.00  0.00     0.213 HD
ENDBRANCH  12  17
BRANCH  12  19
HETATM   19  N1  UNL     1       3.614  -3.394  -0.389  1.00  0.00    -0.303 N 
HETATM   20  N2  UNL     1       3.384  -4.106  -1.381  1.00  0.00    -0.347 N 
ATOM     21  H22 UNL     1       3.757  -3.844  -2.293  1.00  0.00     0.176 HD
ATOM     22  H21 UNL     1       2.820  -4.946  -1.251  1.00  0.00     0.176 HD
ATOM     23  H1  UNL     1       3.248  -3.643   0.530  1.00  0.00     0.183 HD
ENDBRANCH  12  19
BRANCH  13  24
HETATM   24  C19 UNL     1       4.360  -0.006  -1.797  1.00  0.00     0.201 C 
BRANCH  24  25
HETATM   25  O15 UNL     1       5.453  -0.481  -2.560  1.00  0.00    -0.398 OA
ATOM     26  H15 UNL     1       5.950   0.245  -2.918  1.00  0.00     0.209 HD
ENDBRANCH  24  25
ENDBRANCH  13  24
ENDBRANCH   7   8
ENDBRANCH   6   7
ENDBRANCH   1   6
BRANCH   2  27
HETATM   27  O3  UNL     1      -2.510   0.659   0.454  1.00  0.00    -0.348 OA
BRANCH  27  28
HETATM   28  C7  UNL     1      -2.799  -0.644   0.093  1.00  0.00     0.292 C 
HETATM   29  O4  UNL     1      -4.154  -0.626  -0.288  1.00  0.00    -0.348 OA
HETATM   30  C8  UNL     1      -4.542  -1.800  -0.933  1.00  0.00     0.179 C 
HETATM   31  C10 UNL     1      -3.778  -2.994  -0.459  1.00  0.00     0.180 C 
HETATM   32  C11 UNL     1      -3.552  -2.839   1.033  1.00  0.00     0.183 C 
HETATM   33  C12 UNL     1      -2.684  -1.614   1.248  1.00  0.00     0.204 C 
BRANCH  30  34
HETATM   34  C9  UNL     1      -6.010  -1.987  -0.585  1.00  0.00     0.198 C 
BRANCH  34  35
HETATM   35  O5  UNL     1      -6.563  -3.110  -1.147  1.00  0.00    -0.398 OA
ATOM     36  H5  UNL     1      -7.480  -3.227  -0.930  1.00  0.00     0.209 HD
ENDBRANCH  34  35
ENDBRANCH  30  34
BRANCH  31  37
HETATM   37  O6  UNL     1      -4.482  -4.164  -0.728  1.00  0.00    -0.390 OA
ATOM     38  H6  UNL     1      -3.996  -4.923  -0.427  1.00  0.00     0.210 HD
ENDBRANCH  31  37
BRANCH  32  39
HETATM   39  O7  UNL     1      -2.928  -3.993   1.482  1.00  0.00    -0.390 OA
ATOM     40  H7  UNL     1      -2.786  -3.896   2.416  1.00  0.00     0.210 HD
ENDBRANCH  32  39
BRANCH  33  41
HETATM   41  O8  UNL     1      -1.398  -2.071   1.458  1.00  0.00    -0.388 OA
ATOM     42  H8  UNL     1      -1.326  -2.680   2.183  1.00  0.00     0.210 HD
ENDBRANCH  33  41
ENDBRANCH  27  28
ENDBRANCH   2  27
BRANCH   5  43
HETATM   43  O11 UNL     1       0.814   3.708   0.721  1.00  0.00    -0.382 OA
ATOM     44  H11 UNL     1       0.798   4.655   0.647  1.00  0.00     0.211 HD
ENDBRANCH   5  43
BRANCH   5  45
HETATM   45  C16 UNL     1      -1.416   3.855   1.505  1.00  0.00     0.169 C 
BRANCH  45  46
HETATM   46  O12 UNL     1      -0.957   3.520   2.801  1.00  0.00    -0.392 OA
ATOM     47  H12 UNL     1      -1.563   3.894   3.430  1.00  0.00     0.210 HD
ENDBRANCH  45  46
BRANCH  45  48
HETATM   48  C17 UNL     1      -1.716   5.297   1.461  1.00  0.00     0.139 C 
BRANCH  48  49
HETATM   49  S2  UNL     1      -0.343   6.426   1.678  1.00  0.00    -0.013 SA
BRANCH  49  50
HETATM   50  O13 UNL     1       0.764   6.463   0.387  1.00  0.00    -0.329 OA
ATOM     51  H13 UNL     1       1.492   7.062   0.502  1.00  0.00     0.227 HD
ENDBRANCH  49  50
ENDBRANCH  48  49
ENDBRANCH  45  48
ENDBRANCH   5  45
BRANCH   3  52
HETATM   52  O9  UNL     1      -2.138   2.192  -2.441  1.00  0.00    -0.390 OA
ATOM     53  H9  UNL     1      -2.462   2.946  -2.921  1.00  0.00     0.210 HD
ENDBRANCH   3  52
BRANCH   4  54
HETATM   54  O10 UNL     1       0.130   3.065  -1.744  1.00  0.00    -0.390 OA
ATOM     55  H10 UNL     1       0.839   3.690  -1.646  1.00  0.00     0.210 HD
ENDBRANCH   4  54
TORSDOF 23
