REMARK  13 active torsions:
REMARK  status: ('A' for Active; 'I' for Inactive)
REMARK    1  A    between atoms: C3_4  and  S1_5 
REMARK    2  A    between atoms: S1_5  and  S2_6 
REMARK    3  A    between atoms: S2_6  and  C4_7 
REMARK    4  A    between atoms: C11_14  and  C12_15 
REMARK    5  A    between atoms: C13_19  and  O4_20 
REMARK    6  A    between atoms: O4_20  and  C14_21 
REMARK    7  A    between atoms: C15_23  and  C16_24 
REMARK    8  A    between atoms: C16_24  and  O6_25 
REMARK    9  A    between atoms: C17_27  and  O7_28 
REMARK   10  A    between atoms: C18_30  and  O8_31 
REMARK   11  A    between atoms: C19_33  and  O9_34 
REMARK   12  A    between atoms: C20_36  and  O10_37 
REMARK   13  A    between atoms: C21_39  and  O11_40 
ROOT
HETATM    1  C1  UNL     1      -1.799   2.109  -2.424  1.00  0.00     0.221 C 
HETATM    2  N1  UNL     1      -1.014   1.583  -1.792  1.00  0.00    -0.460 NA
HETATM    3  C2  UNL     1      -0.029   0.962  -1.041  1.00  0.00     0.232 C 
HETATM    4  C3  UNL     1       0.039  -0.507  -1.125  1.00  0.00     0.235 C 
HETATM    5  O3  UNL     1       1.332  -0.931  -0.808  1.00  0.00    -0.339 OA
HETATM    6  C13 UNL     1       1.960  -0.273   0.195  1.00  0.00     0.295 C 
HETATM    7  C20 UNL     1       1.114   0.566   1.082  1.00  0.00     0.205 C 
HETATM    8  C21 UNL     1       0.081   1.402   0.378  1.00  0.00     0.190 C 
ENDROOT
BRANCH   4   9
HETATM    9  S1  UNL     1      -1.097  -1.523  -0.260  1.00  0.00    -0.061 SA
BRANCH   9  10
HETATM   10  S2  UNL     1      -3.016  -1.481  -1.068  1.00  0.00    -0.089 SA
BRANCH  10  11
HETATM   11  C4  UNL     1      -4.045  -0.263  -0.328  1.00  0.00     0.076 C 
HETATM   12  C5  UNL     1      -4.414  -0.589   1.084  1.00  0.00    -0.003 C 
HETATM   13  C6  UNL     1      -3.470  -1.615   1.662  1.00  0.00     0.011 C 
HETATM   14  C7  UNL     1      -5.802  -1.181   1.245  1.00  0.00     0.005 C 
HETATM   15  C8  UNL     1      -6.921  -0.233   1.035  1.00  0.00     0.000 C 
HETATM   16  C9  UNL     1      -6.509   1.193   0.751  1.00  0.00     0.001 C 
HETATM   17  C10 UNL     1      -5.913   1.294  -0.638  1.00  0.00     0.017 C 
HETATM   18  C11 UNL     1      -5.353  -0.041  -1.090  1.00  0.00     0.102 C 
BRANCH  18  19
HETATM   19  C12 UNL     1      -5.080   0.061  -2.546  1.00  0.00     0.178 C 
HETATM   20  O1  UNL     1      -5.374   1.094  -3.223  1.00  0.00    -0.648 OA
HETATM   21  O2  UNL     1      -4.480  -1.000  -3.228  1.00  0.00    -0.648 OA
ENDBRANCH  18  19
ENDBRANCH  10  11
ENDBRANCH   9  10
ENDBRANCH   4   9
BRANCH   8  22
HETATM   22  O11 UNL     1      -1.140   1.379   1.030  1.00  0.00    -0.390 OA
ATOM     23  H11 UNL     1      -1.070   1.660   1.935  1.00  0.00     0.210 HD
ENDBRANCH   8  22
BRANCH   7  24
HETATM   24  O10 UNL     1       0.546  -0.235   2.088  1.00  0.00    -0.388 OA
ATOM     25  H10 UNL     1       0.005   0.302   2.655  1.00  0.00     0.210 HD
ENDBRANCH   7  24
BRANCH   6  26
HETATM   26  O4  UNL     1       3.043   0.412  -0.350  1.00  0.00    -0.326 OA
BRANCH  26  27
HETATM   27  C14 UNL     1       4.281  -0.084   0.060  1.00  0.00     0.294 C 
HETATM   28  O5  UNL     1       4.915   0.954   0.722  1.00  0.00    -0.348 OA
HETATM   29  C15 UNL     1       6.240   0.692   1.013  1.00  0.00     0.179 C 
HETATM   30  C17 UNL     1       7.021   0.486  -0.267  1.00  0.00     0.180 C 
HETATM   31  C18 UNL     1       6.465  -0.632  -1.087  1.00  0.00     0.183 C 
HETATM   32  C19 UNL     1       4.978  -0.571  -1.165  1.00  0.00     0.204 C 
BRANCH  29  33
HETATM   33  C16 UNL     1       6.435  -0.460   1.959  1.00  0.00     0.198 C 
BRANCH  33  34
HETATM   34  O6  UNL     1       5.807  -0.211   3.160  1.00  0.00    -0.398 OA
ATOM     35  H6  UNL     1       5.930  -0.939   3.758  1.00  0.00     0.209 HD
ENDBRANCH  33  34
ENDBRANCH  29  33
BRANCH  30  36
HETATM   36  O7  UNL     1       6.846   1.669  -1.020  1.00  0.00    -0.390 OA
ATOM     37  H7  UNL     1       7.336   1.540  -1.823  1.00  0.00     0.210 HD
ENDBRANCH  30  36
BRANCH  31  38
HETATM   38  O8  UNL     1       6.959  -1.875  -0.702  1.00  0.00    -0.390 OA
ATOM     39  H8  UNL     1       6.605  -2.586  -1.223  1.00  0.00     0.210 HD
ENDBRANCH  31  38
BRANCH  32  40
HETATM   40  O9  UNL     1       4.581   0.127  -2.318  1.00  0.00    -0.388 OA
ATOM     41  H9  UNL     1       5.025  -0.183  -3.098  1.00  0.00     0.210 HD
ENDBRANCH  32  40
ENDBRANCH  26  27
ENDBRANCH   6  26
TORSDOF 13
