REMARK  11 active torsions:
REMARK  status: ('A' for Active; 'I' for Inactive)
REMARK    1  A    between atoms: C2_2  and  C3_7 
REMARK    2  A    between atoms: N1_3  and  O1_5 
REMARK       I    between atoms: C3_7  and  N2_9 
REMARK    3  A    between atoms: N2_9  and  C4_11 
REMARK    4  A    between atoms: C9_16  and  S1_17 
REMARK    5  A    between atoms: C11_22  and  C12_23 
REMARK    6  A    between atoms: C14_27  and  O8_28 
REMARK    7  A    between atoms: C15_30  and  O9_31 
REMARK    8  A    between atoms: C16_33  and  C17_34 
REMARK    9  A    between atoms: C17_34  and  N3_35 
REMARK   10  A    between atoms: C17_34  and  C18_39 
REMARK   11  A    between atoms: C18_39  and  N4_40 
ROOT
HETATM    1  C4  UNL     1      -2.897   0.450  -0.018  1.00  0.00     0.070 A 
HETATM    2  C5  UNL     1      -1.871   1.108  -0.607  1.00  0.00     0.046 A 
HETATM    3  C6  UNL     1      -0.497   0.812  -0.475  1.00  0.00    -0.006 A 
HETATM    4  C7  UNL     1      -0.126  -0.225   0.316  1.00  0.00     0.004 A 
HETATM    5  C8  UNL     1       1.202  -0.625   0.580  1.00  0.00     0.030 A 
HETATM    6  C9  UNL     1       1.472  -1.717   1.448  1.00  0.00     0.095 A 
HETATM    7  C10 UNL     1       0.369  -2.336   1.996  1.00  0.00     0.046 A 
HETATM    8  C11 UNL     1      -0.934  -1.999   1.788  1.00  0.00     0.056 A 
HETATM    9  C13 UNL     1      -1.171  -0.940   0.947  1.00  0.00     0.029 A 
HETATM   10  C14 UNL     1      -2.512  -0.626   0.795  1.00  0.00     0.104 A 
HETATM   11  C15 UNL     1       2.403   0.031   0.137  1.00  0.00     0.068 C 
HETATM   12  C16 UNL     1       3.055   0.492  -1.059  1.00  0.00     0.129 C 
HETATM   13  C19 UNL     1       3.434   1.941  -0.711  1.00  0.00     0.068 A 
HETATM   14  N5  UNL     1       3.692   3.199  -0.422  1.00  0.00    -0.340 N 
ATOM     15  H5  UNL     1       4.374   3.909  -0.156  1.00  0.00     0.167 HD
HETATM   16  C20 UNL     1       2.320   2.861  -0.749  1.00  0.00     0.129 A 
HETATM   17  N6  UNL     1       1.122   2.660  -1.019  1.00  0.00    -0.350 N 
ATOM     18  H6  UNL     1       0.594   3.530  -0.944  1.00  0.00     0.166 HD
HETATM   19  C21 UNL     1       0.310   1.658  -1.377  1.00  0.00     0.102 C 
ENDROOT
BRANCH   1  20
HETATM   20  N2  UNL     1      -4.266   0.745  -0.144  1.00  0.00    -0.319 N 
HETATM   21  C3  UNL     1      -4.843   1.748  -0.909  1.00  0.00     0.270 C 
HETATM   22  O2  UNL     1      -4.197   2.543  -1.608  1.00  0.00    -0.266 OA
ATOM     23  H2  UNL     1      -4.907   0.155   0.387  1.00  0.00     0.169 HD
BRANCH  21  24
HETATM   24  C2  UNL     1      -6.327   1.907  -0.915  1.00  0.00     0.096 C 
HETATM   25  C1  UNL     1      -7.174   0.994  -0.106  1.00  0.00     0.076 C 
HETATM   26  N1  UNL     1      -6.867   2.815  -1.606  1.00  0.00    -0.268 N 
ATOM     27  H1  UNL     1      -7.885   2.871  -1.569  1.00  0.00     0.194 HD
BRANCH  26  28
HETATM   28  O1  UNL     1      -6.241   3.722  -2.391  1.00  0.00    -0.290 OA
ATOM     29  H1  UNL     1      -6.647   4.405  -2.911  1.00  0.00     0.244 HD
ENDBRANCH  26  28
ENDBRANCH  21  24
ENDBRANCH   1  20
BRANCH  10  30
HETATM   30  O8  UNL     1      -3.469  -1.372   1.443  1.00  0.00    -0.357 OA
ATOM     31  H8  UNL     1      -3.208  -2.101   1.994  1.00  0.00     0.217 HD
ENDBRANCH  10  30
BRANCH   8  32
HETATM   32  C12 UNL     1      -1.968  -2.786   2.470  1.00  0.00     0.210 C 
HETATM   33  O6  UNL     1      -2.487  -3.832   1.960  1.00  0.00    -0.644 OA
HETATM   34  O7  UNL     1      -2.362  -2.327   3.735  1.00  0.00    -0.644 OA
ENDBRANCH   8  32
BRANCH   6  35
HETATM   35  S1  UNL     1       3.021  -2.305   1.909  1.00  0.00     0.138 S 
HETATM   36  O3  UNL     1       3.776  -1.502   2.932  1.00  0.00    -0.591 OA
HETATM   37  O4  UNL     1       3.843  -2.949   0.860  1.00  0.00    -0.591 OA
HETATM   38  O5  UNL     1       2.761  -3.700   2.914  1.00  0.00    -0.591 OA
ENDBRANCH   6  35
BRANCH  11  39
HETATM   39  O9  UNL     1       3.172   0.311   1.204  1.00  0.00    -0.363 OA
ATOM     40  H9  UNL     1       3.965   0.744   0.911  1.00  0.00     0.217 HD
ENDBRANCH  11  39
BRANCH  12  41
HETATM   41  C17 UNL     1       4.394  -0.220  -1.302  1.00  0.00     0.225 C 
BRANCH  41  42
HETATM   42  N3  UNL     1       4.947   0.299  -2.576  1.00  0.00    -0.072 N 
ATOM     43  H33 UNL     1       4.299   0.207  -3.358  1.00  0.00     0.274 HD
ATOM     44  H32 UNL     1       5.028   1.316  -2.590  1.00  0.00     0.274 HD
ATOM     45  H31 UNL     1       5.836  -0.174  -2.737  1.00  0.00     0.274 HD
ENDBRANCH  41  42
BRANCH  41  46
HETATM   46  C18 UNL     1       5.448   0.058  -0.283  1.00  0.00     0.263 C 
BRANCH  46  47
HETATM   47  N4  UNL     1       6.692  -0.662  -0.667  1.00  0.00    -0.077 N 
ATOM     48  H43 UNL     1       6.537  -1.661  -0.804  1.00  0.00     0.274 HD
ATOM     49  H42 UNL     1       6.997  -0.435  -1.614  1.00  0.00     0.274 HD
ATOM     50  H41 UNL     1       7.412  -0.472   0.030  1.00  0.00     0.274 HD
ENDBRANCH  46  47
ENDBRANCH  41  46
ENDBRANCH  12  41
TORSDOF 11
