REMARK  2 active torsions:
REMARK  status: ('A' for Active; 'I' for Inactive)
REMARK    1  A    between atoms: S1_2  and  N1_5 
REMARK    2  A    between atoms: N1_5  and  N2_7 
ROOT
HETATM    1  N2  UNL     1       2.779   0.251  -0.226  1.00  0.00    -0.218 NA
HETATM    2  C2  UNL     1       1.530  -0.462  -0.158  1.00  0.00     0.142 C 
HETATM    3  C3  UNL     1       1.671  -1.857   0.382  1.00  0.00     0.248 C 
HETATM    4  N3  UNL     1       0.863  -2.788  -0.377  1.00  0.00    -0.072 N 
ATOM      5  H31 UNL     1       1.432  -3.305  -1.047  1.00  0.00     0.277 HD
ATOM      6  H32 UNL     1       0.250  -2.296  -1.027  1.00  0.00     0.277 HD
HETATM    7  C4  UNL     1       0.113  -3.683   0.463  1.00  0.00     0.259 C 
HETATM    8  C5  UNL     1      -1.251  -3.934  -0.137  1.00  0.00     0.259 C 
HETATM    9  N4  UNL     1      -2.244  -3.023   0.363  1.00  0.00    -0.074 N 
ATOM     10  H41 UNL     1      -2.177  -2.924   1.376  1.00  0.00     0.277 HD
ATOM     11  H42 UNL     1      -3.179  -3.426   0.301  1.00  0.00     0.277 HD
HETATM   12  C6  UNL     1      -2.185  -1.731  -0.296  1.00  0.00     0.232 C 
HETATM   13  C7  UNL     1      -3.512  -1.316  -0.865  1.00  0.00     0.027 C 
HETATM   14  C8  UNL     1      -4.441  -0.735   0.157  1.00  0.00     0.002 C 
HETATM   15  C9  UNL     1      -4.044   0.625   0.632  1.00  0.00     0.002 C 
HETATM   16  C10 UNL     1      -3.845   1.617  -0.469  1.00  0.00     0.020 C 
HETATM   17  C11 UNL     1      -2.437   2.146  -0.521  1.00  0.00     0.122 C 
HETATM   18  N5  UNL     1      -2.363   3.513  -0.011  1.00  0.00    -0.359 N 
ATOM     19  H5  UNL     1      -3.212   4.021   0.236  1.00  0.00     0.162 HD
HETATM   20  C12 UNL     1      -1.095   4.119   0.134  1.00  0.00     0.241 C 
HETATM   21  O3  UNL     1      -1.016   5.373   0.058  1.00  0.00    -0.271 OA
HETATM   22  C13 UNL     1       0.163   3.366   0.374  1.00  0.00     0.270 C 
HETATM   23  O4  UNL     1       1.011   3.394  -0.733  1.00  0.00    -0.381 OA
HETATM   24  C14 UNL     1       1.448   2.122  -1.098  1.00  0.00     0.184 C 
HETATM   25  C15 UNL     1       2.579   1.678  -0.211  1.00  0.00     0.140 C 
ENDROOT
BRANCH   1  26
HETATM   26  N1  UNL     1       3.663  -0.085   0.781  1.00  0.00    -0.247 N 
ATOM     27  H1  UNL     1       3.449   0.020   1.773  1.00  0.00     0.194 HD
BRANCH  26  28
HETATM   28  S1  UNL     1       5.163  -0.700   0.195  1.00  0.00     0.236 S 
HETATM   29  C1  UNL     1       6.342   0.613  -0.052  1.00  0.00     0.187 C 
HETATM   30  O1  UNL     1       4.996  -1.403  -1.128  1.00  0.00    -0.205 OA
HETATM   31  O2  UNL     1       5.737  -1.645   1.228  1.00  0.00    -0.205 OA
ENDBRANCH  26  28
ENDBRANCH   1  26
TORSDOF 2
