REMARK  3 active torsions:
REMARK  status: ('A' for Active; 'I' for Inactive)
REMARK    1  A    between atoms: C5_13  and  N5_14 
REMARK    2  A    between atoms: N5_14  and  C6_16 
REMARK    3  A    between atoms: C7_19  and  N7_20 
ROOT
HETATM    1  N1  UNL     1       6.775  -2.873   1.691  1.00  0.00    -0.190 NA
HETATM    2  C1  UNL     1       6.522  -1.962   0.996  1.00  0.00     0.120 C 
HETATM    3  C2  UNL     1       6.213  -0.870   0.129  1.00  0.00     0.147 A 
HETATM    4  N2  UNL     1       7.087  -0.377  -0.749  1.00  0.00    -0.322 N 
ATOM      5  H2  UNL     1       8.013  -0.802  -0.794  1.00  0.00     0.169 HD
HETATM    6  C3  UNL     1       6.822   0.644  -1.576  1.00  0.00     0.181 A 
HETATM    7 CL1  UNL     1       8.060   1.213  -2.711  1.00  0.00    -0.045 Cl
HETATM    8  N3  UNL     1       5.611   1.223  -1.536  1.00  0.00    -0.316 N 
ATOM      9  H3  UNL     1       5.387   2.002  -2.155  1.00  0.00     0.170 HD
HETATM   10  C4  UNL     1       4.699   0.757  -0.666  1.00  0.00     0.153 A 
HETATM   11  N4  UNL     1       3.414   1.119  -0.385  1.00  0.00    -0.173 N 
ATOM     12  H4  UNL     1       2.912   1.875  -0.850  1.00  0.00     0.186 HD
HETATM   13  C5  UNL     1       2.898   0.347   0.586  1.00  0.00     0.699 A 
HETATM   14  N11 UNL     1       3.872  -0.540   0.945  1.00  0.00    -0.184 N 
ATOM     15  H11 UNL     1       3.791  -1.263   1.660  1.00  0.00     0.184 HD
HETATM   16  C12 UNL     1       4.958  -0.292   0.189  1.00  0.00     0.131 A 
ENDROOT
BRANCH  13  17
HETATM   17  N5  UNL     1       1.594   0.452   1.120  1.00  0.00    -0.020 N 
ATOM     18  H5  UNL     1       1.521   0.751   2.092  1.00  0.00     0.203 HD
BRANCH  17  19
HETATM   19  C6  UNL     1       0.502   0.212   0.513  1.00  0.00     0.726 A 
HETATM   20  N6  UNL     1      -0.730   0.329   1.076  1.00  0.00    -0.019 N 
HETATM   21  C7  UNL     1      -1.670   0.017   0.187  1.00  0.00     0.710 A 
ATOM     22  H6  UNL     1      -0.908   0.614   2.039  1.00  0.00     0.203 HD
HETATM   23  N9  UNL     1      -1.043  -0.301  -0.945  1.00  0.00    -0.117 N 
HETATM   24  N10 UNL     1       0.280  -0.186  -0.757  1.00  0.00    -0.117 N 
ATOM     25  H9  UNL     1      -1.496  -0.586  -1.814  1.00  0.00     0.206 HD
ATOM     26  H10 UNL     1       0.999  -0.369  -1.457  1.00  0.00     0.206 HD
BRANCH  21  27
HETATM   27  N7  UNL     1      -3.083   0.039   0.499  1.00  0.00    -0.213 N 
HETATM   28  C8  UNL     1      -3.775  -1.169   0.869  1.00  0.00     0.168 C 
HETATM   29  C9  UNL     1      -5.067  -1.244   0.092  1.00  0.00     0.252 C 
HETATM   30  N8  UNL     1      -5.830  -0.053   0.336  1.00  0.00    -0.072 N 
HETATM   31  C10 UNL     1      -5.150   1.139  -0.083  1.00  0.00     0.252 C 
ATOM     32  H82 UNL     1      -6.753  -0.117  -0.093  1.00  0.00     0.277 HD
ATOM     33  H81 UNL     1      -6.106   0.009   1.316  1.00  0.00     0.277 HD
HETATM   34  C11 UNL     1      -3.776   1.292   0.456  1.00  0.00     0.168 C 
ENDBRANCH  21  27
ENDBRANCH  17  19
ENDBRANCH  13  17
TORSDOF 3
