REMARK  2 active torsions:
REMARK  status: ('A' for Active; 'I' for Inactive)
REMARK    1  A    between atoms: N1_2  and  C3_4 
REMARK    2  A    between atoms: C13_20  and  C14_21 
ROOT
HETATM    1  C3  UNL     1       2.448  -0.183   0.220  1.00  0.00     0.100 A 
HETATM    2  C4  UNL     1       2.748  -1.492   0.548  1.00  0.00     0.171 A 
HETATM    3  F1  UNL     1       4.037  -1.824   0.719  1.00  0.00    -0.202 F 
HETATM    4  C5  UNL     1       1.725  -2.404   0.689  1.00  0.00     0.110 A 
HETATM    5  N2  UNL     1       2.116  -3.727   1.027  1.00  0.00    -0.097 NA
HETATM    6  C6  UNL     1       0.381  -2.036   0.507  1.00  0.00     0.101 A 
HETATM    7  C7  UNL     1      -0.543  -3.069   0.682  1.00  0.00     0.104 C 
HETATM    8  N3  UNL     1      -1.266  -3.964   0.840  1.00  0.00    -0.191 NA
HETATM    9  C8  UNL     1       0.117  -0.755   0.187  1.00  0.00     0.096 A 
HETATM   10  C9  UNL     1       1.131   0.188   0.039  1.00  0.00     0.093 A 
HETATM   11  N4  UNL     1       0.611   1.375  -0.276  1.00  0.00    -0.338 N 
ATOM     12  H4  UNL     1       1.133   2.236  -0.440  1.00  0.00     0.167 HD
HETATM   13  C10 UNL     1      -0.721   1.235  -0.339  1.00  0.00     0.117 A 
HETATM   14  C11 UNL     1      -1.703   2.167  -0.627  1.00  0.00     0.077 A 
HETATM   15  C12 UNL     1      -3.018   1.826  -0.641  1.00  0.00     0.070 A 
HETATM   16  N5  UNL     1      -4.072   2.729  -0.928  1.00  0.00    -0.101 NA
HETATM   17  C13 UNL     1      -3.340   0.526  -0.360  1.00  0.00     0.121 A 
HETATM   18  C15 UNL     1      -2.334  -0.417  -0.067  1.00  0.00     0.271 A 
HETATM   19  O2  UNL     1      -2.744  -1.534   0.165  1.00  0.00    -0.266 OA
HETATM   20  N7  UNL     1      -1.039  -0.066  -0.057  1.00  0.00    -0.259 N 
ENDROOT
BRANCH   1  21
HETATM   21  N1  UNL     1       3.441   0.811   0.059  1.00  0.00    -0.385 N 
HETATM   22  C1  UNL     1       3.874   1.608   1.166  1.00  0.00     0.149 C 
HETATM   23  C2  UNL     1       4.014   1.009  -1.246  1.00  0.00     0.149 C 
ENDBRANCH   1  21
BRANCH  17  24
HETATM   24  C14 UNL     1      -4.716   0.083  -0.355  1.00  0.00     0.272 C 
HETATM   25  N6  UNL     1      -5.043  -1.251  -0.066  1.00  0.00    -0.057 NA
HETATM   26  O1  UNL     1      -5.629   0.902  -0.612  1.00  0.00    -0.271 OA
ENDBRANCH  17  24
TORSDOF 2
