REMARK  4 active torsions:
REMARK  status: ('A' for Active; 'I' for Inactive)
REMARK       I    between atoms: C2_2  and  N1_4 
REMARK    1  A    between atoms: N1_4  and  N2_6 
REMARK    2  A    between atoms: C4_9  and  C5_10 
REMARK    3  A    between atoms: C5_10  and  N4_11 
REMARK    4  A    between atoms: C5_10  and  N5_15 
ROOT
HETATM    1  N2  UNL     1       0.891  -0.103   0.502  1.00  0.00    -0.187 N 
HETATM    2  C3  UNL     1      -0.362   0.325   0.095  1.00  0.00     0.169 A 
HETATM    3  N3  UNL     1      -0.603   1.220  -0.998  1.00  0.00    -0.078 NA
HETATM    4  C4  UNL     1      -1.319  -0.224   0.876  1.00  0.00     0.114 A 
HETATM    5  N6  UNL     1      -0.674  -0.986   1.762  1.00  0.00    -0.304 N 
ATOM      6  H6  UNL     1      -1.118  -1.538   2.496  1.00  0.00     0.170 HD
HETATM    7  C6  UNL     1       0.680  -0.914   1.535  1.00  0.00     0.347 A 
HETATM    8  O2  UNL     1       1.511  -1.552   2.248  1.00  0.00    -0.245 OA
ENDROOT
BRANCH   4   9
HETATM    9  C5  UNL     1      -2.787  -0.033   0.785  1.00  0.00     0.430 C 
BRANCH   9  10
HETATM   10  N4  UNL     1      -3.488  -1.279   0.899  1.00  0.00    -0.045 N 
ATOM     11  H43 UNL     1      -3.157  -1.957   0.213  1.00  0.00     0.277 HD
ATOM     12  H42 UNL     1      -3.229  -1.776   1.751  1.00  0.00     0.277 HD
ATOM     13  H41 UNL     1      -4.498  -1.148   0.836  1.00  0.00     0.277 HD
ENDBRANCH   9  10
BRANCH   9  14
HETATM   14  N5  UNL     1      -3.153   0.587  -0.459  1.00  0.00    -0.045 N 
ATOM     15  H53 UNL     1      -2.651   1.463  -0.604  1.00  0.00     0.277 HD
ATOM     16  H52 UNL     1      -2.792   0.066  -1.258  1.00  0.00     0.277 HD
ATOM     17  H51 UNL     1      -4.163   0.718  -0.522  1.00  0.00     0.277 HD
ENDBRANCH   9  14
ENDBRANCH   4   9
BRANCH   1  18
HETATM   18  N1  UNL     1       2.067   0.297  -0.115  1.00  0.00    -0.258 N 
HETATM   19  C2  UNL     1       3.371  -0.063   0.203  1.00  0.00     0.232 C 
HETATM   20  C1  UNL     1       4.507   0.517  -0.635  1.00  0.00     0.119 C 
HETATM   21  O1  UNL     1       3.751  -0.821   1.110  1.00  0.00    -0.272 OA
ATOM     22  H1  UNL     1       1.961   0.937  -0.902  1.00  0.00     0.190 HD
ENDBRANCH   1  18
TORSDOF 4
