REMARK  7 active torsions:
REMARK  status: ('A' for Active; 'I' for Inactive)
REMARK    1  A    between atoms: C1_2  and  C2_4 
REMARK    2  A    between atoms: N3_7  and  C3_8 
REMARK    3  A    between atoms: C17_24  and  C18_25 
REMARK    4  A    between atoms: C18_25  and  C19_26 
REMARK       I    between atoms: C19_26  and  N5_28 
REMARK    5  A    between atoms: C23_32  and  N6_33 
REMARK    6  A    between atoms: N6_33  and  C24_35 
REMARK    7  A    between atoms: C24_35  and  C25_36 
ROOT
HETATM    1  C2  UNL     1      -2.113   1.472  -2.717  1.00  0.00     0.122 A 
HETATM    2  N2  UNL     1      -2.983   0.795  -2.022  1.00  0.00    -0.292 N 
ATOM      3  H2  UNL     1      -3.888   0.507  -2.393  1.00  0.00     0.187 HD
HETATM    4  N3  UNL     1      -2.577   0.510  -0.766  1.00  0.00    -0.279 N 
HETATM    5  C13 UNL     1      -1.365   1.046  -0.660  1.00  0.00     0.083 A 
HETATM    6  C14 UNL     1      -1.058   1.663  -1.904  1.00  0.00     0.007 A 
HETATM    7  C15 UNL     1       0.287   2.315  -1.971  1.00  0.00     0.063 C 
HETATM    8  C16 UNL     1       0.515   3.193  -0.754  1.00  0.00     0.124 C 
HETATM    9  N4  UNL     1      -0.149   2.676   0.426  1.00  0.00    -0.391 N 
ATOM     10  H4  UNL     1      -0.466   3.229   1.223  1.00  0.00     0.159 HD
HETATM   11  C17 UNL     1      -0.289   1.214   0.279  1.00  0.00     0.043 C 
ENDROOT
BRANCH  11  12
HETATM   12  C18 UNL     1      -0.071   0.466   1.497  1.00  0.00     0.162 C 
BRANCH  12  13
HETATM   13  C19 UNL     1       1.193   0.854   2.246  1.00  0.00     0.225 C 
HETATM   14  O2  UNL     1       1.147   1.724   3.182  1.00  0.00    -0.273 OA
HETATM   15  N5  UNL     1       2.450   0.294   1.962  1.00  0.00    -0.352 N 
HETATM   16  C20 UNL     1       3.538   0.788   2.789  1.00  0.00     0.126 C 
HETATM   17  C27 UNL     1       2.617  -0.692   0.919  1.00  0.00     0.127 C 
HETATM   18  C21 UNL     1       4.786  -0.034   2.663  1.00  0.00     0.022 C 
HETATM   19  C22 UNL     1       5.508   0.159   1.353  1.00  0.00     0.026 C 
HETATM   20  C23 UNL     1       4.990  -0.766   0.298  1.00  0.00     0.078 C 
HETATM   21  C26 UNL     1       3.610  -0.251  -0.127  1.00  0.00     0.044 C 
BRANCH  20  22
HETATM   22  N6  UNL     1       5.803  -0.891  -0.867  1.00  0.00    -0.415 N 
ATOM     23  H6  UNL     1       5.477  -0.603  -1.790  1.00  0.00     0.153 HD
BRANCH  22  24
HETATM   24  C24 UNL     1       7.101  -1.445  -0.659  1.00  0.00     0.145 C 
BRANCH  24  25
HETATM   25  C25 UNL     1       7.784  -1.506  -2.018  1.00  0.00     0.241 C 
HETATM   26  F1  UNL     1       7.885  -0.222  -2.561  1.00  0.00    -0.254 F 
ENDBRANCH  24  25
ENDBRANCH  22  24
ENDBRANCH  20  22
ENDBRANCH  12  13
ENDBRANCH  11  12
BRANCH   4  27
HETATM   27  C3  UNL     1      -3.477  -0.229   0.060  1.00  0.00     0.055 C 
HETATM   28  C4  UNL     1      -4.756   0.594   0.331  1.00  0.00     0.038 C 
HETATM   29  C5  UNL     1      -5.866  -0.203   0.888  1.00  0.00    -0.011 C 
HETATM   30  C6  UNL     1      -6.306  -1.272  -0.072  1.00  0.00     0.009 C 
HETATM   31  C10 UNL     1      -5.403  -0.842   2.180  1.00  0.00     0.009 C 
HETATM   32  C7  UNL     1      -5.096  -2.130  -0.369  1.00  0.00    -0.011 C 
HETATM   33  C8  UNL     1      -4.619  -2.851   0.900  1.00  0.00     0.009 C 
HETATM   34  C12 UNL     1      -3.963  -1.368  -0.885  1.00  0.00     0.038 C 
HETATM   35  C9  UNL     1      -4.260  -1.739   1.822  1.00  0.00    -0.011 C 
HETATM   36  C11 UNL     1      -3.096  -0.879   1.264  1.00  0.00     0.038 C 
ENDBRANCH   4  27
BRANCH   1  37
HETATM   37  C1  UNL     1      -2.176   1.959  -4.098  1.00  0.00     0.283 C 
HETATM   38  N1  UNL     1      -3.354   1.673  -4.834  1.00  0.00    -0.056 NA
HETATM   39  O1  UNL     1      -1.263   2.594  -4.635  1.00  0.00    -0.269 OA
ENDBRANCH   1  37
TORSDOF 7
