REMARK  9 active torsions:
REMARK  status: ('A' for Active; 'I' for Inactive)
REMARK    1  A    between atoms: C2_2  and  C3_3 
REMARK    2  A    between atoms: C3_3  and  C4_4 
REMARK    3  A    between atoms: C3_3  and  C12_14 
REMARK    4  A    between atoms: C4_4  and  C5_5 
REMARK    5  A    between atoms: C5_5  and  C6_6 
REMARK    6  A    between atoms: C6_6  and  N1_7 
REMARK    7  A    between atoms: N1_7  and  C7_9 
REMARK    8  A    between atoms: C7_9  and  C8_10 
REMARK    9  A    between atoms: C8_10  and  C9_11 
ROOT
HETATM    1  C5  UNL     1      -0.051   0.247  -0.562  1.00  0.00     0.020 C 
ENDROOT
BRANCH   1   2
HETATM    2  C4  UNL     1      -1.005   0.081   0.576  1.00  0.00     0.006 C 
BRANCH   2   3
HETATM    3  C3  UNL     1      -2.350  -0.448   0.309  1.00  0.00    -0.012 C 
BRANCH   3   4
HETATM    4  C2  UNL     1      -3.058  -0.502   1.672  1.00  0.00     0.000 C 
HETATM    5  C1  UNL     1      -4.454  -1.029   1.499  1.00  0.00     0.005 C 
ENDBRANCH   3   4
BRANCH   3   6
HETATM    6  C12 UNL     1      -3.252   0.209  -0.641  1.00  0.00    -0.019 C 
HETATM    7  C13 UNL     1      -2.777   0.339  -2.065  1.00  0.00     0.010 C 
HETATM    8  C14 UNL     1      -3.804   1.543  -0.193  1.00  0.00     0.010 C 
ENDBRANCH   3   6
ENDBRANCH   2   3
ENDBRANCH   1   2
BRANCH   1   9
HETATM    9  C6  UNL     1       1.252   0.774   0.075  1.00  0.00     0.113 C 
BRANCH   9  10
HETATM   10  N1  UNL     1       2.288   0.986  -0.860  1.00  0.00    -0.421 N 
ATOM     11  H1  UNL     1       2.608   1.928  -1.083  1.00  0.00     0.153 HD
BRANCH  10  12
HETATM   12  C7  UNL     1       2.870  -0.146  -1.480  1.00  0.00     0.114 C 
BRANCH  12  13
HETATM   13  C8  UNL     1       3.668  -1.059  -0.620  1.00  0.00     0.024 C 
BRANCH  13  14
HETATM   14  C9  UNL     1       4.854  -0.500   0.063  1.00  0.00    -0.013 A 
HETATM   15  C10 UNL     1       4.876   0.587   1.034  1.00  0.00     0.005 A 
HETATM   16  C11 UNL     1       5.050  -0.856   1.513  1.00  0.00     0.005 A 
ENDBRANCH  13  14
ENDBRANCH  12  13
ENDBRANCH  10  12
ENDBRANCH   9  10
ENDBRANCH   1   9
TORSDOF 9
