REMARK  9 active torsions:
REMARK  status: ('A' for Active; 'I' for Inactive)
REMARK    1  A    between atoms: C2_2  and  C3_3 
REMARK    2  A    between atoms: C3_3  and  O1_4 
REMARK    3  A    between atoms: O1_4  and  C4_5 
REMARK    4  A    between atoms: C6_7  and  C7_8 
REMARK    5  A    between atoms: C7_8  and  O2_9 
REMARK    6  A    between atoms: C8_12  and  O4_13 
REMARK    7  A    between atoms: C10_15  and  C11_16 
REMARK    8  A    between atoms: C12_17  and  C13_18 
REMARK    9  A    between atoms: C18_25  and  O7_26 
ROOT
HETATM    1  C4  UNL     1      -2.498   1.444  -0.600  1.00  0.00     0.143 C 
HETATM    2  C5  UNL     1      -1.761   0.386  -0.868  1.00  0.00     0.002 C 
HETATM    3  C6  UNL     1      -2.190  -0.997  -1.021  1.00  0.00     0.181 C 
HETATM    4  O3  UNL     1      -1.516  -1.731  -0.012  1.00  0.00    -0.349 OA
HETATM    5  C8  UNL     1      -0.197  -1.837  -0.441  1.00  0.00     0.270 C 
HETATM    6  C10 UNL     1       0.522  -0.511  -0.423  1.00  0.00     0.096 C 
HETATM    7  C18 UNL     1      -0.277   0.604  -1.043  1.00  0.00     0.164 C 
ENDROOT
BRANCH   6   8
HETATM    8  C11 UNL     1       0.941  -0.127   0.948  1.00  0.00    -0.016 C 
HETATM    9  C12 UNL     1       2.183  -0.031   1.376  1.00  0.00     0.002 C 
BRANCH   9  10
HETATM   10  C13 UNL     1       3.386  -0.292   0.556  1.00  0.00     0.154 C 
HETATM   11  C14 UNL     1       3.774   0.924  -0.236  1.00  0.00     0.037 C 
HETATM   12  C15 UNL     1       5.192   0.857  -0.747  1.00  0.00     0.013 C 
HETATM   13  C16 UNL     1       6.107   0.885   0.484  1.00  0.00     0.111 C 
HETATM   14  C17 UNL     1       5.740  -0.313   1.285  1.00  0.00     0.259 C 
HETATM   15  O5  UNL     1       6.648  -0.936   1.887  1.00  0.00    -0.265 OA
HETATM   16  O6  UNL     1       4.445  -0.750   1.382  1.00  0.00    -0.312 OA
ENDBRANCH   9  10
ENDBRANCH   6   8
BRANCH   5  17
HETATM   17  O4  UNL     1       0.423  -2.739   0.411  1.00  0.00    -0.365 OA
HETATM   18  C9  UNL     1       0.847  -3.825  -0.344  1.00  0.00     0.204 C 
ENDBRANCH   5  17
BRANCH   7  19
HETATM   19  O7  UNL     1       0.078   1.845  -0.520  1.00  0.00    -0.390 OA
ATOM     20  H7  UNL     1       1.012   1.982  -0.630  1.00  0.00     0.210 HD
ENDBRANCH   7  19
BRANCH   3  21
HETATM   21  C7  UNL     1      -3.643  -1.287  -0.989  1.00  0.00     0.201 C 
BRANCH  21  22
HETATM   22  O2  UNL     1      -3.758  -2.691  -1.222  1.00  0.00    -0.398 OA
ATOM     23  H2  UNL     1      -4.689  -2.877  -1.201  1.00  0.00     0.209 HD
ENDBRANCH  21  22
ENDBRANCH   3  21
BRANCH   1  24
HETATM   24  O1  UNL     1      -3.758   1.600  -0.397  1.00  0.00    -0.359 OA
BRANCH  24  25
HETATM   25  C3  UNL     1      -5.035   1.756  -0.193  1.00  0.00     0.201 C 
BRANCH  25  26
HETATM   26  C2  UNL     1      -5.456   2.981   0.560  1.00  0.00    -0.011 C 
HETATM   27  C1  UNL     1      -6.108   2.835   1.691  1.00  0.00     0.009 C 
ENDBRANCH  25  26
ENDBRANCH  24  25
ENDBRANCH   1  24
TORSDOF 9
