REMARK  10 active torsions:
REMARK  status: ('A' for Active; 'I' for Inactive)
REMARK    1  A    between atoms: C2_2  and  C3_3 
REMARK    2  A    between atoms: C6_7  and  C7_8 
REMARK    3  A    between atoms: C7_8  and  O2_9 
REMARK    4  A    between atoms: C10_13  and  C11_14 
REMARK    5  A    between atoms: C11_14  and  C12_15 
REMARK    6  A    between atoms: C12_15  and  C13_16 
REMARK    7  A    between atoms: C12_15  and  C14_19 
REMARK    8  A    between atoms: C13_16  and  O3_17 
REMARK    9  A    between atoms: C14_19  and  C15_20 
REMARK   10  A    between atoms: C15_20  and  O4_21 
ROOT
HETATM    1  C7  UNL     1      -1.041   0.474   0.708  1.00  0.00     0.195 C 
HETATM    2  C8  UNL     1      -0.242   1.629   0.201  1.00  0.00     0.056 C 
HETATM    3  C9  UNL     1       1.219   1.243  -0.087  1.00  0.00     0.036 C 
HETATM    4  C10 UNL     1       1.340   0.129  -1.015  1.00  0.00     0.132 C 
HETATM    5  O5  UNL     1       0.151  -0.686  -1.074  1.00  0.00    -0.314 OA
HETATM    6  C16 UNL     1      -0.726  -0.786  -0.007  1.00  0.00     0.299 C 
HETATM    7  O6  UNL     1      -1.264  -1.844   0.395  1.00  0.00    -0.262 OA
ENDROOT
BRANCH   1   8
HETATM    8  C6  UNL     1      -2.512   0.785   0.465  1.00  0.00     0.305 C 
HETATM    9  O1  UNL     1      -2.721   1.030  -0.895  1.00  0.00    -0.354 OA
HETATM   10  C5  UNL     1      -4.069   0.759  -1.127  1.00  0.00     0.213 C 
HETATM   11  C3  UNL     1      -4.479  -0.147   0.006  1.00  0.00     0.099 C 
HETATM   12  C4  UNL     1      -4.942  -1.451  -0.590  1.00  0.00     0.053 C 
HETATM   13  O7  UNL     1      -3.328  -0.297   0.782  1.00  0.00    -0.341 OA
BRANCH  11  14
HETATM   14  C2  UNL     1      -5.556   0.496   0.783  1.00  0.00     0.002 C 
HETATM   15  C1  UNL     1      -6.543  -0.227   1.291  1.00  0.00     0.010 C 
ENDBRANCH  11  14
ENDBRANCH   1   8
BRANCH   1  16
HETATM   16  O2  UNL     1      -0.854   0.235   2.066  1.00  0.00    -0.375 OA
ATOM     17  H2  UNL     1       0.064   0.041   2.218  1.00  0.00     0.211 HD
ENDBRANCH   1  16
BRANCH   4  18
HETATM   18  C11 UNL     1       2.517  -0.763  -0.949  1.00  0.00     0.039 C 
BRANCH  18  19
HETATM   19  C12 UNL     1       3.875  -0.232  -1.167  1.00  0.00     0.013 C 
BRANCH  19  20
HETATM   20  C13 UNL     1       4.785  -1.500  -1.124  1.00  0.00     0.168 C 
BRANCH  20  21
HETATM   21  O3  UNL     1       4.291  -2.279  -2.198  1.00  0.00    -0.400 OA
ATOM     22  H3  UNL     1       4.845  -3.051  -2.172  1.00  0.00     0.209 HD
ENDBRANCH  20  21
ENDBRANCH  19  20
BRANCH  19  23
HETATM   23  C14 UNL     1       4.427   0.769  -0.232  1.00  0.00     0.033 C 
BRANCH  23  24
HETATM   24  C15 UNL     1       4.615   0.391   1.190  1.00  0.00     0.164 C 
BRANCH  24  25
HETATM   25  O4  UNL     1       5.501  -0.656   1.420  1.00  0.00    -0.401 OA
ATOM     26  H4  UNL     1       5.621  -0.898   2.331  1.00  0.00     0.209 HD
ENDBRANCH  24  25
ENDBRANCH  23  24
ENDBRANCH  19  23
ENDBRANCH  18  19
ENDBRANCH   4  18
TORSDOF 10
