REMARK  9 active torsions:
REMARK  status: ('A' for Active; 'I' for Inactive)
REMARK    1  A    between atoms: C2_2  and  C3_3 
REMARK    2  A    between atoms: C3_3  and  C4_4 
REMARK    3  A    between atoms: C4_4  and  C5_5 
REMARK    4  A    between atoms: C4_4  and  N3_11 
REMARK    5  A    between atoms: N2_7  and  O1_9 
REMARK    6  A    between atoms: N3_11  and  C7_13 
REMARK    7  A    between atoms: C11_17  and  O2_18 
REMARK    8  A    between atoms: O2_18  and  C12_19 
REMARK    9  A    between atoms: C12_19  and  C13_21 
ROOT
HETATM    1  N3  UNL     1      -0.842   0.534   0.061  1.00  0.00    -0.401 N 
HETATM    2  C6  UNL     1      -0.901   1.919  -0.062  1.00  0.00     0.144 C 
ENDROOT
BRANCH   1   3
HETATM    3  C4  UNL     1      -1.970  -0.213   0.374  1.00  0.00     0.149 C 
BRANCH   3   4
HETATM    4  C3  UNL     1      -2.506   0.172   1.765  1.00  0.00     0.058 C 
BRANCH   4   5
HETATM    5  C2  UNL     1      -3.570  -0.803   2.115  1.00  0.00    -0.035 C 
HETATM    6  C1  UNL     1      -4.827  -0.481   2.360  1.00  0.00     0.007 C 
ENDBRANCH   4   5
ENDBRANCH   3   4
BRANCH   3   7
HETATM    7  C5  UNL     1      -3.128  -0.125  -0.536  1.00  0.00     0.136 C 
HETATM    8  N1  UNL     1      -3.824   1.080  -0.725  1.00  0.00    -0.083 NA
HETATM    9  N2  UNL     1      -3.496  -1.180  -1.158  1.00  0.00    -0.257 N 
ATOM     10  H2  UNL     1      -2.968  -2.038  -0.996  1.00  0.00     0.195 HD
BRANCH   9  11
HETATM   11  O1  UNL     1      -4.558  -1.233  -2.032  1.00  0.00    -0.289 OA
ATOM     12  H1  UNL     1      -4.831  -2.017  -2.494  1.00  0.00     0.244 HD
ENDBRANCH   9  11
ENDBRANCH   3   7
ENDBRANCH   1   3
BRANCH   1  13
HETATM   13  C7  UNL     1       0.371  -0.136  -0.220  1.00  0.00     0.082 C 
HETATM   14  C8  UNL     1       0.205  -0.992  -1.438  1.00  0.00     0.025 C 
HETATM   15  C9  UNL     1       1.444  -1.677  -1.888  1.00  0.00     0.004 C 
HETATM   16  C10 UNL     1       2.683  -0.861  -1.896  1.00  0.00     0.033 C 
HETATM   17  C11 UNL     1       2.768   0.255  -0.921  1.00  0.00     0.134 C 
HETATM   18  C15 UNL     1       1.463   0.850  -0.480  1.00  0.00     0.057 C 
BRANCH  17  19
HETATM   19  O2  UNL     1       3.567  -0.102   0.187  1.00  0.00    -0.313 OA
BRANCH  19  20
HETATM   20  C12 UNL     1       4.757   0.565   0.438  1.00  0.00     0.282 C 
HETATM   21  O3  UNL     1       5.095   1.497  -0.361  1.00  0.00    -0.260 OA
BRANCH  20  22
HETATM   22  C13 UNL     1       5.622   0.249   1.555  1.00  0.00     0.072 C 
HETATM   23  C14 UNL     1       5.299  -0.707   2.392  1.00  0.00     0.017 C 
ENDBRANCH  20  22
ENDBRANCH  19  20
ENDBRANCH  17  19
ENDBRANCH   1  13
TORSDOF 9
