REMARK  9 active torsions:
REMARK  status: ('A' for Active; 'I' for Inactive)
REMARK    1  A    between atoms: C16_19  and  N1_20 
REMARK    2  A    between atoms: N1_20  and  C17_21 
REMARK       I    between atoms: N1_20  and  C19_25 
REMARK    3  A    between atoms: C17_21  and  C18_22 
REMARK    4  A    between atoms: C18_22  and  O2_23 
REMARK    5  A    between atoms: C19_25  and  C20_27 
REMARK    6  A    between atoms: C20_27  and  N2_28 
REMARK    7  A    between atoms: N3_31  and  C23_32 
REMARK    8  A    between atoms: C23_32  and  C24_33 
REMARK    9  A    between atoms: C24_33  and  O4_34 
ROOT
HETATM    1  C1  UNL     1       0.761   0.346  -1.472  1.00  0.00     0.018 C 
HETATM    2  C2  UNL     1       1.412  -0.382  -0.385  1.00  0.00    -0.019 C 
HETATM    3  C3  UNL     1       1.718   0.476   0.826  1.00  0.00     0.012 C 
HETATM    4  C4  UNL     1       2.802   1.481   0.484  1.00  0.00     0.010 C 
HETATM    5  C5  UNL     1       4.056   0.739   0.079  1.00  0.00     0.037 C 
HETATM    6  C6  UNL     1       3.707  -0.022  -1.205  1.00  0.00     0.017 C 
HETATM    7  C7  UNL     1       4.956  -0.603  -1.833  1.00  0.00     0.087 C 
HETATM    8 CL1  UNL     1       5.598  -1.990  -0.963  1.00  0.00    -0.125 Cl
HETATM    9  C8  UNL     1       5.960   0.476  -2.100  1.00  0.00     0.024 C 
HETATM   10  C9  UNL     1       5.554   1.827  -1.509  1.00  0.00     0.051 C 
HETATM   11  C10 UNL     1       5.262   1.580  -0.047  1.00  0.00     0.113 C 
HETATM   12  O1  UNL     1       5.265   2.736   0.710  1.00  0.00    -0.368 OA
HETATM   13  C11 UNL     1       5.564   2.441   2.012  1.00  0.00     0.180 C 
HETATM   14  C12 UNL     1       7.005   1.897   2.027  1.00  0.00     0.103 C 
HETATM   15  S1  UNL     1       6.777   0.749   0.600  1.00  0.00    -0.129 SA
HETATM   16  C13 UNL     1       2.735  -1.051  -0.816  1.00  0.00     0.002 C 
HETATM   17  C14 UNL     1       2.240  -1.990  -1.838  1.00  0.00     0.008 C 
HETATM   18  C15 UNL     1       1.005  -2.586  -1.134  1.00  0.00     0.026 C 
HETATM   19  C16 UNL     1       0.688  -1.659  -0.009  1.00  0.00     0.095 C 
ENDROOT
BRANCH  19  20
HETATM   20  N1  UNL     1      -0.644  -1.554   0.426  1.00  0.00    -0.343 N 
HETATM   21  C19 UNL     1      -1.788  -1.387  -0.351  1.00  0.00     0.248 C 
HETATM   22  O3  UNL     1      -1.773  -1.426  -1.594  1.00  0.00    -0.271 OA
BRANCH  20  23
HETATM   23  C17 UNL     1      -0.863  -1.657   1.887  1.00  0.00     0.152 C 
BRANCH  23  24
HETATM   24  C18 UNL     1      -1.034  -3.109   2.293  1.00  0.00     0.184 C 
BRANCH  24  25
HETATM   25  O2  UNL     1       0.117  -3.852   1.962  1.00  0.00    -0.399 OA
ATOM     26  H2  UNL     1       0.010  -4.761   2.216  1.00  0.00     0.209 HD
ENDBRANCH  24  25
ENDBRANCH  23  24
ENDBRANCH  20  23
BRANCH  21  27
HETATM   27  C20 UNL     1      -3.115  -1.146   0.318  1.00  0.00     0.374 C 
BRANCH  27  28
HETATM   28  N2  UNL     1      -4.167  -0.984  -0.624  1.00  0.00     0.100 N 
HETATM   29  C21 UNL     1      -4.062   0.246  -1.330  1.00  0.00     0.303 C 
HETATM   30  C22 UNL     1      -4.763   1.341  -0.517  1.00  0.00     0.302 C 
HETATM   31  N3  UNL     1      -6.183   0.998  -0.509  1.00  0.00     0.093 N 
HETATM   32  C25 UNL     1      -6.318  -0.174   0.296  1.00  0.00     0.302 C 
HETATM   33  C26 UNL     1      -5.438  -1.322  -0.092  1.00  0.00     0.303 C 
BRANCH  31  34
HETATM   34  C23 UNL     1      -6.843   2.106   0.155  1.00  0.00     0.298 C 
BRANCH  34  35
HETATM   35  C24 UNL     1      -8.316   1.854   0.199  1.00  0.00     0.194 C 
BRANCH  35  36
HETATM   36  O4  UNL     1      -8.911   2.956   0.843  1.00  0.00    -0.399 OA
ATOM     37  H4  UNL     1      -9.847   2.796   0.871  1.00  0.00     0.209 HD
ENDBRANCH  35  36
ENDBRANCH  34  35
ENDBRANCH  31  34
ENDBRANCH  27  28
ENDBRANCH  21  27
ENDBRANCH  19  20
TORSDOF 9
