REMARK  5 active torsions:
REMARK  status: ('A' for Active; 'I' for Inactive)
REMARK    1  A    between atoms: C7_7  and  O1_8 
REMARK    2  A    between atoms: C8_10  and  N1_11 
REMARK    3  A    between atoms: C9_13  and  C10_14 
REMARK    4  A    between atoms: C13_19  and  O2_20 
REMARK    5  A    between atoms: O2_20  and  C14_21 
ROOT
HETATM    1  C1  UNL     1       1.538  -2.294  -2.793  1.00  0.00     0.018 C 
HETATM    2  C2  UNL     1       0.556  -2.062  -2.134  1.00  0.00    -0.075 C 
HETATM    3  C3  UNL     1      -0.625  -1.801  -1.313  1.00  0.00     0.053 A 
HETATM    4  C4  UNL     1      -1.629  -2.743  -1.415  1.00  0.00     0.033 A 
HETATM    5  C5  UNL     1      -2.767  -2.596  -0.651  1.00  0.00    -0.025 A 
HETATM    6  C6  UNL     1      -3.844  -3.616  -0.767  1.00  0.00     0.051 C 
HETATM    7  C7  UNL     1      -2.878  -1.515   0.194  1.00  0.00     0.101 A 
HETATM    8  C8  UNL     1      -1.883  -0.577   0.297  1.00  0.00     0.101 A 
HETATM    9  C13 UNL     1      -0.716  -0.719  -0.478  1.00  0.00     0.124 A 
ENDROOT
BRANCH   9  10
HETATM   10  O2  UNL     1       0.236   0.199  -0.375  1.00  0.00    -0.306 OA
BRANCH  10  11
HETATM   11  C14 UNL     1       1.485   0.432  -0.043  1.00  0.00     0.088 A 
HETATM   12  C15 UNL     1       2.344   1.048  -0.966  1.00  0.00    -0.027 A 
HETATM   13  C16 UNL     1       1.822   1.494  -2.278  1.00  0.00     0.051 C 
HETATM   14  C17 UNL     1       3.665   1.323  -0.716  1.00  0.00     0.016 A 
HETATM   15  C18 UNL     1       4.204   0.997   0.482  1.00  0.00    -0.061 A 
HETATM   16  C19 UNL     1       5.633   1.290   0.762  1.00  0.00     0.048 C 
HETATM   17  C20 UNL     1       3.429   0.401   1.419  1.00  0.00     0.016 A 
HETATM   18  C21 UNL     1       2.076   0.119   1.160  1.00  0.00    -0.027 A 
HETATM   19  C22 UNL     1       1.301  -0.540   2.202  1.00  0.00     0.051 C 
ENDBRANCH  10  11
ENDBRANCH   9  10
BRANCH   8  20
HETATM   20  N1  UNL     1      -2.048   0.566   1.173  1.00  0.00    -0.363 N 
HETATM   21  C9  UNL     1      -2.811   1.501   0.717  1.00  0.00     0.095 C 
ATOM     22  H1  UNL     1      -1.594   0.627   2.084  1.00  0.00     0.165 HD
BRANCH  21  23
HETATM   23  C10 UNL     1      -3.046   2.729   1.549  1.00  0.00     0.237 C 
HETATM   24  C11 UNL     1      -2.492   3.917   0.907  1.00  0.00     0.084 C 
HETATM   25  N2  UNL     1      -2.060   4.868   0.404  1.00  0.00    -0.195 NA
HETATM   26  C12 UNL     1      -4.498   2.965   1.694  1.00  0.00     0.084 C 
HETATM   27  N3  UNL     1      -5.627   3.163   1.795  1.00  0.00    -0.195 NA
ENDBRANCH  21  23
ENDBRANCH   8  20
BRANCH   7  28
HETATM   28  O1  UNL     1      -4.033  -1.385   0.956  1.00  0.00    -0.358 OA
ATOM     29  H1  UNL     1      -4.110  -0.639   1.539  1.00  0.00     0.217 HD
ENDBRANCH   7  28
TORSDOF 5
