REMARK  5 active torsions:
REMARK  status: ('A' for Active; 'I' for Inactive)
REMARK    1  A    between atoms: C2_2  and  C4_4 
REMARK    2  A    between atoms: C4_4  and  C5_5 
REMARK    3  A    between atoms: C5_5  and  N2_10 
REMARK    4  A    between atoms: N1_6  and  O1_8 
REMARK    5  A    between atoms: C8_13  and  C9_14 
ROOT
HETATM    1  N2  UNL     1       0.381  -0.036  -0.333  1.00  0.00    -0.369 N 
HETATM    2  C6  UNL     1       0.733   1.382  -0.320  1.00  0.00     0.125 C 
HETATM    3  C7  UNL     1       1.987   1.508   0.520  1.00  0.00     0.033 C 
HETATM    4  C8  UNL     1       3.026   0.599  -0.093  1.00  0.00     0.096 C 
HETATM    5  C10 UNL     1       2.657  -0.816   0.184  1.00  0.00     0.033 C 
HETATM    6  C11 UNL     1       1.179  -1.045   0.329  1.00  0.00     0.125 C 
ENDROOT
BRANCH   1   7
HETATM    7  C5  UNL     1      -0.791  -0.430  -1.025  1.00  0.00     0.099 C 
HETATM    8  N1  UNL     1      -0.855  -0.157  -2.279  1.00  0.00    -0.257 N 
ATOM      9  H1  UNL     1      -0.071   0.325  -2.719  1.00  0.00     0.195 HD
BRANCH   7  10
HETATM   10  C4  UNL     1      -1.924  -1.124  -0.400  1.00  0.00     0.082 C 
BRANCH  10  11
HETATM   11  C2  UNL     1      -2.573  -0.357   0.712  1.00  0.00    -0.016 C 
HETATM   12  C1  UNL     1      -3.127   0.961   0.300  1.00  0.00     0.010 C 
HETATM   13  C3  UNL     1      -3.707  -1.209   1.253  1.00  0.00     0.010 C 
ENDBRANCH  10  11
ENDBRANCH   7  10
BRANCH   8  14
HETATM   14  O1  UNL     1      -1.946  -0.494  -3.048  1.00  0.00    -0.288 OA
ATOM     15  H1  UNL     1      -1.993  -0.292  -3.975  1.00  0.00     0.244 HD
ENDBRANCH   8  14
ENDBRANCH   1   7
BRANCH   4  16
HETATM   16  C9  UNL     1       4.392   0.969   0.446  1.00  0.00     0.391 C 
HETATM   17  F1  UNL     1       4.669   2.281   0.117  1.00  0.00    -0.171 F 
HETATM   18  F2  UNL     1       5.386   0.194  -0.077  1.00  0.00    -0.171 F 
HETATM   19  F3  UNL     1       4.372   0.810   1.829  1.00  0.00    -0.171 F 
ENDBRANCH   4  16
TORSDOF 5
