REMARK  5 active torsions:
REMARK  status: ('A' for Active; 'I' for Inactive)
REMARK    1  A    between atoms: C2_2  and  C3_3 
REMARK    2  A    between atoms: C3_3  and  C4_4 
REMARK    3  A    between atoms: N1_7  and  C7_8 
REMARK    4  A    between atoms: N2_13  and  N3_15 
REMARK       I    between atoms: N3_15  and  C12_17 
REMARK    5  A    between atoms: C12_17  and  C13_19 
ROOT
HETATM    1  C1  UNL     1       0.301   2.168  -3.207  1.00  0.00     0.065 C 
HETATM    2  C2  UNL     1       0.806   1.373  -2.071  1.00  0.00     0.000 C 
HETATM    3  N2  UNL     1       1.769   1.833  -1.364  1.00  0.00    -0.307 N 
ATOM      4  H2  UNL     1       2.165   2.742  -1.604  1.00  0.00     0.186 HD
ENDROOT
BRANCH   2   5
HETATM    5  C3  UNL     1       0.216   0.072  -1.752  1.00  0.00     0.058 C 
BRANCH   5   6
HETATM    6  C4  UNL     1      -1.264   0.137  -1.435  1.00  0.00    -0.006 C 
HETATM    7  C5  UNL     1      -1.507   1.009  -0.271  1.00  0.00     0.035 C 
HETATM    8  C6  UNL     1      -2.754   0.702   0.506  1.00  0.00     0.273 C 
HETATM    9  N1  UNL     1      -3.663  -0.184  -0.206  1.00  0.00     0.092 N 
HETATM   10  C10 UNL     1      -2.943  -1.426  -0.403  1.00  0.00     0.273 C 
HETATM   11  C11 UNL     1      -1.753  -1.273  -1.298  1.00  0.00     0.035 C 
BRANCH   9  12
HETATM   12  C7  UNL     1      -4.762  -0.464   0.700  1.00  0.00     0.215 C 
HETATM   13  C8  UNL     1      -5.784  -1.389   0.066  1.00  0.00     0.042 C 
HETATM   14  C9  UNL     1      -5.411   0.807   1.209  1.00  0.00     0.042 C 
ENDBRANCH   9  12
ENDBRANCH   5   6
ENDBRANCH   2   5
BRANCH   3  15
HETATM   15  N3  UNL     1       2.300   1.128  -0.267  1.00  0.00    -0.270 N 
HETATM   16  C12 UNL     1       3.333   0.179  -0.401  1.00  0.00     0.240 C 
HETATM   17  O1  UNL     1       3.802  -0.051  -1.536  1.00  0.00    -0.271 OA
ATOM     18  H3  UNL     1       1.922   1.312   0.662  1.00  0.00     0.190 HD
BRANCH  16  19
HETATM   19  C13 UNL     1       3.853  -0.530   0.770  1.00  0.00     0.079 C 
HETATM   20  C14 UNL     1       4.946  -1.499   0.447  1.00  0.00     0.014 C 
HETATM   21  C15 UNL     1       6.065  -1.173   1.419  1.00  0.00     0.001 C 
HETATM   22  C16 UNL     1       5.911   0.344   1.537  1.00  0.00     0.001 C 
HETATM   23  C17 UNL     1       4.419   0.468   1.755  1.00  0.00     0.014 C 
ENDBRANCH  16  19
ENDBRANCH   3  15
TORSDOF 5
