REMARK  6 active torsions:
REMARK  status: ('A' for Active; 'I' for Inactive)
REMARK    1  A    between atoms: O1_1  and  C1_3 
REMARK    2  A    between atoms: C1_3  and  C2_4 
REMARK    3  A    between atoms: C2_4  and  C3_5 
REMARK    4  A    between atoms: C3_5  and  C4_6 
REMARK    5  A    between atoms: C4_6  and  C5_7 
REMARK    6  A    between atoms: N1_14  and  C11_15 
ROOT
HETATM    1  C5  UNL     1      -0.693   0.093  -0.177  1.00  0.00     0.018 C 
HETATM    2  C6  UNL     1      -1.619  -0.920   0.373  1.00  0.00     0.171 C 
HETATM    3  O2  UNL     1      -1.316  -1.187   1.690  1.00  0.00    -0.379 OA
HETATM    4  C7  UNL     1      -0.372  -2.171   1.698  1.00  0.00     0.179 C 
HETATM    5  C8  UNL     1      -0.441  -2.885   0.352  1.00  0.00    -0.008 A 
HETATM    6  C9  UNL     1       0.690  -2.780  -0.585  1.00  0.00     0.057 C 
HETATM    7  C10 UNL     1       0.691  -1.497  -1.417  1.00  0.00     0.065 C 
HETATM    8  N1  UNL     1       0.535  -0.304  -0.736  1.00  0.00    -0.360 N 
HETATM    9  C17 UNL     1      -1.723  -3.558   0.137  1.00  0.00     0.020 A 
HETATM   10  C18 UNL     1      -1.615  -2.221  -0.393  1.00  0.00     0.032 A 
ENDROOT
BRANCH   1  11
HETATM   11  C4  UNL     1      -1.401   1.179  -0.927  1.00  0.00     0.055 C 
BRANCH  11  12
HETATM   12  C3  UNL     1      -2.305   2.112  -0.249  1.00  0.00     0.008 C 
BRANCH  12  13
HETATM   13  C2  UNL     1      -3.506   1.713   0.482  1.00  0.00     0.026 C 
BRANCH  13  14
HETATM   14  C1  UNL     1      -4.166   3.037   0.969  1.00  0.00     0.164 C 
BRANCH  14  15
HETATM   15  O1  UNL     1      -4.481   3.826  -0.114  1.00  0.00    -0.401 OA
ATOM     16  H1  UNL     1      -4.884   4.634   0.183  1.00  0.00     0.209 HD
ENDBRANCH  14  15
ENDBRANCH  13  14
ENDBRANCH  12  13
ENDBRANCH  11  12
ENDBRANCH   1  11
BRANCH   8  17
HETATM   17  C11 UNL     1       1.578   0.591  -0.571  1.00  0.00     0.088 C 
HETATM   18  C12 UNL     1       2.004   0.774   0.862  1.00  0.00     0.026 C 
HETATM   19  C13 UNL     1       3.382   1.427   0.927  1.00  0.00     0.002 C 
HETATM   20  C14 UNL     1       4.405   0.411   0.511  1.00  0.00     0.000 C 
HETATM   21  C15 UNL     1       3.858  -0.431  -0.632  1.00  0.00     0.002 C 
HETATM   22  C16 UNL     1       2.822   0.394  -1.381  1.00  0.00     0.026 C 
ENDBRANCH   8  17
TORSDOF 6
