REMARK  5 active torsions:
REMARK  status: ('A' for Active; 'I' for Inactive)
REMARK    1  A    between atoms: C2_2  and  N1_4 
REMARK    2  A    between atoms: N1_4  and  C4_5 
REMARK    3  A    between atoms: N1_4  and  C12_17 
REMARK    4  A    between atoms: C4_5  and  C5_6 
REMARK       I    between atoms: C5_6  and  N2_8 
REMARK    5  A    between atoms: N2_8  and  C6_10 
ROOT
HETATM    1  C6  UNL     1      -3.708   0.685   0.076  1.00  0.00     0.122 C 
HETATM    2  C7  UNL     1      -3.895   1.368  -1.181  1.00  0.00     0.091 C 
HETATM    3  N3  UNL     1      -4.024   1.915  -2.166  1.00  0.00    -0.195 NA
HETATM    4  C8  UNL     1      -4.689   1.160   1.120  1.00  0.00     0.046 C 
HETATM    5  C9  UNL     1      -6.021   0.646   0.593  1.00  0.00     0.004 C 
HETATM    6  C10 UNL     1      -5.671  -0.492  -0.363  1.00  0.00     0.004 C 
HETATM    7  C11 UNL     1      -4.183  -0.767  -0.085  1.00  0.00     0.046 C 
ENDROOT
BRANCH   1   8
HETATM    8  N2  UNL     1      -2.355   0.765   0.567  1.00  0.00    -0.338 N 
HETATM    9  C5  UNL     1      -1.262   0.236  -0.163  1.00  0.00     0.237 C 
HETATM   10  O1  UNL     1      -1.469  -0.314  -1.260  1.00  0.00    -0.272 OA
ATOM     11  H2  UNL     1      -2.180   1.215   1.465  1.00  0.00     0.164 HD
BRANCH   9  12
HETATM   12  C4  UNL     1       0.089   0.353   0.407  1.00  0.00     0.230 C 
BRANCH  12  13
HETATM   13  N1  UNL     1       1.142  -0.268  -0.368  1.00  0.00    -0.353 N 
BRANCH  13  14
HETATM   14  C2  UNL     1       1.120  -1.665  -0.336  1.00  0.00    -0.018 C 
HETATM   15  C1  UNL     1       1.370  -2.335   1.010  1.00  0.00     0.063 C 
HETATM   16  C3  UNL     1       1.826  -2.415  -1.433  1.00  0.00     0.063 C 
ENDBRANCH  13  14
BRANCH  13  17
HETATM   17  C12 UNL     1       2.284   0.507  -0.467  1.00  0.00    -0.011 C 
HETATM   18  C13 UNL     1       3.171   0.452  -1.627  1.00  0.00     0.052 C 
HETATM   19  C14 UNL     1       4.423   1.323  -1.471  1.00  0.00     0.006 C 
HETATM   20  C15 UNL     1       5.137   0.865  -0.194  1.00  0.00     0.001 C 
HETATM   21  C16 UNL     1       4.201   1.371   0.906  1.00  0.00     0.006 C 
HETATM   22  C17 UNL     1       2.993   0.471   0.885  1.00  0.00     0.052 C 
ENDBRANCH  13  17
ENDBRANCH  12  13
ENDBRANCH   9  12
ENDBRANCH   1   8
TORSDOF 5
