REMARK  7 active torsions:
REMARK  status: ('A' for Active; 'I' for Inactive)
REMARK    1  A    between atoms: C2_2  and  C3_3 
REMARK    2  A    between atoms: C3_3  and  C4_4 
REMARK    3  A    between atoms: C4_4  and  C5_5 
REMARK    4  A    between atoms: C5_5  and  N1_7 
REMARK    5  A    between atoms: C9_12  and  C10_13 
REMARK    6  A    between atoms: C10_13  and  N2_14 
REMARK    7  A    between atoms: N2_14  and  C11_17 
ROOT
HETATM    1  N1  UNL     1       1.575  -0.495   0.346  1.00  0.00    -0.370 N 
HETATM    2  C6  UNL     1       1.529  -1.270  -0.884  1.00  0.00     0.155 C 
HETATM    3  C7  UNL     1       0.188  -1.965  -1.015  1.00  0.00     0.136 C 
HETATM    4  C8  UNL     1       0.020  -3.064   0.020  1.00  0.00     0.041 C 
HETATM    5  O1  UNL     1      -0.870  -1.089  -1.019  1.00  0.00    -0.376 OA
HETATM    6  C9  UNL     1      -0.753   0.024  -0.251  1.00  0.00     0.165 C 
HETATM    7  C15 UNL     1       0.306   0.045   0.787  1.00  0.00     0.157 C 
ENDROOT
BRANCH   6   8
HETATM    8  C10 UNL     1      -2.062   0.373   0.476  1.00  0.00     0.266 C 
BRANCH   8   9
HETATM    9  N2  UNL     1      -3.083   0.604  -0.506  1.00  0.00    -0.065 N 
ATOM     10  H22 UNL     1      -2.796   1.323  -1.170  1.00  0.00     0.278 HD
ATOM     11  H21 UNL     1      -3.163  -0.187  -1.144  1.00  0.00     0.278 HD
BRANCH   9  12
HETATM   12  C11 UNL     1      -4.347   0.921   0.080  1.00  0.00     0.115 C 
HETATM   13  C12 UNL     1      -4.847  -0.245   0.917  1.00  0.00     0.045 C 
HETATM   14  C13 UNL     1      -5.347   1.061  -1.076  1.00  0.00     0.045 C 
HETATM   15  C14 UNL     1      -4.398   2.198   0.849  1.00  0.00     0.045 C 
ENDBRANCH   9  12
ENDBRANCH   8   9
ENDBRANCH   6   8
BRANCH   1  16
HETATM   16  C5  UNL     1       2.763  -0.288   1.060  1.00  0.00     0.075 C 
HETATM   17  S1  UNL     1       2.680   0.615   2.444  1.00  0.00    -0.066 SA
BRANCH  16  18
HETATM   18  C4  UNL     1       4.084  -0.802   0.690  1.00  0.00     0.069 C 
BRANCH  18  19
HETATM   19  C3  UNL     1       4.626  -0.323  -0.614  1.00  0.00     0.006 C 
BRANCH  19  20
HETATM   20  C2  UNL     1       4.790   1.169  -0.690  1.00  0.00    -0.004 C 
HETATM   21  C1  UNL     1       5.738   1.690   0.366  1.00  0.00     0.005 C 
ENDBRANCH  19  20
ENDBRANCH  18  19
ENDBRANCH  16  18
ENDBRANCH   1  16
TORSDOF 7
