REMARK  11 active torsions:
REMARK  status: ('A' for Active; 'I' for Inactive)
REMARK    1  A    between atoms: C3_4  and  C4_5 
REMARK    2  A    between atoms: C4_5  and  C5_6 
REMARK    3  A    between atoms: C4_5  and  C6_9 
REMARK    4  A    between atoms: C5_6  and  O2_7 
REMARK    5  A    between atoms: C6_9  and  O3_10 
REMARK    6  A    between atoms: C9_15  and  C11_17 
REMARK    7  A    between atoms: C11_17  and  O5_19 
REMARK    8  A    between atoms: C13_21  and  O6_22 
REMARK    9  A    between atoms: C13_21  and  C14_24 
REMARK   10  A    between atoms: C14_24  and  C15_25 
REMARK   11  A    between atoms: C15_25  and  C16_26 
ROOT
HETATM    1  C1  UNL     1       0.950  -0.900  -2.768  1.00  0.00     0.048 C 
HETATM    2  C2  UNL     1       1.326  -0.666  -1.524  1.00  0.00     0.060 C 
HETATM    3  O1  UNL     1       2.396  -1.383  -0.946  1.00  0.00    -0.348 OA
HETATM    4  C3  UNL     1       3.060  -0.541  -0.020  1.00  0.00     0.139 C 
HETATM    5  C7  UNL     1       2.117   0.569   0.335  1.00  0.00     0.065 C 
HETATM    6  C8  UNL     1       0.860   0.245  -0.501  1.00  0.00     0.085 C 
HETATM    7  S1  UNL     1       0.211   1.818  -1.042  1.00  0.00    -0.123 SA
HETATM    8  C9  UNL     1      -1.276   1.842   0.043  1.00  0.00     0.132 C 
HETATM    9  C10 UNL     1      -2.326   2.584  -0.692  1.00  0.00     0.042 C 
HETATM   10  C13 UNL     1      -1.537   0.322   0.148  1.00  0.00     0.126 C 
HETATM   11  C19 UNL     1      -0.211  -0.270   0.400  1.00  0.00    -0.024 C 
HETATM   12  C20 UNL     1       0.092  -1.162   1.337  1.00  0.00     0.020 C 
ENDROOT
BRANCH   4  13
HETATM   13  C4  UNL     1       4.310  -0.008  -0.666  1.00  0.00     0.062 C 
BRANCH  13  14
HETATM   14  C5  UNL     1       5.191  -1.202  -1.039  1.00  0.00     0.173 C 
BRANCH  14  15
HETATM   15  O2  UNL     1       5.476  -1.875   0.136  1.00  0.00    -0.400 OA
ATOM     16  H2  UNL     1       6.023  -2.616  -0.096  1.00  0.00     0.209 HD
ENDBRANCH  14  15
ENDBRANCH  13  14
BRANCH  13  17
HETATM   17  C6  UNL     1       5.119   0.814   0.320  1.00  0.00     0.173 C 
BRANCH  17  18
HETATM   18  O3  UNL     1       6.272   1.304  -0.283  1.00  0.00    -0.400 OA
ATOM     19  H3  UNL     1       6.779   1.819   0.334  1.00  0.00     0.209 HD
ENDBRANCH  17  18
ENDBRANCH  13  17
ENDBRANCH   4  13
BRANCH   8  20
HETATM   20  C11 UNL     1      -0.996   2.437   1.355  1.00  0.00     0.280 C 
HETATM   21  O4  UNL     1       0.142   2.877   1.683  1.00  0.00    -0.263 OA
BRANCH  20  22
HETATM   22  O5  UNL     1      -1.981   2.550   2.321  1.00  0.00    -0.325 OA
HETATM   23  C12 UNL     1      -1.726   3.121   3.590  1.00  0.00     0.213 C 
ENDBRANCH  20  22
ENDBRANCH   8  20
BRANCH  10  24
HETATM   24  O6  UNL     1      -2.330   0.226   1.279  1.00  0.00    -0.379 OA
ATOM     25  H6  UNL     1      -2.490  -0.708   1.344  1.00  0.00     0.211 HD
ENDBRANCH  10  24
BRANCH  10  26
HETATM   26  C14 UNL     1      -2.281  -0.073  -1.041  1.00  0.00     0.018 C 
BRANCH  26  27
HETATM   27  C15 UNL     1      -2.746  -1.406  -1.365  1.00  0.00     0.001 C 
BRANCH  27  28
HETATM   28  C16 UNL     1      -3.731  -2.146  -0.580  1.00  0.00    -0.088 C 
HETATM   29  C17 UNL     1      -5.072  -1.463  -0.406  1.00  0.00     0.043 C 
HETATM   30  C18 UNL     1      -3.326  -2.796   0.687  1.00  0.00     0.043 C 
ENDBRANCH  27  28
ENDBRANCH  26  27
ENDBRANCH  10  26
TORSDOF 11
