REMARK  6 active torsions:
REMARK  status: ('A' for Active; 'I' for Inactive)
REMARK    1  A    between atoms: C2_2  and  C3_3 
REMARK    2  A    between atoms: C3_3  and  O1_4 
REMARK    3  A    between atoms: O1_4  and  C4_5 
REMARK       I    between atoms: C4_5  and  N1_7 
REMARK    4  A    between atoms: N1_7  and  C5_9 
REMARK    5  A    between atoms: C7_11  and  C8_12 
REMARK    6  A    between atoms: C14_20  and  N3_21 
ROOT
HETATM    1  C5  UNL     1       0.688  -0.735   0.553  1.00  0.00     0.155 A 
HETATM    2  C6  UNL     1       0.471   0.617   0.530  1.00  0.00     0.071 A 
HETATM    3  C7  UNL     1      -0.766   1.196   0.196  1.00  0.00     0.010 A 
HETATM    4  C12 UNL     1      -1.778   0.355  -0.112  1.00  0.00     0.107 A 
HETATM    5  C13 UNL     1      -3.116   0.768  -0.404  1.00  0.00     0.104 C 
HETATM    6  N2  UNL     1      -4.207   1.079  -0.612  1.00  0.00    -0.191 NA
HETATM    7  C14 UNL     1      -1.506  -1.022  -0.075  1.00  0.00     0.170 A 
HETATM    8  O4  UNL     1      -0.328  -1.496   0.244  1.00  0.00    -0.275 OA
ENDROOT
BRANCH   3   9
HETATM    9  C8  UNL     1      -0.890   2.654   0.251  1.00  0.00     0.016 A 
HETATM   10  C9  UNL     1      -1.721   3.565  -0.290  1.00  0.00     0.020 A 
HETATM   11  C10 UNL     1      -1.490   4.873  -0.063  1.00  0.00     0.008 A 
HETATM   12  C11 UNL     1      -0.419   5.202   0.706  1.00  0.00     0.050 A 
HETATM   13  S1  UNL     1       0.241   3.693   1.095  1.00  0.00    -0.101 SA
ENDBRANCH   3   9
BRANCH   7  14
HETATM   14  N3  UNL     1      -2.590  -1.905  -0.408  1.00  0.00    -0.356 N 
HETATM   15  C15 UNL     1      -2.860  -2.357  -1.737  1.00  0.00     0.151 C 
HETATM   16  C16 UNL     1      -4.330  -2.449  -2.017  1.00  0.00     0.187 C 
HETATM   17  O3  UNL     1      -5.091  -2.821  -0.934  1.00  0.00    -0.388 OA
HETATM   18  C17 UNL     1      -4.382  -3.387   0.100  1.00  0.00     0.187 C 
HETATM   19  C18 UNL     1      -3.442  -2.348   0.671  1.00  0.00     0.151 C 
ENDBRANCH   7  14
BRANCH   1  20
HETATM   20  N1  UNL     1       1.837  -1.257   0.864  1.00  0.00    -0.282 N 
HETATM   21  C4  UNL     1       2.963  -0.489   1.205  1.00  0.00     0.366 C 
HETATM   22  O2  UNL     1       3.397  -0.426   2.373  1.00  0.00    -0.238 OA
ATOM     23  H1  UNL     1       1.925  -2.273   0.860  1.00  0.00     0.173 HD
BRANCH  21  24
HETATM   24  O1  UNL     1       3.617   0.226   0.220  1.00  0.00    -0.304 OA
BRANCH  24  25
HETATM   25  C3  UNL     1       4.740   1.031   0.389  1.00  0.00     0.180 C 
BRANCH  25  26
HETATM   26  C2  UNL     1       5.957   0.330   0.911  1.00  0.00     0.022 C 
HETATM   27  C1  UNL     1       6.405  -0.783  -0.007  1.00  0.00     0.007 C 
ENDBRANCH  25  26
ENDBRANCH  24  25
ENDBRANCH  21  24
ENDBRANCH   1  20
TORSDOF 6
