REMARK  7 active torsions:
REMARK  status: ('A' for Active; 'I' for Inactive)
REMARK    1  A    between atoms: C1_4  and  N2_5 
REMARK    2  A    between atoms: N2_5  and  C2_6 
REMARK    3  A    between atoms: C2_6  and  C3_7 
REMARK    4  A    between atoms: C2_6  and  C9_13 
REMARK    5  A    between atoms: C12_16  and  C13_17 
REMARK       I    between atoms: C13_17  and  N3_19 
REMARK    6  A    between atoms: N3_19  and  C14_21 
REMARK    7  A    between atoms: C24_31  and  C25_32 
ROOT
HETATM    1  C9  UNL     1       2.294  -1.168   0.360  1.00  0.00     0.074 A 
HETATM    2  C10 UNL     1       1.609  -2.391   0.480  1.00  0.00     0.034 A 
HETATM    3  C11 UNL     1       0.239  -2.431   0.551  1.00  0.00     0.022 A 
HETATM    4  C12 UNL     1      -0.507  -1.270   0.506  1.00  0.00     0.059 A 
HETATM    5  C20 UNL     1       0.175  -0.100   0.389  1.00  0.00     0.059 A 
HETATM    6  C21 UNL     1      -0.511   1.168   0.367  1.00  0.00    -0.008 A 
HETATM    7  C22 UNL     1      -0.132   2.225   1.204  1.00  0.00     0.014 A 
HETATM    8  C23 UNL     1      -0.796   3.429   1.160  1.00  0.00     0.016 A 
HETATM    9  C24 UNL     1      -1.854   3.645   0.296  1.00  0.00     0.004 A 
HETATM   10  C26 UNL     1      -2.213   2.609  -0.514  1.00  0.00     0.016 A 
HETATM   11  C27 UNL     1      -1.556   1.374  -0.490  1.00  0.00     0.014 A 
HETATM   12  N6  UNL     1       1.534  -0.087   0.321  1.00  0.00    -0.352 N 
ATOM     13  H6  UNL     1       1.997   0.817   0.234  1.00  0.00     0.166 HD
ENDROOT
BRANCH   1  14
HETATM   14  C2  UNL     1       3.769  -1.240   0.298  1.00  0.00     0.145 C 
BRANCH  14  15
HETATM   15  N2  UNL     1       4.287  -2.362   0.387  1.00  0.00    -0.398 NA
BRANCH  15  16
HETATM   16  C1  UNL     1       5.156  -3.317   0.442  1.00  0.00     0.268 C 
HETATM   17  N1  UNL     1       5.269  -4.146   1.461  1.00  0.00    -0.385 N 
ATOM     18  H12 UNL     1       4.627  -4.012   2.242  1.00  0.00     0.157 HD
ATOM     19  H11 UNL     1       5.955  -4.900   1.504  1.00  0.00     0.157 HD
ENDBRANCH  15  16
ENDBRANCH  14  15
BRANCH  14  20
HETATM   20  C3  UNL     1       4.619  -0.063   0.139  1.00  0.00     0.007 A 
HETATM   21  C4  UNL     1       4.182   1.220  -0.011  1.00  0.00     0.015 A 
HETATM   22  C5  UNL     1       5.057   2.322  -0.152  1.00  0.00     0.001 A 
HETATM   23  C6  UNL     1       6.399   2.135  -0.142  1.00  0.00     0.000 A 
HETATM   24  C7  UNL     1       6.864   0.859   0.007  1.00  0.00     0.001 A 
HETATM   25  C8  UNL     1       6.010  -0.221   0.145  1.00  0.00     0.015 A 
ENDBRANCH  14  20
ENDBRANCH   1  14
BRANCH   4  26
HETATM   26  C13 UNL     1      -1.983  -1.379   0.581  1.00  0.00     0.258 C 
HETATM   27  O1  UNL     1      -2.604  -0.771   1.487  1.00  0.00    -0.267 OA
HETATM   28  N3  UNL     1      -2.632  -2.168  -0.376  1.00  0.00    -0.323 N 
ATOM     29  H3  UNL     1      -2.019  -2.611  -1.060  1.00  0.00     0.169 HD
BRANCH  28  30
HETATM   30  C14 UNL     1      -4.005  -2.441  -0.535  1.00  0.00     0.035 A 
HETATM   31  C15 UNL     1      -4.441  -3.230  -1.598  1.00  0.00     0.029 A 
HETATM   32  C16 UNL     1      -5.745  -3.544  -1.832  1.00  0.00     0.002 A 
HETATM   33  C17 UNL     1      -6.721  -3.077  -0.994  1.00  0.00     0.000 A 
HETATM   34  C18 UNL     1      -6.359  -2.292   0.074  1.00  0.00     0.002 A 
HETATM   35  C19 UNL     1      -5.004  -1.984   0.291  1.00  0.00     0.029 A 
ENDBRANCH  28  30
ENDBRANCH   4  26
BRANCH   9  36
HETATM   36  C25 UNL     1      -2.535   4.925   0.292  1.00  0.00     0.120 C 
HETATM   37  N4  UNL     1      -3.516   5.189  -0.487  1.00  0.00    -0.387 N 
ATOM     38  H42 UNL     1      -3.813   4.452  -1.126  1.00  0.00     0.157 HD
ATOM     39  H41 UNL     1      -3.995   6.089  -0.490  1.00  0.00     0.157 HD
HETATM   40  N5  UNL     1      -2.119   5.956   1.186  1.00  0.00    -0.082 NA
ENDBRANCH   9  36
TORSDOF 7
