REMARK  6 active torsions:
REMARK  status: ('A' for Active; 'I' for Inactive)
REMARK    1  A    between atoms: C2_2  and  C3_3 
REMARK    2  A    between atoms: C3_3  and  O1_4 
REMARK    3  A    between atoms: C3_3  and  N1_6 
REMARK    4  A    between atoms: C10_13  and  O2_14 
REMARK    5  A    between atoms: C11_16  and  N2_17 
REMARK       I    between atoms: N2_17  and  C12_19 
REMARK    6  A    between atoms: C12_19  and  C13_21 
ROOT
HETATM    1  N1  UNL     1       3.415  -0.848  -0.296  1.00  0.00    -0.360 N 
HETATM    2  C4  UNL     1       3.667  -2.324  -0.321  1.00  0.00     0.125 C 
HETATM    3  C5  UNL     1       2.686  -2.999   0.604  1.00  0.00     0.020 C 
HETATM    4  C6  UNL     1       2.474  -2.266   1.882  1.00  0.00     0.008 C 
HETATM    5  C7  UNL     1       2.136  -0.862   1.691  1.00  0.00     0.009 C 
HETATM    6  C8  UNL     1       0.658  -0.525   1.906  1.00  0.00     0.014 C 
HETATM    7  C9  UNL     1       0.649   0.857   1.300  1.00  0.00     0.023 C 
HETATM    8  C10 UNL     1      -0.681   1.455   1.134  1.00  0.00     0.145 C 
HETATM    9  C11 UNL     1      -1.397   1.240  -0.145  1.00  0.00     0.113 C 
HETATM   10  C17 UNL     1      -0.611   0.393  -1.118  1.00  0.00     0.028 C 
HETATM   11  C18 UNL     1       0.803   0.904  -1.213  1.00  0.00     0.009 C 
HETATM   12  C19 UNL     1       1.549   0.815   0.094  1.00  0.00     0.015 C 
HETATM   13  C20 UNL     1       2.146  -0.540   0.175  1.00  0.00     0.094 C 
ENDROOT
BRANCH   9  14
HETATM   14  N2  UNL     1      -2.662   0.571   0.093  1.00  0.00    -0.352 N 
HETATM   15  C12 UNL     1      -3.905   1.128  -0.306  1.00  0.00     0.247 C 
HETATM   16  O3  UNL     1      -3.913   2.244  -0.886  1.00  0.00    -0.271 OA
ATOM     17  H2  UNL     1      -2.658  -0.333   0.565  1.00  0.00     0.163 HD
BRANCH  15  18
HETATM   18  C13 UNL     1      -5.164   0.414  -0.046  1.00  0.00     0.213 C 
HETATM   19  C14 UNL     1      -5.246  -0.911  -0.745  1.00  0.00     0.043 C 
HETATM   20  C15 UNL     1      -6.708  -1.049  -1.097  1.00  0.00     0.029 C 
HETATM   21  C16 UNL     1      -7.257   0.319  -0.860  1.00  0.00     0.168 C 
HETATM   22  O4  UNL     1      -6.219   1.147  -0.519  1.00  0.00    -0.376 OA
ENDBRANCH  15  18
ENDBRANCH   9  14
BRANCH   8  23
HETATM   23  O2  UNL     1      -0.587   2.854   1.334  1.00  0.00    -0.393 OA
ATOM     24  H2  UNL     1      -1.448   3.241   1.227  1.00  0.00     0.210 HD
ENDBRANCH   8  23
BRANCH   1  25
HETATM   25  C3  UNL     1       4.460  -0.063  -0.734  1.00  0.00     0.113 C 
BRANCH  25  26
HETATM   26  C2  UNL     1       4.571   1.403  -0.858  1.00  0.00     0.079 C 
HETATM   27  C1  UNL     1       5.954   1.794  -1.376  1.00  0.00     0.013 C 
ENDBRANCH  25  26
BRANCH  25  28
HETATM   28  O1  UNL     1       5.560  -0.671  -1.116  1.00  0.00    -0.349 OA
ATOM     29  H1  UNL     1       5.489  -1.615  -1.036  1.00  0.00     0.219 HD
ENDBRANCH  25  28
ENDBRANCH   1  25
TORSDOF 6
