REMARK  7 active torsions:
REMARK  status: ('A' for Active; 'I' for Inactive)
REMARK    1  A    between atoms: N1_2  and  C2_3 
REMARK    2  A    between atoms: C2_3  and  C3_4 
REMARK    3  A    between atoms: C3_4  and  N2_5 
REMARK    4  A    between atoms: C10_17  and  N3_18 
REMARK       I    between atoms: N3_18  and  C11_20 
REMARK    5  A    between atoms: C11_20  and  C12_22 
REMARK    6  A    between atoms: C13_23  and  C14_24 
REMARK    7  A    between atoms: C15_25  and  C16_26 
ROOT
HETATM    1  C1  UNL     1      -1.668  -1.323  -1.599  1.00  0.00     0.273 C 
HETATM    2  N1  UNL     1      -1.446  -0.215  -0.732  1.00  0.00    -0.058 N 
HETATM    3  C8  UNL     1      -1.078   0.931  -1.562  1.00  0.00     0.240 C 
HETATM    4  C9  UNL     1       0.410   1.056  -1.533  1.00  0.00     0.055 C 
HETATM    5  C10 UNL     1       0.850  -0.266  -0.969  1.00  0.00     0.112 C 
HETATM    6  C17 UNL     1      -0.228  -0.571   0.015  1.00  0.00     0.263 C 
ENDROOT
BRANCH   2   7
HETATM    7  C2  UNL     1      -2.501   0.112   0.190  1.00  0.00     0.154 C 
HETATM    8  C4  UNL     1      -3.738   0.515  -0.548  1.00  0.00     0.054 C 
HETATM    9  C5  UNL     1      -4.956   0.597   0.343  1.00  0.00     0.111 C 
HETATM   10  S1  UNL     1      -4.623   1.899   1.501  1.00  0.00     0.015 S 
HETATM   11  O1  UNL     1      -4.930   1.493   3.067  1.00  0.00    -0.258 OA
HETATM   12  C6  UNL     1      -2.957   2.392   1.192  1.00  0.00     0.111 C 
HETATM   13  C7  UNL     1      -2.000   1.273   1.038  1.00  0.00     0.054 C 
BRANCH   7  14
HETATM   14  C3  UNL     1      -2.719  -1.038   1.131  1.00  0.00     0.268 C 
BRANCH  14  15
HETATM   15  N2  UNL     1      -3.092  -2.273   0.542  1.00  0.00    -0.077 N 
ATOM     16  H23 UNL     1      -3.921  -2.141  -0.037  1.00  0.00     0.274 HD
ATOM     17  H22 UNL     1      -2.409  -2.535  -0.169  1.00  0.00     0.274 HD
ATOM     18  H21 UNL     1      -3.240  -3.054   1.181  1.00  0.00     0.274 HD
ENDBRANCH  14  15
ENDBRANCH   7  14
ENDBRANCH   2   7
BRANCH   5  19
HETATM   19  N3  UNL     1       2.168  -0.219  -0.391  1.00  0.00    -0.351 N 
HETATM   20  C11 UNL     1       3.215  -1.074  -0.832  1.00  0.00     0.242 C 
HETATM   21  O2  UNL     1       2.946  -1.883  -1.759  1.00  0.00    -0.269 OA
ATOM     22  H3  UNL     1       2.356   0.448   0.357  1.00  0.00     0.163 HD
BRANCH  20  23
HETATM   23  C12 UNL     1       4.554  -1.043  -0.262  1.00  0.00     0.083 C 
HETATM   24  C13 UNL     1       4.905  -0.223   0.710  1.00  0.00     0.070 C 
BRANCH  24  25
HETATM   25  C14 UNL     1       6.229  -0.225   1.241  1.00  0.00    -0.077 C 
HETATM   26  C15 UNL     1       7.350  -0.206   1.693  1.00  0.00    -0.087 C 
BRANCH  26  27
HETATM   27  C16 UNL     1       8.709  -0.163   2.254  1.00  0.00     0.208 C 
HETATM   28 CL1  UNL     1       9.354   1.496   2.262  1.00  0.00    -0.117 Cl
ENDBRANCH  26  27
ENDBRANCH  24  25
ENDBRANCH  20  23
ENDBRANCH   5  19
TORSDOF 7
