REMARK  6 active torsions:
REMARK  status: ('A' for Active; 'I' for Inactive)
REMARK    1  A    between atoms: N1_2  and  C2_3 
REMARK       I    between atoms: N1_2  and  C5_10 
REMARK    2  A    between atoms: C2_3  and  C3_4 
REMARK    3  A    between atoms: C3_4  and  N2_5 
REMARK    4  A    between atoms: C5_10  and  C6_12 
REMARK    5  A    between atoms: C9_16  and  C14_22 
REMARK    6  A    between atoms: C11_19  and  C12_20 
ROOT
HETATM    1  C6  UNL     1      -0.913  -0.698  -0.765  1.00  0.00     0.092 C 
HETATM    2  C7  UNL     1      -2.200  -1.498  -0.789  1.00  0.00     0.045 C 
HETATM    3  C8  UNL     1      -3.450  -0.698  -1.073  1.00  0.00     0.095 C 
HETATM    4 BR1  UNL     1      -4.735  -1.999  -1.781  1.00  0.00    -0.088 Br
HETATM    5  C9  UNL     1      -3.896  -0.297   0.262  1.00  0.00     0.145 C 
HETATM    6  O2  UNL     1      -3.449  -1.236   1.167  1.00  0.00    -0.378 OA
HETATM    7  C10 UNL     1      -2.188  -1.525   0.702  1.00  0.00     0.133 C 
HETATM    8  C11 UNL     1      -1.241  -0.409   0.697  1.00  0.00     0.033 C 
ENDROOT
BRANCH   1   9
HETATM    9  C5  UNL     1       0.292  -1.529  -0.992  1.00  0.00     0.224 C 
HETATM   10  N1  UNL     1       1.594  -1.055  -1.213  1.00  0.00    -0.355 N 
HETATM   11  C1  UNL     1       2.661  -2.021  -1.426  1.00  0.00     0.152 C 
HETATM   12  O1  UNL     1       0.111  -2.790  -0.983  1.00  0.00    -0.273 OA
BRANCH  10  13
HETATM   13  C2  UNL     1       1.948   0.340  -1.238  1.00  0.00     0.145 C 
BRANCH  13  14
HETATM   14  C3  UNL     1       2.391   0.885   0.091  1.00  0.00     0.141 C 
BRANCH  14  15
HETATM   15  N2  UNL     1       3.560   0.147   0.533  1.00  0.00    -0.365 N 
HETATM   16  C4  UNL     1       4.747   0.611   0.480  1.00  0.00     0.197 C 
HETATM   17  N3  UNL     1       5.798  -0.242   0.956  1.00  0.00    -0.067 NA
HETATM   18  N4  UNL     1       5.110   1.879  -0.004  1.00  0.00    -0.067 NA
ATOM     19  H2  UNL     1       3.425  -0.793   0.906  1.00  0.00     0.161 HD
ENDBRANCH  14  15
ENDBRANCH  13  14
ENDBRANCH  10  13
ENDBRANCH   1   9
BRANCH   8  20
HETATM   20  C12 UNL     1      -1.655   0.933   1.042  1.00  0.00    -0.001 C 
HETATM   21  C13 UNL     1      -2.498   1.705   0.059  1.00  0.00     0.018 C 
HETATM   22  C14 UNL     1      -3.602   1.070   0.754  1.00  0.00    -0.008 A 
HETATM   23  C15 UNL     1      -4.188   1.286   2.007  1.00  0.00     0.018 A 
HETATM   24  C16 UNL     1      -2.753   1.153   2.008  1.00  0.00     0.002 A 
ENDBRANCH   8  20
TORSDOF 6
