REMARK  5 active torsions:
REMARK  status: ('A' for Active; 'I' for Inactive)
REMARK    1  A    between atoms: O1_2  and  C2_3 
REMARK    2  A    between atoms: C5_6  and  C6_7 
REMARK    3  A    between atoms: C6_7  and  C7_8 
REMARK    4  A    between atoms: C8_9  and  C9_10 
REMARK       I    between atoms: C9_10  and  N1_12 
REMARK    5  A    between atoms: C12_15  and  C13_16 
ROOT
HETATM    1  C2  UNL     1      -3.550  -0.582  -0.201  1.00  0.00     0.061 C 
HETATM    2  C3  UNL     1      -2.535  -1.515   0.342  1.00  0.00     0.039 C 
HETATM    3  C4  UNL     1      -1.133  -0.945   0.350  1.00  0.00     0.013 C 
HETATM    4  C5  UNL     1      -1.024   0.359   1.067  1.00  0.00    -0.029 C 
HETATM    5  C14 UNL     1      -2.050   0.587   2.124  1.00  0.00     0.015 C 
HETATM    6  C15 UNL     1      -3.364   1.085   1.652  1.00  0.00    -0.011 C 
HETATM    7  C16 UNL     1      -3.186   2.221   0.665  1.00  0.00     0.009 C 
HETATM    8  C17 UNL     1      -2.385   1.652  -0.479  1.00  0.00    -0.011 C 
HETATM    9  C18 UNL     1      -0.974   1.453   0.027  1.00  0.00     0.015 C 
HETATM   10  C19 UNL     1      -2.977   0.462  -1.130  1.00  0.00     0.042 C 
HETATM   11  C20 UNL     1      -4.246   0.074   1.003  1.00  0.00     0.042 C 
ENDROOT
BRANCH   4  12
HETATM   12  C6  UNL     1       0.343   0.374   1.764  1.00  0.00     0.104 C 
BRANCH  12  13
HETATM   13  C7  UNL     1       1.351   0.241   0.714  1.00  0.00    -0.096 C 
HETATM   14  C8  UNL     1       2.203   0.113  -0.153  1.00  0.00    -0.005 C 
BRANCH  14  15
HETATM   15  C9  UNL     1       3.210  -0.059  -1.163  1.00  0.00     0.299 C 
HETATM   16  O2  UNL     1       2.876   0.149  -2.355  1.00  0.00    -0.258 OA
HETATM   17  N1  UNL     1       4.536  -0.450  -0.825  1.00  0.00    -0.327 N 
HETATM   18  C10 UNL     1       5.197  -0.752   0.429  1.00  0.00     0.130 C 
HETATM   19  C12 UNL     1       5.766  -0.715  -1.502  1.00  0.00     0.190 C 
HETATM   20  C11 UNL     1       6.159  -1.625  -0.342  1.00  0.00     0.056 C 
BRANCH  19  21
HETATM   21  C13 UNL     1       6.649   0.476  -1.514  1.00  0.00     0.197 C 
HETATM   22  O3  UNL     1       7.794   0.465  -2.063  1.00  0.00    -0.646 OA
HETATM   23  O4  UNL     1       6.245   1.673  -0.911  1.00  0.00    -0.646 OA
ENDBRANCH  19  21
ENDBRANCH  14  15
ENDBRANCH  12  13
ENDBRANCH   4  12
BRANCH   1  24
HETATM   24  O1  UNL     1      -4.575  -1.196  -0.903  1.00  0.00    -0.385 OA
HETATM   25  C1  UNL     1      -4.225  -1.892  -2.018  1.00  0.00     0.202 C 
ENDBRANCH   1  24
TORSDOF 5
