REMARK  3 active torsions:
REMARK  status: ('A' for Active; 'I' for Inactive)
REMARK       I    between atoms: C1_2  and  N1_3 
REMARK       I    between atoms: C1_2  and  N3_20 
REMARK    1  A    between atoms: N1_3  and  C2_5 
REMARK    2  A    between atoms: N2_15  and  C11_16 
REMARK    3  A    between atoms: C11_16  and  C12_17 
ROOT
HETATM    1  C2  UNL     1      -1.154  -0.204  -0.963  1.00  0.00     0.190 C 
HETATM    2  C3  UNL     1      -1.692  -1.591  -0.720  1.00  0.00     0.056 C 
HETATM    3  C4  UNL     1      -0.941  -2.306   0.403  1.00  0.00     0.176 C 
HETATM    4  O2  UNL     1      -1.115  -1.737   1.623  1.00  0.00    -0.390 OA
HETATM    5  C5  UNL     1      -2.288  -1.959   2.259  1.00  0.00     0.172 C 
HETATM    6  C6  UNL     1      -3.531  -1.790   1.503  1.00  0.00     0.016 C 
HETATM    7  C7  UNL     1      -3.685  -2.723   0.326  1.00  0.00     0.012 C 
HETATM    8  C8  UNL     1      -3.167  -1.609  -0.547  1.00  0.00     0.002 C 
HETATM    9  C9  UNL     1      -3.616  -0.655   0.556  1.00  0.00     0.014 C 
HETATM   10  C10 UNL     1      -2.730   0.516   0.736  1.00  0.00     0.124 C 
HETATM   11  N2  UNL     1      -1.883   0.846  -0.359  1.00  0.00    -0.391 N 
ENDROOT
BRANCH   1  12
HETATM   12  N1  UNL     1       0.250  -0.103  -0.613  1.00  0.00    -0.320 N 
HETATM   13  C1  UNL     1       1.263   0.137  -1.582  1.00  0.00     0.336 C 
HETATM   14  O1  UNL     1       0.905   0.262  -2.780  1.00  0.00    -0.246 OA
HETATM   15  N3  UNL     1       2.614   0.233  -1.238  1.00  0.00    -0.240 N 
HETATM   16  N4  UNL     1       3.805   0.455  -1.934  1.00  0.00    -0.127 NA
HETATM   17  C20 UNL     1       3.352   0.144  -0.009  1.00  0.00     0.130 C 
HETATM   18  C15 UNL     1       4.416   0.947  -0.717  1.00  0.00     0.124 C 
HETATM   19  C16 UNL     1       5.755   0.342  -0.378  1.00  0.00     0.025 C 
HETATM   20  C17 UNL     1       5.820   0.107   1.117  1.00  0.00     0.002 C 
HETATM   21  C18 UNL     1       4.870  -1.018   1.494  1.00  0.00     0.002 C 
HETATM   22  C19 UNL     1       3.826  -1.221   0.390  1.00  0.00     0.029 C 
ATOM     23  H1  UNL     1       0.521  -0.208   0.365  1.00  0.00     0.166 HD
ENDBRANCH   1  12
BRANCH  11  24
HETATM   24  C11 UNL     1      -2.442   1.761  -1.318  1.00  0.00     0.123 C 
BRANCH  24  25
HETATM   25  C12 UNL     1      -3.210   2.889  -0.726  1.00  0.00     0.003 A 
HETATM   26  C13 UNL     1      -2.589   3.857   0.198  1.00  0.00     0.007 A 
HETATM   27  C14 UNL     1      -2.819   4.300  -1.198  1.00  0.00     0.007 A 
ENDBRANCH  24  25
ENDBRANCH  11  24
TORSDOF 3
