REMARK  9 active torsions:
REMARK  status: ('A' for Active; 'I' for Inactive)
REMARK    1  A    between atoms: C2_3  and  N2_4 
REMARK    2  A    between atoms: C2_3  and  C3_8 
REMARK    3  A    between atoms: C3_8  and  C4_9 
REMARK    4  A    between atoms: C4_9  and  N3_10 
REMARK       I    between atoms: N3_10  and  C5_12 
REMARK    5  A    between atoms: C5_12  and  C6_14 
REMARK    6  A    between atoms: C7_19  and  N6_20 
REMARK       I    between atoms: N6_20  and  C8_22 
REMARK    7  A    between atoms: N8_24  and  C9_26 
REMARK    8  A    between atoms: C9_26  and  C10_27 
REMARK    9  A    between atoms: C10_27  and  N9_28 
ROOT
HETATM    1  N1  UNL     1       6.159   1.408   1.758  1.00  0.00    -0.195 NA
HETATM    2  C1  UNL     1       5.701   1.264   0.692  1.00  0.00     0.092 C 
HETATM    3  C2  UNL     1       5.114   1.066  -0.633  1.00  0.00     0.290 C 
ENDROOT
BRANCH   3   4
HETATM    4  N2  UNL     1       4.812   2.326  -1.257  1.00  0.00    -0.063 N 
ATOM      5  H23 UNL     1       4.217   2.906  -0.665  1.00  0.00     0.275 HD
ATOM      6  H22 UNL     1       5.631   2.933  -1.295  1.00  0.00     0.275 HD
ATOM      7  H21 UNL     1       4.403   2.188  -2.181  1.00  0.00     0.275 HD
ENDBRANCH   3   4
BRANCH   3   8
HETATM    8  C3  UNL     1       3.886   0.182  -0.496  1.00  0.00     0.067 C 
BRANCH   8   9
HETATM    9  C4  UNL     1       2.854   0.806   0.403  1.00  0.00     0.126 C 
BRANCH   9  10
HETATM   10  N3  UNL     1       1.710  -0.065   0.488  1.00  0.00    -0.354 N 
HETATM   11  C5  UNL     1       1.728  -1.376   1.006  1.00  0.00     0.287 C 
HETATM   12  O1  UNL     1       2.768  -1.881   1.443  1.00  0.00    -0.264 OA
ATOM     13  H3  UNL     1       0.818   0.294   0.147  1.00  0.00     0.162 HD
BRANCH  11  14
HETATM   14  C6  UNL     1       0.500  -2.151   1.027  1.00  0.00     0.204 A 
HETATM   15  N4  UNL     1       0.300  -3.407   1.474  1.00  0.00    -0.266 N 
HETATM   16  N5  UNL     1      -0.971  -3.731   1.309  1.00  0.00    -0.130 N 
ATOM     17  H4  UNL     1       1.016  -4.012   1.876  1.00  0.00     0.189 HD
HETATM   18  C7  UNL     1      -1.632  -2.701   0.753  1.00  0.00     0.701 A 
ATOM     19  H5  UNL     1      -1.387  -4.627   1.565  1.00  0.00     0.205 HD
HETATM   20  N10 UNL     1      -0.712  -1.737   0.586  1.00  0.00    -0.168 N 
ATOM     21  H10 UNL     1      -0.900  -0.819   0.183  1.00  0.00     0.186 HD
BRANCH  18  22
HETATM   22  N6  UNL     1      -2.896  -2.645   0.440  1.00  0.00    -0.162 N 
HETATM   23  C8  UNL     1      -3.474  -1.496  -0.143  1.00  0.00     0.202 C 
HETATM   24  N7  UNL     1      -3.192  -1.242  -1.522  1.00  0.00    -0.063 NA
HETATM   25  N8  UNL     1      -4.216  -0.718   0.532  1.00  0.00    -0.362 N 
ATOM     26  H8  UNL     1      -4.393  -0.933   1.513  1.00  0.00     0.162 HD
ATOM     27  H6  UNL     1      -3.486  -3.457   0.622  1.00  0.00     0.187 HD
BRANCH  25  28
HETATM   28  C9  UNL     1      -4.820   0.466  -0.046  1.00  0.00     0.149 C 
BRANCH  28  29
HETATM   29  C10 UNL     1      -3.848   1.626  -0.053  1.00  0.00     0.249 C 
BRANCH  29  30
HETATM   30  N9  UNL     1      -4.480   2.782  -0.632  1.00  0.00    -0.078 N 
ATOM     31  H93 UNL     1      -4.857   2.590  -1.560  1.00  0.00     0.274 HD
ATOM     32  H92 UNL     1      -5.356   3.017  -0.164  1.00  0.00     0.274 HD
ATOM     33  H91 UNL     1      -3.825   3.564  -0.637  1.00  0.00     0.274 HD
ENDBRANCH  29  30
ENDBRANCH  28  29
ENDBRANCH  25  28
ENDBRANCH  18  22
ENDBRANCH  11  14
ENDBRANCH   9  10
ENDBRANCH   8   9
ENDBRANCH   3   8
TORSDOF 9
