REMARK  6 active torsions:
REMARK  status: ('A' for Active; 'I' for Inactive)
REMARK    1  A    between atoms: C2_2  and  C3_3 
REMARK    2  A    between atoms: C3_3  and  N1_4 
REMARK    3  A    between atoms: N1_4  and  C4_6 
REMARK    4  A    between atoms: C5_9  and  C6_10 
REMARK    5  A    between atoms: C10_18  and  N5_19 
REMARK    6  A    between atoms: N5_19  and  C11_21 
ROOT
HETATM    1  C6  UNL     1       0.469   1.711   0.819  1.00  0.00     0.077 A 
HETATM    2  C7  UNL     1       0.433   2.990   1.413  1.00  0.00     0.109 A 
HETATM    3  N3  UNL     1      -0.764   3.527   1.690  1.00  0.00    -0.355 N 
ATOM      4  H3  UNL     1      -0.798   4.452   2.119  1.00  0.00     0.166 HD
HETATM    5  C8  UNL     1      -1.917   2.898   1.426  1.00  0.00     0.078 A 
HETATM    6  C9  UNL     1      -3.202   3.571   1.769  1.00  0.00     0.089 C 
HETATM    7  N4  UNL     1      -1.862   1.688   0.865  1.00  0.00    -0.332 N 
ATOM      8  H4  UNL     1      -2.739   1.208   0.664  1.00  0.00     0.168 HD
HETATM    9  C10 UNL     1      -0.682   1.054   0.543  1.00  0.00     0.118 A 
ENDROOT
BRANCH   1  10
HETATM   10  C5  UNL     1       1.784   1.163   0.533  1.00  0.00     0.201 A 
HETATM   11  N2  UNL     1       2.214   0.028  -0.008  1.00  0.00    -0.166 N 
HETATM   12  C4  UNL     1       3.550  -0.009  -0.057  1.00  0.00     0.700 A 
ATOM     13  H2  UNL     1       1.604  -0.718  -0.342  1.00  0.00     0.186 HD
HETATM   14  N6  UNL     1       3.929   1.158   0.479  1.00  0.00    -0.089 N 
HETATM   15  O1  UNL     1       2.899   1.834   0.819  1.00  0.00    -0.203 OA
ATOM     16  H6  UNL     1       4.895   1.462   0.598  1.00  0.00     0.213 HD
BRANCH  12  17
HETATM   17  N1  UNL     1       4.290  -0.976  -0.526  1.00  0.00    -0.221 N 
ATOM     18  H1  UNL     1       3.858  -1.817  -0.909  1.00  0.00     0.178 HD
BRANCH  17  19
HETATM   19  C3  UNL     1       5.747  -0.841  -0.497  1.00  0.00     0.164 C 
BRANCH  19  20
HETATM   20  C2  UNL     1       6.398  -1.605  -1.558  1.00  0.00    -0.017 C 
HETATM   21  C1  UNL     1       7.265  -2.557  -1.269  1.00  0.00     0.008 C 
ENDBRANCH  19  20
ENDBRANCH  17  19
ENDBRANCH  12  17
ENDBRANCH   1  10
BRANCH   9  22
HETATM   22  N5  UNL     1      -0.733  -0.224  -0.041  1.00  0.00    -0.371 N 
ATOM     23  H5  UNL     1       0.141  -0.697  -0.271  1.00  0.00     0.161 HD
BRANCH  22  24
HETATM   24  C11 UNL     1      -1.989  -0.893  -0.328  1.00  0.00     0.083 C 
HETATM   25  C12 UNL     1      -2.858  -0.162  -1.322  1.00  0.00     0.025 C 
HETATM   26  C13 UNL     1      -3.788  -1.247  -1.900  1.00  0.00     0.002 C 
HETATM   27  C14 UNL     1      -4.614  -1.830  -0.781  1.00  0.00     0.000 C 
HETATM   28  C15 UNL     1      -3.840  -2.234   0.425  1.00  0.00     0.002 C 
HETATM   29  C16 UNL     1      -2.836  -1.163   0.879  1.00  0.00     0.025 C 
ENDBRANCH  22  24
ENDBRANCH   9  22
TORSDOF 6
