REMARK  5 active torsions:
REMARK  status: ('A' for Active; 'I' for Inactive)
REMARK    1  A    between atoms: C2_2  and  O1_3 
REMARK    2  A    between atoms: O1_3  and  C3_4 
REMARK    3  A    between atoms: C8_11  and  N2_12 
REMARK    4  A    between atoms: N3_14  and  C9_16 
REMARK    5  A    between atoms: N4_19  and  C12_20 
ROOT
HETATM    1  N2  UNL     1       0.467  -0.793  -0.582  1.00  0.00    -0.295 N 
ATOM      2  H2  UNL     1       0.165  -0.682  -1.550  1.00  0.00     0.187 HD
HETATM    3  N3  UNL     1      -0.423  -0.804   0.317  1.00  0.00    -0.293 N 
ATOM      4  H3  UNL     1      -0.164  -0.913   1.298  1.00  0.00     0.187 HD
ENDROOT
BRANCH   3   5
HETATM    5  C9  UNL     1      -1.791  -0.663  -0.055  1.00  0.00     0.139 A 
HETATM    6  C10 UNL     1      -2.538   0.432   0.342  1.00  0.00     0.046 A 
HETATM    7  C11 UNL     1      -1.954   1.496   1.162  1.00  0.00     0.071 C 
HETATM    8  N4  UNL     1      -3.830   0.537  -0.025  1.00  0.00    -0.302 N 
HETATM    9  C14 UNL     1      -4.372  -0.440  -0.779  1.00  0.00     0.329 A 
HETATM   10  O2  UNL     1      -5.595  -0.326  -1.118  1.00  0.00    -0.246 OA
HETATM   11  N5  UNL     1      -3.696  -1.519  -1.190  1.00  0.00    -0.273 N 
HETATM   12  C15 UNL     1      -2.397  -1.637  -0.829  1.00  0.00     0.279 A 
ATOM     13  H5  UNL     1      -4.148  -2.234  -1.760  1.00  0.00     0.173 HD
HETATM   14  O3  UNL     1      -1.687  -2.619  -1.172  1.00  0.00    -0.265 OA
BRANCH   8  15
HETATM   15  C12 UNL     1      -4.643   1.668   0.372  1.00  0.00     0.129 C 
HETATM   16  C13 UNL     1      -5.300   1.339   1.685  1.00  0.00     0.027 C 
ENDBRANCH   8  15
ENDBRANCH   3   5
BRANCH   1  17
HETATM   17  C8  UNL     1       1.848  -0.924  -0.334  1.00  0.00     0.107 A 
HETATM   18  C3  UNL     1       2.590   0.016   0.355  1.00  0.00     0.172 A 
HETATM   19  N1  UNL     1       3.862  -0.419   0.409  1.00  0.00    -0.338 N 
HETATM   20  C4  UNL     1       3.934  -1.619  -0.235  1.00  0.00     0.015 A 
ATOM     21  H1  UNL     1       4.640   0.066   0.856  1.00  0.00     0.168 HD
HETATM   22  C5  UNL     1       5.178  -2.426  -0.392  1.00  0.00     0.069 C 
HETATM   23  C6  UNL     1       2.692  -1.972  -0.716  1.00  0.00    -0.007 A 
HETATM   24  C7  UNL     1       2.275  -3.170  -1.472  1.00  0.00     0.052 C 
BRANCH  18  25
HETATM   25  O1  UNL     1       2.113   1.200   0.896  1.00  0.00    -0.334 OA
BRANCH  25  26
HETATM   26  C2  UNL     1       2.180   2.443   0.230  1.00  0.00     0.173 C 
HETATM   27  C1  UNL     1       3.612   2.788  -0.058  1.00  0.00     0.034 C 
ENDBRANCH  25  26
ENDBRANCH  18  25
ENDBRANCH   1  17
TORSDOF 5
