REMARK  3 active torsions:
REMARK  status: ('A' for Active; 'I' for Inactive)
REMARK    1  A    between atoms: C2_2  and  N1_3 
REMARK    2  A    between atoms: N1_3  and  C3_4 
REMARK    3  A    between atoms: N1_3  and  S1_13 
ROOT
HETATM    1  C3  UNL     1       0.729  -0.158   0.343  1.00  0.00     0.066 A 
HETATM    2  C4  UNL     1       1.461  -0.569  -0.779  1.00  0.00     0.057 A 
HETATM    3  C5  UNL     1       2.826  -0.662  -0.780  1.00  0.00     0.058 A 
HETATM    4 CL1  UNL     1       3.674  -1.187  -2.230  1.00  0.00    -0.082 Cl
HETATM    5  C6  UNL     1       3.498  -0.333   0.377  1.00  0.00     0.057 A 
HETATM    6 CL2  UNL     1       5.245  -0.453   0.371  1.00  0.00    -0.082 Cl
HETATM    7  C7  UNL     1       2.780   0.072   1.481  1.00  0.00     0.051 A 
HETATM    8  C8  UNL     1       1.397   0.171   1.502  1.00  0.00     0.063 A 
HETATM    9 CL3  UNL     1       0.529   0.681   2.931  1.00  0.00    -0.082 Cl
ENDROOT
BRANCH   1  10
HETATM   10  N1  UNL     1      -0.692  -0.092   0.222  1.00  0.00    -0.296 N 
BRANCH  10  11
HETATM   11  C2  UNL     1      -1.450   1.120   0.309  1.00  0.00     0.135 C 
HETATM   12  C1  UNL     1      -1.047   2.132  -0.739  1.00  0.00     0.028 C 
ENDBRANCH  10  11
BRANCH  10  13
HETATM   13  S1  UNL     1      -1.503  -1.613  -0.049  1.00  0.00     0.112 S 
HETATM   14  C9  UNL     1      -3.032  -1.449  -0.922  1.00  0.00     0.152 C 
HETATM   15  O1  UNL     1      -1.570  -2.476   1.177  1.00  0.00    -0.236 OA
ENDBRANCH  10  13
ENDBRANCH   1  10
TORSDOF 3
