REMARK  5 active torsions:
REMARK  status: ('A' for Active; 'I' for Inactive)
REMARK    1  A    between atoms: C9_12  and  C10_13 
REMARK    2  A    between atoms: C10_13  and  C11_14 
REMARK    3  A    between atoms: C11_14  and  O1_15 
REMARK    4  A    between atoms: C11_14  and  C12_17 
REMARK    5  A    between atoms: C12_17  and  O2_18 
ROOT
HETATM    1  C1  UNL     1      -3.372   0.985  -1.843  1.00  0.00     0.016 C 
HETATM    2  C2  UNL     1      -3.035  -0.362  -1.203  1.00  0.00     0.033 C 
HETATM    3  C3  UNL     1      -4.141  -0.658  -0.241  1.00  0.00     0.030 C 
HETATM    4  C4  UNL     1      -4.051   0.241   0.996  1.00  0.00     0.087 C 
HETATM    5 CL1  UNL     1      -5.564   0.002   1.897  1.00  0.00    -0.125 Cl
HETATM    6  C5  UNL     1      -2.850  -0.174   1.806  1.00  0.00     0.063 C 
HETATM    7  C6  UNL     1      -1.656  -0.152   0.909  1.00  0.00     0.002 A 
HETATM    8  C7  UNL     1      -1.730  -0.239  -0.447  1.00  0.00     0.022 A 
HETATM    9  N1  UNL     1      -0.454  -0.190  -0.918  1.00  0.00    -0.356 N 
ATOM     10  H1  UNL     1      -0.187  -0.234  -1.902  1.00  0.00     0.166 HD
HETATM   11  C8  UNL     1       0.398  -0.075   0.110  1.00  0.00     0.075 A 
HETATM   12  C9  UNL     1       1.738   0.033   0.512  1.00  0.00    -0.004 A 
HETATM   13  C13 UNL     1       1.753   0.118   1.887  1.00  0.00     0.152 A 
HETATM   14  O3  UNL     1       0.521   0.066   2.295  1.00  0.00    -0.319 OA
HETATM   15  C14 UNL     1      -0.317  -0.047   1.280  1.00  0.00     0.110 A 
ENDROOT
BRANCH  12  16
HETATM   16  C10 UNL     1       2.852   0.047  -0.461  1.00  0.00     0.076 C 
BRANCH  16  17
HETATM   17  C11 UNL     1       4.161   0.109   0.286  1.00  0.00     0.146 C 
BRANCH  17  18
HETATM   18  O1  UNL     1       4.241  -1.027   1.092  1.00  0.00    -0.393 OA
ATOM     19  H1  UNL     1       5.065  -0.988   1.562  1.00  0.00     0.210 HD
ENDBRANCH  17  18
BRANCH  17  20
HETATM   20  C12 UNL     1       5.353   0.222  -0.628  1.00  0.00     0.196 C 
BRANCH  20  21
HETATM   21  O2  UNL     1       5.398  -0.898  -1.435  1.00  0.00    -0.398 OA
ATOM     22  H2  UNL     1       6.150  -0.827  -2.011  1.00  0.00     0.209 HD
ENDBRANCH  20  21
ENDBRANCH  17  20
ENDBRANCH  16  17
ENDBRANCH  12  16
TORSDOF 5
