REMARK  5 active torsions:
REMARK  status: ('A' for Active; 'I' for Inactive)
REMARK    1  A    between atoms: N1_1  and  C1_4 
REMARK    2  A    between atoms: C4_10  and  C5_11 
REMARK    3  A    between atoms: C5_11  and  O1_12 
REMARK    4  A    between atoms: O1_12  and  C6_13 
REMARK    5  A    between atoms: C16_23  and  O2_24 
ROOT
HETATM    1  C1  UNL     1       5.161   0.383   0.293  1.00  0.00     0.102 A 
HETATM    2  C2  UNL     1       5.441  -0.951   0.109  1.00  0.00     0.160 A 
HETATM    3  F1  UNL     1       6.736  -1.374   0.084  1.00  0.00    -0.202 F 
HETATM    4  C3  UNL     1       4.403  -1.848  -0.049  1.00  0.00     0.133 A 
HETATM    5  N2  UNL     1       3.121  -1.431  -0.025  1.00  0.00    -0.362 N 
ATOM      6  H2  UNL     1       2.377  -2.118  -0.144  1.00  0.00     0.165 HD
HETATM    7  C4  UNL     1       2.792  -0.141   0.151  1.00  0.00     0.069 A 
HETATM    8  C16 UNL     1       3.822   0.760   0.310  1.00  0.00     0.120 A 
ENDROOT
BRANCH   7   9
HETATM    9  C5  UNL     1       1.359   0.312   0.176  1.00  0.00     0.228 C 
BRANCH   9  10
HETATM   10  O1  UNL     1       0.491  -0.733   0.002  1.00  0.00    -0.374 OA
BRANCH  10  11
HETATM   11  C6  UNL     1      -0.811  -0.318   0.025  1.00  0.00     0.062 C 
HETATM   12  C7  UNL     1      -1.113   0.694  -1.066  1.00  0.00     0.043 C 
HETATM   13  C8  UNL     1      -2.589   0.952  -1.151  1.00  0.00    -0.011 C 
HETATM   14  C9  UNL     1      -3.415  -0.265  -1.379  1.00  0.00     0.009 C 
HETATM   15  C13 UNL     1      -3.010   1.547   0.196  1.00  0.00     0.009 C 
HETATM   16  C10 UNL     1      -3.135  -1.245  -0.262  1.00  0.00    -0.011 C 
HETATM   17  C11 UNL     1      -3.558  -0.663   1.065  1.00  0.00     0.009 C 
HETATM   18  C15 UNL     1      -1.657  -1.557  -0.304  1.00  0.00     0.043 C 
HETATM   19  C12 UNL     1      -2.725   0.574   1.295  1.00  0.00    -0.011 C 
HETATM   20  C14 UNL     1      -1.274   0.161   1.371  1.00  0.00     0.043 C 
ENDBRANCH  10  11
ENDBRANCH   9  10
ENDBRANCH   7   9
BRANCH   8  21
HETATM   21  O2  UNL     1       3.531   2.089   0.493  1.00  0.00    -0.357 OA
ATOM     22  H2  UNL     1       2.617   2.346   0.505  1.00  0.00     0.218 HD
ENDBRANCH   8  21
BRANCH   1  23
HETATM   23  N1  UNL     1       6.114   1.244   0.443  1.00  0.00    -0.394 N 
ATOM     24  H12 UNL     1       7.096   0.968   0.431  1.00  0.00     0.156 HD
ATOM     25  H11 UNL     1       5.906   2.233   0.579  1.00  0.00     0.156 HD
ENDBRANCH   1  23
TORSDOF 5
