REMARK  7 active torsions:
REMARK  status: ('A' for Active; 'I' for Inactive)
REMARK    1  A    between atoms: C4_4  and  C5_5 
REMARK    2  A    between atoms: C5_5  and  C7_7 
REMARK    3  A    between atoms: C7_7  and  C8_8 
REMARK    4  A    between atoms: C14_16  and  O3_17 
REMARK    5  A    between atoms: C16_20  and  O4_21 
REMARK    6  A    between atoms: C24_31  and  O6_32 
REMARK    7  A    between atoms: O6_32  and  C25_33 
ROOT
HETATM    1  C1  UNL     1      -3.854  -0.920   2.041  1.00  0.00     0.022 C 
HETATM    2  C2  UNL     1      -2.728  -1.076   1.385  1.00  0.00    -0.018 C 
HETATM    3  C3  UNL     1      -2.562  -0.342   0.111  1.00  0.00     0.056 C 
HETATM    4  C4  UNL     1      -2.118   1.059   0.227  1.00  0.00     0.093 C 
HETATM    5  C10 UNL     1      -1.318   1.358   1.439  1.00  0.00     0.263 C 
HETATM    6  O1  UNL     1      -1.936   1.445   2.533  1.00  0.00    -0.265 OA
HETATM    7  O2  UNL     1       0.034   1.546   1.468  1.00  0.00    -0.321 OA
HETATM    8  C11 UNL     1       0.860   1.926   0.415  1.00  0.00     0.185 C 
HETATM    9  C12 UNL     1       2.204   2.467   0.922  1.00  0.00     0.035 C 
HETATM   10  C13 UNL     1       1.991   3.557   1.926  1.00  0.00     0.015 C 
HETATM   11  C14 UNL     1       2.962   2.992  -0.251  1.00  0.00     0.126 C 
HETATM   12  C15 UNL     1       3.620   1.858  -1.047  1.00  0.00     0.068 C 
HETATM   13  C16 UNL     1       4.750   1.229  -0.275  1.00  0.00     0.149 C 
HETATM   14  C17 UNL     1       4.933  -0.216  -0.672  1.00  0.00    -0.061 C 
HETATM   15  C18 UNL     1       5.725  -0.531  -1.669  1.00  0.00     0.017 C 
HETATM   16  C19 UNL     1       4.207  -1.245   0.080  1.00  0.00     0.036 C 
HETATM   17  C20 UNL     1       3.078  -1.864  -0.757  1.00  0.00     0.007 C 
HETATM   18  C21 UNL     1       2.591  -3.072  -0.033  1.00  0.00     0.035 C 
HETATM   19  C22 UNL     1       1.652  -2.824   1.092  1.00  0.00     0.154 A 
HETATM   20  O5  UNL     1       1.377  -1.574   1.566  1.00  0.00    -0.372 OA
HETATM   21  C23 UNL     1       0.411  -2.049   0.705  1.00  0.00     0.187 A 
HETATM   22  C24 UNL     1      -0.775  -2.809   1.222  1.00  0.00     0.227 C 
HETATM   23  C28 UNL     1      -1.732  -1.962   1.972  1.00  0.00     0.186 C 
HETATM   24  O7  UNL     1      -1.632  -2.057   3.245  1.00  0.00    -0.290 OA
ENDROOT
BRANCH   4  25
HETATM   25  C5  UNL     1      -3.205   2.095   0.044  1.00  0.00    -0.005 C 
HETATM   26  C6  UNL     1      -2.572   3.483   0.194  1.00  0.00     0.011 C 
BRANCH  25  27
HETATM   27  C7  UNL     1      -3.751   2.078  -1.367  1.00  0.00     0.005 C 
BRANCH  27  28
HETATM   28  C8  UNL     1      -4.841   3.129  -1.527  1.00  0.00    -0.004 C 
HETATM   29  C9  UNL     1      -5.330   3.037  -2.976  1.00  0.00     0.005 C 
ENDBRANCH  27  28
ENDBRANCH  25  27
ENDBRANCH   4  25
BRANCH  22  30
HETATM   30  O6  UNL     1      -1.457  -3.272   0.076  1.00  0.00    -0.371 OA
BRANCH  30  31
HETATM   31  C25 UNL     1      -1.551  -4.645   0.053  1.00  0.00     0.114 C 
HETATM   32  C26 UNL     1      -0.813  -5.135  -1.175  1.00  0.00     0.039 C 
HETATM   33  C27 UNL     1      -2.976  -5.136  -0.074  1.00  0.00     0.039 C 
ENDBRANCH  30  31
ENDBRANCH  22  30
BRANCH  11  34
HETATM   34  O3  UNL     1       4.013   3.772   0.228  1.00  0.00    -0.395 OA
ATOM     35  H3  UNL     1       4.496   4.106  -0.519  1.00  0.00     0.210 HD
ENDBRANCH  11  34
BRANCH  13  36
HETATM   36  O4  UNL     1       5.928   1.906  -0.641  1.00  0.00    -0.391 OA
ATOM     37  H4  UNL     1       6.641   1.509  -0.154  1.00  0.00     0.210 HD
ENDBRANCH  13  36
TORSDOF 7
