REMARK  7 active torsions:
REMARK  status: ('A' for Active; 'I' for Inactive)
REMARK    1  A    between atoms: C2_2  and  C4_4 
REMARK    2  A    between atoms: C21_25  and  O5_26 
REMARK    3  A    between atoms: O5_26  and  C22_27 
REMARK    4  A    between atoms: C22_27  and  C23_29 
REMARK    5  A    between atoms: C23_29  and  C24_30 
REMARK    6  A    between atoms: C24_30  and  C25_31 
REMARK    7  A    between atoms: C26_34  and  O9_35 
ROOT
HETATM    1  C4  UNL     1       1.508  -0.386   1.154  1.00  0.00     0.000 C 
HETATM    2  C5  UNL     1       1.518   1.107   1.323  1.00  0.00     0.018 C 
HETATM    3  C6  UNL     1       0.413   1.645   0.474  1.00  0.00     0.075 C 
HETATM    4  C7  UNL     1      -0.567   0.500   0.246  1.00  0.00     0.234 C 
HETATM    5  O1  UNL     1      -1.535   0.604   1.246  1.00  0.00    -0.194 OA
HETATM    6  O2  UNL     1      -2.366  -0.407   1.055  1.00  0.00    -0.194 OA
HETATM    7  C8  UNL     1      -3.069  -0.133  -0.100  1.00  0.00     0.234 C 
HETATM    8  C9  UNL     1      -3.867  -1.386  -0.487  1.00  0.00     0.079 C 
HETATM    9  C10 UNL     1      -5.241  -1.391   0.094  1.00  0.00    -0.009 C 
HETATM   10  C11 UNL     1      -6.260  -0.662  -0.745  1.00  0.00     0.009 C 
HETATM   11  C12 UNL     1      -6.260   0.817  -0.538  1.00  0.00    -0.013 C 
HETATM   12  C13 UNL     1      -6.293   1.206   0.935  1.00  0.00     0.010 C 
HETATM   13  C14 UNL     1      -4.939   0.640   1.389  1.00  0.00    -0.004 C 
HETATM   14  C15 UNL     1      -5.174  -0.873   1.501  1.00  0.00     0.010 C 
HETATM   15  C16 UNL     1      -4.047   0.996   0.250  1.00  0.00     0.058 C 
HETATM   16  C17 UNL     1      -4.889   1.338  -0.936  1.00  0.00     0.015 C 
HETATM   17  O3  UNL     1      -2.304   0.198  -1.173  1.00  0.00    -0.194 OA
HETATM   18  O4  UNL     1      -1.144   0.682  -0.973  1.00  0.00    -0.194 OA
HETATM   19  C18 UNL     1       0.282  -0.725   0.369  1.00  0.00     0.065 C 
HETATM   20  C19 UNL     1       0.582  -1.360  -0.964  1.00  0.00     0.014 C 
HETATM   21  C20 UNL     1       1.585  -0.548  -1.744  1.00  0.00     0.036 C 
HETATM   22  C21 UNL     1       2.829  -0.235  -0.953  1.00  0.00     0.161 C 
HETATM   23  C26 UNL     1       2.792  -0.771   0.448  1.00  0.00     0.157 C 
ENDROOT
BRANCH   1  24
HETATM   24  C2  UNL     1       1.566  -1.104   2.499  1.00  0.00    -0.011 C 
HETATM   25  C1  UNL     1       2.845  -0.685   3.187  1.00  0.00     0.010 C 
HETATM   26  C3  UNL     1       0.411  -0.798   3.383  1.00  0.00     0.010 C 
ENDBRANCH   1  24
BRANCH  23  27
HETATM   27  O9  UNL     1       2.943  -2.134   0.533  1.00  0.00    -0.392 OA
ATOM     28  H9  UNL     1       3.748  -2.375   0.090  1.00  0.00     0.210 HD
ENDBRANCH  23  27
BRANCH  22  29
HETATM   29  O5  UNL     1       3.921  -0.657  -1.694  1.00  0.00    -0.313 OA
BRANCH  29  30
HETATM   30  C22 UNL     1       4.905   0.170  -2.223  1.00  0.00     0.259 C 
HETATM   31  O6  UNL     1       4.738   1.381  -1.977  1.00  0.00    -0.265 OA
BRANCH  30  32
HETATM   32  C23 UNL     1       6.046  -0.305  -3.001  1.00  0.00     0.121 C 
BRANCH  32  33
HETATM   33  C24 UNL     1       6.962   0.839  -3.328  1.00  0.00     0.123 C 
BRANCH  33  34
HETATM   34  C25 UNL     1       7.561   1.500  -2.153  1.00  0.00     0.172 C 
HETATM   35  O7  UNL     1       7.353   1.053  -1.008  1.00  0.00    -0.648 OA
HETATM   36  O8  UNL     1       8.368   2.633  -2.277  1.00  0.00    -0.648 OA
ENDBRANCH  33  34
ENDBRANCH  32  33
ENDBRANCH  30  32
ENDBRANCH  29  30
ENDBRANCH  22  29
TORSDOF 7
