REMARK  11 active torsions:
REMARK  status: ('A' for Active; 'I' for Inactive)
REMARK    1  A    between atoms: C2_2  and  C3_3 
REMARK    2  A    between atoms: C3_3  and  C4_4 
REMARK    3  A    between atoms: C4_4  and  O1_5 
REMARK    4  A    between atoms: O1_5  and  C5_6 
REMARK    5  A    between atoms: C5_6  and  C6_7 
REMARK    6  A    between atoms: C6_7  and  C7_8 
REMARK    7  A    between atoms: C7_8  and  O2_9 
REMARK    8  A    between atoms: C7_8  and  C8_11 
REMARK    9  A    between atoms: C8_11  and  C9_12 
REMARK   10  A    between atoms: C9_12  and  O3_13 
REMARK   11  A    between atoms: C9_12  and  C10_15 
ROOT
HETATM    1  C7  UNL     1      -0.551  -1.365  -0.223  1.00  0.00     0.123 C 
ENDROOT
BRANCH   1   2
HETATM    2  C6  UNL     1       0.960  -1.339   0.001  1.00  0.00     0.058 C 
BRANCH   2   3
HETATM    3  C5  UNL     1       1.460   0.069   0.212  1.00  0.00     0.170 C 
BRANCH   3   4
HETATM    4  O1  UNL     1       2.818   0.111   0.422  1.00  0.00    -0.391 OA
BRANCH   4   5
HETATM    5  C4  UNL     1       3.587  -0.389  -0.619  1.00  0.00     0.171 C 
BRANCH   5   6
HETATM    6  C3  UNL     1       5.057  -0.263  -0.248  1.00  0.00     0.052 C 
BRANCH   6   7
HETATM    7  C2  UNL     1       5.369   1.156  -0.026  1.00  0.00    -0.035 C 
HETATM    8  C1  UNL     1       6.285   1.759  -0.765  1.00  0.00     0.007 C 
ENDBRANCH   6   7
ENDBRANCH   5   6
ENDBRANCH   4   5
ENDBRANCH   3   4
ENDBRANCH   2   3
ENDBRANCH   1   2
BRANCH   1   9
HETATM    9  O2  UNL     1      -0.868  -0.622  -1.323  1.00  0.00    -0.395 OA
ATOM     10  H2  UNL     1      -1.808  -0.638  -1.462  1.00  0.00     0.210 HD
ENDBRANCH   1   9
BRANCH   1  11
HETATM   11  C8  UNL     1      -1.305  -1.044   1.043  1.00  0.00     0.068 C 
BRANCH  11  12
HETATM   12  C9  UNL     1      -2.788  -1.043   0.906  1.00  0.00     0.153 C 
BRANCH  12  13
HETATM   13  O3  UNL     1      -3.265  -2.284   0.448  1.00  0.00    -0.391 OA
ATOM     14  H3  UNL     1      -4.211  -2.283   0.361  1.00  0.00     0.210 HD
ENDBRANCH  12  13
BRANCH  12  15
HETATM   15  C10 UNL     1      -3.414   0.062   0.222  1.00  0.00    -0.030 A 
HETATM   16  C11 UNL     1      -4.734  -0.123  -0.221  1.00  0.00     0.010 A 
HETATM   17  C12 UNL     1      -5.437   0.868  -0.861  1.00  0.00     0.001 A 
HETATM   18  C13 UNL     1      -4.830   2.084  -1.076  1.00  0.00     0.000 A 
HETATM   19  C14 UNL     1      -3.534   2.330  -0.665  1.00  0.00     0.001 A 
HETATM   20  C15 UNL     1      -2.868   1.295  -0.023  1.00  0.00     0.010 A 
ENDBRANCH  12  15
ENDBRANCH  11  12
ENDBRANCH   1  11
TORSDOF 11
