REMARK  11 active torsions:
REMARK  status: ('A' for Active; 'I' for Inactive)
REMARK       I    between atoms: C1_4  and  N3_6 
REMARK    1  A    between atoms: N3_6  and  C2_8 
REMARK    2  A    between atoms: C2_8  and  C3_9 
REMARK    3  A    between atoms: C2_8  and  C12_33 
REMARK    4  A    between atoms: C3_9  and  C4_11 
REMARK    5  A    between atoms: C6_14  and  C7_15 
REMARK    6  A    between atoms: C7_15  and  C8_17 
REMARK    7  A    between atoms: C8_17  and  S2_18 
REMARK    8  A    between atoms: S2_18  and  C9_19 
REMARK    9  A    between atoms: N6_26  and  N7_27 
REMARK   10  A    between atoms: C11_30  and  O4_31 
REMARK   11  A    between atoms: C15_36  and  N8_37 
ROOT
HETATM    1  C4  UNL     1      -0.073  -1.276  -0.957  1.00  0.00     0.053 A 
HETATM    2  C5  UNL     1      -0.590  -1.455  -2.225  1.00  0.00     0.068 A 
HETATM    3  S1  UNL     1       0.641  -0.862  -3.237  1.00  0.00    -0.095 SA
HETATM    4  C6  UNL     1       1.773  -0.405  -2.059  1.00  0.00     0.085 A 
HETATM    5  C11 UNL     1       1.150  -0.731  -0.873  1.00  0.00     0.101 A 
ENDROOT
BRANCH   1   6
HETATM    6  C3  UNL     1      -0.896  -1.747   0.202  1.00  0.00     0.190 C 
HETATM    7  O1  UNL     1      -0.421  -1.659   1.349  1.00  0.00    -0.290 OA
BRANCH   6   8
HETATM    8  C2  UNL     1      -2.226  -2.310   0.036  1.00  0.00     0.192 C 
BRANCH   8   9
HETATM    9  N3  UNL     1      -2.761  -2.908   1.208  1.00  0.00    -0.349 N 
HETATM   10  C1  UNL     1      -3.255  -2.298   2.369  1.00  0.00     0.182 C 
HETATM   11  N1  UNL     1      -4.501  -2.569   2.699  1.00  0.00    -0.374 N 
HETATM   12  N2  UNL     1      -2.592  -1.423   3.247  1.00  0.00    -0.064 NA
ATOM     13  H12 UNL     1      -4.861  -2.125   3.544  1.00  0.00     0.158 HD
ATOM     14  H11 UNL     1      -4.982  -3.204   2.062  1.00  0.00     0.158 HD
ATOM     15  H3  UNL     1      -2.790  -3.928   1.204  1.00  0.00     0.163 HD
ENDBRANCH   8   9
BRANCH   8  16
HETATM   16  C12 UNL     1      -3.238  -1.279  -0.419  1.00  0.00    -0.028 A 
HETATM   17  C13 UNL     1      -2.930   0.055  -0.496  1.00  0.00     0.012 A 
HETATM   18  C14 UNL     1      -3.909   0.931  -0.939  1.00  0.00     0.037 A 
HETATM   19  C15 UNL     1      -5.175   0.522  -1.305  1.00  0.00     0.102 A 
HETATM   20  C16 UNL     1      -5.472  -0.826  -1.222  1.00  0.00     0.037 A 
HETATM   21  C17 UNL     1      -4.490  -1.705  -0.777  1.00  0.00     0.012 A 
BRANCH  19  22
HETATM   22  N8  UNL     1      -6.142   1.452  -1.754  1.00  0.00    -0.116 N 
HETATM   23  O5  UNL     1      -5.913   2.666  -1.835  1.00  0.00    -0.532 OA
HETATM   24  O6  UNL     1      -7.379   0.996  -2.113  1.00  0.00    -0.532 OA
ENDBRANCH  19  22
ENDBRANCH   8  16
ENDBRANCH   6   8
ENDBRANCH   1   6
BRANCH   5  25
HETATM   25  O4  UNL     1       1.841  -0.469   0.322  1.00  0.00    -0.358 OA
ATOM     26  H4  UNL     1       2.707  -0.083   0.381  1.00  0.00     0.217 HD
ENDBRANCH   5  25
BRANCH   4  27
HETATM   27  C7  UNL     1       3.102   0.187  -2.287  1.00  0.00     0.178 C 
HETATM   28  O2  UNL     1       3.433   0.394  -3.503  1.00  0.00    -0.291 OA
BRANCH  27  29
HETATM   29  C8  UNL     1       4.058   0.552  -1.244  1.00  0.00     0.167 C 
BRANCH  29  30
HETATM   30  S2  UNL     1       3.784   2.234  -0.595  1.00  0.00    -0.083 SA
BRANCH  30  31
HETATM   31  C9  UNL     1       5.048   2.500   0.658  1.00  0.00     0.185 A 
HETATM   32  N4  UNL     1       5.000   2.237   1.971  1.00  0.00    -0.274 N 
HETATM   33  N5  UNL     1       6.153   2.582   2.537  1.00  0.00    -0.248 N 
ATOM     34  H4  UNL     1       4.202   1.834   2.461  1.00  0.00     0.189 HD
HETATM   35  C10 UNL     1       6.956   3.074   1.579  1.00  0.00     0.361 A 
ATOM     36  H5  UNL     1       6.387   2.489   3.526  1.00  0.00     0.192 HD
HETATM   37  O3  UNL     1       8.128   3.492   1.795  1.00  0.00    -0.243 OA
HETATM   38  N6  UNL     1       6.281   3.025   0.430  1.00  0.00    -0.186 N 
BRANCH  38  39
HETATM   39  N7  UNL     1       6.754   3.439  -0.805  1.00  0.00    -0.332 N 
ATOM     40  H72 UNL     1       6.238   3.402  -1.684  1.00  0.00     0.177 HD
ATOM     41  H71 UNL     1       7.679   3.833  -0.976  1.00  0.00     0.177 HD
ENDBRANCH  38  39
ENDBRANCH  30  31
ENDBRANCH  29  30
ENDBRANCH  27  29
ENDBRANCH   4  27
TORSDOF 11
