REMARK  9 active torsions:
REMARK  status: ('A' for Active; 'I' for Inactive)
REMARK    1  A    between atoms: C1_4  and  C2_5 
REMARK    2  A    between atoms: C1_4  and  N12_35 
REMARK    3  A    between atoms: C2_5  and  S1_6 
REMARK    4  A    between atoms: S1_6  and  C3_7 
REMARK    5  A    between atoms: C4_8  and  C5_9 
REMARK    6  A    between atoms: C5_9  and  C6_10 
REMARK    7  A    between atoms: N7_24  and  C8_25 
REMARK    8  A    between atoms: C8_25  and  C9_26 
REMARK    9  A    between atoms: N12_35  and  C10_37 
ROOT
HETATM    1  C3  UNL     1      -2.281  -0.761   0.664  1.00  0.00     0.114 A 
HETATM    2  C4  UNL     1      -2.882   0.374   0.181  1.00  0.00     0.068 A 
HETATM    3  N5  UNL     1      -4.120  -0.020  -0.251  1.00  0.00    -0.287 N 
ATOM      4  H5  UNL     1      -4.820   0.593  -0.668  1.00  0.00     0.188 HD
HETATM    5  N6  UNL     1      -4.267  -1.305  -0.047  1.00  0.00    -0.239 N 
ATOM      6  H6  UNL     1      -5.098  -1.849  -0.280  1.00  0.00     0.208 HD
HETATM    7  N7  UNL     1      -3.194  -1.774   0.495  1.00  0.00    -0.262 N 
ENDROOT
BRANCH   1   8
HETATM    8  S1  UNL     1      -0.740  -1.055   1.392  1.00  0.00    -0.101 SA
BRANCH   8   9
HETATM    9  C2  UNL     1       0.417   0.219   1.644  1.00  0.00     0.157 C 
BRANCH   9  10
HETATM   10  C1  UNL     1       1.098   0.819   0.495  1.00  0.00     0.085 C 
HETATM   11  N1  UNL     1       1.251   2.130   0.415  1.00  0.00    -0.388 N 
ATOM     12  H12 UNL     1       0.826   2.634   1.194  1.00  0.00     0.157 HD
ATOM     13  H11 UNL     1       1.725   2.548  -0.385  1.00  0.00     0.157 HD
BRANCH  10  14
HETATM   14  N12 UNL     1       1.685   0.123  -0.581  1.00  0.00    -0.340 N 
ATOM     15  H12 UNL     1       1.103  -0.259  -1.327  1.00  0.00     0.167 HD
BRANCH  14  16
HETATM   16  C10 UNL     1       3.119  -0.044  -0.617  1.00  0.00     0.076 A 
HETATM   17  C11 UNL     1       4.016   0.385   0.329  1.00  0.00     0.055 A 
HETATM   18  C12 UNL     1       5.332   0.141   0.092  1.00  0.00     0.049 A 
HETATM   19  C13 UNL     1       5.650  -0.504  -1.059  1.00  0.00     0.018 A 
HETATM   20  C15 UNL     1       6.635   0.375   0.771  1.00  0.00     0.253 A 
HETATM   21  S3  UNL     1       4.111  -0.763  -1.792  1.00  0.00    -0.074 SA
HETATM   22  C14 UNL     1       7.121  -0.705  -1.219  1.00  0.00     0.170 A 
HETATM   23  N13 UNL     1       7.666  -0.149  -0.018  1.00  0.00    -0.352 N 
ATOM     24  H13 UNL     1       8.656  -0.136   0.226  1.00  0.00     0.163 HD
HETATM   25  O1  UNL     1       6.853   0.946   1.880  1.00  0.00    -0.268 OA
ENDBRANCH  14  16
ENDBRANCH  10  14
ENDBRANCH   9  10
ENDBRANCH   8   9
ENDBRANCH   1   8
BRANCH   2  26
HETATM   26  C5  UNL     1      -2.347   1.759   0.123  1.00  0.00     0.128 C 
BRANCH  26  27
HETATM   27  C6  UNL     1      -3.524   2.687   0.001  1.00  0.00     0.075 A 
HETATM   28  N2  UNL     1      -4.087   3.101  -1.128  1.00  0.00    -0.296 N 
HETATM   29  N3  UNL     1      -5.081   3.889  -1.089  1.00  0.00    -0.279 N 
ATOM     30  H2  UNL     1      -3.721   2.786  -2.026  1.00  0.00     0.187 HD
HETATM   31  C7  UNL     1      -5.541   4.288   0.097  1.00  0.00     0.158 A 
ATOM     32  H3  UNL     1      -5.521   4.212  -1.951  1.00  0.00     0.189 HD
HETATM   33  N4  UNL     1      -6.547   5.093   0.350  1.00  0.00    -0.379 N 
HETATM   34  S2  UNL     1      -4.482   3.479   1.172  1.00  0.00    -0.038 SA
ATOM     35  H42 UNL     1      -7.178   5.575  -0.290  1.00  0.00     0.158 HD
ATOM     36  H41 UNL     1      -6.899   5.398   1.257  1.00  0.00     0.158 HD
ENDBRANCH  26  27
ENDBRANCH   2  26
BRANCH   7  37
HETATM   37  C8  UNL     1      -3.023  -3.192   0.846  1.00  0.00     0.230 C 
BRANCH  37  38
HETATM   38  C9  UNL     1      -2.512  -4.003  -0.246  1.00  0.00     0.133 A 
HETATM   39  N8  UNL     1      -3.239  -4.656  -1.202  1.00  0.00    -0.271 N 
HETATM   40  N9  UNL     1      -2.419  -5.288  -2.009  1.00  0.00    -0.227 N 
ATOM     41  H8  UNL     1      -4.256  -4.653  -1.276  1.00  0.00     0.190 HD
HETATM   42  N10 UNL     1      -1.187  -5.078  -1.627  1.00  0.00    -0.227 N 
ATOM     43  H9  UNL     1      -2.700  -5.855  -2.809  1.00  0.00     0.210 HD
HETATM   44  N11 UNL     1      -1.231  -4.282  -0.535  1.00  0.00    -0.271 N 
ATOM     45  H10 UNL     1      -0.346  -5.447  -2.071  1.00  0.00     0.210 HD
ATOM     46  H11 UNL     1      -0.421  -3.947  -0.014  1.00  0.00     0.190 HD
ENDBRANCH  37  38
ENDBRANCH   7  37
TORSDOF 9
