REMARK  10 active torsions:
REMARK  status: ('A' for Active; 'I' for Inactive)
REMARK    1  A    between atoms: C2_2  and  C3_3 
REMARK    2  A    between atoms: C3_3  and  O2_5 
REMARK    3  A    between atoms: O2_5  and  C4_6 
REMARK    4  A    between atoms: C18_24  and  C19_25 
REMARK    5  A    between atoms: C19_25  and  O7_26 
REMARK    6  A    between atoms: C19_25  and  C20_28 
REMARK    7  A    between atoms: C19_25  and  C21_31 
REMARK    8  A    between atoms: C20_28  and  O8_29 
REMARK    9  A    between atoms: C21_31  and  C22_32 
REMARK   10  A    between atoms: C27_37  and  C28_38 
ROOT
HETATM    1  C4  UNL     1       0.576   2.108   0.575  1.00  0.00     0.234 C 
HETATM    2  C5  UNL     1      -0.539   1.388   1.393  1.00  0.00     0.166 C 
HETATM    3  O3  UNL     1      -0.272   1.121   2.519  1.00  0.00    -0.294 OA
HETATM    4  C6  UNL     1      -1.864   1.015   0.913  1.00  0.00     0.101 C 
HETATM    5  C7  UNL     1      -2.747   0.787   2.130  1.00  0.00     0.016 C 
HETATM    6  C8  UNL     1      -4.073   0.256   1.713  1.00  0.00     0.005 C 
HETATM    7  C9  UNL     1      -3.830  -1.091   1.084  1.00  0.00    -0.011 C 
HETATM    8  C10 UNL     1      -4.274  -2.189   2.070  1.00  0.00     0.010 C 
HETATM    9  C11 UNL     1      -2.397  -1.327   0.677  1.00  0.00     0.033 C 
HETATM   10  C12 UNL     1      -2.304  -2.645   0.037  1.00  0.00     0.014 C 
HETATM   11  C13 UNL     1      -1.664  -2.763  -1.294  1.00  0.00     0.071 C 
HETATM   12  C14 UNL     1      -2.010  -1.592  -2.142  1.00  0.00     0.196 C 
HETATM   13  C15 UNL     1      -2.326  -2.031  -3.580  1.00  0.00     0.082 C 
HETATM   14  O4  UNL     1      -3.156  -0.924  -1.700  1.00  0.00    -0.200 OA
HETATM   15  O5  UNL     1      -2.874   0.151  -1.042  1.00  0.00    -0.220 OA
HETATM   16  C16 UNL     1      -1.869  -0.127  -0.068  1.00  0.00     0.160 C 
HETATM   17  C17 UNL     1      -0.625  -0.390  -0.817  1.00  0.00     0.303 C 
HETATM   18  O6  UNL     1       0.352   0.513  -1.026  1.00  0.00    -0.346 OA
HETATM   19  C18 UNL     1       1.244   0.915  -0.094  1.00  0.00     0.202 C 
HETATM   20  O9  UNL     1      -0.965  -0.733  -2.191  1.00  0.00    -0.320 OA
ENDROOT
BRANCH  19  21
HETATM   21  C19 UNL     1       2.661   0.987  -0.314  1.00  0.00     0.126 C 
BRANCH  21  22
HETATM   22  O7  UNL     1       2.975   1.823  -1.493  1.00  0.00    -0.381 OA
ATOM     23  H7  UNL     1       3.913   1.871  -1.639  1.00  0.00     0.211 HD
ENDBRANCH  21  22
BRANCH  21  24
HETATM   24  C20 UNL     1       3.480   1.751   0.730  1.00  0.00     0.209 C 
BRANCH  24  25
HETATM   25  O8  UNL     1       3.287   3.126   0.690  1.00  0.00    -0.397 OA
ATOM     26  H8  UNL     1       3.795   3.600   1.338  1.00  0.00     0.209 HD
ENDBRANCH  24  25
ENDBRANCH  21  24
BRANCH  21  27
HETATM   27  C21 UNL     1       3.497  -0.206  -0.651  1.00  0.00     0.027 C 
BRANCH  27  28
HETATM   28  C22 UNL     1       3.543  -1.381   0.187  1.00  0.00    -0.022 A 
HETATM   29  C23 UNL     1       4.016  -1.280   1.493  1.00  0.00     0.012 A 
HETATM   30  C24 UNL     1       3.970  -2.286   2.434  1.00  0.00     0.001 A 
HETATM   31  C25 UNL     1       3.414  -3.470   2.030  1.00  0.00     0.001 A 
HETATM   32  C26 UNL     1       2.942  -3.612   0.750  1.00  0.00     0.017 A 
HETATM   33  C27 UNL     1       2.992  -2.593  -0.202  1.00  0.00     0.058 A 
BRANCH  33  34
HETATM   34  C28 UNL     1       2.671  -2.945  -1.608  1.00  0.00     0.418 C 
HETATM   35  F1  UNL     1       2.080  -4.216  -1.591  1.00  0.00    -0.166 F 
HETATM   36  F2  UNL     1       1.961  -2.148  -2.370  1.00  0.00    -0.166 F 
HETATM   37  F3  UNL     1       3.929  -3.263  -2.255  1.00  0.00    -0.166 F 
ENDBRANCH  33  34
ENDBRANCH  27  28
ENDBRANCH  21  27
ENDBRANCH  19  21
BRANCH   1  38
HETATM   38  O2  UNL     1       0.024   3.040  -0.201  1.00  0.00    -0.305 OA
BRANCH  38  39
HETATM   39  C3  UNL     1       0.004   4.376  -0.232  1.00  0.00     0.259 C 
HETATM   40  O1  UNL     1       0.638   4.949   0.665  1.00  0.00    -0.265 OA
BRANCH  39  41
HETATM   41  C2  UNL     1      -0.711   5.210  -1.242  1.00  0.00     0.106 C 
HETATM   42  C1  UNL     1       0.182   6.301  -1.782  1.00  0.00     0.015 C 
ENDBRANCH  39  41
ENDBRANCH  38  39
ENDBRANCH   1  38
TORSDOF 10
