REMARK  6 active torsions:
REMARK  status: ('A' for Active; 'I' for Inactive)
REMARK    1  A    between atoms: O1_2  and  C2_3 
REMARK    2  A    between atoms: C8_11  and  O3_12 
REMARK    3  A    between atoms: C13_17  and  O4_18 
REMARK    4  A    between atoms: C16_23  and  O6_24 
REMARK    5  A    between atoms: O6_24  and  C17_25 
REMARK    6  A    between atoms: C17_25  and  C18_27 
ROOT
HETATM    1  C2  UNL     1       2.013  -2.299   0.061  1.00  0.00     0.127 A 
HETATM    2  C3  UNL     1       1.188  -3.400  -0.047  1.00  0.00     0.071 A 
HETATM    3 CL1  UNL     1       1.817  -5.029  -0.156  1.00  0.00    -0.081 Cl
HETATM    4  C4  UNL     1      -0.187  -3.253  -0.074  1.00  0.00     0.045 A 
HETATM    5  C5  UNL     1      -0.724  -1.990   0.009  1.00  0.00     0.053 A 
HETATM    6  C6  UNL     1      -2.094  -1.858  -0.019  1.00  0.00     0.201 A 
HETATM    7  O2  UNL     1      -2.896  -2.817  -0.116  1.00  0.00    -0.286 OA
HETATM    8  C7  UNL     1      -2.575  -0.549   0.069  1.00  0.00     0.085 A 
HETATM    9  C8  UNL     1      -3.957  -0.344   0.046  1.00  0.00     0.086 A 
HETATM   10  C10 UNL     1      -4.438   0.944   0.133  1.00  0.00     0.047 A 
HETATM   11  C11 UNL     1      -3.529   1.985   0.239  1.00  0.00    -0.023 A 
HETATM   12  C12 UNL     1      -4.078   3.382   0.332  1.00  0.00     0.051 C 
HETATM   13  C13 UNL     1      -2.172   1.804   0.262  1.00  0.00     0.106 A 
HETATM   14  C14 UNL     1      -1.689   0.496   0.174  1.00  0.00     0.126 A 
HETATM   15  O5  UNL     1      -0.369   0.296   0.196  1.00  0.00    -0.303 OA
HETATM   16  C15 UNL     1       0.115  -0.899   0.117  1.00  0.00     0.127 A 
HETATM   17  C16 UNL     1       1.500  -1.022   0.146  1.00  0.00     0.148 A 
ENDROOT
BRANCH  17  18
HETATM   18  O6  UNL     1       2.356   0.037   0.252  1.00  0.00    -0.273 OA
BRANCH  18  19
HETATM   19  C17 UNL     1       2.895   0.750  -0.780  1.00  0.00     0.267 C 
HETATM   20  O7  UNL     1       2.591   0.423  -1.955  1.00  0.00    -0.264 OA
BRANCH  19  21
HETATM   21  C18 UNL     1       3.815   1.880  -0.474  1.00  0.00     0.078 C 
HETATM   22  C19 UNL     1       5.029   1.393   0.299  1.00  0.00     0.020 C 
HETATM   23  C20 UNL     1       4.265   2.486  -1.811  1.00  0.00     0.020 C 
ENDBRANCH  19  21
ENDBRANCH  18  19
ENDBRANCH  17  18
BRANCH   1  24
HETATM   24  O1  UNL     1       3.382  -2.526   0.082  1.00  0.00    -0.351 OA
HETATM   25  C1  UNL     1       3.989  -2.730   1.344  1.00  0.00     0.210 C 
ENDBRANCH   1  24
BRANCH  13  26
HETATM   26  O4  UNL     1      -1.287   2.863   0.369  1.00  0.00    -0.357 OA
ATOM     27  H4  UNL     1      -0.345   2.737   0.385  1.00  0.00     0.217 HD
ENDBRANCH  13  26
BRANCH   9  28
HETATM   28  O3  UNL     1      -4.764  -1.452  -0.062  1.00  0.00    -0.355 OA
HETATM   29  C9  UNL     1      -6.165  -1.379  -0.096  1.00  0.00     0.210 C 
ENDBRANCH   9  28
TORSDOF 6
