REMARK  19 active torsions:
REMARK  status: ('A' for Active; 'I' for Inactive)
REMARK    1  A    between atoms: C2_2  and  O2_4 
REMARK    2  A    between atoms: O2_4  and  C3_5 
REMARK    3  A    between atoms: C4_6  and  O3_7 
REMARK    4  A    between atoms: O3_7  and  C5_8 
REMARK    5  A    between atoms: C7_11  and  O5_12 
REMARK    6  A    between atoms: C7_11  and  C11_21 
REMARK    7  A    between atoms: O5_12  and  C8_13 
REMARK    8  A    between atoms: C8_13  and  C9_15 
REMARK    9  A    between atoms: C9_15  and  C10_16 
REMARK   10  A    between atoms: C10_16  and  N1_17 
REMARK   11  A    between atoms: C13_26  and  C14_27 
REMARK   12  A    between atoms: C16_31  and  O12_32 
REMARK   13  A    between atoms: C18_35  and  O13_36 
REMARK   14  A    between atoms: C18_35  and  C19_38 
REMARK   15  A    between atoms: C19_38  and  O14_39 
REMARK   16  A    between atoms: C20_41  and  N2_42 
REMARK       I    between atoms: N2_42  and  C21_43 
REMARK   17  A    between atoms: C21_43  and  C22_45 
REMARK   18  A    between atoms: C23_46  and  C24_47 
REMARK   19  A    between atoms: C26_52  and  O19_53 
ROOT
HETATM    1  C3  UNL     1      -1.560  -1.919  -0.199  1.00  0.00     0.175 C 
HETATM    2  C4  UNL     1      -2.225  -0.932  -1.029  1.00  0.00     0.210 C 
HETATM    3  C7  UNL     1      -1.969   0.531  -0.841  1.00  0.00     0.208 C 
HETATM    4  C12 UNL     1      -0.534   0.923  -0.981  1.00  0.00     0.222 C 
HETATM    5  O9  UNL     1       0.394   0.154  -0.443  1.00  0.00    -0.362 OA
HETATM    6  C13 UNL     1       0.748  -1.070  -0.818  1.00  0.00     0.192 C 
HETATM    7  C15 UNL     1      -0.098  -2.048  -0.069  1.00  0.00     0.096 C 
HETATM    8  C16 UNL     1       0.213  -2.108   1.410  1.00  0.00     0.131 C 
HETATM    9  C17 UNL     1       1.620  -1.911   1.796  1.00  0.00     0.075 C 
HETATM   10  C18 UNL     1       2.532  -2.144   0.665  1.00  0.00     0.117 C 
HETATM   11  C20 UNL     1       2.236  -1.212  -0.461  1.00  0.00     0.249 C 
ENDROOT
BRANCH  11  12
HETATM   12  N2  UNL     1       2.917  -0.001  -0.354  1.00  0.00    -0.399 NA
HETATM   13  C21 UNL     1       3.583   1.188  -0.246  1.00  0.00     0.311 C 
HETATM   14  O15 UNL     1       3.514   1.941   0.753  1.00  0.00    -0.252 OA
BRANCH  13  15
HETATM   15  C22 UNL     1       4.459   1.671  -1.350  1.00  0.00     0.092 C 
HETATM   16  C23 UNL     1       5.166   2.728  -1.461  1.00  0.00     0.049 C 
BRANCH  16  17
HETATM   17  C24 UNL     1       5.384   3.852  -0.563  1.00  0.00     0.140 A 
HETATM   18  O16 UNL     1       4.937   4.132   0.623  1.00  0.00    -0.250 OA
HETATM   19  C25 UNL     1       5.424   5.260   1.012  1.00  0.00     0.419 A 
HETATM   20  O17 UNL     1       5.182   5.821   2.135  1.00  0.00    -0.229 OA
HETATM   21  O18 UNL     1       6.204   5.751   0.087  1.00  0.00    -0.229 OA
HETATM   22  C26 UNL     1       6.214   4.926  -0.901  1.00  0.00     0.223 A 
BRANCH  22  23
HETATM   23  O19 UNL     1       6.949   5.127  -2.080  1.00  0.00    -0.338 OA
ATOM     24  H19 UNL     1       7.513   5.856  -2.310  1.00  0.00     0.220 HD
ENDBRANCH  22  23
ENDBRANCH  16  17
ENDBRANCH  13  15
ENDBRANCH  11  12
BRANCH   6  25
HETATM   25  C14 UNL     1       0.711  -1.445  -2.247  1.00  0.00     0.213 C 
HETATM   26  O10 UNL     1       1.013  -2.650  -2.500  1.00  0.00    -0.646 OA
HETATM   27  O11 UNL     1       0.399  -0.677  -3.329  1.00  0.00    -0.646 OA
ENDBRANCH   6  25
BRANCH  10  28
HETATM   28  O13 UNL     1       2.519  -3.472   0.218  1.00  0.00    -0.384 OA
ATOM     29  H13 UNL     1       3.108  -3.622  -0.512  1.00  0.00     0.210 HD
ENDBRANCH  10  28
BRANCH  10  30
HETATM   30  C19 UNL     1       3.948  -1.824   1.158  1.00  0.00     0.205 C 
BRANCH  30  31
HETATM   31  O14 UNL     1       4.209  -2.715   2.190  1.00  0.00    -0.398 OA
ATOM     32  H14 UNL     1       5.086  -2.517   2.495  1.00  0.00     0.209 HD
ENDBRANCH  30  31
ENDBRANCH  10  30
BRANCH   1  33
HETATM   33  O2  UNL     1      -1.991  -3.246  -0.589  1.00  0.00    -0.313 OA
BRANCH  33  34
HETATM   34  C2  UNL     1      -2.681  -4.093   0.229  1.00  0.00     0.255 C 
HETATM   35  C1  UNL     1      -3.086  -5.441  -0.260  1.00  0.00     0.126 C 
HETATM   36  O1  UNL     1      -2.970  -3.748   1.372  1.00  0.00    -0.266 OA
ENDBRANCH  33  34
ENDBRANCH   1  33
BRANCH   8  37
HETATM   37  O12 UNL     1      -0.541  -1.139   2.119  1.00  0.00    -0.395 OA
ATOM     38  H12 UNL     1      -0.346  -1.177   3.048  1.00  0.00     0.210 HD
ENDBRANCH   8  37
BRANCH   3  39
HETATM   39  O5  UNL     1      -2.577   0.899   0.362  1.00  0.00    -0.294 OA
BRANCH  39  40
HETATM   40  C8  UNL     1      -2.675   2.107   0.959  1.00  0.00     0.261 C 
HETATM   41  O6  UNL     1      -2.177   3.096   0.412  1.00  0.00    -0.265 OA
BRANCH  40  42
HETATM   42  C9  UNL     1      -3.370   2.328   2.274  1.00  0.00     0.138 C 
BRANCH  42  43
HETATM   43  C10 UNL     1      -3.325   3.809   2.624  1.00  0.00     0.239 C 
BRANCH  43  44
HETATM   44  N1  UNL     1      -3.981   4.085   3.870  1.00  0.00    -0.079 N 
ATOM     45  H13 UNL     1      -4.938   3.733   3.871  1.00  0.00     0.274 HD
ATOM     46  H12 UNL     1      -3.599   3.514   4.624  1.00  0.00     0.274 HD
ATOM     47  H11 UNL     1      -3.951   5.077   4.104  1.00  0.00     0.274 HD
ENDBRANCH  43  44
ENDBRANCH  42  43
ENDBRANCH  40  42
ENDBRANCH  39  40
ENDBRANCH   3  39
BRANCH   3  48
HETATM   48  C11 UNL     1      -2.783   1.217  -1.913  1.00  0.00     0.215 C 
HETATM   49  O7  UNL     1      -2.499   1.136  -3.131  1.00  0.00    -0.646 OA
HETATM   50  O8  UNL     1      -3.894   1.974  -1.594  1.00  0.00    -0.646 OA
ENDBRANCH   3  48
BRANCH   2  51
HETATM   51  O3  UNL     1      -3.661  -1.086  -0.830  1.00  0.00    -0.310 OA
BRANCH  51  52
HETATM   52  C5  UNL     1      -4.528  -1.517  -1.781  1.00  0.00     0.255 C 
HETATM   53  C6  UNL     1      -5.973  -1.614  -1.403  1.00  0.00     0.126 C 
HETATM   54  O4  UNL     1      -4.111  -1.812  -2.906  1.00  0.00    -0.266 OA
ENDBRANCH  51  52
ENDBRANCH   2  51
TORSDOF 19
