REMARK  7 active torsions:
REMARK  status: ('A' for Active; 'I' for Inactive)
REMARK    1  A    between atoms: O1_2  and  C2_3 
REMARK    2  A    between atoms: C3_4  and  O2_5 
REMARK    3  A    between atoms: O2_5  and  C4_6 
REMARK    4  A    between atoms: C31_35  and  C32_36 
REMARK    5  A    between atoms: C32_36  and  O5_37 
REMARK    6  A    between atoms: C33_39  and  O6_40 
REMARK    7  A    between atoms: C34_42  and  O7_43 
ROOT
HETATM    1  C4  UNL     1      -2.507  -1.199  -0.418  1.00  0.00     0.133 C 
HETATM    2  C5  UNL     1      -1.659  -2.181   0.412  1.00  0.00     0.034 C 
HETATM    3  C6  UNL     1      -0.322  -2.272  -0.261  1.00  0.00     0.013 C 
HETATM    4  C7  UNL     1      -0.281  -1.180  -1.240  1.00  0.00    -0.030 C 
HETATM    5  C8  UNL     1      -0.559  -1.792  -2.627  1.00  0.00     0.016 C 
HETATM    6  C9  UNL     1       1.022  -0.430  -1.396  1.00  0.00     0.003 C 
HETATM    7  C10 UNL     1       2.073  -1.416  -1.853  1.00  0.00     0.007 C 
HETATM    8  C11 UNL     1       3.465  -0.954  -1.518  1.00  0.00     0.010 C 
HETATM    9  C12 UNL     1       3.670  -0.702  -0.039  1.00  0.00    -0.035 C 
HETATM   10  C13 UNL     1       3.642  -2.103   0.607  1.00  0.00     0.016 C 
HETATM   11  C14 UNL     1       5.102  -0.250   0.180  1.00  0.00     0.003 C 
HETATM   12  C15 UNL     1       5.642   0.500  -1.020  1.00  0.00     0.013 C 
HETATM   13  C16 UNL     1       7.126   0.701  -0.954  1.00  0.00     0.079 C 
HETATM   14  C17 UNL     1       7.553   0.315   0.424  1.00  0.00     0.131 C 
HETATM   15  O3  UNL     1       8.447  -0.470   0.634  1.00  0.00    -0.298 OA
HETATM   16  C18 UNL     1       6.754   1.004   1.483  1.00  0.00     0.060 C 
HETATM   17  C19 UNL     1       6.792   2.464   1.187  1.00  0.00     0.018 C 
HETATM   18  C20 UNL     1       5.346   0.416   1.496  1.00  0.00    -0.030 C 
HETATM   19  C21 UNL     1       5.406  -0.634   2.621  1.00  0.00     0.016 C 
HETATM   20  C22 UNL     1       4.322   1.410   1.911  1.00  0.00     0.011 C 
HETATM   21  C23 UNL     1       3.153   1.536   0.983  1.00  0.00     0.007 C 
HETATM   22  C24 UNL     1       2.621   0.184   0.506  1.00  0.00     0.003 C 
HETATM   23  C25 UNL     1       1.411   0.480  -0.325  1.00  0.00    -0.035 C 
HETATM   24  C26 UNL     1       1.533   1.904  -0.909  1.00  0.00     0.016 C 
HETATM   25  C27 UNL     1       0.241   0.636   0.656  1.00  0.00     0.011 C 
HETATM   26  C28 UNL     1      -1.073   0.823  -0.056  1.00  0.00     0.013 C 
HETATM   27  C29 UNL     1      -1.458  -0.274  -0.976  1.00  0.00    -0.010 C 
HETATM   28  C30 UNL     1      -1.940   0.359  -2.288  1.00  0.00     0.018 C 
ENDROOT
BRANCH   1  29
HETATM   29  O2  UNL     1      -3.380  -0.636   0.467  1.00  0.00    -0.352 OA
BRANCH  29  30
HETATM   30  C3  UNL     1      -4.728  -0.876   0.229  1.00  0.00     0.292 C 
HETATM   31  C2  UNL     1      -5.537   0.301  -0.110  1.00  0.00     0.207 C 
HETATM   32  C34 UNL     1      -6.991  -0.004   0.290  1.00  0.00     0.185 C 
HETATM   33  C33 UNL     1      -6.947  -0.028   1.808  1.00  0.00     0.180 C 
HETATM   34  C31 UNL     1      -6.009  -1.164   2.163  1.00  0.00     0.179 C 
HETATM   35  O4  UNL     1      -5.312  -1.694   1.141  1.00  0.00    -0.348 OA
BRANCH  31  36
HETATM   36  O1  UNL     1      -5.609   0.643  -1.456  1.00  0.00    -0.383 OA
HETATM   37  C1  UNL     1      -5.363   2.029  -1.589  1.00  0.00     0.202 C 
ENDBRANCH  31  36
BRANCH  32  38
HETATM   38  O7  UNL     1      -7.866   0.909  -0.227  1.00  0.00    -0.385 OA
HETATM   39  C35 UNL     1      -8.783   0.266  -1.057  1.00  0.00     0.202 C 
ENDBRANCH  32  38
BRANCH  33  40
HETATM   40  O6  UNL     1      -6.526   1.193   2.287  1.00  0.00    -0.390 OA
ATOM     41  H6  UNL     1      -7.114   1.905   2.064  1.00  0.00     0.210 HD
ENDBRANCH  33  40
BRANCH  34  42
HETATM   42  C32 UNL     1      -5.159  -0.719   3.311  1.00  0.00     0.198 C 
BRANCH  42  43
HETATM   43  O5  UNL     1      -4.250   0.254   3.009  1.00  0.00    -0.398 OA
ATOM     44  H5  UNL     1      -3.710   0.537   3.738  1.00  0.00     0.209 HD
ENDBRANCH  42  43
ENDBRANCH  34  42
ENDBRANCH  29  30
ENDBRANCH   1  29
TORSDOF 7
