REMARK  9 active torsions:
REMARK  status: ('A' for Active; 'I' for Inactive)
REMARK    1  A    between atoms: C2_2  and  C3_3 
REMARK    2  A    between atoms: C3_3  and  C4_4 
REMARK    3  A    between atoms: C4_4  and  N1_6 
REMARK    4  A    between atoms: N1_6  and  S1_8 
REMARK    5  A    between atoms: S1_8  and  N2_10 
REMARK    6  A    between atoms: S1_8  and  N4_17 
REMARK    7  A    between atoms: N2_10  and  C6_12 
REMARK       I    between atoms: N4_17  and  C8_19 
REMARK    8  A    between atoms: C8_19  and  O3_21 
REMARK    9  A    between atoms: O3_21  and  C9_22 
ROOT
HETATM    1  S1  UNL     1       0.840   0.909  -0.086  1.00  0.00     0.204 S 
HETATM    2  O1  UNL     1       0.568   1.138   1.401  1.00  0.00    -0.205 OA
ENDROOT
BRANCH   1   3
HETATM    3  N1  UNL     1       2.438   0.541  -0.285  1.00  0.00    -0.315 N 
ATOM      4  H1  UNL     1       3.127   1.221   0.037  1.00  0.00     0.172 HD
BRANCH   3   5
HETATM    5  C4  UNL     1       2.908  -0.637  -0.864  1.00  0.00     0.089 C 
HETATM    6  C5  UNL     1       2.446  -0.902  -2.271  1.00  0.00     0.033 C 
BRANCH   5   7
HETATM    7  C3  UNL     1       2.594  -1.833  -0.001  1.00  0.00     0.025 C 
BRANCH   7   8
HETATM    8  C2  UNL     1       3.036  -1.685   1.422  1.00  0.00    -0.002 C 
HETATM    9  C1  UNL     1       4.553  -1.493   1.421  1.00  0.00     0.005 C 
ENDBRANCH   7   8
ENDBRANCH   5   7
ENDBRANCH   3   5
ENDBRANCH   1   3
BRANCH   1  10
HETATM   10  N2  UNL     1       0.573   2.361  -0.708  1.00  0.00    -0.274 N 
ATOM     11  H2  UNL     1       0.120   2.490  -1.613  1.00  0.00     0.180 HD
BRANCH  10  12
HETATM   12  C6  UNL     1       1.008   3.452   0.081  1.00  0.00     0.080 C 
HETATM   13  C7  UNL     1       0.523   4.807  -0.344  1.00  0.00     0.089 C 
HETATM   14  N3  UNL     1       1.775   3.314   1.104  1.00  0.00    -0.389 N 
ATOM     15  H32 UNL     1       2.105   2.393   1.393  1.00  0.00     0.157 HD
ATOM     16  H31 UNL     1       2.089   4.100   1.673  1.00  0.00     0.157 HD
ENDBRANCH  10  12
ENDBRANCH   1  10
BRANCH   1  17
HETATM   17  N4  UNL     1      -0.335  -0.191  -0.630  1.00  0.00    -0.230 N 
HETATM   18  C8  UNL     1      -1.663  -0.178  -0.123  1.00  0.00     0.375 C 
HETATM   19  O2  UNL     1      -2.001   0.678   0.774  1.00  0.00    -0.237 OA
ATOM     20  H4  UNL     1      -0.081  -0.879  -1.339  1.00  0.00     0.184 HD
BRANCH  18  21
HETATM   21  O3  UNL     1      -2.669  -1.023  -0.512  1.00  0.00    -0.293 OA
BRANCH  21  22
HETATM   22  C9  UNL     1      -3.994  -0.959   0.039  1.00  0.00     0.061 C 
HETATM   23  C10 UNL     1      -4.767  -2.057  -0.702  1.00  0.00     0.046 C 
HETATM   24  C11 UNL     1      -3.994  -1.280   1.523  1.00  0.00     0.046 C 
HETATM   25  C12 UNL     1      -4.655   0.348  -0.229  1.00  0.00     0.046 C 
ENDBRANCH  21  22
ENDBRANCH  18  21
ENDBRANCH   1  17
TORSDOF 9
