REMARK  12 active torsions:
REMARK  status: ('A' for Active; 'I' for Inactive)
REMARK    1  A    between atoms: C4_4  and  N1_5 
REMARK    2  A    between atoms: N1_5  and  C5_7 
REMARK    3  A    between atoms: C13_15  and  N2_16 
REMARK    4  A    between atoms: N2_16  and  C14_18 
REMARK    5  A    between atoms: C14_18  and  C15_19 
REMARK    6  A    between atoms: C15_19  and  C16_20 
REMARK    7  A    between atoms: C16_20  and  C17_21 
REMARK    8  A    between atoms: C17_21  and  C18_22 
REMARK    9  A    between atoms: C18_22  and  C19_23 
REMARK   10  A    between atoms: C19_23  and  N3_24 
REMARK   11  A    between atoms: N3_24  and  C20_27 
REMARK   12  A    between atoms: C20_27  and  C21_28 
ROOT
HETATM    1  N2  UNL     1      -0.379  -0.860  -0.813  1.00  0.00    -0.413 N 
ATOM      2  H2  UNL     1      -1.141  -0.843  -1.491  1.00  0.00     0.153 HD
ENDROOT
BRANCH   1   3
HETATM    3  C13 UNL     1       0.981  -0.838  -1.239  1.00  0.00     0.105 C 
HETATM    4  C2  UNL     1       1.686  -2.119  -0.927  1.00  0.00    -0.062 C 
HETATM    5  C1  UNL     1       1.168  -3.199  -0.445  1.00  0.00     0.016 C 
HETATM    6  C3  UNL     1       3.165  -2.069  -1.236  1.00  0.00     0.087 C 
HETATM    7  C4  UNL     1       3.749  -1.258  -0.041  1.00  0.00    -0.014 C 
HETATM    8  C11 UNL     1       2.865  -0.141   0.317  1.00  0.00     0.054 C 
HETATM    9  C12 UNL     1       1.843   0.265  -0.740  1.00  0.00     0.035 C 
BRANCH   7  10
HETATM   10  N1  UNL     1       5.115  -1.178  -0.164  1.00  0.00    -0.391 N 
ATOM     11  H1  UNL     1       5.566  -1.992  -0.582  1.00  0.00     0.159 HD
BRANCH  10  12
HETATM   12  C5  UNL     1       5.954  -0.162   0.195  1.00  0.00     0.081 C 
HETATM   13  C6  UNL     1       5.831   1.098  -0.613  1.00  0.00     0.025 C 
HETATM   14  C7  UNL     1       6.731   2.188  -0.032  1.00  0.00     0.002 C 
HETATM   15  C8  UNL     1       8.161   1.694  -0.142  1.00  0.00     0.000 C 
HETATM   16  C9  UNL     1       8.265   0.432   0.708  1.00  0.00     0.002 C 
HETATM   17  C10 UNL     1       7.419  -0.631   0.025  1.00  0.00     0.025 C 
ENDBRANCH  10  12
ENDBRANCH   7  10
ENDBRANCH   1   3
BRANCH   1  18
HETATM   18  C14 UNL     1      -0.644  -0.906   0.579  1.00  0.00     0.114 C 
BRANCH  18  19
HETATM   19  C15 UNL     1      -2.016  -1.420   0.857  1.00  0.00     0.019 C 
BRANCH  19  20
HETATM   20  C16 UNL     1      -3.173  -0.662   0.292  1.00  0.00     0.002 C 
BRANCH  20  21
HETATM   21  C17 UNL     1      -3.218   0.726   0.782  1.00  0.00     0.002 C 
BRANCH  21  22
HETATM   22  C18 UNL     1      -4.368   1.577   0.342  1.00  0.00     0.027 C 
BRANCH  22  23
HETATM   23  C19 UNL     1      -5.725   1.096   0.724  1.00  0.00     0.232 C 
BRANCH  23  24
HETATM   24  N3  UNL     1      -6.207  -0.078   0.055  1.00  0.00    -0.069 N 
ATOM     25  H32 UNL     1      -6.335   0.042  -0.950  1.00  0.00     0.277 HD
ATOM     26  H31 UNL     1      -5.521  -0.831  -0.004  1.00  0.00     0.277 HD
BRANCH  24  27
HETATM   27  C20 UNL     1      -7.458  -0.454   0.785  1.00  0.00     0.296 C 
BRANCH  27  28
HETATM   28  C21 UNL     1      -8.491   0.559   0.359  1.00  0.00     0.078 A 
HETATM   29  C22 UNL     1      -9.557   0.974   1.130  1.00  0.00     0.036 A 
HETATM   30  C23 UNL     1     -10.231   1.915   0.353  1.00  0.00     0.027 A 
HETATM   31  C24 UNL     1      -9.492   1.971  -0.827  1.00  0.00     0.142 A 
HETATM   32  O1  UNL     1      -8.480   1.176  -0.809  1.00  0.00    -0.325 OA
ENDBRANCH  27  28
ENDBRANCH  24  27
ENDBRANCH  23  24
ENDBRANCH  22  23
ENDBRANCH  21  22
ENDBRANCH  20  21
ENDBRANCH  19  20
ENDBRANCH  18  19
ENDBRANCH   1  18
TORSDOF 12
