REMARK  2 active torsions:
REMARK  status: ('A' for Active; 'I' for Inactive)
REMARK    1  A    between atoms: C2_3  and  O1_4 
REMARK    2  A    between atoms: C4_7  and  O2_8 
ROOT
HETATM    1  C1  UNL     1       2.374  -0.734   0.567  1.00  0.00     0.316 C 
HETATM    2  N1  UNL     1       0.956  -0.379   0.483  1.00  0.00     0.142 N 
HETATM    3  C2  UNL     1       0.705   1.005   0.157  1.00  0.00     0.370 C 
HETATM    4  C3  UNL     1      -0.280   0.553  -0.882  1.00  0.00     0.135 C 
HETATM    5  C4  UNL     1      -1.661   0.271  -0.416  1.00  0.00     0.154 C 
HETATM    6  C5  UNL     1      -1.677  -1.193  -0.097  1.00  0.00     0.203 C 
HETATM    7  O3  UNL     1      -0.555  -1.754  -0.681  1.00  0.00    -0.354 OA
HETATM    8  C6  UNL     1       0.411  -0.776  -0.781  1.00  0.00     0.372 C 
ENDROOT
BRANCH   3   9
HETATM    9  O1  UNL     1       0.205   1.789   1.176  1.00  0.00    -0.367 OA
ATOM     10  H1  UNL     1       0.040   2.700   0.962  1.00  0.00     0.212 HD
ENDBRANCH   3   9
BRANCH   5  11
HETATM   11  O2  UNL     1      -2.075   1.069   0.648  1.00  0.00    -0.393 OA
ATOM     12  H2  UNL     1      -2.959   0.889   0.946  1.00  0.00     0.210 HD
ENDBRANCH   5  11
TORSDOF 2
