REMARK  8 active torsions:
REMARK  status: ('A' for Active; 'I' for Inactive)
REMARK    1  A    between atoms: N1_1  and  C1_4 
REMARK    2  A    between atoms: C4_7  and  N2_8 
REMARK    3  A    between atoms: N2_8  and  C5_10 
REMARK    4  A    between atoms: C5_10  and  C6_11 
REMARK    5  A    between atoms: C6_11  and  N3_12 
REMARK    6  A    between atoms: N3_12  and  C7_15 
REMARK    7  A    between atoms: C7_15  and  C8_16 
REMARK    8  A    between atoms: C8_16  and  N4_17 
ROOT
HETATM    1  N2  UNL     1      -0.700  -0.840   0.030  1.00  0.00    -0.367 N 
ATOM      2  H2  UNL     1      -0.269  -1.651   0.475  1.00  0.00     0.161 HD
ENDROOT
BRANCH   1   3
HETATM    3  C4  UNL     1      -1.939  -0.555   0.228  1.00  0.00     0.166 A 
HETATM    4  C3  UNL     1      -2.705  -1.349   1.054  1.00  0.00     0.062 A 
HETATM    5  C2  UNL     1      -4.052  -1.066   1.288  1.00  0.00     0.054 A 
HETATM    6  C1  UNL     1      -4.550   0.053   0.640  1.00  0.00     0.119 A 
HETATM    7  N5  UNL     1      -3.759   0.791  -0.152  1.00  0.00    -0.244 N 
HETATM    8  O1  UNL     1      -2.497   0.499  -0.353  1.00  0.00    -0.218 OA
ATOM      9  H5  UNL     1      -4.154   1.610  -0.615  1.00  0.00     0.196 HD
BRANCH   6  10
HETATM   10  N1  UNL     1      -5.809   0.360   0.815  1.00  0.00    -0.384 N 
ATOM     11  H12 UNL     1      -6.411  -0.201   1.418  1.00  0.00     0.157 HD
ATOM     12  H11 UNL     1      -6.176   1.184   0.338  1.00  0.00     0.157 HD
ENDBRANCH   6  10
ENDBRANCH   1   3
BRANCH   1  13
HETATM   13  C5  UNL     1       0.067   0.030  -0.848  1.00  0.00     0.149 C 
BRANCH  13  14
HETATM   14  C6  UNL     1       1.300  -0.680  -1.341  1.00  0.00     0.251 C 
BRANCH  14  15
HETATM   15  N3  UNL     1       2.119  -1.064  -0.245  1.00  0.00    -0.072 N 
ATOM     16  H32 UNL     1       1.585  -1.609   0.432  1.00  0.00     0.277 HD
ATOM     17  H31 UNL     1       2.799  -1.769  -0.531  1.00  0.00     0.277 HD
BRANCH  15  18
HETATM   18  C7  UNL     1       2.769   0.038   0.391  1.00  0.00     0.259 C 
BRANCH  18  19
HETATM   19  C8  UNL     1       3.831   0.608  -0.542  1.00  0.00     0.257 C 
BRANCH  19  20
HETATM   20  N4  UNL     1       4.515   1.740   0.098  1.00  0.00    -0.078 N 
ATOM     21  H43 UNL     1       3.858   2.455   0.409  1.00  0.00     0.274 HD
ATOM     22  H42 UNL     1       4.903   1.486   1.007  1.00  0.00     0.274 HD
ATOM     23  H41 UNL     1       5.226   2.121  -0.526  1.00  0.00     0.274 HD
ENDBRANCH  19  20
ENDBRANCH  18  19
ENDBRANCH  15  18
ENDBRANCH  14  15
ENDBRANCH  13  14
ENDBRANCH   1  13
TORSDOF 8
