REMARK  6 active torsions:
REMARK  status: ('A' for Active; 'I' for Inactive)
REMARK    1  A    between atoms: C5_11  and  N4_12 
REMARK    2  A    between atoms: C7_16  and  C8_17 
REMARK    3  A    between atoms: C9_18  and  C10_19 
REMARK    4  A    between atoms: C10_19  and  N5_20 
REMARK    5  A    between atoms: N5_20  and  C11_22 
REMARK    6  A    between atoms: C11_22  and  C12_23 
ROOT
HETATM    1  C1  UNL     1      -5.554   0.110  -0.309  1.00  0.00     0.148 C 
HETATM    2  N1  UNL     1      -4.499  -0.435  -1.103  1.00  0.00    -0.377 N 
ATOM      3  H1  UNL     1      -4.798  -0.859  -1.981  1.00  0.00     0.160 HD
HETATM    4  C2  UNL     1      -3.252  -0.475  -0.890  1.00  0.00     0.154 A 
HETATM    5  C3  UNL     1      -2.601   0.024   0.212  1.00  0.00     0.094 A 
HETATM    6  N2  UNL     1      -3.337   0.671   1.107  1.00  0.00    -0.348 N 
ATOM      7  H2  UNL     1      -4.346   0.730   0.970  1.00  0.00     0.167 HD
HETATM    8  C4  UNL     1      -2.791   1.249   2.187  1.00  0.00     0.182 A 
HETATM    9  N3  UNL     1      -1.462   1.173   2.369  1.00  0.00    -0.338 N 
ATOM     10  H3  UNL     1      -1.049   1.615   3.190  1.00  0.00     0.168 HD
HETATM   11  C5  UNL     1      -0.652   0.526   1.494  1.00  0.00     0.113 A 
HETATM   12  C6  UNL     1      -1.210  -0.073   0.392  1.00  0.00     0.052 A 
HETATM   13  C7  UNL     1      -0.416  -0.681  -0.525  1.00  0.00     0.028 A 
HETATM   14  C13 UNL     1      -1.160  -1.177  -1.662  1.00  0.00     0.157 A 
HETATM   15  N6  UNL     1      -1.142  -1.799  -2.831  1.00  0.00    -0.268 N 
ATOM     16  H6  UNL     1      -0.400  -2.206  -3.401  1.00  0.00     0.190 HD
HETATM   17  N7  UNL     1      -2.447  -1.693  -2.978  1.00  0.00    -0.231 N 
ATOM     18  H7  UNL     1      -3.136  -1.967  -3.678  1.00  0.00     0.209 HD
HETATM   19  N8  UNL     1      -2.462  -1.068  -1.802  1.00  0.00    -0.205 N 
ENDROOT
BRANCH  13  20
HETATM   20  C8  UNL     1       0.780  -1.086  -0.417  1.00  0.00     0.018 C 
HETATM   21  C9  UNL     1       1.995  -1.311   0.282  1.00  0.00     0.018 C 
BRANCH  21  22
HETATM   22  C10 UNL     1       3.203  -0.569  -0.249  1.00  0.00     0.083 C 
BRANCH  22  23
HETATM   23  N5  UNL     1       4.263  -0.470   0.415  1.00  0.00    -0.398 N 
ATOM     24  H5  UNL     1       4.319  -0.899   1.339  1.00  0.00     0.158 HD
BRANCH  23  25
HETATM   25  C11 UNL     1       5.387   0.231  -0.101  1.00  0.00     0.134 C 
BRANCH  25  26
HETATM   26  C12 UNL     1       5.307   1.719   0.145  1.00  0.00     0.134 C 
HETATM   27 CL1  UNL     1       3.861   2.401  -0.625  1.00  0.00    -0.129 Cl
ENDBRANCH  25  26
ENDBRANCH  23  25
ENDBRANCH  22  23
ENDBRANCH  21  22
ENDBRANCH  13  20
BRANCH  11  28
HETATM   28  N4  UNL     1       0.572   0.614   1.709  1.00  0.00    -0.385 N 
ATOM     29  H42 UNL     1       0.987   1.059   2.528  1.00  0.00     0.157 HD
ATOM     30  H41 UNL     1       1.181   0.128   1.051  1.00  0.00     0.157 HD
ENDBRANCH  11  28
TORSDOF 6
