REMARK  9 active torsions:
REMARK  status: ('A' for Active; 'I' for Inactive)
REMARK    1  A    between atoms: N1_1  and  C1_4 
REMARK    2  A    between atoms: N5_9  and  C2_10 
REMARK    3  A    between atoms: C2_10  and  C3_11 
REMARK    4  A    between atoms: C3_11  and  N6_12 
REMARK    5  A    between atoms: N6_12  and  C4_15 
REMARK    6  A    between atoms: C4_15  and  C5_16 
REMARK    7  A    between atoms: C5_16  and  C6_17 
REMARK    8  A    between atoms: C6_17  and  C7_18 
REMARK    9  A    between atoms: C7_18  and  N7_19 
ROOT
HETATM    1  N6  UNL     1       1.529   0.694   0.274  1.00  0.00    -0.074 N 
ATOM      2  H61 UNL     1       1.780  -0.287   0.400  1.00  0.00     0.277 HD
ATOM      3  H62 UNL     1       0.894   0.565  -0.514  1.00  0.00     0.277 HD
ENDROOT
BRANCH   1   4
HETATM    4  C3  UNL     1       2.666   1.538  -0.041  1.00  0.00     0.254 C 
BRANCH   4   5
HETATM    5  C2  UNL     1       3.419   1.025  -1.250  1.00  0.00     0.193 C 
BRANCH   5   6
HETATM    6  N5  UNL     1       3.927  -0.311  -1.045  1.00  0.00    -0.107 N 
HETATM    7  C1  UNL     1       5.125  -0.617  -0.534  1.00  0.00     0.703 A 
HETATM    8  N2  UNL     1       5.208  -1.955  -0.512  1.00  0.00    -0.117 N 
HETATM    9  N3  UNL     1       4.083  -2.451  -1.000  1.00  0.00     0.007 NA
ATOM     10  H2  UNL     1       6.003  -2.498  -0.176  1.00  0.00     0.202 HD
HETATM   11  N4  UNL     1       3.285  -1.450  -1.332  1.00  0.00     0.009 NA
BRANCH   7  12
HETATM   12  N1  UNL     1       6.068   0.165  -0.121  1.00  0.00    -0.232 N 
ATOM     13  H12 UNL     1       6.981  -0.068   0.269  1.00  0.00     0.174 HD
ATOM     14  H11 UNL     1       6.005   1.183  -0.138  1.00  0.00     0.174 HD
ENDBRANCH   7  12
ENDBRANCH   5   6
ENDBRANCH   4   5
ENDBRANCH   1   4
BRANCH   1  15
HETATM   15  C4  UNL     1       0.882   1.275   1.442  1.00  0.00     0.232 C 
BRANCH  15  16
HETATM   16  C5  UNL     1      -0.328   0.467   1.862  1.00  0.00     0.029 C 
BRANCH  16  17
HETATM   17  C6  UNL     1      -1.358   0.409   0.741  1.00  0.00     0.022 C 
BRANCH  17  18
HETATM   18  C7  UNL     1      -2.517  -0.413   1.257  1.00  0.00     0.128 C 
BRANCH  18  19
HETATM   19  N7  UNL     1      -3.571  -0.539   0.269  1.00  0.00    -0.366 N 
HETATM   20  C8  UNL     1      -3.588  -1.552  -0.617  1.00  0.00     0.090 A 
HETATM   21  C9  UNL     1      -4.559  -1.713  -1.566  1.00  0.00     0.017 A 
HETATM   22  C10 UNL     1      -5.594  -0.805  -1.649  1.00  0.00     0.003 A 
HETATM   23  C11 UNL     1      -5.583   0.243  -0.739  1.00  0.00     0.017 A 
HETATM   24  C12 UNL     1      -4.576   0.355   0.199  1.00  0.00     0.090 A 
ENDBRANCH  18  19
ENDBRANCH  17  18
ENDBRANCH  16  17
ENDBRANCH  15  16
ENDBRANCH   1  15
TORSDOF 9
