REMARK  11 active torsions:
REMARK  status: ('A' for Active; 'I' for Inactive)
REMARK    1  A    between atoms: C2_2  and  O1_3 
REMARK    2  A    between atoms: O1_3  and  C3_4 
REMARK    3  A    between atoms: C7_9  and  C8_10 
REMARK    4  A    between atoms: C8_10  and  N2_11 
REMARK    5  A    between atoms: N2_11  and  C9_12 
REMARK    6  A    between atoms: N2_11  and  C11_14 
REMARK    7  A    between atoms: C11_14  and  O2_15 
REMARK    8  A    between atoms: C11_14  and  C12_17 
REMARK    9  A    between atoms: C20_26  and  O3_27 
REMARK   10  A    between atoms: C22_30  and  O4_31 
REMARK   11  A    between atoms: O4_31  and  C23_32 
ROOT
HETATM    1  C3  UNL     1      -4.187   0.514  -0.821  1.00  0.00     0.103 A 
HETATM    2  C4  UNL     1      -3.302   1.330  -1.367  1.00  0.00     0.063 A 
HETATM    3  C5  UNL     1      -1.958   1.121  -1.202  1.00  0.00     0.059 A 
HETATM    4  C6  UNL     1      -1.132   2.100  -1.877  1.00  0.00     0.100 C 
HETATM    5  N1  UNL     1      -0.498   2.846  -2.464  1.00  0.00    -0.191 NA
HETATM    6  C7  UNL     1      -1.412   0.100  -0.488  1.00  0.00     0.003 A 
HETATM    7  C21 UNL     1      -2.411  -0.784   0.084  1.00  0.00     0.054 A 
HETATM    8  C22 UNL     1      -3.779  -0.606  -0.058  1.00  0.00     0.102 A 
ENDROOT
BRANCH   6   9
HETATM    9  C8  UNL     1      -0.196   0.104   0.195  1.00  0.00     0.111 C 
BRANCH   9  10
HETATM   10  N2  UNL     1       1.014  -0.599   0.217  1.00  0.00    -0.316 N 
BRANCH  10  11
HETATM   11  C9  UNL     1       1.139  -1.981   0.500  1.00  0.00     0.067 C 
HETATM   12  C10 UNL     1       1.222  -2.582   1.819  1.00  0.00     0.055 C 
ENDBRANCH  10  11
BRANCH  10  13
HETATM   13  C11 UNL     1       2.148   0.090  -0.282  1.00  0.00     0.159 C 
BRANCH  13  14
HETATM   14  O2  UNL     1       1.783   1.178  -0.945  1.00  0.00    -0.345 OA
ATOM     15  H2  UNL     1       2.543   1.640  -1.279  1.00  0.00     0.219 HD
ENDBRANCH  13  14
BRANCH  13  16
HETATM   16  C12 UNL     1       3.564   0.044  -0.321  1.00  0.00     0.056 A 
HETATM   17  C13 UNL     1       4.276   0.389   0.835  1.00  0.00    -0.044 A 
HETATM   18  C14 UNL     1       3.532   0.523   2.143  1.00  0.00     0.049 C 
HETATM   19  C15 UNL     1       5.611   0.748   0.831  1.00  0.00     0.016 A 
HETATM   20  C16 UNL     1       6.327   0.782  -0.360  1.00  0.00    -0.038 A 
HETATM   21  C17 UNL     1       7.742   1.235  -0.375  1.00  0.00     0.050 C 
HETATM   22  C18 UNL     1       5.632   0.441  -1.483  1.00  0.00     0.084 A 
HETATM   23  C19 UNL     1       6.382   0.456  -2.728  1.00  0.00     0.103 C 
HETATM   24  C20 UNL     1       4.316   0.083  -1.479  1.00  0.00     0.102 A 
HETATM   25  N3  UNL     1       6.960   0.514  -3.732  1.00  0.00    -0.191 NA
BRANCH  24  26
HETATM   26  O3  UNL     1       3.647  -0.294  -2.661  1.00  0.00    -0.358 OA
ATOM     27  H3  UNL     1       4.164  -0.267  -3.457  1.00  0.00     0.217 HD
ENDBRANCH  24  26
ENDBRANCH  13  16
ENDBRANCH  10  13
ENDBRANCH   9  10
ENDBRANCH   6   9
BRANCH   1  28
HETATM   28  O1  UNL     1      -5.583   0.743  -0.942  1.00  0.00    -0.349 OA
BRANCH  28  29
HETATM   29  C2  UNL     1      -6.093   1.866  -1.604  1.00  0.00     0.171 C 
HETATM   30  C1  UNL     1      -5.713   3.183  -0.931  1.00  0.00     0.034 C 
ENDBRANCH  28  29
ENDBRANCH   1  28
BRANCH   8  31
HETATM   31  O4  UNL     1      -4.772  -1.313   0.442  1.00  0.00    -0.349 OA
BRANCH  31  32
HETATM   32  C23 UNL     1      -5.517  -2.163   1.084  1.00  0.00     0.171 C 
HETATM   33  C24 UNL     1      -5.393  -3.629   0.873  1.00  0.00     0.034 C 
ENDBRANCH  31  32
ENDBRANCH   8  31
TORSDOF 11
