REMARK  10 active torsions:
REMARK  status: ('A' for Active; 'I' for Inactive)
REMARK    1  A    between atoms: C1_2  and  C2_3 
REMARK    2  A    between atoms: C2_3  and  C3_4 
REMARK    3  A    between atoms: C3_4  and  N1_5 
REMARK    4  A    between atoms: N1_5  and  N2_7 
REMARK    5  A    between atoms: N2_7  and  C4_9 
REMARK    6  A    between atoms: C4_9  and  C5_10 
REMARK    7  A    between atoms: C5_10  and  N3_11 
REMARK    8  A    between atoms: N3_11  and  C6_14 
REMARK    9  A    between atoms: C6_14  and  C7_15 
REMARK   10  A    between atoms: C7_15  and  O2_16 
ROOT
HETATM    1  C4  UNL     1       0.341  -0.365   0.131  1.00  0.00     0.166 C 
ENDROOT
BRANCH   1   2
HETATM    2  N2  UNL     1      -0.916  -1.035   0.040  1.00  0.00    -0.339 N 
ATOM      3  H2  UNL     1      -0.976  -2.045   0.170  1.00  0.00     0.179 HD
BRANCH   2   4
HETATM    4  N1  UNL     1      -2.004  -0.322  -0.216  1.00  0.00    -0.340 N 
ATOM      5  H1  UNL     1      -1.937   0.528  -0.776  1.00  0.00     0.179 HD
BRANCH   4   6
HETATM    6  C3  UNL     1      -3.270  -0.743   0.292  1.00  0.00     0.145 C 
BRANCH   6   7
HETATM    7  C2  UNL     1      -4.381   0.207  -0.142  1.00  0.00     0.090 C 
BRANCH   7   8
HETATM    8  C1  UNL     1      -4.158   1.578   0.340  1.00  0.00     0.232 C 
HETATM    9  O1  UNL     1      -4.014   1.851   1.534  1.00  0.00    -0.307 OA
ENDBRANCH   7   8
ENDBRANCH   6   7
ENDBRANCH   4   6
ENDBRANCH   2   4
ENDBRANCH   1   2
BRANCH   1  10
HETATM   10  C5  UNL     1       1.501  -1.240   0.393  1.00  0.00     0.253 C 
BRANCH  10  11
HETATM   11  N3  UNL     1       2.763  -0.552   0.472  1.00  0.00    -0.072 N 
ATOM     12  H32 UNL     1       2.752   0.180   1.182  1.00  0.00     0.277 HD
ATOM     13  H31 UNL     1       3.492  -1.142   0.873  1.00  0.00     0.277 HD
BRANCH  11  14
HETATM   14  C6  UNL     1       3.138  -0.042  -0.812  1.00  0.00     0.258 C 
BRANCH  14  15
HETATM   15  C7  UNL     1       4.467   0.696  -0.781  1.00  0.00     0.191 C 
BRANCH  15  16
HETATM   16  O2  UNL     1       4.418   1.788   0.091  1.00  0.00    -0.399 OA
ATOM     17  H2  UNL     1       5.248   2.249   0.110  1.00  0.00     0.209 HD
ENDBRANCH  15  16
ENDBRANCH  14  15
ENDBRANCH  11  14
ENDBRANCH  10  11
ENDBRANCH   1  10
TORSDOF 10
