REMARK  3 active torsions:
REMARK  status: ('A' for Active; 'I' for Inactive)
REMARK    1  A    between atoms: O1_2  and  C2_3 
REMARK    2  A    between atoms: C9_10  and  C10_11 
REMARK    3  A    between atoms: C13_14  and  C14_15 
ROOT
HETATM    1  C14 UNL     1       0.275   1.279   1.547  1.00  0.00     0.026 C 
HETATM    2  C15 UNL     1       0.680   2.443   1.866  1.00  0.00     0.122 C 
HETATM    3  C16 UNL     1       1.008   3.586   1.088  1.00  0.00     0.110 C 
HETATM    4  N1  UNL     1       1.289   4.555   0.481  1.00  0.00    -0.191 NA
HETATM    5  C17 UNL     1       0.845   2.661   3.340  1.00  0.00     0.110 C 
HETATM    6  N2  UNL     1       0.953   2.835   4.476  1.00  0.00    -0.191 NA
ENDROOT
BRANCH   1   7
HETATM    7  C13 UNL     1      -0.017   0.654   0.196  1.00  0.00     0.028 C 
HETATM    8  C4  UNL     1       0.826  -0.587   0.190  1.00  0.00    -0.042 C 
HETATM    9  C3  UNL     1       2.077  -0.677  -0.594  1.00  0.00     0.045 C 
HETATM   10  C5  UNL     1       0.403  -1.597   0.878  1.00  0.00    -0.014 C 
HETATM   11  C2  UNL     1       2.396   0.287  -1.419  1.00  0.00     0.068 C 
HETATM   12  C19 UNL     1       1.557   1.456  -1.542  1.00  0.00     0.034 C 
HETATM   13  C18 UNL     1       0.444   1.596  -0.792  1.00  0.00    -0.005 C 
HETATM   14  C6  UNL     1      -0.804  -1.647   1.685  1.00  0.00     0.005 C 
HETATM   15  C7  UNL     1      -1.437  -3.026   1.414  1.00  0.00     0.014 C 
HETATM   16  C8  UNL     1      -1.798  -0.560   1.415  1.00  0.00     0.014 C 
HETATM   17  C9  UNL     1      -1.477   0.272   0.186  1.00  0.00     0.010 C 
BRANCH  11  18
HETATM   18  O1  UNL     1       3.558   0.178  -2.157  1.00  0.00    -0.356 OA
HETATM   19  C1  UNL     1       4.771   0.037  -1.414  1.00  0.00     0.210 C 
ENDBRANCH  11  18
BRANCH  17  20
HETATM   20  C10 UNL     1      -1.880  -0.415  -1.067  1.00  0.00    -0.017 C 
HETATM   21  C11 UNL     1      -3.378  -0.729  -1.096  1.00  0.00     0.010 C 
HETATM   22  C12 UNL     1      -1.636   0.318  -2.357  1.00  0.00     0.010 C 
ENDBRANCH  17  20
ENDBRANCH   1   7
TORSDOF 3
