REMARK  14 active torsions:
REMARK  status: ('A' for Active; 'I' for Inactive)
REMARK    1  A    between atoms: N1_1  and  C1_4 
REMARK    2  A    between atoms: C3_8  and  C4_9 
REMARK    3  A    between atoms: C11_18  and  C12_19 
REMARK    4  A    between atoms: C12_19  and  C13_20 
REMARK    5  A    between atoms: C13_20  and  C14_21 
REMARK    6  A    between atoms: C14_21  and  C15_22 
REMARK    7  A    between atoms: C15_22  and  O1_23 
REMARK    8  A    between atoms: C16_25  and  C17_26 
REMARK    9  A    between atoms: C17_26  and  N4_27 
REMARK   10  A    between atoms: N4_27  and  C18_28 
REMARK   11  A    between atoms: N4_27  and  C20_32 
REMARK   12  A    between atoms: C18_28  and  C19_29 
REMARK   13  A    between atoms: C19_29  and  O2_30 
REMARK   14  A    between atoms: C20_32  and  C21_33 
ROOT
HETATM    1  C4  UNL     1       3.901   1.808  -0.325  1.00  0.00    -0.007 A 
HETATM    2  C5  UNL     1       2.856   2.674  -0.488  1.00  0.00     0.016 A 
HETATM    3  C6  UNL     1       1.560   2.261  -0.205  1.00  0.00     0.038 A 
HETATM    4  C7  UNL     1       1.368   0.962   0.241  1.00  0.00     0.081 A 
HETATM    5  C8  UNL     1       2.429   0.090   0.404  1.00  0.00     0.013 A 
HETATM    6  C9  UNL     1       3.711   0.498   0.124  1.00  0.00     0.029 A 
HETATM    7  C10 UNL     1       2.305  -1.316   0.876  1.00  0.00     0.097 C 
HETATM    8  N3  UNL     1       1.416  -1.547   1.926  1.00  0.00    -0.391 N 
ATOM      9  H3  UNL     1       1.790  -1.881   2.814  1.00  0.00     0.159 HD
HETATM   10  C11 UNL     1       0.035  -1.343   1.820  1.00  0.00     0.112 C 
HETATM   11  C16 UNL     1      -0.474  -0.683   0.581  1.00  0.00     0.179 C 
HETATM   12  O3  UNL     1       0.026   0.673   0.489  1.00  0.00    -0.341 OA
ENDROOT
BRANCH  11  13
HETATM   13  C17 UNL     1      -1.970  -0.515   0.688  1.00  0.00     0.306 C 
BRANCH  13  14
HETATM   14  N4  UNL     1      -2.515   0.197  -0.451  1.00  0.00     0.093 N 
BRANCH  14  15
HETATM   15  C18 UNL     1      -2.439  -0.528  -1.677  1.00  0.00     0.298 C 
BRANCH  15  16
HETATM   16  C19 UNL     1      -3.321  -1.746  -1.755  1.00  0.00     0.194 C 
BRANCH  16  17
HETATM   17  O2  UNL     1      -3.109  -2.323  -3.031  1.00  0.00    -0.399 OA
ATOM     18  H2  UNL     1      -3.665  -3.091  -3.080  1.00  0.00     0.209 HD
ENDBRANCH  16  17
ENDBRANCH  15  16
ENDBRANCH  14  15
BRANCH  14  19
HETATM   19  C20 UNL     1      -3.833   0.731  -0.212  1.00  0.00     0.277 C 
BRANCH  19  20
HETATM   20  C21 UNL     1      -3.891   1.837   0.784  1.00  0.00     0.014 C 
HETATM   21  C22 UNL     1      -3.084   3.040   0.433  1.00  0.00     0.006 C 
HETATM   22  C23 UNL     1      -3.909   3.788  -0.561  1.00  0.00     0.000 C 
HETATM   23  C24 UNL     1      -5.313   3.288  -0.415  1.00  0.00     0.000 C 
HETATM   24  C25 UNL     1      -5.324   2.369   0.764  1.00  0.00     0.006 C 
ENDBRANCH  19  20
ENDBRANCH  14  19
ENDBRANCH  13  14
ENDBRANCH  11  13
BRANCH  10  25
HETATM   25  C12 UNL     1      -0.669  -2.666   1.988  1.00  0.00     0.028 C 
BRANCH  25  26
HETATM   26  C13 UNL     1      -0.267  -3.667   0.931  1.00  0.00     0.004 C 
BRANCH  26  27
HETATM   27  C14 UNL     1      -0.987  -4.988   1.109  1.00  0.00     0.026 C 
BRANCH  27  28
HETATM   28  C15 UNL     1      -0.513  -5.912   0.006  1.00  0.00     0.164 C 
BRANCH  28  29
HETATM   29  O1  UNL     1       0.862  -6.110   0.081  1.00  0.00    -0.401 OA
ATOM     30  H1  UNL     1       1.159  -6.689  -0.611  1.00  0.00     0.209 HD
ENDBRANCH  28  29
ENDBRANCH  27  28
ENDBRANCH  26  27
ENDBRANCH  25  26
ENDBRANCH  10  25
BRANCH   1  31
HETATM   31  C3  UNL     1       5.284   2.206  -0.613  1.00  0.00     0.058 A 
HETATM   32  N2  UNL     1       6.290   1.297  -0.439  1.00  0.00    -0.361 N 
HETATM   33  C2  UNL     1       7.577   1.574  -0.675  1.00  0.00     0.136 A 
ATOM     34  H2  UNL     1       6.047   0.361  -0.113  1.00  0.00     0.165 HD
HETATM   35  C1  UNL     1       7.936   2.822  -1.113  1.00  0.00     0.114 A 
HETATM   36  N5  UNL     1       6.967   3.724  -1.289  1.00  0.00    -0.349 N 
HETATM   37  C26 UNL     1       5.656   3.447  -1.050  1.00  0.00     0.120 A 
ATOM     38  H5  UNL     1       7.219   4.657  -1.615  1.00  0.00     0.167 HD
BRANCH  35  39
HETATM   39  N1  UNL     1       9.168   3.147  -1.358  1.00  0.00    -0.384 N 
ATOM     40  H12 UNL     1       9.908   2.458  -1.224  1.00  0.00     0.157 HD
ATOM     41  H11 UNL     1       9.435   4.076  -1.684  1.00  0.00     0.157 HD
ENDBRANCH  35  39
ENDBRANCH   1  31
TORSDOF 14
