REMARK  1 active torsions:
REMARK  status: ('A' for Active; 'I' for Inactive)
REMARK    1  A    between atoms: C2_2  and  N1_3 
ROOT
HETATM    1  C1  UNL     1      -0.818   3.061  -1.145  1.00  0.00     0.047 C 
HETATM    2  C2  UNL     1      -0.492   1.639  -1.451  1.00  0.00     0.129 C 
HETATM    3  C3  UNL     1       0.950   1.263  -1.383  1.00  0.00     0.031 A 
HETATM    4  C4  UNL     1       1.648   0.070  -1.160  1.00  0.00    -0.003 A 
HETATM    5  C5  UNL     1       1.600  -1.367  -1.324  1.00  0.00     0.006 C 
HETATM    6  C6  UNL     1       0.466  -2.316  -1.422  1.00  0.00     0.007 C 
HETATM    7  C7  UNL     1      -0.509  -2.419  -0.233  1.00  0.00     0.013 C 
HETATM    8  C8  UNL     1      -0.200  -1.195   0.395  1.00  0.00     0.028 C 
HETATM    9  C9  UNL     1      -0.684  -0.331   1.440  1.00  0.00     0.195 C 
HETATM   10  N2  UNL     1      -2.108  -0.293   1.490  1.00  0.00    -0.069 N 
ATOM     11  H21 UNL     1      -2.499   0.572   1.118  1.00  0.00     0.277 HD
ATOM     12  H22 UNL     1      -2.473  -0.204   2.438  1.00  0.00     0.277 HD
HETATM   13  C10 UNL     1      -2.595  -1.494   0.793  1.00  0.00     0.254 C 
HETATM   14  C11 UNL     1      -1.880  -1.754  -0.466  1.00  0.00     0.050 C 
HETATM   15 BR1  UNL     1      -2.847  -2.501  -1.912  1.00  0.00    -0.083 Br
HETATM   16  C12 UNL     1      -0.902  -0.633  -0.730  1.00  0.00     0.020 C 
HETATM   17  C13 UNL     1      -1.178   0.779  -0.425  1.00  0.00     0.034 C 
HETATM   18  C14 UNL     1      -0.088   0.887   0.662  1.00  0.00     0.028 C 
HETATM   19  C15 UNL     1       1.205   0.721   0.064  1.00  0.00     0.003 A 
ENDROOT
BRANCH   2  20
HETATM   20  N1  UNL     1      -0.989   1.227  -2.762  1.00  0.00    -0.070 N 
ATOM     21  H13 UNL     1      -1.990   1.403  -2.849  1.00  0.00     0.275 HD
ATOM     22  H12 UNL     1      -0.651   1.849  -3.496  1.00  0.00     0.275 HD
ATOM     23  H11 UNL     1      -0.766   0.254  -2.971  1.00  0.00     0.275 HD
ENDBRANCH   2  20
TORSDOF 1
