REMARK  18 active torsions:
REMARK  status: ('A' for Active; 'I' for Inactive)
REMARK    1  A    between atoms: C2_2  and  C3_3 
REMARK    2  A    between atoms: C3_3  and  C4_4 
REMARK    3  A    between atoms: C4_4  and  C5_5 
REMARK    4  A    between atoms: C7_7  and  C8_8 
REMARK    5  A    between atoms: C8_8  and  C9_9 
REMARK    6  A    between atoms: C9_9  and  N1_10 
REMARK    7  A    between atoms: C9_9  and  C24_29 
REMARK    8  A    between atoms: C10_12  and  C11_13 
REMARK    9  A    between atoms: C10_12  and  C18_20 
REMARK   10  A    between atoms: C11_13  and  C12_14 
REMARK       I    between atoms: C18_20  and  N2_22 
REMARK   11  A    between atoms: N2_22  and  C19_24 
REMARK   12  A    between atoms: C19_24  and  C20_25 
REMARK   13  A    between atoms: C24_29  and  C25_30 
REMARK   14  A    between atoms: C24_29  and  C32_41 
REMARK   15  A    between atoms: C25_30  and  C26_31 
REMARK   16  A    between atoms: C26_31  and  O2_32 
REMARK   17  A    between atoms: C26_31  and  C27_34 
REMARK   18  A    between atoms: C27_34  and  C28_35 
ROOT
HETATM    1  C9  UNL     1       0.089   0.742   1.291  1.00  0.00     0.015 C 
ENDROOT
BRANCH   1   2
HETATM    2  C8  UNL     1      -1.143   1.550   1.204  1.00  0.00     0.038 C 
BRANCH   2   3
HETATM    3  C7  UNL     1      -1.903   1.867   0.016  1.00  0.00     0.013 C 
HETATM    4  C6  UNL     1      -2.425   0.723  -0.814  1.00  0.00     0.069 C 
HETATM    5  C5  UNL     1      -2.153   1.185  -2.202  1.00  0.00     0.089 C 
HETATM    6  N3  UNL     1      -1.947   2.612  -2.155  1.00  0.00    -0.352 N 
HETATM    7  C38 UNL     1      -1.706   3.032  -0.809  1.00  0.00     0.248 C 
ATOM      8  H3  UNL     1      -1.970   3.232  -2.965  1.00  0.00     0.163 HD
HETATM    9  O5  UNL     1      -1.397   4.177  -0.485  1.00  0.00    -0.268 OA
BRANCH   5  10
HETATM   10  C4  UNL     1      -3.201   0.752  -3.153  1.00  0.00     0.025 C 
BRANCH  10  11
HETATM   11  C3  UNL     1      -4.586   1.224  -2.885  1.00  0.00     0.002 C 
BRANCH  11  12
HETATM   12  C2  UNL     1      -5.469   0.650  -3.997  1.00  0.00    -0.004 C 
HETATM   13  C1  UNL     1      -6.902   1.051  -3.848  1.00  0.00     0.005 C 
ENDBRANCH  11  12
ENDBRANCH  10  11
ENDBRANCH   5  10
ENDBRANCH   2   3
ENDBRANCH   1   2
BRANCH   1  14
HETATM   14  N1  UNL     1       1.289   0.948   0.721  1.00  0.00    -0.358 N 
HETATM   15  C10 UNL     1       1.883   0.997  -0.507  1.00  0.00     0.078 C 
ATOM     16  H1  UNL     1       1.985   1.127   1.445  1.00  0.00     0.165 HD
BRANCH  15  17
HETATM   17  C11 UNL     1       1.951   2.260  -1.305  1.00  0.00     0.067 C 
BRANCH  17  18
HETATM   18  C12 UNL     1       2.677   3.392  -0.654  1.00  0.00    -0.009 C 
HETATM   19  C13 UNL     1       2.189   3.894   0.638  1.00  0.00     0.005 C 
HETATM   20  C14 UNL     1       2.670   5.350   0.814  1.00  0.00     0.000 C 
HETATM   21  C15 UNL     1       4.180   5.275   0.849  1.00  0.00     0.000 C 
HETATM   22  C16 UNL     1       4.763   4.577  -0.336  1.00  0.00     0.000 C 
HETATM   23  C17 UNL     1       4.179   3.173  -0.539  1.00  0.00     0.005 C 
ENDBRANCH  17  18
ENDBRANCH  15  17
BRANCH  15  24
HETATM   24  C18 UNL     1       1.635  -0.208  -1.397  1.00  0.00     0.264 C 
HETATM   25  O1  UNL     1       0.879  -1.153  -1.048  1.00  0.00    -0.266 OA
HETATM   26  N2  UNL     1       2.231  -0.339  -2.647  1.00  0.00    -0.355 N 
ATOM     27  H2  UNL     1       2.858   0.390  -2.987  1.00  0.00     0.162 HD
BRANCH  26  28
HETATM   28  C19 UNL     1       1.969  -1.499  -3.469  1.00  0.00     0.131 C 
BRANCH  28  29
HETATM   29  C20 UNL     1       2.719  -1.436  -4.792  1.00  0.00    -0.035 C 
HETATM   30  C21 UNL     1       2.277  -0.215  -5.534  1.00  0.00     0.016 C 
HETATM   31  C22 UNL     1       4.212  -1.414  -4.577  1.00  0.00     0.016 C 
HETATM   32  C23 UNL     1       2.386  -2.667  -5.601  1.00  0.00     0.016 C 
ENDBRANCH  28  29
ENDBRANCH  26  28
ENDBRANCH  15  24
ENDBRANCH   1  14
BRANCH   1  33
HETATM   33  C24 UNL     1       0.141   0.130   2.702  1.00  0.00     0.042 C 
BRANCH  33  34
HETATM   34  C25 UNL     1      -1.023  -0.771   3.020  1.00  0.00     0.043 C 
BRANCH  34  35
HETATM   35  C26 UNL     1      -1.210  -1.959   2.139  1.00  0.00     0.121 C 
BRANCH  35  36
HETATM   36  O2  UNL     1      -0.046  -2.762   2.212  1.00  0.00    -0.395 OA
ATOM     37  H2  UNL     1      -0.165  -3.519   1.651  1.00  0.00     0.210 HD
ENDBRANCH  35  36
BRANCH  35  38
HETATM   38  C27 UNL     1      -2.296  -2.786   2.831  1.00  0.00     0.063 C 
BRANCH  38  39
HETATM   39  C28 UNL     1      -2.616  -4.037   2.070  1.00  0.00     0.128 C 
HETATM   40  C29 UNL     1      -3.112  -3.796   0.685  1.00  0.00     0.058 C 
HETATM   41  C30 UNL     1      -3.667  -5.105   0.159  1.00  0.00     0.173 C 
HETATM   42  O3  UNL     1      -4.784  -5.422   0.914  1.00  0.00    -0.367 OA
HETATM   43  C31 UNL     1      -4.795  -4.789   2.152  1.00  0.00     0.338 C 
HETATM   44  O4  UNL     1      -3.537  -4.812   2.756  1.00  0.00    -0.362 OA
ENDBRANCH  38  39
ENDBRANCH  35  38
ENDBRANCH  34  35
ENDBRANCH  33  34
BRANCH  33  45
HETATM   45  C32 UNL     1       0.398   0.935   3.889  1.00  0.00    -0.005 C 
HETATM   46  C33 UNL     1       1.701   1.691   4.001  1.00  0.00     0.005 C 
HETATM   47  C34 UNL     1       1.788   2.112   5.484  1.00  0.00     0.000 C 
HETATM   48  C35 UNL     1       0.863   3.309   5.577  1.00  0.00     0.000 C 
HETATM   49  C36 UNL     1      -0.445   3.088   4.878  1.00  0.00     0.000 C 
HETATM   50  C37 UNL     1      -0.746   1.657   4.538  1.00  0.00     0.005 C 
ENDBRANCH  33  45
ENDBRANCH   1  33
TORSDOF 18
