REMARK  5 active torsions:
REMARK  status: ('A' for Active; 'I' for Inactive)
REMARK    1  A    between atoms: C1_2  and  C2_4 
REMARK    2  A    between atoms: C2_4  and  C3_5 
REMARK    3  A    between atoms: C3_5  and  C4_6 
REMARK    4  A    between atoms: C8_10  and  N1_11 
REMARK       I    between atoms: N1_11  and  C9_13 
REMARK    5  A    between atoms: C9_13  and  C10_15 
ROOT
HETATM    1  C4  UNL     1      -2.097  -1.802  -1.382  1.00  0.00    -0.035 A 
HETATM    2  C5  UNL     1      -2.809  -0.865  -0.470  1.00  0.00     0.015 A 
HETATM    3  C6  UNL     1      -1.458  -0.263  -0.109  1.00  0.00    -0.007 A 
HETATM    4  C7  UNL     1      -1.046  -0.414   1.308  1.00  0.00     0.030 C 
HETATM    5  C8  UNL     1       0.298  -1.031   1.452  1.00  0.00     0.085 C 
HETATM    6  C15 UNL     1       0.334  -2.375   0.793  1.00  0.00     0.030 C 
HETATM    7  C16 UNL     1      -0.273  -2.433  -0.556  1.00  0.00    -0.007 C 
HETATM    8  C17 UNL     1      -1.651  -3.046  -0.646  1.00  0.00     0.015 C 
HETATM    9  C18 UNL     1      -0.823  -1.168  -1.085  1.00  0.00     0.002 A 
ENDROOT
BRANCH   5  10
HETATM   10  N1  UNL     1       1.383  -0.239   0.931  1.00  0.00    -0.356 N 
HETATM   11  C9  UNL     1       2.472   0.220   1.702  1.00  0.00     0.222 C 
HETATM   12  O3  UNL     1       2.503  -0.077   2.920  1.00  0.00    -0.273 OA
ATOM     13  H1  UNL     1       1.363   0.006  -0.059  1.00  0.00     0.162 HD
BRANCH  11  14
HETATM   14  C10 UNL     1       3.559   1.030   1.120  1.00  0.00     0.081 C 
HETATM   15  C11 UNL     1       3.052   2.329   0.528  1.00  0.00     0.041 C 
HETATM   16  C12 UNL     1       2.587   3.284   1.604  1.00  0.00     0.233 C 
HETATM   17  N2  UNL     1       3.773   3.648   2.365  1.00  0.00    -0.075 N 
HETATM   18  C13 UNL     1       4.237   2.478   3.054  1.00  0.00     0.233 C 
ATOM     19  H22 UNL     1       4.496   4.077   1.787  1.00  0.00     0.277 HD
ATOM     20  H21 UNL     1       3.612   4.436   2.992  1.00  0.00     0.277 HD
HETATM   21  C14 UNL     1       4.633   1.362   2.123  1.00  0.00     0.041 C 
ENDBRANCH  11  14
ENDBRANCH   5  10
BRANCH   1  22
HETATM   22  C3  UNL     1      -2.601  -1.991  -2.746  1.00  0.00     0.020 C 
BRANCH  22  23
HETATM   23  C2  UNL     1      -2.653  -0.775  -3.615  1.00  0.00     0.114 C 
BRANCH  23  24
HETATM   24  C1  UNL     1      -3.175  -1.096  -4.956  1.00  0.00     0.172 C 
HETATM   25  O1  UNL     1      -4.385  -1.263  -5.136  1.00  0.00    -0.648 OA
HETATM   26  O2  UNL     1      -2.307  -1.210  -6.015  1.00  0.00    -0.648 OA
ENDBRANCH  23  24
ENDBRANCH  22  23
ENDBRANCH   1  22
TORSDOF 5
