REMARK  9 active torsions:
REMARK  status: ('A' for Active; 'I' for Inactive)
REMARK    1  A    between atoms: C2_2  and  C3_3 
REMARK    2  A    between atoms: C3_3  and  N1_4 
REMARK    3  A    between atoms: N1_4  and  C4_5 
REMARK    4  A    between atoms: N1_4  and  C7_8 
REMARK    5  A    between atoms: C4_5  and  C5_6 
REMARK    6  A    between atoms: C7_8  and  C8_9 
REMARK    7  A    between atoms: C9_10  and  N2_11 
REMARK    8  A    between atoms: C13_18  and  C14_19 
REMARK    9  A    between atoms: C13_18  and  C16_21 
ROOT
HETATM    1  N2  UNL     1       0.649   2.580  -0.343  1.00  0.00     0.210 N 
HETATM    2  C10 UNL     1       0.729   2.745   1.103  1.00  0.00     0.370 A 
HETATM    3  O1  UNL     1      -0.148   2.622   1.868  1.00  0.00    -0.261 OA
HETATM    4  C11 UNL     1       2.123   3.044   0.885  1.00  0.00     0.182 A 
HETATM    5  N3  UNL     1       2.023   2.865  -0.402  1.00  0.00     0.000 N 
HETATM    6  C12 UNL     1       2.464   2.829  -1.540  1.00  0.00     0.245 A 
HETATM    7  O2  UNL     1       2.902   2.308  -2.554  1.00  0.00    -0.286 OA
HETATM    8  C13 UNL     1       2.120   2.358  -0.557  1.00  0.00     0.301 A 
HETATM    9  C16 UNL     1       3.010   3.195   0.349  1.00  0.00     0.189 A 
HETATM   10  O3  UNL     1       4.196   3.714   0.307  1.00  0.00    -0.294 OA
ENDROOT
BRANCH   1  11
HETATM   11  C9  UNL     1      -0.372   2.649  -1.291  1.00  0.00     0.247 C 
HETATM   12  C8  UNL     1      -1.189   1.541  -1.727  1.00  0.00     0.031 C 
BRANCH  12  13
HETATM   13  C7  UNL     1      -2.071   0.767  -0.851  1.00  0.00     0.302 C 
BRANCH  13  14
HETATM   14  N1  UNL     1      -1.387  -0.049   0.088  1.00  0.00     0.098 N 
BRANCH  14  15
HETATM   15  C3  UNL     1      -0.754  -1.161  -0.617  1.00  0.00     0.299 C 
BRANCH  15  16
HETATM   16  C2  UNL     1      -1.683  -1.961  -1.433  1.00  0.00    -0.007 C 
HETATM   17  C1  UNL     1      -1.834  -3.248  -1.145  1.00  0.00     0.008 C 
ENDBRANCH  15  16
ENDBRANCH  14  15
BRANCH  14  18
HETATM   18  C4  UNL     1      -2.248  -0.642   1.086  1.00  0.00     0.299 C 
BRANCH  18  19
HETATM   19  C5  UNL     1      -2.963   0.314   1.936  1.00  0.00    -0.007 C 
HETATM   20  C6  UNL     1      -2.786   0.323   3.260  1.00  0.00     0.008 C 
ENDBRANCH  18  19
ENDBRANCH  14  18
ENDBRANCH  13  14
ENDBRANCH  12  13
ENDBRANCH   1  11
BRANCH   8  21
HETATM   21  C14 UNL     1       2.506   0.881  -0.350  1.00  0.00     0.055 C 
HETATM   22  C15 UNL     1       3.735   0.603  -0.651  1.00  0.00     0.009 C 
ENDBRANCH   8  21
TORSDOF 9
