REMARK  2 active torsions:
REMARK  status: ('A' for Active; 'I' for Inactive)
REMARK    1  A    between atoms: C3_7  and  C5_9 
REMARK    2  A    between atoms: C24_31  and  C25_32 
ROOT
HETATM    1  C1  UNL     1       0.145  -0.374  -3.195  1.00  0.00     0.155 C 
HETATM    2  N1  UNL     1      -0.083  -0.674  -1.794  1.00  0.00    -0.333 N 
HETATM    3  C2  UNL     1       0.484  -1.850  -1.227  1.00  0.00     0.319 C 
HETATM    4  O1  UNL     1       0.866  -2.845  -1.905  1.00  0.00    -0.247 OA
HETATM    5  N2  UNL     1       0.567  -1.771   0.181  1.00  0.00    -0.329 N 
ATOM      6  H2  UNL     1       0.445  -2.599   0.764  1.00  0.00     0.165 HD
HETATM    7  C3  UNL     1       0.834  -0.458   0.777  1.00  0.00     0.067 C 
HETATM    8  C4  UNL     1       1.273  -0.516   2.184  1.00  0.00     0.044 C 
HETATM    9  C13 UNL     1      -0.308   0.458   0.454  1.00  0.00     0.051 C 
HETATM   10  C14 UNL     1      -0.879   0.093  -0.885  1.00  0.00     0.096 C 
HETATM   11  C15 UNL     1      -1.425   1.358  -1.508  1.00  0.00     0.027 C 
HETATM   12  C16 UNL     1      -2.204   2.081  -0.501  1.00  0.00     0.013 C 
HETATM   13  C17 UNL     1      -2.507   1.499   0.792  1.00  0.00    -0.015 C 
HETATM   14  C18 UNL     1      -2.914   2.662   1.729  1.00  0.00     0.017 C 
HETATM   15  C19 UNL     1      -1.442   0.584   1.411  1.00  0.00    -0.019 C 
HETATM   16  C20 UNL     1      -1.170   1.019   2.817  1.00  0.00     0.017 C 
HETATM   17  C21 UNL     1      -2.525  -0.477   1.397  1.00  0.00     0.039 A 
HETATM   18  C22 UNL     1      -3.166  -0.634   2.766  1.00  0.00    -0.023 A 
HETATM   19  C23 UNL     1      -4.061   0.219   2.334  1.00  0.00    -0.010 A 
HETATM   20  C24 UNL     1      -3.515   0.440   0.955  1.00  0.00     0.091 A 
ENDROOT
BRANCH   7  21
HETATM   21  C5  UNL     1       2.027   0.110   0.059  1.00  0.00    -0.002 A 
HETATM   22  C6  UNL     1       2.188   1.343  -0.519  1.00  0.00     0.099 A 
HETATM   23  N3  UNL     1       3.475   1.435  -0.957  1.00  0.00    -0.365 N 
HETATM   24  C7  UNL     1       4.125   0.306  -0.676  1.00  0.00     0.043 A 
ATOM     25  H3  UNL     1       3.879   2.244  -1.428  1.00  0.00     0.165 HD
HETATM   26  C8  UNL     1       5.442  -0.085  -0.940  1.00  0.00     0.033 A 
HETATM   27  C12 UNL     1       3.264  -0.545  -0.047  1.00  0.00     0.004 A 
HETATM   28  C9  UNL     1       5.915  -1.330  -0.580  1.00  0.00     0.044 A 
HETATM   29  C10 UNL     1       5.012  -2.157   0.051  1.00  0.00     0.117 A 
HETATM   30  F1  UNL     1       5.438  -3.387   0.418  1.00  0.00    -0.206 F 
HETATM   31  C11 UNL     1       3.713  -1.800   0.323  1.00  0.00     0.056 A 
ENDBRANCH   7  21
BRANCH  20  32
HETATM   32  C25 UNL     1      -4.650   0.267   0.069  1.00  0.00     0.400 C 
HETATM   33  F2  UNL     1      -5.401  -0.832   0.502  1.00  0.00    -0.170 F 
HETATM   34  F3  UNL     1      -4.526   0.189  -1.256  1.00  0.00    -0.170 F 
HETATM   35  F4  UNL     1      -5.520   1.353   0.316  1.00  0.00    -0.170 F 
ENDBRANCH  20  32
TORSDOF 2
