REMARK  9 active torsions:
REMARK  status: ('A' for Active; 'I' for Inactive)
REMARK    1  A    between atoms: C7_7  and  N1_8 
REMARK    2  A    between atoms: C8_10  and  C10_12 
REMARK    3  A    between atoms: C10_12  and  O1_13 
REMARK    4  A    between atoms: C10_12  and  C11_15 
REMARK    5  A    between atoms: C11_15  and  C13_17 
REMARK    6  A    between atoms: C15_19  and  C18_24 
REMARK    7  A    between atoms: C16_20  and  O2_21 
REMARK    8  A    between atoms: C17_23  and  C18_24 
REMARK    9  A    between atoms: C19_25  and  O3_27 
ROOT
HETATM    1  C11 UNL     1       1.135   1.321   0.255  1.00  0.00     0.022 C 
HETATM    2  C12 UNL     1       2.296   2.333   0.058  1.00  0.00     0.013 C 
ENDROOT
BRANCH   1   3
HETATM    3  C10 UNL     1       0.499   1.188  -1.097  1.00  0.00     0.167 C 
BRANCH   3   4
HETATM    4  C8  UNL     1      -0.610   0.247  -1.161  1.00  0.00     0.008 C 
HETATM    5  N1  UNL     1      -0.356  -0.983  -0.927  1.00  0.00    -0.386 N 
ATOM      6  H1  UNL     1       0.613  -1.201  -0.696  1.00  0.00     0.160 HD
HETATM    7  C9  UNL     1      -2.001   0.709  -1.514  1.00  0.00     0.066 C 
BRANCH   5   8
HETATM    8  C7  UNL     1      -1.241  -2.073  -0.947  1.00  0.00     0.110 C 
HETATM    9  C2  UNL     1      -1.508  -2.637  -2.277  1.00  0.00    -0.065 C 
HETATM   10  C1  UNL     1      -2.735  -2.342  -3.063  1.00  0.00     0.045 C 
HETATM   11  C3  UNL     1      -0.604  -3.455  -2.803  1.00  0.00    -0.022 C 
HETATM   12  C4  UNL     1       0.640  -3.763  -2.022  1.00  0.00     0.027 C 
HETATM   13  C5  UNL     1       0.383  -3.954  -0.568  1.00  0.00     0.006 C 
HETATM   14  C6  UNL     1      -0.700  -3.118   0.011  1.00  0.00     0.030 C 
ENDBRANCH   5   8
ENDBRANCH   3   4
BRANCH   3  15
HETATM   15  O1  UNL     1       0.186   2.432  -1.662  1.00  0.00    -0.389 OA
ATOM     16  H1  UNL     1       0.910   3.046  -1.620  1.00  0.00     0.210 HD
ENDBRANCH   3  15
ENDBRANCH   1   3
BRANCH   1  17
HETATM   17  C13 UNL     1       0.268   1.752   1.326  1.00  0.00     0.019 A 
HETATM   18  C14 UNL     1      -0.466   1.948   2.410  1.00  0.00     0.006 A 
HETATM   19  C15 UNL     1      -0.659   0.995   3.743  1.00  0.00     0.023 A 
HETATM   20  C21 UNL     1      -1.119   3.219   2.229  1.00  0.00    -0.004 C 
HETATM   21  C17 UNL     1      -1.232   0.825   2.260  1.00  0.00     0.023 A 
HETATM   22  C18 UNL     1       0.155   1.646   2.457  1.00  0.00     0.022 A 
HETATM   23  C16 UNL     1      -1.922   0.708   3.582  1.00  0.00     0.141 A 
HETATM   24  C19 UNL     1       0.063   3.115   2.993  1.00  0.00     0.079 C 
HETATM   25  C20 UNL     1       1.337   3.660   2.996  1.00  0.00     0.051 C 
BRANCH  23  26
HETATM   26  O2  UNL     1      -3.140   1.197   3.495  1.00  0.00    -0.394 OA
ATOM     27  H2  UNL     1      -4.059   0.988   3.378  1.00  0.00     0.210 HD
ENDBRANCH  23  26
BRANCH  24  28
HETATM   28  O3  UNL     1      -0.514   3.349   4.208  1.00  0.00    -0.386 OA
ATOM     29  H3  UNL     1      -0.570   4.240   4.533  1.00  0.00     0.211 HD
ENDBRANCH  24  28
ENDBRANCH   1  17
TORSDOF 9
