REMARK  5 active torsions:
REMARK  status: ('A' for Active; 'I' for Inactive)
REMARK    1  A    between atoms: C6_6  and  C8_8 
REMARK    2  A    between atoms: C12_12  and  O1_13 
REMARK    3  A    between atoms: C18_20  and  O2_21 
REMARK    4  A    between atoms: O2_21  and  C19_22 
REMARK       I    between atoms: C19_22  and  N1_24 
REMARK    5  A    between atoms: C36_44  and  O5_45 
ROOT
HETATM    1  C8  UNL     1       1.714   0.897  -0.011  1.00  0.00    -0.031 C 
HETATM    2  C9  UNL     1       0.391   0.246   0.266  1.00  0.00    -0.046 C 
HETATM    3  C10 UNL     1      -0.751   0.200  -0.604  1.00  0.00     0.006 C 
HETATM    4  C11 UNL     1      -1.137  -0.930  -1.490  1.00  0.00     0.006 C 
HETATM    5  C12 UNL     1      -0.960  -2.337  -1.209  1.00  0.00     0.150 C 
HETATM    6  C13 UNL     1       0.112  -3.219  -1.267  1.00  0.00     0.005 A 
HETATM    7  C14 UNL     1       0.244  -4.124  -2.522  1.00  0.00     0.020 C 
HETATM    8  C15 UNL     1       0.416  -3.694   0.087  1.00  0.00     0.033 A 
HETATM    9  C16 UNL     1      -0.270  -3.267   1.287  1.00  0.00    -0.018 C 
HETATM   10  C17 UNL     1      -0.326  -2.184   2.204  1.00  0.00     0.030 C 
HETATM   11  C18 UNL     1      -0.863  -0.840   2.234  1.00  0.00     0.062 C 
HETATM   12  C26 UNL     1      -0.133   0.386   1.726  1.00  0.00     0.104 C 
HETATM   13  C27 UNL     1       1.482  -3.192  -0.747  1.00  0.00    -0.008 A 
HETATM   14  C28 UNL     1       2.509  -4.310  -0.799  1.00  0.00     0.021 C 
HETATM   15  C29 UNL     1       2.001  -2.027  -1.452  1.00  0.00    -0.017 C 
HETATM   16  C30 UNL     1       3.027  -1.120  -0.965  1.00  0.00     0.005 C 
HETATM   17  C31 UNL     1       2.904  -0.032  -0.017  1.00  0.00     0.071 C 
HETATM   18  C32 UNL     1       3.197  -0.693   1.339  1.00  0.00     0.066 C 
HETATM   19  C33 UNL     1       3.657   0.127   2.442  1.00  0.00     0.170 C 
HETATM   20  O4  UNL     1       4.950   0.555   2.417  1.00  0.00    -0.389 OA
HETATM   21  C34 UNL     1       5.816   0.021   1.517  1.00  0.00     0.186 C 
HETATM   22  C35 UNL     1       5.358   0.142   0.054  1.00  0.00     0.141 C 
HETATM   23  N2  UNL     1       4.111   0.772  -0.040  1.00  0.00    -0.404 N 
ATOM     24  H2  UNL     1       4.052   1.787  -0.124  1.00  0.00     0.154 HD
ENDROOT
BRANCH   1  25
HETATM   25  C6  UNL     1       1.694   2.086  -0.888  1.00  0.00     0.009 C 
HETATM   26  C5  UNL     1       0.754   3.091  -0.186  1.00  0.00     0.017 C 
HETATM   27  C4  UNL     1       0.456   4.304  -0.960  1.00  0.00     0.010 C 
HETATM   28  C2  UNL     1       0.080   4.084  -2.393  1.00  0.00    -0.045 C 
HETATM   29  C1  UNL     1       0.315   5.463  -3.049  1.00  0.00     0.015 C 
HETATM   30  C3  UNL     1      -1.446   3.916  -2.512  1.00  0.00     0.015 C 
HETATM   31  C37 UNL     1       0.808   3.015  -3.096  1.00  0.00     0.041 C 
HETATM   32  C36 UNL     1       1.461   1.925  -2.348  1.00  0.00     0.131 C 
HETATM   33  C7  UNL     1       2.918   2.991  -0.903  1.00  0.00     0.023 C 
BRANCH  32  34
HETATM   34  O5  UNL     1       2.731   1.787  -3.018  1.00  0.00    -0.394 OA
ATOM     35  H5  UNL     1       2.582   1.684  -3.951  1.00  0.00     0.210 HD
ENDBRANCH  32  34
ENDBRANCH   1  25
BRANCH  11  36
HETATM   36  O2  UNL     1      -2.272  -0.795   1.973  1.00  0.00    -0.266 OA
BRANCH  36  37
HETATM   37  C19 UNL     1      -3.251  -0.456   2.879  1.00  0.00     0.368 C 
HETATM   38  O3  UNL     1      -2.852  -0.163   4.033  1.00  0.00    -0.238 OA
HETATM   39  N1  UNL     1      -4.637  -0.428   2.565  1.00  0.00    -0.322 N 
HETATM   40  C20 UNL     1      -5.489  -0.681   1.418  1.00  0.00     0.135 C 
HETATM   41  C25 UNL     1      -5.785  -0.098   3.387  1.00  0.00     0.095 C 
HETATM   42  C21 UNL     1      -6.698  -0.595   2.316  1.00  0.00     0.027 C 
HETATM   43  C22 UNL     1      -7.250  -1.910   2.780  1.00  0.00     0.008 C 
HETATM   44  C23 UNL     1      -6.925  -2.045   4.235  1.00  0.00     0.002 C 
HETATM   45  C24 UNL     1      -5.959  -0.967   4.598  1.00  0.00     0.026 C 
ENDBRANCH  36  37
ENDBRANCH  11  36
BRANCH   5  46
HETATM   46  O1  UNL     1      -1.964  -2.967  -2.074  1.00  0.00    -0.391 OA
ATOM     47  H1  UNL     1      -1.848  -3.892  -1.889  1.00  0.00     0.210 HD
ENDBRANCH   5  46
TORSDOF 5
