REMARK  7 active torsions:
REMARK  status: ('A' for Active; 'I' for Inactive)
REMARK    1  A    between atoms: C3_3  and  C4_4 
REMARK    2  A    between atoms: C5_5  and  C6_6 
REMARK    3  A    between atoms: C7_7  and  C8_8 
REMARK    4  A    between atoms: C8_8  and  C9_9 
REMARK    5  A    between atoms: C14_16  and  C15_17 
REMARK    6  A    between atoms: C16_19  and  C17_20 
REMARK    7  A    between atoms: C19_24  and  C20_25 
ROOT
HETATM    1  C1  UNL     1       1.822   6.785  -1.598  1.00  0.00     0.113 C 
HETATM    2  C2  UNL     1       1.881   5.567  -0.784  1.00  0.00    -0.097 C 
HETATM    3  C3  UNL     1       1.939   4.572  -0.100  1.00  0.00    -0.015 C 
ENDROOT
BRANCH   3   4
HETATM    4  C4  UNL     1       2.024   3.418   0.712  1.00  0.00    -0.011 C 
HETATM    5  C5  UNL     1       2.112   2.425   1.420  1.00  0.00    -0.065 C 
BRANCH   5   6
HETATM    6  C6  UNL     1       2.241   1.256   2.246  1.00  0.00     0.062 C 
HETATM    7  C7  UNL     1       1.301   0.384   2.423  1.00  0.00     0.003 C 
BRANCH   7   8
HETATM    8  C8  UNL     1      -0.051   0.447   1.809  1.00  0.00     0.072 A 
HETATM    9  C10 UNL     1      -0.088   0.475   0.305  1.00  0.00     0.037 A 
HETATM   10  C11 UNL     1      -0.648  -0.857   0.245  1.00  0.00    -0.008 A 
HETATM   11  C12 UNL     1      -0.737  -0.896   1.729  1.00  0.00     0.020 A 
HETATM   12  C14 UNL     1      -2.178  -0.989   0.203  1.00  0.00     0.002 C 
HETATM   13  C19 UNL     1      -0.214  -1.969  -0.532  1.00  0.00     0.040 C 
HETATM   14  C13 UNL     1      -2.223  -0.749   1.667  1.00  0.00     0.020 C 
HETATM   15  C16 UNL     1      -2.431  -2.362  -0.324  1.00  0.00     0.104 C 
HETATM   16  C18 UNL     1      -1.117  -3.085   0.040  1.00  0.00     0.047 C 
HETATM   17  C24 UNL     1      -2.204  -2.304  -1.806  1.00  0.00     0.070 C 
HETATM   18  C23 UNL     1      -0.810  -1.914  -1.921  1.00  0.00     0.182 C 
HETATM   19  N1  UNL     1      -3.069  -2.550  -2.709  1.00  0.00    -0.398 N 
HETATM   20  O5  UNL     1      -0.242  -1.597  -2.996  1.00  0.00    -0.290 OA
ATOM     21  H12 UNL     1      -4.048  -2.824  -2.628  1.00  0.00     0.156 HD
ATOM     22  H11 UNL     1      -2.915  -2.511  -3.716  1.00  0.00     0.156 HD
BRANCH   8  23
HETATM   23  C9  UNL     1      -0.823   1.511   2.498  1.00  0.00     0.186 C 
HETATM   24  O1  UNL     1      -1.293   2.530   1.935  1.00  0.00    -0.647 OA
HETATM   25  O2  UNL     1      -1.034   1.356   3.864  1.00  0.00    -0.647 OA
ENDBRANCH   8  23
BRANCH  12  26
HETATM   26  C15 UNL     1      -2.851   0.117  -0.604  1.00  0.00     0.097 C 
HETATM   27 BR1  UNL     1      -4.772  -0.116  -0.615  1.00  0.00    -0.096 Br
ENDBRANCH  12  26
BRANCH  15  28
HETATM   28  C17 UNL     1      -3.605  -3.064   0.072  1.00  0.00     0.189 C 
HETATM   29  O3  UNL     1      -4.474  -3.422  -0.766  1.00  0.00    -0.647 OA
HETATM   30  O4  UNL     1      -3.854  -3.391   1.393  1.00  0.00    -0.647 OA
ENDBRANCH  15  28
BRANCH  13  31
HETATM   31  C20 UNL     1       1.131  -2.485  -0.617  1.00  0.00    -0.006 C 
HETATM   32  C21 UNL     1       2.190  -1.548  -1.127  1.00  0.00     0.011 C 
HETATM   33  C22 UNL     1       1.668  -3.154   0.645  1.00  0.00     0.011 C 
ENDBRANCH  13  31
ENDBRANCH   7   8
ENDBRANCH   5   6
ENDBRANCH   3   4
TORSDOF 7
