REMARK  10 active torsions:
REMARK  status: ('A' for Active; 'I' for Inactive)
REMARK    1  A    between atoms: C2_2  and  C3_3 
REMARK    2  A    between atoms: C11_13  and  C12_14 
REMARK    3  A    between atoms: C12_14  and  O3_15 
REMARK    4  A    between atoms: O3_15  and  C13_16 
REMARK    5  A    between atoms: C16_20  and  C18_22 
REMARK    6  A    between atoms: C18_22  and  C19_23 
REMARK    7  A    between atoms: C19_23  and  C20_24 
REMARK    8  A    between atoms: C22_27  and  O6_28 
REMARK    9  A    between atoms: C26_33  and  C28_35 
REMARK   10  A    between atoms: C30_37  and  O7_38 
ROOT
HETATM    1  C3  UNL     1       0.805  -1.721  -2.546  1.00  0.00     0.006 C 
HETATM    2  C4  UNL     1       1.206  -0.925  -3.791  1.00  0.00     0.022 C 
HETATM    3  C5  UNL     1      -0.554  -1.229  -2.149  1.00  0.00     0.094 C 
HETATM    4  C6  UNL     1      -0.291  -0.210  -1.130  1.00  0.00     0.133 C 
HETATM    5  O1  UNL     1      -0.078   0.848  -1.746  1.00  0.00    -0.297 OA
HETATM    6  C7  UNL     1      -0.241  -0.232   0.360  1.00  0.00     0.069 C 
HETATM    7  C8  UNL     1      -1.538  -0.257   1.039  1.00  0.00     0.008 C 
HETATM    8  C9  UNL     1      -1.677  -0.983   2.331  1.00  0.00     0.038 C 
HETATM    9  C10 UNL     1      -1.050  -0.570   3.550  1.00  0.00     0.132 C 
HETATM   10  O2  UNL     1      -1.790   0.403   4.203  1.00  0.00    -0.371 OA
HETATM   11  C11 UNL     1      -0.931   1.366   3.569  1.00  0.00     0.092 C 
HETATM   12  C15 UNL     1      -1.397   1.895   2.315  1.00  0.00     0.050 C 
HETATM   13  C16 UNL     1      -2.173   1.089   1.344  1.00  0.00    -0.036 C 
HETATM   14  C17 UNL     1      -3.623   0.831   1.835  1.00  0.00     0.015 C 
HETATM   15  C21 UNL     1       0.086   0.333   3.724  1.00  0.00     0.080 C 
HETATM   16  C22 UNL     1       1.255   0.136   2.856  1.00  0.00     0.128 C 
HETATM   17  C23 UNL     1       1.252  -1.148   2.161  1.00  0.00     0.043 C 
HETATM   18  C24 UNL     1       0.821  -1.246   0.717  1.00  0.00    -0.018 C 
HETATM   19  C25 UNL     1       0.316  -2.675   0.567  1.00  0.00     0.017 C 
HETATM   20  C26 UNL     1       2.016  -1.202  -0.254  1.00  0.00     0.008 C 
HETATM   21  C27 UNL     1       2.591   0.209  -0.415  1.00  0.00     0.023 C 
HETATM   22  C30 UNL     1       1.866  -1.837  -1.568  1.00  0.00     0.143 C 
ENDROOT
BRANCH  11  23
HETATM   23  C12 UNL     1      -0.864   2.501   4.599  1.00  0.00     0.217 C 
BRANCH  23  24
HETATM   24  O3  UNL     1      -0.255   3.654   4.270  1.00  0.00    -0.319 OA
BRANCH  24  25
HETATM   25  C13 UNL     1       0.956   4.135   3.982  1.00  0.00     0.254 C 
HETATM   26  C14 UNL     1       1.156   5.603   3.633  1.00  0.00     0.126 C 
HETATM   27  O4  UNL     1       1.926   3.361   4.004  1.00  0.00    -0.266 OA
ENDBRANCH  24  25
ENDBRANCH  23  24
ENDBRANCH  11  23
BRANCH  13  28
HETATM   28  C18 UNL     1      -2.465   2.022   0.206  1.00  0.00     0.016 C 
BRANCH  28  29
HETATM   29  C19 UNL     1      -3.434   1.551  -0.812  1.00  0.00     0.070 C 
BRANCH  29  30
HETATM   30  C20 UNL     1      -3.641   2.559  -1.916  1.00  0.00     0.231 C 
HETATM   31  O5  UNL     1      -2.841   2.683  -2.833  1.00  0.00    -0.307 OA
ENDBRANCH  29  30
ENDBRANCH  28  29
ENDBRANCH  13  28
BRANCH  16  32
HETATM   32  O6  UNL     1       2.425   0.130   3.701  1.00  0.00    -0.395 OA
ATOM     33  H6  UNL     1       3.181   0.003   3.140  1.00  0.00     0.210 HD
ENDBRANCH  16  32
BRANCH  20  34
HETATM   34  C28 UNL     1       3.157  -1.914   0.409  1.00  0.00    -0.024 C 
HETATM   35  C29 UNL     1       3.586  -3.131   0.361  1.00  0.00     0.008 C 
ENDBRANCH  20  34
BRANCH  22  36
HETATM   36  O7  UNL     1       3.056  -1.370  -2.247  1.00  0.00    -0.393 OA
ATOM     37  H7  UNL     1       3.752  -1.446  -1.605  1.00  0.00     0.210 HD
ENDBRANCH  22  36
BRANCH   1  38
HETATM   38  C2  UNL     1       0.458  -3.069  -3.174  1.00  0.00    -0.025 C 
HETATM   39  C1  UNL     1      -0.645  -3.311  -3.806  1.00  0.00     0.008 C 
ENDBRANCH   1  38
TORSDOF 10
