REMARK  10 active torsions:
REMARK  status: ('A' for Active; 'I' for Inactive)
REMARK    1  A    between atoms: C2_2  and  C4_4 
REMARK    2  A    between atoms: C4_4  and  C5_5 
REMARK    3  A    between atoms: C5_5  and  C6_6 
REMARK    4  A    between atoms: C5_5  and  C14_19 
REMARK    5  A    between atoms: C6_6  and  O1_7 
REMARK    6  A    between atoms: O1_7  and  C7_8 
REMARK    7  A    between atoms: C7_8  and  C8_12 
REMARK    8  A    between atoms: C14_19  and  C15_20 
REMARK    9  A    between atoms: C15_20  and  C17_22 
REMARK   10  A    between atoms: C18_23  and  O3_24 
ROOT
HETATM    1  C5  UNL     1       0.300   0.431  -0.515  1.00  0.00     0.014 C 
ENDROOT
BRANCH   1   2
HETATM    2  C4  UNL     1       0.427  -0.662   0.493  1.00  0.00     0.039 C 
BRANCH   2   3
HETATM    3  C2  UNL     1      -0.722  -0.979   1.340  1.00  0.00    -0.093 C 
HETATM    4  C1  UNL     1      -1.979  -0.776   1.076  1.00  0.00     0.014 C 
HETATM    5  C3  UNL     1      -0.373  -1.585   2.689  1.00  0.00     0.042 C 
ENDBRANCH   2   3
ENDBRANCH   1   2
BRANCH   1   6
HETATM    6  C6  UNL     1       0.096   1.756   0.124  1.00  0.00     0.182 C 
BRANCH   6   7
HETATM    7  O1  UNL     1      -1.010   1.955   0.923  1.00  0.00    -0.338 OA
BRANCH   7   8
HETATM    8  C7  UNL     1      -1.144   3.093   1.722  1.00  0.00     0.125 C 
HETATM    9  N1  UNL     1      -0.038   3.493   2.251  1.00  0.00    -0.383 N 
ATOM     10  H12 UNL     1       0.819   2.975   2.058  1.00  0.00     0.158 HD
ATOM     11  H11 UNL     1      -0.136   4.324   2.834  1.00  0.00     0.158 HD
BRANCH   8  12
HETATM   12  C8  UNL     1      -2.343   3.818   1.992  1.00  0.00     0.078 C 
HETATM   13  C9  UNL     1      -2.261   4.989   2.929  1.00  0.00     0.190 C 
HETATM   14  O2  UNL     1      -3.661   4.812   3.046  1.00  0.00    -0.377 OA
HETATM   15  C10 UNL     1      -3.441   3.424   2.817  1.00  0.00     0.082 A 
HETATM   16  C11 UNL     1      -4.697   2.745   2.666  1.00  0.00     0.047 A 
HETATM   17  C12 UNL     1      -4.007   2.892   1.439  1.00  0.00     0.026 A 
HETATM   18  C13 UNL     1      -3.323   4.121   0.890  1.00  0.00     0.031 C 
ENDBRANCH   8  12
ENDBRANCH   7   8
ENDBRANCH   6   7
ENDBRANCH   1   6
BRANCH   1  19
HETATM   19  C14 UNL     1       1.543   0.534  -1.393  1.00  0.00     0.011 C 
BRANCH  19  20
HETATM   20  C15 UNL     1       1.768  -0.703  -2.127  1.00  0.00    -0.011 C 
HETATM   21  C16 UNL     1       0.513  -0.904  -2.991  1.00  0.00     0.010 C 
BRANCH  20  22
HETATM   22  C17 UNL     1       2.909  -0.728  -3.092  1.00  0.00     0.023 C 
HETATM   23  C18 UNL     1       4.253  -0.451  -2.554  1.00  0.00     0.123 C 
HETATM   24  C19 UNL     1       4.639  -1.772  -1.919  1.00  0.00     0.042 C 
HETATM   25  C20 UNL     1       4.488  -2.596  -3.211  1.00  0.00     0.029 C 
HETATM   26  C21 UNL     1       4.321  -4.016  -2.950  1.00  0.00    -0.017 C 
HETATM   27  C25 UNL     1       3.126  -2.081  -3.700  1.00  0.00     0.008 C 
HETATM   28  C22 UNL     1       5.198  -4.778  -2.304  1.00  0.00     0.023 C 
HETATM   29  C23 UNL     1       3.046  -4.394  -3.529  1.00  0.00     0.155 C 
HETATM   30  O4  UNL     1       2.734  -5.519  -3.997  1.00  0.00    -0.293 OA
HETATM   31  C24 UNL     1       2.203  -3.173  -3.446  1.00  0.00     0.089 C 
BRANCH  23  32
HETATM   32  O3  UNL     1       4.477   0.640  -1.819  1.00  0.00    -0.395 OA
ATOM     33  H3  UNL     1       5.343   0.819  -1.472  1.00  0.00     0.210 HD
ENDBRANCH  23  32
ENDBRANCH  20  22
ENDBRANCH  19  20
ENDBRANCH   1  19
TORSDOF 10
