REMARK  4 active torsions:
REMARK  status: ('A' for Active; 'I' for Inactive)
REMARK    1  A    between atoms: C2_2  and  C3_3 
REMARK    2  A    between atoms: C3_3  and  O1_5 
REMARK    3  A    between atoms: C3_3  and  C5_7 
REMARK    4  A    between atoms: C8_10  and  C18_20 
ROOT
HETATM    1  C5  UNL     1      -0.267   1.060  -0.687  1.00  0.00     0.007 C 
HETATM    2  C6  UNL     1      -1.296   2.101  -1.174  1.00  0.00     0.023 C 
HETATM    3  C7  UNL     1      -0.061   1.234   0.754  1.00  0.00    -0.008 C 
HETATM    4  C8  UNL     1      -0.675   0.691   1.923  1.00  0.00    -0.042 C 
HETATM    5  C9  UNL     1       0.244  -0.359   2.591  1.00  0.00     0.014 C 
HETATM    6  C10 UNL     1       1.511   0.368   3.104  1.00  0.00     0.015 C 
HETATM    7  C11 UNL     1       0.600  -1.464   1.704  1.00  0.00     0.016 C 
HETATM    8  C12 UNL     1      -0.203  -1.756   0.498  1.00  0.00     0.020 C 
HETATM    9  C13 UNL     1      -0.331  -3.310   0.435  1.00  0.00     0.013 C 
HETATM   10  C14 UNL     1      -1.326  -1.022   0.008  1.00  0.00     0.101 C 
HETATM   11  C15 UNL     1      -2.466  -1.988  -0.130  1.00  0.00     0.042 C 
HETATM   12  C16 UNL     1      -3.153  -1.926   1.248  1.00  0.00     0.006 C 
HETATM   13  C17 UNL     1      -2.413  -1.192   2.345  1.00  0.00     0.046 C 
HETATM   14  C18 UNL     1      -2.051   0.224   2.179  1.00  0.00     0.116 C 
HETATM   15  C19 UNL     1      -2.816   1.112   3.200  1.00  0.00     0.054 C 
HETATM   16  O2  UNL     1      -2.800   0.515   0.999  1.00  0.00    -0.225 OA
HETATM   17  O3  UNL     1      -2.094  -0.029   0.248  1.00  0.00    -0.228 OA
HETATM   18  C20 UNL     1      -0.797  -0.268  -1.234  1.00  0.00     0.057 C 
ENDROOT
BRANCH   1  19
HETATM   19  C3  UNL     1       1.002   1.385  -1.439  1.00  0.00     0.065 C 
HETATM   20  C4  UNL     1       1.505   2.791  -1.056  1.00  0.00     0.047 C 
BRANCH  19  21
HETATM   21  C2  UNL     1       0.810   1.285  -2.904  1.00  0.00     0.034 C 
HETATM   22  C1  UNL     1       2.143   1.550  -3.649  1.00  0.00     0.008 C 
ENDBRANCH  19  21
BRANCH  19  23
HETATM   23  O1  UNL     1       2.084   0.587  -1.060  1.00  0.00    -0.389 OA
ATOM     24  H1  UNL     1       2.207   0.651  -0.120  1.00  0.00     0.210 HD
ENDBRANCH  19  23
ENDBRANCH   1  19
TORSDOF 4
