REMARK  15 active torsions:
REMARK  status: ('A' for Active; 'I' for Inactive)
REMARK    1  A    between atoms: N1_1  and  C1_5 
REMARK    2  A    between atoms: C1_5  and  C2_6 
REMARK    3  A    between atoms: C2_6  and  C3_7 
REMARK    4  A    between atoms: C3_7  and  C4_8 
REMARK    5  A    between atoms: C4_8  and  N2_9 
REMARK       I    between atoms: N2_9  and  C5_11 
REMARK    6  A    between atoms: C5_11  and  C6_13 
REMARK    7  A    between atoms: C6_13  and  C7_14 
REMARK    8  A    between atoms: C7_14  and  C8_15 
REMARK    9  A    between atoms: C8_15  and  C9_16 
REMARK   10  A    between atoms: C9_16  and  C10_17 
REMARK   11  A    between atoms: C10_17  and  N3_18 
REMARK   12  A    between atoms: N3_18  and  S1_20 
REMARK   13  A    between atoms: S1_20  and  N4_23 
REMARK   14  A    between atoms: C13_26  and  N5_27 
REMARK       I    between atoms: N5_27  and  C14_29 
REMARK       I    between atoms: C14_29  and  N6_31 
REMARK   15  A    between atoms: N6_31  and  C15_33 
ROOT
HETATM    1  S1  UNL     1      -0.623  -2.626   1.957  1.00  0.00     0.298 S 
HETATM    2  O2  UNL     1      -1.319  -2.762   3.291  1.00  0.00    -0.188 OA
HETATM    3  O3  UNL     1      -0.667  -3.982   1.304  1.00  0.00    -0.188 OA
ENDROOT
BRANCH   1   4
HETATM    4  N3  UNL     1       1.044  -2.238   2.151  1.00  0.00    -0.307 N 
ATOM      5  H3  UNL     1       1.393  -1.531   2.798  1.00  0.00     0.173 HD
BRANCH   4   6
HETATM    6  C10 UNL     1       1.890  -3.033   1.289  1.00  0.00     0.133 C 
BRANCH   6   7
HETATM    7  C9  UNL     1       3.354  -2.665   1.486  1.00  0.00     0.020 C 
BRANCH   7   8
HETATM    8  C8  UNL     1       4.258  -3.490   0.636  1.00  0.00     0.002 C 
BRANCH   8   9
HETATM    9  C7  UNL     1       5.696  -3.126   0.858  1.00  0.00     0.009 C 
BRANCH   9  10
HETATM   10  C6  UNL     1       5.933  -1.695   0.483  1.00  0.00     0.103 C 
BRANCH  10  11
HETATM   11  C5  UNL     1       7.370  -1.370   0.714  1.00  0.00     0.217 C 
HETATM   12  N2  UNL     1       7.850  -0.100   0.298  1.00  0.00    -0.361 N 
ATOM     13  H2  UNL     1       7.229   0.573  -0.151  1.00  0.00     0.162 HD
HETATM   14  O1  UNL     1       8.103  -2.225   1.263  1.00  0.00    -0.274 OA
BRANCH  12  15
HETATM   15  C4  UNL     1       9.253   0.217   0.529  1.00  0.00     0.122 C 
BRANCH  15  16
HETATM   16  C3  UNL     1       9.579   1.612   0.011  1.00  0.00     0.021 C 
BRANCH  16  17
HETATM   17  C2  UNL     1       9.302   1.681  -1.485  1.00  0.00     0.029 C 
BRANCH  17  18
HETATM   18  C1  UNL     1       9.623   3.064  -2.023  1.00  0.00     0.229 C 
BRANCH  18  19
HETATM   19  N1  UNL     1       9.356   3.109  -3.436  1.00  0.00    -0.079 N 
ATOM     20  H13 UNL     1       9.850   2.375  -3.944  1.00  0.00     0.274 HD
ATOM     21  H12 UNL     1       8.402   2.823  -3.656  1.00  0.00     0.274 HD
ATOM     22  H11 UNL     1       9.572   4.038  -3.797  1.00  0.00     0.274 HD
ENDBRANCH  18  19
ENDBRANCH  17  18
ENDBRANCH  16  17
ENDBRANCH  15  16
ENDBRANCH  12  15
ENDBRANCH  10  11
ENDBRANCH   9  10
ENDBRANCH   8   9
ENDBRANCH   7   8
ENDBRANCH   6   7
ENDBRANCH   4   6
ENDBRANCH   1   4
BRANCH   1  23
HETATM   23  N4  UNL     1      -1.433  -1.437   1.051  1.00  0.00    -0.193 NA
HETATM   24  C11 UNL     1      -1.902  -1.836  -0.231  1.00  0.00     0.111 C 
HETATM   25  C12 UNL     1      -2.691  -0.842  -0.998  1.00  0.00     0.041 C 
HETATM   26  C13 UNL     1      -3.392   0.215  -0.227  1.00  0.00     0.088 C 
HETATM   27  C21 UNL     1      -2.736   0.533   1.111  1.00  0.00     0.041 C 
HETATM   28  C22 UNL     1      -2.485  -0.780   1.808  1.00  0.00     0.111 C 
BRANCH  26  29
HETATM   29  N5  UNL     1      -4.767  -0.102   0.078  1.00  0.00    -0.338 N 
HETATM   30  C14 UNL     1      -5.775   0.857  -0.217  1.00  0.00     0.316 C 
HETATM   31  O4  UNL     1      -5.464   1.961  -0.739  1.00  0.00    -0.247 OA
HETATM   32  N6  UNL     1      -7.122   0.532   0.096  1.00  0.00    -0.339 N 
ATOM     33  H6  UNL     1      -7.362  -0.367   0.513  1.00  0.00     0.164 HD
ATOM     34  H5  UNL     1      -5.011  -0.999   0.498  1.00  0.00     0.164 HD
BRANCH  32  35
HETATM   35  C15 UNL     1      -8.146   1.517  -0.195  1.00  0.00     0.086 C 
HETATM   36  C16 UNL     1      -8.843   1.935   1.112  1.00  0.00     0.025 C 
HETATM   37  C17 UNL     1      -9.637   3.164   0.791  1.00  0.00     0.002 C 
HETATM   38  C18 UNL     1     -10.639   2.950  -0.308  1.00  0.00     0.000 C 
HETATM   39  C19 UNL     1     -10.154   2.123  -1.444  1.00  0.00     0.002 C 
HETATM   40  C20 UNL     1      -9.244   0.993  -1.087  1.00  0.00     0.025 C 
ENDBRANCH  32  35
ENDBRANCH  26  29
ENDBRANCH   1  23
TORSDOF 15
