REMARK  16 active torsions:
REMARK  status: ('A' for Active; 'I' for Inactive)
REMARK    1  A    between atoms: C2_2  and  C5_5 
REMARK       I    between atoms: C5_5  and  N1_7 
REMARK    2  A    between atoms: N1_7  and  C6_9 
REMARK    3  A    between atoms: N2_11  and  C8_12 
REMARK    4  A    between atoms: C8_12  and  C9_13 
REMARK       I    between atoms: C9_13  and  N3_15 
REMARK    5  A    between atoms: N3_15  and  C10_17 
REMARK    6  A    between atoms: C10_17  and  C11_18 
REMARK    7  A    between atoms: C11_18  and  C12_19 
REMARK    8  A    between atoms: C12_19  and  C13_20 
REMARK    9  A    between atoms: C13_20  and  C14_21 
REMARK   10  A    between atoms: C14_21  and  C15_22 
REMARK   11  A    between atoms: C15_22  and  C16_23 
REMARK   12  A    between atoms: C16_23  and  C17_24 
REMARK   13  A    between atoms: C17_24  and  C18_25 
REMARK   14  A    between atoms: C18_25  and  C19_26 
REMARK   15  A    between atoms: C19_26  and  N4_27 
REMARK       I    between atoms: N4_27  and  C20_29 
REMARK       I    between atoms: C20_29  and  N6_33 
REMARK   16  A    between atoms: N6_33  and  N7_35 
ROOT
HETATM    1  C10 UNL     1      -0.145   0.019  -2.178  1.00  0.00     0.123 C 
ENDROOT
BRANCH   1   2
HETATM    2  N3  UNL     1      -0.867   0.805  -1.232  1.00  0.00    -0.360 N 
HETATM    3  C9  UNL     1      -1.861   0.249  -0.415  1.00  0.00     0.235 C 
HETATM    4  O2  UNL     1      -2.149  -0.960  -0.499  1.00  0.00    -0.272 OA
ATOM      5  H3  UNL     1      -0.654   1.799  -1.148  1.00  0.00     0.162 HD
BRANCH   3   6
HETATM    6  C8  UNL     1      -2.620   1.067   0.590  1.00  0.00     0.230 C 
BRANCH   6   7
HETATM    7  N2  UNL     1      -3.572   0.239   1.269  1.00  0.00    -0.353 N 
HETATM    8  C7  UNL     1      -4.840   0.081   0.798  1.00  0.00     0.139 A 
HETATM    9  C6  UNL     1      -5.785  -0.704   1.420  1.00  0.00     0.123 A 
HETATM   10  N8  UNL     1      -5.435  -1.346   2.549  1.00  0.00    -0.350 N 
HETATM   11  C22 UNL     1      -4.200  -1.205   3.025  1.00  0.00     0.107 A 
ATOM     12  H8  UNL     1      -6.110  -1.936   3.036  1.00  0.00     0.166 HD
HETATM   13  C21 UNL     1      -3.263  -0.419   2.397  1.00  0.00     0.108 A 
BRANCH   9  14
HETATM   14  N1  UNL     1      -6.948  -0.790   0.905  1.00  0.00    -0.311 N 
HETATM   15  C5  UNL     1      -7.259  -0.091  -0.284  1.00  0.00     0.231 C 
HETATM   16  O1  UNL     1      -6.796  -0.427  -1.413  1.00  0.00    -0.272 OA
ATOM     17  H1  UNL     1      -7.659  -1.367   1.354  1.00  0.00     0.170 HD
BRANCH  15  18
HETATM   18  C2  UNL     1      -8.173   1.081  -0.155  1.00  0.00     0.030 C 
HETATM   19  C1  UNL     1      -9.504   0.576   0.359  1.00  0.00     0.025 C 
HETATM   20  C3  UNL     1      -8.279   1.747  -1.498  1.00  0.00     0.025 C 
HETATM   21  C4  UNL     1      -7.626   2.122   0.819  1.00  0.00     0.025 C 
ENDBRANCH  15  18
ENDBRANCH   9  14
ENDBRANCH   6   7
ENDBRANCH   3   6
ENDBRANCH   1   2
BRANCH   1  22
HETATM   22  C11 UNL     1       0.637  -1.052  -1.449  1.00  0.00     0.023 C 
BRANCH  22  23
HETATM   23  C12 UNL     1       1.377  -1.827  -2.508  1.00  0.00     0.028 C 
BRANCH  23  24
HETATM   24  C13 UNL     1       2.215  -2.927  -2.021  1.00  0.00    -0.031 C 
BRANCH  24  25
HETATM   25  C14 UNL     1       3.294  -2.748  -1.070  1.00  0.00    -0.031 C 
BRANCH  25  26
HETATM   26  C15 UNL     1       4.477  -1.896  -1.333  1.00  0.00     0.027 C 
BRANCH  26  27
HETATM   27  C16 UNL     1       4.317  -0.459  -1.535  1.00  0.00     0.004 C 
BRANCH  27  28
HETATM   28  C17 UNL     1       5.477   0.409  -1.801  1.00  0.00     0.002 C 
BRANCH  28  29
HETATM   29  C18 UNL     1       6.490   0.610  -0.778  1.00  0.00     0.020 C 
BRANCH  29  30
HETATM   30  C19 UNL     1       7.275  -0.499  -0.222  1.00  0.00     0.138 C 
BRANCH  30  31
HETATM   31  N4  UNL     1       8.267   0.143   0.705  1.00  0.00    -0.225 N 
HETATM   32  C20 UNL     1       7.860   0.764   1.898  1.00  0.00     0.691 C 
HETATM   33  N5  UNL     1       7.131   0.170   2.780  1.00  0.00    -0.233 N 
HETATM   34  N6  UNL     1       8.267   2.100   2.147  1.00  0.00    -0.072 N 
ATOM     35  H52 UNL     1       6.838  -0.791   2.601  1.00  0.00     0.174 HD
ATOM     36  H51 UNL     1       6.836   0.621   3.646  1.00  0.00     0.174 HD
ATOM     37  H6  UNL     1       8.095   2.825   1.450  1.00  0.00     0.212 HD
ATOM     38  H4  UNL     1       9.258   0.128   0.463  1.00  0.00     0.177 HD
BRANCH  34  39
HETATM   39  N7  UNL     1       8.900   2.419   3.340  1.00  0.00    -0.024 N 
HETATM   40  O3  UNL     1       9.106   3.604   3.623  1.00  0.00    -0.516 OA
HETATM   41  O4  UNL     1       9.288   1.434   4.187  1.00  0.00    -0.516 OA
ENDBRANCH  34  39
ENDBRANCH  30  31
ENDBRANCH  29  30
ENDBRANCH  28  29
ENDBRANCH  27  28
ENDBRANCH  26  27
ENDBRANCH  25  26
ENDBRANCH  24  25
ENDBRANCH  23  24
ENDBRANCH  22  23
ENDBRANCH   1  22
TORSDOF 16
