REMARK  3 active torsions:
REMARK  status: ('A' for Active; 'I' for Inactive)
REMARK       I    between atoms: C2_2  and  N1_4 
REMARK    1  A    between atoms: N1_4  and  C4_6 
REMARK    2  A    between atoms: C4_6  and  O2_7 
REMARK    3  A    between atoms: C4_6  and  C5_9 
ROOT
HETATM    1  C5  UNL     1      -0.910   1.472   0.427  1.00  0.00     0.200 A 
HETATM    2  N2  UNL     1      -1.165   1.805  -0.954  1.00  0.00    -0.053 N 
ATOM      3  H21 UNL     1      -1.182   1.081  -1.672  1.00  0.00     0.279 HD
ATOM      4  H22 UNL     1      -0.473   2.312  -1.506  1.00  0.00     0.279 HD
HETATM    5  C6  UNL     1      -2.385   2.449  -0.523  1.00  0.00     0.195 C 
HETATM    6  C7  UNL     1      -2.146   3.608   0.460  1.00  0.00     0.041 C 
HETATM    7  C8  UNL     1      -1.473   2.545   1.307  1.00  0.00     0.041 A 
HETATM    8  C9  UNL     1      -2.347   1.579   0.671  1.00  0.00     0.068 A 
ENDROOT
BRANCH   1   9
HETATM    9  C4  UNL     1      -0.220   0.337   0.942  1.00  0.00     0.158 C 
BRANCH   9  10
HETATM   10  N1  UNL     1       0.389  -0.733   0.342  1.00  0.00    -0.305 N 
HETATM   11  C2  UNL     1       0.519  -1.043  -1.000  1.00  0.00     0.221 C 
HETATM   12  C1  UNL     1       1.252  -2.314  -1.435  1.00  0.00     0.117 C 
HETATM   13  O1  UNL     1       0.074  -0.353  -1.927  1.00  0.00    -0.273 OA
HETATM   14  C3  UNL     1       1.034  -1.764   1.255  1.00  0.00     0.161 C 
ENDBRANCH   9  10
BRANCH   9  15
HETATM   15  O2  UNL     1      -0.177   0.355   2.273  1.00  0.00    -0.347 OA
ATOM     16  H2  UNL     1      -0.599   1.097   2.689  1.00  0.00     0.219 HD
ENDBRANCH   9  15
ENDBRANCH   1   9
TORSDOF 3
