REMARK  9 active torsions:
REMARK  status: ('A' for Active; 'I' for Inactive)
REMARK    1  A    between atoms: C2_2  and  C3_3 
REMARK    2  A    between atoms: C3_3  and  C4_4 
REMARK    3  A    between atoms: N1_5  and  C5_6 
REMARK    4  A    between atoms: N1_5  and  C7_8 
REMARK    5  A    between atoms: C7_8  and  C8_9 
REMARK    6  A    between atoms: C8_9  and  C9_10 
REMARK    7  A    between atoms: C9_10  and  C10_11 
REMARK    8  A    between atoms: C12_14  and  O2_15 
REMARK    9  A    between atoms: C22_31  and  S2_32 
ROOT
HETATM    1  C10 UNL     1      -2.128  -0.869  -0.109  1.00  0.00     0.196 C 
HETATM    2  O1  UNL     1      -3.421  -0.439  -0.661  1.00  0.00    -0.373 OA
HETATM    3  C11 UNL     1      -3.938   0.565   0.094  1.00  0.00     0.207 C 
HETATM    4  C12 UNL     1      -2.957   1.700   0.585  1.00  0.00     0.194 C 
HETATM    5  C13 UNL     1      -1.846   1.428  -0.057  1.00  0.00     0.074 C 
HETATM    6  C14 UNL     1      -1.345   0.158  -0.462  1.00  0.00     0.066 C 
HETATM    7  N2  UNL     1      -0.201   0.351  -1.283  1.00  0.00    -0.362 N 
ATOM      8  H2  UNL     1      -0.249  -0.026  -2.230  1.00  0.00     0.161 HD
HETATM    9  C15 UNL     1       0.870   0.941  -0.962  1.00  0.00     0.180 A 
HETATM   10  O3  UNL     1       1.514   1.245  -0.927  1.00  0.00     0.000 OA
HETATM   11  C16 UNL     1       0.338   2.236  -1.285  1.00  0.00     0.128 A 
HETATM   12  S1  UNL     1       0.456   3.098  -2.664  1.00  0.00    -0.061 SA
HETATM   13  N3  UNL     1      -0.828   2.288  -0.263  1.00  0.00    -0.300 N 
HETATM   14  C17 UNL     1      -0.832   3.098   0.684  1.00  0.00     0.060 A 
HETATM   15  C18 UNL     1      -1.736   3.945   0.947  1.00  0.00     0.071 A 
HETATM   16  C19 UNL     1      -1.484   4.611   2.217  1.00  0.00     0.107 A 
HETATM   17  C20 UNL     1      -0.395   4.348   3.015  1.00  0.00     0.106 A 
HETATM   18  C21 UNL     1       0.555   3.380   2.609  1.00  0.00     0.060 A 
HETATM   19  C22 UNL     1       0.296   2.775   1.431  1.00  0.00     0.033 A 
HETATM   20  S2  UNL     1       1.430   1.530   0.814  1.00  0.00    -0.085 SA
HETATM   21  O4  UNL     1      -0.482   5.151   4.118  1.00  0.00    -0.323 OA
HETATM   22  C23 UNL     1      -1.662   5.925   4.037  1.00  0.00     0.352 A 
HETATM   23  O5  UNL     1      -2.230   5.548   2.810  1.00  0.00    -0.323 OA
ENDROOT
BRANCH   1  24
HETATM   24  C9  UNL     1      -1.833  -2.230  -0.446  1.00  0.00     0.012 C 
BRANCH  24  25
HETATM   25  C8  UNL     1      -1.720  -2.804  -1.758  1.00  0.00     0.016 C 
BRANCH  25  26
HETATM   26  C7  UNL     1      -0.736  -2.702  -2.796  1.00  0.00     0.090 C 
BRANCH  26  27
HETATM   27  N1  UNL     1       0.550  -3.264  -2.703  1.00  0.00    -0.370 N 
HETATM   28  C4  UNL     1       1.513  -2.872  -1.840  1.00  0.00     0.063 C 
BRANCH  28  29
HETATM   29  C3  UNL     1       2.692  -2.085  -2.358  1.00  0.00     0.044 C 
BRANCH  29  30
HETATM   30  C2  UNL     1       3.615  -1.771  -1.201  1.00  0.00     0.001 C 
HETATM   31  C1  UNL     1       4.081  -3.118  -0.649  1.00  0.00     0.005 C 
ENDBRANCH  29  30
ENDBRANCH  28  29
BRANCH  27  32
HETATM   32  C5  UNL     1       0.835  -4.237  -3.718  1.00  0.00     0.123 C 
HETATM   33  C6  UNL     1       1.106  -5.622  -3.176  1.00  0.00     0.027 C 
ENDBRANCH  27  32
ENDBRANCH  26  27
ENDBRANCH  25  26
ENDBRANCH  24  25
ENDBRANCH   1  24
BRANCH   4  34
HETATM   34  O2  UNL     1      -2.948   1.437   2.009  1.00  0.00    -0.387 OA
ATOM     35  H2  UNL     1      -2.358   2.120   2.305  1.00  0.00     0.210 HD
ENDBRANCH   4  34
TORSDOF 9
