REMARK  14 active torsions:
REMARK  status: ('A' for Active; 'I' for Inactive)
REMARK    1  A    between atoms: O1_2  and  C2_3 
REMARK    2  A    between atoms: C8_9  and  C9_10 
REMARK    3  A    between atoms: C10_11  and  C11_12 
REMARK    4  A    between atoms: C11_12  and  C12_13 
REMARK    5  A    between atoms: C12_13  and  C13_14 
REMARK    6  A    between atoms: C13_14  and  C14_15 
REMARK    7  A    between atoms: C14_15  and  C15_16 
REMARK    8  A    between atoms: C15_16  and  C16_17 
REMARK    9  A    between atoms: C19_22  and  O4_23 
REMARK   10  A    between atoms: C24_29  and  O5_30 
REMARK   11  A    between atoms: O5_30  and  C25_31 
REMARK   12  A    between atoms: C25_31  and  C26_33 
REMARK   13  A    between atoms: C26_33  and  N1_34 
REMARK   14  A    between atoms: C31_40  and  O8_41 
ROOT
HETATM    1  C2  UNL     1       1.527   1.897  -0.972  1.00  0.00     0.092 C 
HETATM    2  C3  UNL     1       2.893   1.821  -0.592  1.00  0.00     0.041 C 
HETATM    3  C4  UNL     1       3.365   0.536  -1.342  1.00  0.00     0.015 C 
HETATM    4  C5  UNL     1       2.484  -0.630  -1.116  1.00  0.00    -0.013 C 
HETATM    5  C6  UNL     1       3.414  -1.817  -0.806  1.00  0.00     0.018 C 
HETATM    6  C7  UNL     1       1.481  -1.037  -2.125  1.00  0.00     0.046 C 
HETATM    7  C8  UNL     1       0.131  -0.411  -2.160  1.00  0.00    -0.067 C 
HETATM    8  C17 UNL     1      -0.271   0.464  -1.023  1.00  0.00     0.026 C 
HETATM    9  C18 UNL     1      -1.441  -0.153  -0.345  1.00  0.00     0.024 C 
HETATM   10  C19 UNL     1      -0.638   1.935  -1.380  1.00  0.00     0.146 C 
HETATM   11  C20 UNL     1       0.389   2.788  -0.679  1.00  0.00     0.059 C 
HETATM   12  C21 UNL     1       0.737   4.136  -0.723  1.00  0.00     0.026 C 
HETATM   13  C22 UNL     1       0.785   4.130   0.823  1.00  0.00     0.026 C 
HETATM   14  C23 UNL     1       2.088   4.264   1.496  1.00  0.00     0.014 C 
HETATM   15  C24 UNL     1       0.033   2.884   0.735  1.00  0.00     0.148 C 
HETATM   16  C29 UNL     1       0.624   1.559   1.075  1.00  0.00     0.178 C 
HETATM   17  O7  UNL     1       0.837   1.219   2.224  1.00  0.00    -0.293 OA
HETATM   18  C30 UNL     1       0.890   0.771  -0.199  1.00  0.00     0.096 C 
HETATM   19  C31 UNL     1       1.749  -0.359   0.189  1.00  0.00     0.146 C 
ENDROOT
BRANCH   7  20
HETATM   20  C9  UNL     1      -0.846  -1.416  -2.628  1.00  0.00    -0.000 C 
HETATM   21  C10 UNL     1      -1.060  -2.641  -2.822  1.00  0.00    -0.026 C 
BRANCH  21  22
HETATM   22  C11 UNL     1      -0.415  -3.932  -2.689  1.00  0.00     0.027 C 
BRANCH  22  23
HETATM   23  C12 UNL     1      -1.250  -4.894  -1.816  1.00  0.00     0.004 C 
BRANCH  23  24
HETATM   24  C13 UNL     1      -1.465  -4.414  -0.429  1.00  0.00     0.001 C 
BRANCH  24  25
HETATM   25  C14 UNL     1      -2.286  -5.423   0.357  1.00  0.00     0.010 C 
BRANCH  25  26
HETATM   26  C15 UNL     1      -1.543  -6.722   0.420  1.00  0.00     0.113 C 
BRANCH  26  27
HETATM   27  C16 UNL     1      -0.253  -6.504   1.099  1.00  0.00     0.172 C 
HETATM   28  O2  UNL     1      -0.244  -5.915   2.220  1.00  0.00    -0.648 OA
HETATM   29  O3  UNL     1       0.938  -6.922   0.543  1.00  0.00    -0.648 OA
ENDBRANCH  26  27
ENDBRANCH  25  26
ENDBRANCH  24  25
ENDBRANCH  23  24
ENDBRANCH  22  23
ENDBRANCH  21  22
ENDBRANCH   7  20
BRANCH  10  30
HETATM   30  O4  UNL     1      -0.851   2.137  -2.695  1.00  0.00    -0.393 OA
ATOM     31  H4  UNL     1      -1.075   3.034  -2.913  1.00  0.00     0.210 HD
ENDBRANCH  10  30
BRANCH  19  32
HETATM   32  O8  UNL     1       1.035  -1.509   0.468  1.00  0.00    -0.393 OA
ATOM     33  H8  UNL     1       0.576  -1.340   1.283  1.00  0.00     0.210 HD
ENDBRANCH  19  32
BRANCH   1  34
HETATM   34  O1  UNL     1       1.548   1.925  -2.304  1.00  0.00    -0.383 OA
HETATM   35  C1  UNL     1       2.072   2.782  -3.116  1.00  0.00     0.202 C 
ENDBRANCH   1  34
BRANCH  15  36
HETATM   36  O5  UNL     1      -1.154   2.974   1.367  1.00  0.00    -0.299 OA
BRANCH  36  37
HETATM   37  C25 UNL     1      -2.198   3.810   1.354  1.00  0.00     0.288 C 
HETATM   38  O6  UNL     1      -2.055   4.733   0.513  1.00  0.00    -0.263 OA
BRANCH  37  39
HETATM   39  C26 UNL     1      -3.373   3.702   2.210  1.00  0.00     0.381 C 
BRANCH  39  40
HETATM   40  N1  UNL     1      -3.418   2.425   2.895  1.00  0.00     0.089 N 
HETATM   41  C27 UNL     1      -4.459   2.470   3.934  1.00  0.00     0.310 C 
HETATM   42  C28 UNL     1      -3.980   1.480   1.900  1.00  0.00     0.310 C 
ENDBRANCH  39  40
ENDBRANCH  37  39
ENDBRANCH  36  37
ENDBRANCH  15  36
TORSDOF 14
