REMARK  5 active torsions:
REMARK  status: ('A' for Active; 'I' for Inactive)
REMARK    1  A    between atoms: O1_2  and  C2_3 
REMARK       I    between atoms: N1_11  and  C9_12 
REMARK    2  A    between atoms: C9_12  and  C10_14 
REMARK    3  A    between atoms: C10_14  and  C11_15 
REMARK    4  A    between atoms: C11_15  and  C12_16 
REMARK    5  A    between atoms: C12_16  and  N2_17 
ROOT
HETATM    1  C2  UNL     1       2.097   3.720  -0.380  1.00  0.00     0.195 A 
HETATM    2  C3  UNL     1       2.154   2.415  -0.463  1.00  0.00     0.017 A 
HETATM    3  C4  UNL     1       3.331   1.588  -0.844  1.00  0.00     0.054 C 
HETATM    4  C5  UNL     1       0.842   1.823  -0.118  1.00  0.00     0.101 A 
HETATM    5  C6  UNL     1       0.605   0.543  -0.048  1.00  0.00     0.167 C 
HETATM    6  O2  UNL     1       1.561  -0.483  -0.273  1.00  0.00    -0.293 OA
HETATM    7  C7  UNL     1       1.181  -1.602   0.554  1.00  0.00     0.254 C 
HETATM    8  C8  UNL     1      -0.126  -1.197   1.207  1.00  0.00     0.203 C 
HETATM    9  N1  UNL     1      -0.586  -0.179   0.244  1.00  0.00    -0.293 N 
HETATM   10  C9  UNL     1      -1.858  -0.014  -0.328  1.00  0.00     0.226 C 
HETATM   11  O3  UNL     1      -2.184   0.725  -1.271  1.00  0.00    -0.273 OA
HETATM   12  N3  UNL     1       1.050  -2.748  -0.287  1.00  0.00    -0.077 NA
HETATM   13  N4  UNL     1       1.299  -3.930   0.399  1.00  0.00    -0.014 NA
HETATM   14  N5  UNL     1       2.646  -4.087   0.728  1.00  0.00    -0.010 NA
HETATM   15  N6  UNL     1       3.116  -2.958   1.394  1.00  0.00    -0.252 N 
ATOM     16  H6  UNL     1       4.061  -2.935   1.777  1.00  0.00     0.187 HD
HETATM   17  C13 UNL     1       2.252  -1.839   1.528  1.00  0.00     0.289 C 
HETATM   18  O4  UNL     1       2.399  -1.042   2.485  1.00  0.00    -0.267 OA
HETATM   19  C14 UNL     1       0.021   2.983   0.179  1.00  0.00     0.305 A 
HETATM   20  O5  UNL     1      -1.168   3.026   0.530  1.00  0.00    -0.259 OA
HETATM   21  O6  UNL     1       0.848   4.113  -0.001  1.00  0.00    -0.250 OA
ENDROOT
BRANCH  10  22
HETATM   22  C10 UNL     1      -2.969  -0.831   0.272  1.00  0.00     0.105 C 
BRANCH  22  23
HETATM   23  C11 UNL     1      -4.273  -0.457  -0.394  1.00  0.00     0.036 C 
BRANCH  23  24
HETATM   24  C12 UNL     1      -5.342  -1.301   0.255  1.00  0.00     0.230 C 
BRANCH  24  25
HETATM   25  N2  UNL     1      -5.055  -2.698   0.060  1.00  0.00    -0.079 N 
ATOM     26  H23 UNL     1      -4.933  -2.929  -0.926  1.00  0.00     0.274 HD
ATOM     27  H22 UNL     1      -4.122  -2.945   0.388  1.00  0.00     0.274 HD
ATOM     28  H21 UNL     1      -5.778  -3.269   0.499  1.00  0.00     0.274 HD
ENDBRANCH  24  25
ENDBRANCH  23  24
ENDBRANCH  22  23
ENDBRANCH  10  22
BRANCH   1  29
HETATM   29  O1  UNL     1       3.220   4.516  -0.662  1.00  0.00    -0.335 OA
HETATM   30  C1  UNL     1       2.961   5.795  -1.215  1.00  0.00     0.212 C 
ENDBRANCH   1  29
TORSDOF 5
