REMARK  4 active torsions:
REMARK  status: ('A' for Active; 'I' for Inactive)
REMARK    1  A    between atoms: C6_6  and  C19_23 
REMARK    2  A    between atoms: C8_8  and  O1_9 
REMARK    3  A    between atoms: C13_16  and  C14_17 
REMARK    4  A    between atoms: C14_17  and  N1_18 
ROOT
HETATM    1  C1  UNL     1      -1.648  -2.574   0.302  1.00  0.00     0.015 C 
HETATM    2  C2  UNL     1      -1.262  -1.320   0.426  1.00  0.00    -0.077 C 
HETATM    3  C3  UNL     1      -1.702  -0.382   1.504  1.00  0.00     0.019 C 
HETATM    4  C4  UNL     1      -3.066   0.151   1.118  1.00  0.00     0.020 C 
HETATM    5  C5  UNL     1      -2.925   1.600   0.800  1.00  0.00     0.053 C 
HETATM    6  C6  UNL     1      -1.511   2.003   1.228  1.00  0.00     0.005 C 
HETATM    7  C7  UNL     1      -1.371   2.670  -0.092  1.00  0.00     0.074 C 
HETATM    8  C8  UNL     1      -2.438   1.832  -0.642  1.00  0.00     0.167 C 
HETATM    9  O2  UNL     1      -2.246   0.687  -1.217  1.00  0.00    -0.344 OA
HETATM   10  C9  UNL     1      -1.102   0.102  -1.554  1.00  0.00     0.065 C 
HETATM   11  C10 UNL     1      -1.539  -1.127  -2.395  1.00  0.00     0.046 C 
HETATM   12  C11 UNL     1      -0.180   0.864  -2.461  1.00  0.00     0.046 C 
HETATM   13  C12 UNL     1      -0.335  -0.539  -0.419  1.00  0.00     0.054 C 
HETATM   14  C13 UNL     1       0.326   0.413   0.524  1.00  0.00     0.030 C 
HETATM   15  C19 UNL     1      -0.757   0.780   1.479  1.00  0.00     0.005 C 
ENDROOT
BRANCH  14  16
HETATM   16  C14 UNL     1       1.354  -0.395   1.291  1.00  0.00     0.278 C 
BRANCH  16  17
HETATM   17  N1  UNL     1       2.069   0.398   2.247  1.00  0.00     0.088 N 
HETATM   18  C15 UNL     1       2.991  -0.484   2.964  1.00  0.00     0.272 C 
HETATM   19  C16 UNL     1       4.268  -0.513   2.186  1.00  0.00     0.032 C 
HETATM   20  C17 UNL     1       4.088   0.518   1.109  1.00  0.00     0.032 C 
HETATM   21  C18 UNL     1       2.934   1.361   1.642  1.00  0.00     0.272 C 
ENDBRANCH  16  17
ENDBRANCH  14  16
BRANCH   8  22
HETATM   22  O1  UNL     1      -3.451   2.589  -1.287  1.00  0.00    -0.365 OA
ATOM     23  H1  UNL     1      -3.150   2.732  -2.177  1.00  0.00     0.213 HD
ENDBRANCH   8  22
TORSDOF 4
