REMARK  5 active torsions:
REMARK  status: ('A' for Active; 'I' for Inactive)
REMARK    1  A    between atoms: N1_2  and  C3_4 
REMARK    2  A    between atoms: C8_9  and  O1_10 
REMARK    3  A    between atoms: C10_13  and  C11_14 
REMARK    4  A    between atoms: N3_16  and  C12_18 
REMARK    5  A    between atoms: C12_18  and  N4_21 
ROOT
HETATM    1  C3  UNL     1      -2.303   0.509   1.159  1.00  0.00     0.238 A 
HETATM    2  C4  UNL     1      -1.145   1.252   0.535  1.00  0.00     0.058 A 
HETATM    3  C5  UNL     1      -1.426   1.666  -0.885  1.00  0.00    -0.022 C 
HETATM    4  C6  UNL     1      -1.258   0.668  -1.719  1.00  0.00    -0.022 C 
HETATM    5  C7  UNL     1      -0.849  -0.572  -1.027  1.00  0.00     0.054 A 
HETATM    6  C8  UNL     1      -1.883  -1.398  -0.353  1.00  0.00     0.134 A 
HETATM    7  C9  UNL     1      -1.525  -0.762   0.972  1.00  0.00     0.066 A 
HETATM    8  C10 UNL     1      -0.455  -0.032   0.319  1.00  0.00     0.042 A 
ENDROOT
BRANCH   8   9
HETATM    9  C11 UNL     1       0.960  -0.186   0.687  1.00  0.00     0.101 C 
HETATM   10  N2  UNL     1       1.512   0.005   1.967  1.00  0.00    -0.087 NA
HETATM   11  N3  UNL     1       1.712  -0.518  -0.270  1.00  0.00    -0.350 N 
ATOM     12  H3  UNL     1       1.152  -0.606  -1.118  1.00  0.00     0.163 HD
BRANCH  11  13
HETATM   13  C12 UNL     1       3.024  -0.802  -0.567  1.00  0.00     0.189 C 
HETATM   14  C13 UNL     1       3.236  -2.282  -0.950  1.00  0.00     0.070 C 
HETATM   15  C14 UNL     1       4.080  -0.453   0.452  1.00  0.00     0.070 C 
BRANCH  13  16
HETATM   16  N4  UNL     1       3.327  -0.117  -1.849  1.00  0.00    -0.053 N 
ATOM     17  H43 UNL     1       2.682  -0.363  -2.600  1.00  0.00     0.277 HD
ATOM     18  H42 UNL     1       3.125   0.883  -1.829  1.00  0.00     0.277 HD
ATOM     19  H41 UNL     1       4.300  -0.328  -2.069  1.00  0.00     0.277 HD
ENDBRANCH  13  16
ENDBRANCH  11  13
ENDBRANCH   8   9
BRANCH   1  20
HETATM   20  N1  UNL     1      -2.736   0.873   2.451  1.00  0.00     0.085 N 
HETATM   21  C1  UNL     1      -3.890   0.023   2.781  1.00  0.00     0.309 C 
HETATM   22  C2  UNL     1      -1.822   0.769   3.525  1.00  0.00     0.309 C 
ENDBRANCH   1  20
BRANCH   6  23
HETATM   23  O1  UNL     1      -3.185  -1.122  -0.772  1.00  0.00    -0.394 OA
ATOM     24  H1  UNL     1      -3.846  -1.650  -0.341  1.00  0.00     0.210 HD
ENDBRANCH   6  23
TORSDOF 5
