REMARK  7 active torsions:
REMARK  status: ('A' for Active; 'I' for Inactive)
REMARK    1  A    between atoms: C11_12  and  C13_14 
REMARK    2  A    between atoms: C13_14  and  O3_16 
REMARK    3  A    between atoms: O3_16  and  C14_17 
REMARK    4  A    between atoms: C20_24  and  C21_25 
REMARK    5  A    between atoms: C20_24  and  O7_35 
REMARK    6  A    between atoms: C21_25  and  N1_26 
REMARK    7  A    between atoms: C23_28  and  C24_29 
ROOT
HETATM    1  C1  UNL     1       1.310  -1.186  -3.846  1.00  0.00     0.023 C 
HETATM    2  C2  UNL     1       0.593  -0.468  -3.102  1.00  0.00    -0.012 C 
HETATM    3  C3  UNL     1      -0.234  -0.724  -1.955  1.00  0.00     0.167 C 
HETATM    4  O1  UNL     1      -0.602  -1.929  -1.826  1.00  0.00    -0.292 OA
HETATM    5  C4  UNL     1      -0.679   0.258  -0.970  1.00  0.00     0.061 C 
HETATM    6  C5  UNL     1      -1.793   0.539  -1.870  1.00  0.00     0.022 C 
HETATM    7  C6  UNL     1      -1.112   1.032  -3.140  1.00  0.00     0.015 C 
HETATM    8  C7  UNL     1       0.358   1.042  -3.271  1.00  0.00     0.053 C 
HETATM    9  C8  UNL     1       1.315   1.580  -2.325  1.00  0.00    -0.042 C 
HETATM   10  C9  UNL     1       2.352   0.688  -1.671  1.00  0.00     0.003 C 
HETATM   11  C10 UNL     1       2.261  -0.065  -0.456  1.00  0.00    -0.007 C 
HETATM   12  C11 UNL     1       1.222  -0.794   0.248  1.00  0.00     0.063 C 
HETATM   13  C12 UNL     1       1.494  -0.546   1.781  1.00  0.00     0.030 C 
HETATM   14  C16 UNL     1      -0.270  -0.539   0.142  1.00  0.00     0.044 C 
HETATM   15  C17 UNL     1       0.888   2.594  -1.325  1.00  0.00     0.163 C 
HETATM   16  O4  UNL     1       0.870   1.826  -0.178  1.00  0.00    -0.364 OA
HETATM   17  C18 UNL     1      -0.429   1.563  -0.526  1.00  0.00     0.123 A 
HETATM   18  C19 UNL     1      -0.576   2.776  -1.136  1.00  0.00     0.101 A 
HETATM   19  C20 UNL     1      -1.209   2.531   0.226  1.00  0.00     0.136 A 
ENDROOT
BRANCH  19  20
HETATM   20  C21 UNL     1      -2.598   2.801   0.492  1.00  0.00     0.130 C 
BRANCH  20  21
HETATM   21  N1  UNL     1      -3.458   1.902   1.221  1.00  0.00    -0.279 N 
HETATM   22  C22 UNL     1      -4.278   0.966   0.772  1.00  0.00     0.135 A 
HETATM   23  C23 UNL     1      -4.927   0.304   1.795  1.00  0.00     0.075 A 
HETATM   24  C25 UNL     1      -4.450   0.900   2.940  1.00  0.00     0.127 A 
HETATM   25  N2  UNL     1      -3.587   1.835   2.547  1.00  0.00    -0.305 N 
ATOM     26  H2  UNL     1      -3.077   2.438   3.193  1.00  0.00     0.186 HD
BRANCH  23  27
HETATM   27  C24 UNL     1      -5.898  -0.780   1.702  1.00  0.00     0.212 C 
HETATM   28  O5  UNL     1      -6.229  -1.213   0.579  1.00  0.00    -0.644 OA
HETATM   29  O6  UNL     1      -6.461  -1.340   2.831  1.00  0.00    -0.644 OA
ENDBRANCH  23  27
ENDBRANCH  20  21
ENDBRANCH  19  20
BRANCH  19  30
HETATM   30  O7  UNL     1      -0.499   3.482   1.071  1.00  0.00    -0.376 OA
HETATM   31  C26 UNL     1       0.199   3.097   2.093  1.00  0.00     0.203 C 
ENDBRANCH  19  30
BRANCH  12  32
HETATM   32  C13 UNL     1       1.545  -2.273   0.293  1.00  0.00     0.271 C 
HETATM   33  O2  UNL     1       1.245  -3.014   1.264  1.00  0.00    -0.264 OA
BRANCH  32  34
HETATM   34  O3  UNL     1       2.214  -2.899  -0.762  1.00  0.00    -0.321 OA
BRANCH  34  35
HETATM   35  C14 UNL     1       2.535  -4.278  -0.742  1.00  0.00     0.174 C 
HETATM   36  C15 UNL     1       1.286  -5.108  -0.627  1.00  0.00     0.034 C 
ENDBRANCH  34  35
ENDBRANCH  32  34
ENDBRANCH  12  32
TORSDOF 7
