REMARK  7 active torsions:
REMARK  status: ('A' for Active; 'I' for Inactive)
REMARK    1  A    between atoms: C8_8  and  C9_9 
REMARK    2  A    between atoms: C8_8  and  C17_21 
REMARK    3  A    between atoms: C9_9  and  C10_10 
REMARK    4  A    between atoms: C10_10  and  C11_11 
REMARK    5  A    between atoms: C17_21  and  C18_22 
REMARK    6  A    between atoms: C18_22  and  C19_23 
REMARK    7  A    between atoms: C26_30  and  C27_31 
ROOT
HETATM    1  C1  UNL     1       0.009  -4.518  -2.233  1.00  0.00     0.010 C 
HETATM    2  C2  UNL     1      -0.286  -3.066  -1.910  1.00  0.00    -0.018 C 
HETATM    3  C3  UNL     1      -0.326  -2.356  -3.229  1.00  0.00     0.005 C 
HETATM    4  C4  UNL     1      -0.362  -0.882  -3.080  1.00  0.00     0.010 C 
HETATM    5  C5  UNL     1       0.896  -0.451  -2.305  1.00  0.00    -0.040 C 
HETATM    6  C6  UNL     1       0.893   1.021  -2.360  1.00  0.00     0.015 C 
HETATM    7  C7  UNL     1       2.024  -0.916  -3.260  1.00  0.00     0.015 C 
HETATM    8  C8  UNL     1       1.030  -1.077  -0.973  1.00  0.00    -0.033 C 
HETATM    9  C31 UNL     1       0.595  -2.521  -0.884  1.00  0.00     0.014 C 
ENDROOT
BRANCH   8  10
HETATM   10  C9  UNL     1       2.518  -1.132  -0.618  1.00  0.00     0.017 C 
BRANCH  10  11
HETATM   11  C10 UNL     1       3.263   0.110  -0.498  1.00  0.00     0.066 C 
BRANCH  11  12
HETATM   12  C11 UNL     1       4.702  -0.254  -0.162  1.00  0.00     0.055 A 
HETATM   13  C12 UNL     1       5.714   0.067  -0.915  1.00  0.00     0.036 A 
HETATM   14  C13 UNL     1       7.080  -0.308  -0.545  1.00  0.00     0.046 A 
HETATM   15  C14 UNL     1       7.889   0.962  -0.393  1.00  0.00     0.042 C 
HETATM   16  C15 UNL     1       7.718  -1.175  -1.629  1.00  0.00     0.042 C 
HETATM   17  N1  UNL     1       7.185  -1.039   0.687  1.00  0.00    -0.349 N 
HETATM   18  C16 UNL     1       6.063  -1.379   1.491  1.00  0.00     0.216 A 
ATOM     19  H1  UNL     1       8.111  -1.329   1.001  1.00  0.00     0.163 HD
HETATM   20  S1  UNL     1       6.212  -2.212   2.889  1.00  0.00    -0.033 SA
HETATM   21  O1  UNL     1       4.820  -0.971   1.042  1.00  0.00    -0.289 OA
ENDBRANCH  11  12
ENDBRANCH  10  11
ENDBRANCH   8  10
BRANCH   8  22
HETATM   22  C17 UNL     1       0.437  -0.276   0.200  1.00  0.00     0.011 C 
BRANCH  22  23
HETATM   23  C18 UNL     1      -0.981   0.028   0.175  1.00  0.00     0.012 C 
BRANCH  23  24
HETATM   24  C19 UNL     1      -1.671   0.782   1.210  1.00  0.00    -0.019 C 
HETATM   25  C20 UNL     1      -3.145   0.878   0.838  1.00  0.00    -0.004 C 
HETATM   26  C21 UNL     1      -4.115   0.374   1.805  1.00  0.00     0.010 C 
HETATM   27  C30 UNL     1      -3.055   2.370   0.596  1.00  0.00     0.011 C 
HETATM   28  C22 UNL     1      -3.667  -0.334   3.012  1.00  0.00    -0.009 A 
HETATM   29  C23 UNL     1      -4.161   0.263   4.338  1.00  0.00     0.005 A 
HETATM   30  C25 UNL     1      -2.273  -0.192   3.436  1.00  0.00     0.006 A 
HETATM   31  C24 UNL     1      -2.739   0.328   4.780  1.00  0.00     0.006 A 
HETATM   32  C26 UNL     1      -1.426   0.767   2.638  1.00  0.00     0.025 C 
HETATM   33  C28 UNL     1      -1.905   2.223   2.733  1.00  0.00     0.023 C 
HETATM   34  C29 UNL     1      -1.692   2.262   1.233  1.00  0.00    -0.003 C 
BRANCH  32  35
HETATM   35  C27 UNL     1      -0.065   0.746   3.189  1.00  0.00     0.241 C 
HETATM   36  O2  UNL     1       0.425   1.669   3.859  1.00  0.00    -0.306 OA
ENDBRANCH  32  35
ENDBRANCH  23  24
ENDBRANCH  22  23
ENDBRANCH   8  22
TORSDOF 7
