REMARK  9 active torsions:
REMARK  status: ('A' for Active; 'I' for Inactive)
REMARK    1  A    between atoms: C19_22  and  O4_24 
REMARK    2  A    between atoms: C21_26  and  O5_27 
REMARK    3  A    between atoms: C22_29  and  O6_30 
REMARK    4  A    between atoms: O6_30  and  C23_31 
REMARK    5  A    between atoms: C24_33  and  C25_34 
REMARK    6  A    between atoms: C25_34  and  O8_35 
REMARK    7  A    between atoms: C26_37  and  O9_38 
REMARK    8  A    between atoms: C27_40  and  O10_41 
REMARK    9  A    between atoms: C28_43  and  O11_44 
ROOT
HETATM    1  C1  UNL     1      -2.358  -0.468  -4.103  1.00  0.00     0.043 C 
HETATM    2  C2  UNL     1      -1.671   0.690  -3.404  1.00  0.00    -0.080 C 
HETATM    3  C3  UNL     1      -2.381   1.949  -3.633  1.00  0.00    -0.018 C 
HETATM    4  C4  UNL     1      -2.266   3.166  -2.749  1.00  0.00     0.102 C 
HETATM    5  C5  UNL     1      -2.248   2.686  -1.366  1.00  0.00     0.232 C 
HETATM    6  O1  UNL     1      -1.873   3.434  -0.224  1.00  0.00    -0.197 OA
HETATM    7  O2  UNL     1      -1.818   2.469   0.717  1.00  0.00    -0.229 OA
HETATM    8  C6  UNL     1      -0.727   1.718   0.895  1.00  0.00     0.198 C 
HETATM    9  C7  UNL     1      -0.279   1.599   2.367  1.00  0.00     0.038 C 
HETATM   10  C8  UNL     1       1.121   1.986   2.649  1.00  0.00     0.006 C 
HETATM   11  C9  UNL     1       2.026   2.410   1.556  1.00  0.00     0.028 C 
HETATM   12  C10 UNL     1       2.537   1.442   0.601  1.00  0.00    -0.017 C 
HETATM   13  C11 UNL     1       1.700   0.789  -0.446  1.00  0.00    -0.031 C 
HETATM   14  C12 UNL     1       1.239   1.595  -1.579  1.00  0.00     0.015 C 
HETATM   15  C13 UNL     1      -0.145   1.701  -2.025  1.00  0.00     0.157 C 
HETATM   16  O3  UNL     1      -1.103   2.209  -1.428  1.00  0.00    -0.340 OA
HETATM   17  C14 UNL     1      -0.911   0.357  -2.202  1.00  0.00     0.054 C 
HETATM   18  C15 UNL     1      -1.504  -0.051  -0.903  1.00  0.00     0.040 C 
HETATM   19  C16 UNL     1      -2.907  -0.136  -0.584  1.00  0.00    -0.008 C 
HETATM   20  C17 UNL     1      -3.573  -1.517  -0.811  1.00  0.00     0.010 C 
HETATM   21  C18 UNL     1      -3.929   0.806  -1.057  1.00  0.00     0.048 C 
HETATM   22  C19 UNL     1      -3.599   2.249  -1.031  1.00  0.00     0.114 C 
HETATM   23  C20 UNL     1      -4.220   2.871   0.242  1.00  0.00     0.051 C 
HETATM   24  C21 UNL     1      -0.654   0.368   0.315  1.00  0.00     0.121 C 
HETATM   25  C22 UNL     1       0.707  -0.201   0.107  1.00  0.00     0.194 C 
ENDROOT
BRANCH  25  26
HETATM   26  O6  UNL     1       1.298  -0.773   1.222  1.00  0.00    -0.345 OA
BRANCH  26  27
HETATM   27  C23 UNL     1       1.596  -2.093   1.135  1.00  0.00     0.292 C 
HETATM   28  O7  UNL     1       2.961  -2.366   1.135  1.00  0.00    -0.348 OA
HETATM   29  C24 UNL     1       3.256  -3.686   0.952  1.00  0.00     0.179 C 
HETATM   30  C26 UNL     1       3.044  -4.413   2.245  1.00  0.00     0.180 C 
HETATM   31  C27 UNL     1       1.935  -3.759   2.992  1.00  0.00     0.183 C 
HETATM   32  C28 UNL     1       0.953  -3.009   2.119  1.00  0.00     0.204 C 
BRANCH  29  33
HETATM   33  C25 UNL     1       4.719  -3.800   0.576  1.00  0.00     0.198 C 
BRANCH  33  34
HETATM   34  O8  UNL     1       5.085  -5.147   0.374  1.00  0.00    -0.398 OA
ATOM     35  H8  UNL     1       6.002  -5.218   0.138  1.00  0.00     0.209 HD
ENDBRANCH  33  34
ENDBRANCH  29  33
BRANCH  30  36
HETATM   36  O9  UNL     1       2.857  -5.793   2.067  1.00  0.00    -0.390 OA
ATOM     37  H9  UNL     1       2.723  -6.254   2.887  1.00  0.00     0.210 HD
ENDBRANCH  30  36
BRANCH  31  38
HETATM   38  O10 UNL     1       1.203  -4.729   3.682  1.00  0.00    -0.390 OA
ATOM     39  H10 UNL     1       0.495  -4.312   4.159  1.00  0.00     0.210 HD
ENDBRANCH  31  38
BRANCH  32  40
HETATM   40  O11 UNL     1       0.153  -3.997   1.498  1.00  0.00    -0.388 OA
ATOM     41  H11 UNL     1      -0.257  -4.581   2.125  1.00  0.00     0.210 HD
ENDBRANCH  32  40
ENDBRANCH  26  27
ENDBRANCH  25  26
BRANCH  24  42
HETATM   42  O5  UNL     1      -1.192  -0.488   1.334  1.00  0.00    -0.384 OA
ATOM     43  H5  UNL     1      -1.145  -1.360   0.959  1.00  0.00     0.210 HD
ENDBRANCH  24  42
BRANCH  22  44
HETATM   44  O4  UNL     1      -4.527   2.810  -1.982  1.00  0.00    -0.385 OA
ATOM     45  H4  UNL     1      -5.407   2.525  -1.764  1.00  0.00     0.210 HD
ENDBRANCH  22  44
TORSDOF 9
