REMARK  4 active torsions:
REMARK  status: ('A' for Active; 'I' for Inactive)
REMARK    1  A    between atoms: O1_2  and  C2_3 
REMARK    2  A    between atoms: C2_3  and  C3_4 
REMARK    3  A    between atoms: C21_25  and  O5_26 
REMARK    4  A    between atoms: O5_26  and  S1_27 
ROOT
HETATM    1  C3  UNL     1       1.890   0.692   0.204  1.00  0.00     0.177 C 
HETATM    2  O2  UNL     1       1.024   0.337  -0.799  1.00  0.00    -0.364 OA
HETATM    3  C4  UNL     1      -0.178  -0.205  -0.325  1.00  0.00     0.102 C 
HETATM    4  C5  UNL     1       0.223  -1.368   0.442  1.00  0.00    -0.045 C 
HETATM    5  C6  UNL     1      -0.466  -2.487   0.488  1.00  0.00    -0.018 C 
HETATM    6  C7  UNL     1      -1.751  -2.743  -0.229  1.00  0.00     0.066 C 
HETATM    7  C8  UNL     1      -2.175  -1.510  -1.045  1.00  0.00     0.074 C 
HETATM    8  C9  UNL     1      -2.797  -2.123  -2.326  1.00  0.00     0.047 C 
HETATM    9  O3  UNL     1      -3.125  -0.827  -0.472  1.00  0.00    -0.374 OA
HETATM   10  C10 UNL     1      -3.183  -0.221   0.695  1.00  0.00     0.126 C 
HETATM   11  C11 UNL     1      -3.603  -1.117   1.877  1.00  0.00     0.040 C 
HETATM   12  C12 UNL     1      -2.099   0.678   1.140  1.00  0.00    -0.015 C 
HETATM   13  C13 UNL     1      -2.641   2.134   1.274  1.00  0.00     0.018 C 
HETATM   14  C14 UNL     1      -1.622   0.442   2.564  1.00  0.00     0.018 C 
HETATM   15  C15 UNL     1      -0.966   0.881   0.168  1.00  0.00     0.036 C 
HETATM   16  C16 UNL     1      -1.561   1.717  -0.957  1.00  0.00     0.016 C 
HETATM   17  C17 UNL     1      -0.916   1.534  -2.293  1.00  0.00     0.079 C 
HETATM   18  C18 UNL     1      -1.052   0.095  -2.627  1.00  0.00     0.137 C 
HETATM   19  O4  UNL     1      -1.247  -0.198  -3.790  1.00  0.00    -0.297 OA
HETATM   20  C19 UNL     1      -0.937  -0.840  -1.509  1.00  0.00     0.129 C 
HETATM   21  C20 UNL     1       1.477  -1.408   1.231  1.00  0.00     0.073 C 
HETATM   22  C21 UNL     1       2.599  -0.609   0.616  1.00  0.00     0.180 C 
ENDROOT
BRANCH  22  23
HETATM   23  O5  UNL     1       3.615  -0.407   1.512  1.00  0.00    -0.248 OA
BRANCH  23  24
HETATM   24  S1  UNL     1       5.048  -0.984   0.923  1.00  0.00     0.252 S 
HETATM   25  O6  UNL     1       5.673  -2.006   1.861  1.00  0.00    -0.572 OA
HETATM   26  O7  UNL     1       4.929  -1.658  -0.403  1.00  0.00    -0.572 OA
HETATM   27  O8  UNL     1       6.216   0.244   0.789  1.00  0.00    -0.572 OA
ENDBRANCH  23  24
ENDBRANCH  22  23
BRANCH   1  28
HETATM   28  C2  UNL     1       2.878   1.744  -0.232  1.00  0.00     0.201 C 
BRANCH  28  29
HETATM   29  O1  UNL     1       3.674   1.370  -1.285  1.00  0.00    -0.393 OA
HETATM   30  C1  UNL     1       4.522   2.456  -1.562  1.00  0.00     0.201 C 
ENDBRANCH  28  29
ENDBRANCH   1  28
TORSDOF 4
