REMARK  9 active torsions:
REMARK  status: ('A' for Active; 'I' for Inactive)
REMARK    1  A    between atoms: O1_2  and  C2_3 
REMARK    2  A    between atoms: C10_15  and  O3_16 
REMARK    3  A    between atoms: C10_15  and  N2_18 
REMARK    4  A    between atoms: N2_18  and  N3_20 
REMARK    5  A    between atoms: N3_20  and  S1_22 
REMARK    6  A    between atoms: C14_31  and  C15_32 
REMARK    7  A    between atoms: C15_32  and  C16_33 
REMARK    8  A    between atoms: C19_39  and  N5_40 
REMARK    9  A    between atoms: N5_40  and  O11_42 
ROOT
HETATM    1  C2  UNL     1       1.291  -1.332   1.297  1.00  0.00     0.081 A 
HETATM    2  C3  UNL     1       2.547  -0.720   1.620  1.00  0.00     0.092 A 
HETATM    3  C4  UNL     1       2.565   0.549   1.194  1.00  0.00     0.179 A 
HETATM    4  O2  UNL     1       3.389   1.518   1.212  1.00  0.00    -0.288 OA
HETATM    5  C5  UNL     1       1.486   0.954   0.597  1.00  0.00     0.002 A 
HETATM    6  C6  UNL     1       0.509   0.672   0.280  1.00  0.00     0.055 A 
HETATM    7  C7  UNL     1       0.347  -0.701   0.685  1.00  0.00     0.018 A 
HETATM    8  C8  UNL     1      -0.714  -1.726   0.597  1.00  0.00     0.054 C 
HETATM    9  N1  UNL     1      -0.720  -2.638   1.472  1.00  0.00    -0.398 N 
ATOM     10  H11 UNL     1      -1.452  -3.345   1.411  1.00  0.00     0.156 HD
ATOM     11  H12 UNL     1       0.047  -2.702   2.141  1.00  0.00     0.156 HD
HETATM   12  C9  UNL     1      -1.705  -1.643  -0.268  1.00  0.00     0.093 C 
HETATM   13  C10 UNL     1      -2.676  -2.550  -0.400  1.00  0.00     0.172 C 
HETATM   14  C11 UNL     1      -1.758  -0.351  -0.942  1.00  0.00     0.198 C 
HETATM   15  O7  UNL     1      -2.381  -0.217  -1.873  1.00  0.00    -0.287 OA
HETATM   16  C12 UNL     1      -1.022   0.712  -0.402  1.00  0.00     0.041 C 
HETATM   17  C13 UNL     1       0.350   1.211   0.019  1.00  0.00     0.056 A 
HETATM   18  O8  UNL     1       0.669   2.612  -0.341  1.00  0.00     0.000 OA
HETATM   19  C14 UNL     1       1.177   3.062  -0.284  1.00  0.00     0.041 A 
HETATM   20  C17 UNL     1       0.018   2.052  -0.419  1.00  0.00     0.069 A 
HETATM   21  C18 UNL     1      -1.205   2.487  -1.040  1.00  0.00     0.190 C 
HETATM   22  O10 UNL     1      -1.437   3.266  -1.800  1.00  0.00    -0.290 OA
HETATM   23  C19 UNL     1      -2.048   1.622  -0.397  1.00  0.00     0.112 C 
ENDROOT
BRANCH  13  24
HETATM   24  O3  UNL     1      -3.536  -2.214  -1.378  1.00  0.00    -0.344 OA
ATOM     25  H3  UNL     1      -4.227  -2.859  -1.472  1.00  0.00     0.219 HD
ENDBRANCH  13  24
BRANCH  13  26
HETATM   26  N2  UNL     1      -3.103  -3.741   0.142  1.00  0.00    -0.268 N 
ATOM     27  H2  UNL     1      -2.559  -4.138   0.908  1.00  0.00     0.190 HD
BRANCH  26  28
HETATM   28  N3  UNL     1      -4.249  -4.453  -0.294  1.00  0.00    -0.206 N 
ATOM     29  H3  UNL     1      -5.192  -4.335   0.077  1.00  0.00     0.202 HD
BRANCH  28  30
HETATM   30  S1  UNL     1      -3.806  -5.545  -1.544  1.00  0.00     0.223 S 
HETATM   31  O4  UNL     1      -5.041  -6.278  -2.004  1.00  0.00    -0.577 OA
HETATM   32  O5  UNL     1      -2.750  -6.462  -1.035  1.00  0.00    -0.577 OA
HETATM   33  O6  UNL     1      -3.179  -4.759  -2.894  1.00  0.00    -0.577 OA
ENDBRANCH  28  30
ENDBRANCH  26  28
ENDBRANCH  13  26
BRANCH   1  34
HETATM   34  O1  UNL     1       1.234  -2.592   1.688  1.00  0.00    -0.355 OA
HETATM   35  C1  UNL     1       2.226  -3.293   2.347  1.00  0.00     0.210 C 
ENDBRANCH   1  34
BRANCH  23  36
HETATM   36  N5  UNL     1      -3.059   1.461   0.046  1.00  0.00    -0.265 N 
ATOM     37  H5  UNL     1      -3.632   2.294  -0.085  1.00  0.00     0.194 HD
BRANCH  36  38
HETATM   38  O11 UNL     1      -3.744   0.545   0.680  1.00  0.00    -0.289 OA
ATOM     39  H11 UNL     1      -4.605   0.408   1.057  1.00  0.00     0.244 HD
ENDBRANCH  36  38
ENDBRANCH  23  36
BRANCH  19  40
HETATM   40  C15 UNL     1       1.789   4.245  -0.433  1.00  0.00     0.051 C 
BRANCH  40  41
HETATM   41  C16 UNL     1       2.251   4.502  -1.766  1.00  0.00     0.251 C 
HETATM   42  N4  UNL     1       2.947   5.730  -2.015  1.00  0.00    -0.058 NA
HETATM   43  O9  UNL     1       2.040   3.660  -2.673  1.00  0.00    -0.272 OA
ENDBRANCH  40  41
ENDBRANCH  19  40
TORSDOF 9
