REMARK  0 active torsions:
REMARK  status: ('A' for Active; 'I' for Inactive)
ROOT
HETATM    1  C1  UNL     1      -1.671  -0.506   0.383  1.00  0.00     0.005 C 
HETATM    2  C2  UNL     1      -1.476   0.430  -0.812  1.00  0.00     0.006 C 
HETATM    3  C3  UNL     1      -0.061   0.969  -0.622  1.00  0.00    -0.006 C 
HETATM    4  C4  UNL     1       1.127  -0.056  -0.816  1.00  0.00    -0.009 C 
HETATM    5  C5  UNL     1       0.638  -1.348  -0.166  1.00  0.00     0.010 C 
HETATM    6  C6  UNL     1      -0.250  -0.702   0.910  1.00  0.00    -0.010 C 
HETATM    7  C7  UNL     1       0.315   0.726   0.870  1.00  0.00    -0.006 C 
HETATM    8  C8  UNL     1       1.784   0.717   0.365  1.00  0.00     0.010 C 
ENDROOT
TORSDOF 0
