REMARK  1 active torsions:
REMARK  status: ('A' for Active; 'I' for Inactive)
REMARK    1  A    between atoms: N1_1  and  C1_5 
ROOT
HETATM    1  C1  UNL     1      -0.577   0.827   0.102  1.00  0.00     0.128 A 
HETATM    2  C2  UNL     1      -1.603  -0.192  -0.336  1.00  0.00     0.039 C 
HETATM    3  C3  UNL     1      -0.817  -1.495  -0.502  1.00  0.00     0.007 C 
HETATM    4  C4  UNL     1       0.390  -1.381   0.433  1.00  0.00    -0.007 C 
HETATM    5  C5  UNL     1       1.747  -1.042  -0.239  1.00  0.00     0.010 C 
HETATM    6  C6  UNL     1       1.564   0.437   0.123  1.00  0.00    -0.005 A 
HETATM    7  C7  UNL     1       0.616   1.233  -0.796  1.00  0.00     0.044 A 
HETATM    8  C8  UNL     1       0.379   0.054   1.004  1.00  0.00     0.029 A 
ENDROOT
BRANCH   1   9
HETATM    9  N1  UNL     1      -1.086   1.995   0.804  1.00  0.00    -0.070 N 
ATOM     10  H13 UNL     1      -1.804   2.450   0.240  1.00  0.00     0.275 HD
ATOM     11  H12 UNL     1      -1.641   1.699   1.607  1.00  0.00     0.275 HD
ATOM     12  H11 UNL     1      -0.393   2.683   1.100  1.00  0.00     0.275 HD
ENDBRANCH   1   9
TORSDOF 1
