REMARK  2 active torsions:
REMARK  status: ('A' for Active; 'I' for Inactive)
REMARK    1  A    between atoms: C2_2  and  C8_8 
REMARK    2  A    between atoms: C4_4  and  C5_5 
ROOT
HETATM    1  C1  UNL     1      -1.780  -0.197  -0.841  1.00  0.00     0.010 C 
HETATM    2  C2  UNL     1      -1.121   0.716   0.263  1.00  0.00    -0.009 C 
HETATM    3  C3  UNL     1      -0.978  -0.639   1.037  1.00  0.00     0.010 C 
HETATM    4  C4  UNL     1      -0.603  -1.148  -0.397  1.00  0.00    -0.009 C 
ENDROOT
BRANCH   2   5
HETATM    5  C8  UNL     1       0.276   1.052  -0.359  1.00  0.00    -0.006 A 
HETATM    6  C5  UNL     1       0.668  -0.358  -0.859  1.00  0.00    -0.006 A 
HETATM    7  C6  UNL     1       1.849  -0.376   0.119  1.00  0.00     0.006 A 
HETATM    8  C7  UNL     1       1.457   1.033   0.618  1.00  0.00     0.006 A 
ENDBRANCH   2   5
TORSDOF 2
