REMARK  0 active torsions:
REMARK  status: ('A' for Active; 'I' for Inactive)
ROOT
HETATM    1  C1  UNL     1       1.798   0.113  -0.008  1.00  0.00     0.005 C 
HETATM    2  C2  UNL     1       1.055   1.465   0.142  1.00  0.00     0.005 C 
HETATM    3  C3  UNL     1      -0.351   1.096   0.607  1.00  0.00    -0.009 C 
HETATM    4  C4  UNL     1      -1.493   0.671  -0.391  1.00  0.00     0.010 C 
HETATM    5  C5  UNL     1      -1.407  -0.780   0.154  1.00  0.00    -0.009 C 
HETATM    6  C6  UNL     1      -0.521  -1.837  -0.536  1.00  0.00     0.010 C 
HETATM    7  C7  UNL     1       0.713  -0.849  -0.495  1.00  0.00    -0.009 C 
HETATM    8  C8  UNL     1      -0.112  -0.382   0.802  1.00  0.00    -0.002 C 
ENDROOT
TORSDOF 0
