REMARK  4 active torsions:
REMARK  status: ('A' for Active; 'I' for Inactive)
REMARK    1  A    between atoms: O1_2  and  C2_3 
REMARK    2  A    between atoms: C2_3  and  C3_5 
REMARK    3  A    between atoms: C6_12  and  C7_13 
REMARK       I    between atoms: C7_13  and  N3_14 
REMARK    4  A    between atoms: N4_19  and  O4_20 
ROOT
HETATM    1  C3  UNL     1       1.179  -0.089   0.651  1.00  0.00     0.085 C 
HETATM    2  C4  UNL     1       0.463  -1.240   0.709  1.00  0.00     0.108 C 
HETATM    3  N1  UNL     1      -0.891  -1.435   1.048  1.00  0.00    -0.145 NA
HETATM    4  C5  UNL     1      -1.780  -1.367  -0.054  1.00  0.00     0.115 C 
HETATM    5  N2  UNL     1      -2.106  -2.344  -0.834  1.00  0.00    -0.388 N 
ATOM      6  H21 UNL     1      -2.746  -2.295  -1.627  1.00  0.00     0.157 HD
ATOM      7  H22 UNL     1      -1.755  -3.297  -0.738  1.00  0.00     0.157 HD
HETATM    8  C6  UNL     1      -2.297   0.036  -0.195  1.00  0.00     0.103 C 
HETATM    9  C8  UNL     1      -1.794   0.569   0.949  1.00  0.00     0.116 C 
HETATM   10  N4  UNL     1      -1.386  -0.426   1.854  1.00  0.00    -0.073 NA
HETATM   11  S1  UNL     1      -0.843   2.024   0.872  1.00  0.00    -0.055 SA
HETATM   12  C9  UNL     1       0.806   1.357   0.899  1.00  0.00     0.086 C 
HETATM   13  N5  UNL     1       1.720   2.244   1.132  1.00  0.00    -0.393 N 
ATOM     14  H51 UNL     1       1.469   3.218   1.299  1.00  0.00     0.156 HD
ATOM     15  H52 UNL     1       2.665   1.862   1.147  1.00  0.00     0.156 HD
ENDROOT
BRANCH   8  16
HETATM   16  C7  UNL     1      -2.511   0.724  -1.473  1.00  0.00     0.255 C 
HETATM   17  N3  UNL     1      -3.540   1.617  -1.469  1.00  0.00    -0.366 N 
ATOM     18  H32 UNL     1      -4.119   1.772  -0.644  1.00  0.00     0.159 HD
ATOM     19  H31 UNL     1      -3.689   2.095  -2.358  1.00  0.00     0.159 HD
HETATM   20  O3  UNL     1      -1.817   0.538  -2.461  1.00  0.00    -0.268 OA
ENDBRANCH   8  16
BRANCH  10  21
HETATM   21  O4  UNL     1      -2.357  -0.853   2.763  1.00  0.00    -0.292 OA
ATOM     22  H4  UNL     1      -2.697  -0.160   3.317  1.00  0.00     0.239 HD
ENDBRANCH  10  21
BRANCH   1  23
HETATM   23  C2  UNL     1       2.581  -0.374   0.262  1.00  0.00     0.296 C 
HETATM   24  O2  UNL     1       3.309  -1.160   0.851  1.00  0.00    -0.259 OA
BRANCH  23  25
HETATM   25  O1  UNL     1       2.858   0.275  -0.896  1.00  0.00    -0.322 OA
HETATM   26  C1  UNL     1       4.163  -0.001  -1.401  1.00  0.00     0.213 C 
ENDBRANCH  23  25
ENDBRANCH   1  23
TORSDOF 4
