REMARK  3 active torsions:
REMARK  status: ('A' for Active; 'I' for Inactive)
REMARK    1  A    between atoms: C5_6  and  N1_7 
REMARK    2  A    between atoms: N1_7  and  C6_10 
REMARK    3  A    between atoms: C6_10  and  C7_11 
ROOT
HETATM    1  C7  UNL     1      -3.414   0.948  -0.104  1.00  0.00     0.151 C 
HETATM    2  C8  UNL     1      -4.427  -0.109  -0.051  1.00  0.00     0.060 C 
HETATM    3  N2  UNL     1      -5.228  -0.948  -0.021  1.00  0.00    -0.197 NA
ENDROOT
BRANCH   1   4
HETATM    4  C6  UNL     1      -2.264   0.706   0.879  1.00  0.00     0.247 C 
BRANCH   4   5
HETATM    5  N1  UNL     1      -1.484  -0.527   0.708  1.00  0.00    -0.068 N 
ATOM      6  H12 UNL     1      -2.067  -1.351   0.857  1.00  0.00     0.277 HD
ATOM      7  H11 UNL     1      -0.823  -0.650   1.475  1.00  0.00     0.277 HD
BRANCH   5   8
HETATM    8  C5  UNL     1      -0.802  -0.595  -0.588  1.00  0.00     0.215 C 
HETATM    9  C4  UNL     1       0.276   0.492  -0.754  1.00  0.00     0.160 C 
HETATM   10  O1  UNL     1       0.996   1.036   0.378  1.00  0.00    -0.373 OA
HETATM   11  C10 UNL     1       1.333  -0.598  -0.967  1.00  0.00     0.052 C 
HETATM   12  C2  UNL     1       2.135   0.178   0.096  1.00  0.00     0.060 C 
HETATM   13  C1  UNL     1       2.593  -0.541   1.355  1.00  0.00     0.046 C 
HETATM   14  C3  UNL     1       3.268   1.004  -0.518  1.00  0.00     0.046 C 
HETATM   15  C9  UNL     1       0.321  -1.646  -0.479  1.00  0.00     0.046 C 
ENDBRANCH   5   8
ENDBRANCH   4   5
ENDBRANCH   1   4
TORSDOF 3
