REMARK  3 active torsions:
REMARK  status: ('A' for Active; 'I' for Inactive)
REMARK    1  A    between atoms: C4_7  and  C15_23 
REMARK    2  A    between atoms: N2_10  and  C6_11 
REMARK    3  A    between atoms: C6_11  and  C12_17 
ROOT
HETATM    1  C6  UNL     1       0.409  -0.925   0.142  1.00  0.00     0.076 C 
HETATM    2  C7  UNL     1       0.779  -1.649  -1.192  1.00  0.00     0.034 C 
HETATM    3  C8  UNL     1       2.262  -1.916  -1.367  1.00  0.00     0.002 C 
HETATM    4  C9  UNL     1       2.703  -2.917  -0.313  1.00  0.00     0.000 C 
HETATM    5  C10 UNL     1       2.462  -2.355   1.079  1.00  0.00     0.002 C 
HETATM    6  C11 UNL     1       1.040  -1.802   1.303  1.00  0.00     0.034 C 
ENDROOT
BRANCH   1   7
HETATM    7  N2  UNL     1      -1.080  -1.034   0.254  1.00  0.00    -0.321 N 
HETATM    8  C3  UNL     1      -1.848  -0.336  -0.754  1.00  0.00     0.198 C 
HETATM    9  N1  UNL     1      -2.636  -1.169  -1.476  1.00  0.00    -0.374 N 
HETATM   10  C4  UNL     1      -2.525   0.699  -0.155  1.00  0.00     0.083 C 
HETATM   11  C2  UNL     1      -3.849  -1.438  -0.924  1.00  0.00     0.124 C 
ATOM     12  H1  UNL     1      -2.341  -1.565  -2.368  1.00  0.00     0.161 HD
HETATM   13  C1  UNL     1      -4.252  -0.827   0.251  1.00  0.00     0.124 C 
HETATM   14  F1  UNL     1      -5.399  -1.156   0.855  1.00  0.00    -0.208 F 
HETATM   15  C5  UNL     1      -3.412   0.171   0.767  1.00  0.00     0.142 C 
HETATM   16  S1  UNL     1      -1.924  -0.929   1.740  1.00  0.00    -0.043 SA
BRANCH  10  17
HETATM   17  C15 UNL     1      -2.292   2.145  -0.379  1.00  0.00     0.226 C 
HETATM   18  N3  UNL     1      -1.365   2.449  -1.472  1.00  0.00    -0.037 N 
HETATM   19  C14 UNL     1      -0.032   2.572  -0.891  1.00  0.00     0.423 C 
ATOM     20  H32 UNL     1      -1.641   3.269  -2.012  1.00  0.00     0.280 HD
ATOM     21  H31 UNL     1      -1.408   1.769  -2.231  1.00  0.00     0.280 HD
HETATM   22  C13 UNL     1       0.882   1.382  -1.157  1.00  0.00     0.109 C 
HETATM   23  N4  UNL     1      -0.171   2.749   0.553  1.00  0.00     0.130 N 
HETATM   24  C12 UNL     1       0.948   0.579   0.156  1.00  0.00     0.187 C 
HETATM   25  C17 UNL     1       0.397   1.562   1.228  1.00  0.00     0.289 C 
HETATM   26  N5  UNL     1       2.298   0.725   0.794  1.00  0.00    -0.059 N 
HETATM   27  C18 UNL     1       1.860   1.881   1.582  1.00  0.00     0.272 C 
ATOM     28  H52 UNL     1       2.709  -0.076   1.274  1.00  0.00     0.278 HD
ATOM     29  H51 UNL     1       3.121   0.814   0.198  1.00  0.00     0.278 HD
HETATM   30  C16 UNL     1      -1.618   2.863   0.790  1.00  0.00     0.309 C 
ENDBRANCH  10  17
ENDBRANCH   1   7
TORSDOF 3
