REMARK  11 active torsions:
REMARK  status: ('A' for Active; 'I' for Inactive)
REMARK    1  A    between atoms: C3_3  and  N1_4 
REMARK    2  A    between atoms: C3_3  and  C7_15 
REMARK    3  A    between atoms: N1_4  and  C4_7 
REMARK    4  A    between atoms: C4_7  and  C5_8 
REMARK    5  A    between atoms: C4_7  and  C6_10 
REMARK    6  A    between atoms: C6_10  and  O2_11 
REMARK    7  A    between atoms: C6_10  and  O3_13 
REMARK    8  A    between atoms: N2_16  and  C8_17 
REMARK    9  A    between atoms: C8_17  and  C9_18 
REMARK   10  A    between atoms: C9_18  and  C10_19 
REMARK   11  A    between atoms: N3_20  and  N4_22 
ROOT
HETATM    1  C1  UNL     1      -1.827   4.600  -1.745  1.00  0.00     0.014 C 
HETATM    2  C2  UNL     1      -1.731   3.587  -1.108  1.00  0.00    -0.078 C 
HETATM    3  C3  UNL     1      -1.608   2.364  -0.300  1.00  0.00     0.316 C 
ENDROOT
BRANCH   3   4
HETATM    4  N1  UNL     1      -2.659   1.389  -0.656  1.00  0.00    -0.040 N 
ATOM      5  H12 UNL     1      -2.651   1.180  -1.654  1.00  0.00     0.280 HD
ATOM      6  H11 UNL     1      -2.442   0.459  -0.298  1.00  0.00     0.280 HD
BRANCH   4   7
HETATM    7  C4  UNL     1      -4.014   1.850  -0.202  1.00  0.00     0.302 C 
BRANCH   7   8
HETATM    8  C5  UNL     1      -4.956   1.884  -1.388  1.00  0.00     0.269 C 
HETATM    9  O1  UNL     1      -6.053   2.433  -1.343  1.00  0.00    -0.304 OA
ENDBRANCH   7   8
BRANCH   7  10
HETATM   10  C6  UNL     1      -4.613   0.850   0.833  1.00  0.00     0.291 C 
BRANCH  10  11
HETATM   11  O2  UNL     1      -3.611  -0.118   1.190  1.00  0.00    -0.369 OA
ATOM     12  H2  UNL     1      -3.976  -0.727   1.821  1.00  0.00     0.212 HD
ENDBRANCH  10  11
BRANCH  10  13
HETATM   13  O3  UNL     1      -4.941   1.519   2.027  1.00  0.00    -0.369 OA
ATOM     14  H3  UNL     1      -5.306   0.910   2.658  1.00  0.00     0.212 HD
ENDBRANCH  10  13
ENDBRANCH   7  10
ENDBRANCH   4   7
ENDBRANCH   3   4
BRANCH   3  15
HETATM   15  C7  UNL     1      -0.277   1.640  -0.555  1.00  0.00     0.083 C 
HETATM   16  N2  UNL     1       0.158   0.776   0.321  1.00  0.00    -0.331 N 
HETATM   17  C11 UNL     1       1.206  -0.561  -0.196  1.00  0.00     0.127 C 
HETATM   18  N6  UNL     1       0.842  -1.798   0.030  1.00  0.00    -0.336 N 
HETATM   19  C20 UNL     1       2.412  -0.300  -1.087  1.00  0.00     0.086 C 
HETATM   20  C12 UNL     1      -0.558  -2.238   0.242  1.00  0.00     0.158 C 
HETATM   21  C13 UNL     1       1.828  -2.846  -0.002  1.00  0.00     0.050 A 
HETATM   22  C14 UNL     1       1.615  -4.061   0.687  1.00  0.00     0.031 A 
HETATM   23  C18 UNL     1       3.018  -2.693  -0.716  1.00  0.00     0.042 A 
HETATM   24  C15 UNL     1       2.564  -5.087   0.638  1.00  0.00     0.002 A 
HETATM   25  C16 UNL     1       3.747  -4.911  -0.075  1.00  0.00     0.001 A 
HETATM   26  C17 UNL     1       3.979  -3.715  -0.756  1.00  0.00     0.018 A 
HETATM   27  C19 UNL     1       3.269  -1.454  -1.463  1.00  0.00     0.200 C 
HETATM   28  O4  UNL     1       4.124  -1.418  -2.333  1.00  0.00    -0.286 OA
HETATM   29  C21 UNL     1       2.552   0.853  -1.788  1.00  0.00     0.050 C 
HETATM   30  C22 UNL     1       2.489   0.751  -3.274  1.00  0.00     0.030 C 
HETATM   31  N7  UNL     1       1.890   2.019  -1.394  1.00  0.00    -0.354 N 
HETATM   32  C23 UNL     1       1.314   1.110  -3.855  1.00  0.00     0.005 C 
HETATM   33  C24 UNL     1       0.193   1.513  -2.979  1.00  0.00     0.031 C 
HETATM   34  C25 UNL     1       0.545   1.932  -1.744  1.00  0.00     0.058 C 
ATOM     35  H7  UNL     1       2.325   2.812  -0.923  1.00  0.00     0.166 HD
BRANCH  16  36
HETATM   36  C8  UNL     1      -0.197   0.704   1.770  1.00  0.00     0.136 C 
BRANCH  36  37
HETATM   37  C9  UNL     1       0.718   1.603   2.594  1.00  0.00     0.066 C 
BRANCH  37  38
HETATM   38  C10 UNL     1       1.082   0.839   3.832  1.00  0.00     0.083 C 
HETATM   39  N3  UNL     1       1.492  -0.386   3.751  1.00  0.00    -0.302 N 
ATOM     40  H3  UNL     1       0.939  -1.132   4.174  1.00  0.00     0.187 HD
BRANCH  39  41
HETATM   41  N4  UNL     1       2.698  -0.703   3.083  1.00  0.00    -0.250 N 
HETATM   42  N5  UNL     1       2.723  -0.622   1.843  1.00  0.00    -0.331 N 
ATOM     43  H52 UNL     1       1.887  -0.333   1.335  1.00  0.00     0.178 HD
ATOM     44  H51 UNL     1       3.593  -0.851   1.361  1.00  0.00     0.178 HD
ATOM     45  H4  UNL     1       3.526  -0.991   3.605  1.00  0.00     0.207 HD
ENDBRANCH  39  41
ENDBRANCH  37  38
ENDBRANCH  36  37
ENDBRANCH  16  36
ENDBRANCH   3  15
TORSDOF 11
