REMARK  6 active torsions:
REMARK  status: ('A' for Active; 'I' for Inactive)
REMARK    1  A    between atoms: C2_2  and  O1_3 
REMARK    2  A    between atoms: O1_3  and  C3_4 
REMARK    3  A    between atoms: C3_4  and  C4_6 
REMARK    4  A    between atoms: C12_14  and  O3_15 
REMARK    5  A    between atoms: C13_17  and  O4_18 
REMARK    6  A    between atoms: C14_20  and  O5_21 
ROOT
HETATM    1  C4  UNL     1      -1.497  -0.258   0.316  1.00  0.00     0.122 C 
HETATM    2  C5  UNL     1      -1.349   0.079  -1.121  1.00  0.00     0.138 C 
HETATM    3  C6  UNL     1      -1.010  -1.429  -1.997  1.00  0.00     0.033 C 
HETATM    4  C7  UNL     1       0.273  -2.618  -1.493  1.00  0.00     0.011 C 
HETATM    5  C8  UNL     1       1.568  -2.037  -0.581  1.00  0.00     0.037 C 
HETATM    6  C9  UNL     1       1.192  -0.654  -0.899  1.00  0.00    -0.021 C 
HETATM    7  C10 UNL     1       1.385  -0.434  -2.477  1.00  0.00     0.016 C 
HETATM    8  C11 UNL     1      -0.255  -1.082   0.316  1.00  0.00     0.043 C 
HETATM    9  C12 UNL     1       0.339  -1.577   1.612  1.00  0.00     0.164 C 
HETATM   10  C13 UNL     1       1.698  -1.524   1.019  1.00  0.00     0.145 C 
HETATM   11  C14 UNL     1       1.976   0.126   1.038  1.00  0.00     0.205 C 
HETATM   12  O6  UNL     1       0.791   0.985   1.197  1.00  0.00    -0.321 OA
HETATM   13  C16 UNL     1       0.255   1.777   0.054  1.00  0.00     0.267 C 
HETATM   14  O7  UNL     1      -0.341   1.144  -1.161  1.00  0.00    -0.355 OA
HETATM   15  C17 UNL     1       1.405   2.645  -0.422  1.00  0.00     0.037 C 
HETATM   16  C18 UNL     1       0.980   3.615  -1.527  1.00  0.00     0.015 C 
HETATM   17  C19 UNL     1       2.543   1.712  -0.837  1.00  0.00     0.020 C 
HETATM   18  C20 UNL     1       2.361   0.241  -0.365  1.00  0.00     0.061 C 
ENDROOT
BRANCH   1  19
HETATM   19  C3  UNL     1      -2.869  -0.863   0.548  1.00  0.00     0.266 C 
HETATM   20  O2  UNL     1      -3.366  -1.776  -0.093  1.00  0.00    -0.265 OA
BRANCH  19  21
HETATM   21  O1  UNL     1      -3.532  -0.101   1.473  1.00  0.00    -0.321 OA
BRANCH  21  22
HETATM   22  C2  UNL     1      -4.962  -0.100   1.347  1.00  0.00     0.174 C 
HETATM   23  C1  UNL     1      -5.343   0.985   0.351  1.00  0.00     0.034 C 
ENDBRANCH  21  22
ENDBRANCH  19  21
ENDBRANCH   1  19
BRANCH   9  24
HETATM   24  O3  UNL     1      -0.026  -2.911   1.940  1.00  0.00    -0.392 OA
ATOM     25  H3  UNL     1       0.348  -3.223   2.756  1.00  0.00     0.210 HD
ENDBRANCH   9  24
BRANCH  10  26
HETATM   26  O4  UNL     1       2.650  -2.295   1.732  1.00  0.00    -0.381 OA
ATOM     27  H4  UNL     1       2.723  -2.006   2.634  1.00  0.00     0.211 HD
ENDBRANCH  10  26
BRANCH  11  28
HETATM   28  O5  UNL     1       3.082   0.513   1.842  1.00  0.00    -0.357 OA
HETATM   29  C15 UNL     1       2.791   0.558   3.226  1.00  0.00     0.205 C 
ENDBRANCH  11  28
TORSDOF 6
