REMARK  8 active torsions:
REMARK  status: ('A' for Active; 'I' for Inactive)
REMARK    1  A    between atoms: C2_2  and  O1_3 
REMARK    2  A    between atoms: C2_2  and  C3_5 
REMARK    3  A    between atoms: C4_6  and  C5_7 
REMARK    4  A    between atoms: C9_12  and  C22_31 
REMARK    5  A    between atoms: N1_16  and  C12_17 
REMARK    6  A    between atoms: C12_17  and  C13_18 
REMARK    7  A    between atoms: C16_21  and  O4_22 
REMARK    8  A    between atoms: C16_21  and  C17_24 
ROOT
HETATM    1  C5  UNL     1       1.336  -0.650   1.194  1.00  0.00     0.039 C 
HETATM    2  C6  UNL     1       1.253  -2.347   0.769  1.00  0.00     0.092 A 
HETATM    3  C7  UNL     1      -0.098  -3.179   0.937  1.00  0.00     0.264 A 
HETATM    4  C8  UNL     1      -0.551  -3.300   2.843  1.00  0.00     0.198 C 
HETATM    5  O2  UNL     1      -1.078  -4.263   3.371  1.00  0.00    -0.292 OA
HETATM    6  C9  UNL     1      -0.086  -1.657   3.721  1.00  0.00     0.203 C 
HETATM    7  O3  UNL     1       0.932  -2.108   2.961  1.00  0.00    -0.360 OA
HETATM    8  C10 UNL     1       0.265  -1.895   1.687  1.00  0.00     0.153 A 
HETATM    9  C11 UNL     1      -0.056  -0.780   0.671  1.00  0.00     0.242 C 
HETATM   10  N1  UNL     1      -0.893  -1.976   0.111  1.00  0.00     0.127 N 
HETATM   11  C16 UNL     1      -0.739   0.312   1.573  1.00  0.00     0.159 C 
HETATM   12  C22 UNL     1       0.320  -0.125   2.738  1.00  0.00     0.079 C 
ENDROOT
BRANCH  11  13
HETATM   13  O4  UNL     1      -2.142   0.072   1.919  1.00  0.00    -0.382 OA
ATOM     14  H4  UNL     1      -2.555   0.732   2.464  1.00  0.00     0.210 HD
ENDBRANCH  11  13
BRANCH  11  15
HETATM   15  C17 UNL     1      -0.522   1.771   1.044  1.00  0.00     0.396 C 
HETATM   16  O5  UNL     1      -1.250   2.674   1.877  1.00  0.00    -0.355 OA
HETATM   17  C18 UNL     1      -1.507   3.950   1.312  1.00  0.00     0.172 C 
HETATM   18  C19 UNL     1      -0.505   4.345   0.242  1.00  0.00     0.056 C 
HETATM   19  C20 UNL     1      -0.390   3.275  -0.843  1.00  0.00     0.277 C 
HETATM   20  N2  UNL     1      -0.764   1.927  -0.406  1.00  0.00     0.116 N 
HETATM   21  C21 UNL     1      -2.121   1.598  -0.844  1.00  0.00     0.313 C 
ENDBRANCH  11  15
BRANCH   1  22
HETATM   22  C4  UNL     1       2.341   0.248   0.644  1.00  0.00    -0.015 C 
HETATM   23  C3  UNL     1       2.768   0.101  -0.614  1.00  0.00     0.001 C 
BRANCH  23  24
HETATM   24  C2  UNL     1       3.881   0.900  -1.212  1.00  0.00     0.136 C 
HETATM   25  C1  UNL     1       4.951  -0.026  -1.774  1.00  0.00     0.043 C 
BRANCH  24  26
HETATM   26  O1  UNL     1       3.339   1.697  -2.256  1.00  0.00    -0.392 OA
ATOM     27  H1  UNL     1       2.671   2.275  -1.905  1.00  0.00     0.210 HD
ENDBRANCH  24  26
ENDBRANCH  23  24
ENDBRANCH   1  22
BRANCH  10  28
HETATM   28  C12 UNL     1      -0.673  -2.049  -1.339  1.00  0.00     0.280 C 
BRANCH  28  29
HETATM   29  C13 UNL     1      -1.834  -2.771  -1.952  1.00  0.00     0.014 A 
HETATM   30  C14 UNL     1      -3.242  -2.229  -1.873  1.00  0.00     0.007 A 
HETATM   31  C15 UNL     1      -2.517  -2.237  -3.187  1.00  0.00     0.007 A 
ENDBRANCH  28  29
ENDBRANCH  10  28
TORSDOF 8
