REMARK  5 active torsions:
REMARK  status: ('A' for Active; 'I' for Inactive)
REMARK       I    between atoms: N1_2  and  C2_4 
REMARK    1  A    between atoms: C2_4  and  C3_6 
REMARK    2  A    between atoms: C3_6  and  N2_7 
REMARK    3  A    between atoms: C3_6  and  C4_11 
REMARK    4  A    between atoms: C4_11  and  C16_25 
REMARK    5  A    between atoms: C12_19  and  C13_20 
ROOT
HETATM    1  C4  UNL     1      -0.386   0.863  -0.237  1.00  0.00     0.005 C 
HETATM    2  C5  UNL     1      -0.982  -0.205   0.707  1.00  0.00     0.019 C 
HETATM    3  C6  UNL     1       0.209  -1.296   0.872  1.00  0.00     0.010 C 
HETATM    4  C7  UNL     1       1.060  -0.443  -0.119  1.00  0.00     0.001 C 
HETATM    5  C8  UNL     1       1.319  -0.136  -1.533  1.00  0.00     0.000 A 
HETATM    6  C9  UNL     1       0.989  -1.266  -2.316  1.00  0.00    -0.004 A 
HETATM    7  C10 UNL     1       1.624  -2.514  -1.457  1.00  0.00     0.007 C 
HETATM    8  C11 UNL     1       2.481  -2.201  -0.018  1.00  0.00     0.021 C 
HETATM    9  C12 UNL     1       1.683  -1.401   1.299  1.00  0.00     0.053 C 
HETATM   10  C14 UNL     1       1.827   0.180   1.585  1.00  0.00     0.026 C 
HETATM   11  C15 UNL     1       1.023   0.909   0.456  1.00  0.00     0.003 C 
HETATM   12  C16 UNL     1      -0.026   0.215  -1.853  1.00  0.00     0.006 A 
ENDROOT
BRANCH   1  13
HETATM   13  C3  UNL     1      -1.118   2.209  -0.311  1.00  0.00     0.283 C 
BRANCH  13  14
HETATM   14  C2  UNL     1      -2.549   2.059  -0.888  1.00  0.00     0.248 C 
HETATM   15  N1  UNL     1      -3.494   1.667   0.042  1.00  0.00    -0.364 N 
HETATM   16  C1  UNL     1      -4.857   1.401  -0.344  1.00  0.00     0.149 C 
ATOM     17  H1  UNL     1      -3.222   1.564   1.020  1.00  0.00     0.161 HD
HETATM   18  O1  UNL     1      -2.836   2.312  -2.055  1.00  0.00    -0.271 OA
ENDBRANCH  13  14
BRANCH  13  19
HETATM   19  N2  UNL     1      -0.355   3.189  -1.110  1.00  0.00    -0.066 N 
ATOM     20  H23 UNL     1      -0.345   2.950  -2.102  1.00  0.00     0.275 HD
ATOM     21  H22 UNL     1      -0.837   4.086  -1.178  1.00  0.00     0.275 HD
ATOM     22  H21 UNL     1       0.587   3.288  -0.730  1.00  0.00     0.275 HD
ENDBRANCH  13  19
ENDBRANCH   1  13
BRANCH   9  23
HETATM   23  C13 UNL     1       1.962  -2.229   2.538  1.00  0.00     0.182 C 
HETATM   24  O2  UNL     1       1.325  -3.194   2.927  1.00  0.00    -0.647 OA
HETATM   25  O3  UNL     1       3.073  -1.839   3.188  1.00  0.00    -0.647 OA
ENDBRANCH   9  23
TORSDOF 5
