REMARK  6 active torsions:
REMARK  status: ('A' for Active; 'I' for Inactive)
REMARK    1  A    between atoms: N1_1  and  C1_5 
REMARK    2  A    between atoms: C1_5  and  C2_6 
REMARK    3  A    between atoms: C2_6  and  N2_7 
REMARK       I    between atoms: N2_7  and  C3_9 
REMARK       I    between atoms: C3_9  and  N3_11 
REMARK    4  A    between atoms: N3_11  and  C4_13 
REMARK    5  A    between atoms: C9_18  and  C10_19 
REMARK    6  A    between atoms: C13_22  and  C14_23 
ROOT
HETATM    1  C4  UNL     1      -0.467  -0.609   0.348  1.00  0.00     0.091 C 
HETATM    2  C5  UNL     1      -0.547  -1.489   1.614  1.00  0.00     0.030 C 
HETATM    3  C6  UNL     1       0.609  -2.487   1.710  1.00  0.00    -0.007 C 
HETATM    4  C7  UNL     1       0.517  -3.381   0.444  1.00  0.00     0.010 C 
HETATM    5  C8  UNL     1       1.389  -2.271  -0.215  1.00  0.00    -0.003 C 
HETATM    6  C9  UNL     1       2.075  -2.147   1.196  1.00  0.00    -0.001 C 
HETATM    7  C14 UNL     1       0.611  -1.030  -0.676  1.00  0.00     0.018 C 
ENDROOT
BRANCH   1   8
HETATM    8  N3  UNL     1      -1.792  -0.480  -0.262  1.00  0.00    -0.338 N 
HETATM    9  C3  UNL     1      -2.087   0.644  -0.985  1.00  0.00     0.316 C 
HETATM   10  N2  UNL     1      -3.421   0.712  -1.292  1.00  0.00    -0.342 N 
HETATM   11  O1  UNL     1      -1.272   1.514  -1.266  1.00  0.00    -0.247 OA
ATOM     12  H2  UNL     1      -4.028  -0.095  -1.151  1.00  0.00     0.164 HD
ATOM     13  H3  UNL     1      -2.486  -1.219  -0.149  1.00  0.00     0.164 HD
BRANCH  10  14
HETATM   14  C2  UNL     1      -3.955   1.959  -1.823  1.00  0.00     0.151 C 
BRANCH  14  15
HETATM   15  C1  UNL     1      -3.839   3.117  -0.809  1.00  0.00     0.249 C 
BRANCH  15  16
HETATM   16  N1  UNL     1      -4.456   4.360  -1.270  1.00  0.00    -0.078 N 
ATOM     17  H13 UNL     1      -4.079   4.635  -2.177  1.00  0.00     0.274 HD
ATOM     18  H12 UNL     1      -5.430   4.205  -1.531  1.00  0.00     0.274 HD
ATOM     19  H11 UNL     1      -4.379   5.125  -0.600  1.00  0.00     0.274 HD
ENDBRANCH  15  16
ENDBRANCH  14  15
ENDBRANCH  10  14
ENDBRANCH   1   8
BRANCH   7  20
HETATM   20  C13 UNL     1       1.678   0.077  -0.863  1.00  0.00     0.001 C 
HETATM   21  C12 UNL     1       2.155   1.014   0.365  1.00  0.00    -0.004 C 
HETATM   22  C11 UNL     1       2.210   0.378   1.770  1.00  0.00     0.011 C 
HETATM   23  C17 UNL     1       3.531   0.759  -0.122  1.00  0.00    -0.000 A 
HETATM   24  C10 UNL     1       2.979  -0.950   1.545  1.00  0.00    -0.004 C 
HETATM   25  C16 UNL     1       3.882  -0.622   0.343  1.00  0.00    -0.000 A 
HETATM   26  C15 UNL     1       3.111  -0.376  -0.945  1.00  0.00     0.000 A 
ENDBRANCH   7  20
TORSDOF 6
