REMARK  3 active torsions:
REMARK  status: ('A' for Active; 'I' for Inactive)
REMARK    1  A    between atoms: C2_2  and  O1_3 
REMARK    2  A    between atoms: N1_12  and  O2_13 
REMARK    3  A    between atoms: C9_16  and  N2_17 
ROOT
HETATM    1  C1  UNL     1       2.097  -0.782  -1.013  1.00  0.00     0.051 C 
HETATM    2  C2  UNL     1       1.592  -0.142   0.278  1.00  0.00     0.111 C 
HETATM    3  C3  UNL     1       0.551  -1.031   1.067  1.00  0.00     0.160 C 
HETATM    4  C4  UNL     1      -0.829  -1.683   0.710  1.00  0.00     0.058 C 
HETATM    5  C5  UNL     1      -2.126  -0.650   0.513  1.00  0.00     0.106 C 
HETATM    6  C6  UNL     1      -1.911   0.877   0.978  1.00  0.00     0.116 C 
HETATM    7 BR1  UNL     1      -2.338   1.150   2.848  1.00  0.00    -0.086 Br
HETATM    8  C7  UNL     1      -0.499   0.890   0.510  1.00  0.00     0.121 C 
HETATM    9  C8  UNL     1      -0.918   0.413  -1.014  1.00  0.00     0.162 C 
HETATM   10  N1  UNL     1      -2.197  -0.302  -0.910  1.00  0.00    -0.191 NA
HETATM   11  O3  UNL     1      -0.051   0.072   1.669  1.00  0.00    -0.367 OA
HETATM   12  C9  UNL     1       0.909   1.361   0.290  1.00  0.00     0.256 C 
ENDROOT
BRANCH  12  13
HETATM   13  N2  UNL     1       1.249   2.241  -0.828  1.00  0.00    -0.069 N 
ATOM     14  H23 UNL     1       2.263   2.325  -0.903  1.00  0.00     0.275 HD
ATOM     15  H22 UNL     1       1.036   1.774  -1.709  1.00  0.00     0.275 HD
ATOM     16  H21 UNL     1       0.827   3.170  -0.821  1.00  0.00     0.275 HD
ENDBRANCH  12  13
BRANCH   2  17
HETATM   17  O1  UNL     1       2.789  -0.011   1.095  1.00  0.00    -0.385 OA
ATOM     18  H1  UNL     1       2.475   0.387   1.898  1.00  0.00     0.210 HD
ENDBRANCH   2  17
BRANCH  10  19
HETATM   19  O2  UNL     1      -2.137  -1.500  -1.717  1.00  0.00    -0.313 OA
ATOM     20  H2  UNL     1      -2.183  -1.275  -2.639  1.00  0.00     0.237 HD
ENDBRANCH  10  19
TORSDOF 3
