REMARK  2 active torsions:
REMARK  status: ('A' for Active; 'I' for Inactive)
REMARK    1  A    between atoms: C4_9  and  O1_10 
REMARK    2  A    between atoms: C8_16  and  O2_17 
ROOT
HETATM    1  N1  UNL     1      -0.286   3.970   0.369  1.00  0.00    -0.172 NA
HETATM    2  C1  UNL     1      -0.318   2.814   0.353  1.00  0.00     0.182 C 
HETATM    3  N2  UNL     1      -0.364   1.474   0.328  1.00  0.00    -0.279 N 
HETATM    4  C2  UNL     1      -1.622   0.725   0.676  1.00  0.00     0.327 C 
HETATM    5  N3  UNL     1      -1.331  -0.444   1.526  1.00  0.00    -0.043 N 
ATOM      6  H31 UNL     1      -1.872  -0.596   2.377  1.00  0.00     0.280 HD
ATOM      7  H32 UNL     1      -0.464  -0.475   2.063  1.00  0.00     0.280 HD
HETATM    8  C3  UNL     1      -1.511  -1.357   0.366  1.00  0.00     0.235 C 
HETATM    9  C4  UNL     1      -2.276  -0.221  -0.371  1.00  0.00     0.201 C 
HETATM   10  C5  UNL     1      -0.224  -1.909  -0.261  1.00  0.00     0.102 C 
HETATM   11 BR1  UNL     1       0.388  -3.467   0.732  1.00  0.00    -0.088 Br
HETATM   12  C6  UNL     1       0.807  -0.848  -0.194  1.00  0.00     0.005 C 
HETATM   13  C7  UNL     1       1.756  -0.296   0.973  1.00  0.00     0.053 C 
HETATM   14  C8  UNL     1       2.102   0.609  -0.227  1.00  0.00     0.081 C 
HETATM   15  C9  UNL     1       2.121  -0.690  -1.081  1.00  0.00     0.053 C 
HETATM   16  C10 UNL     1       0.580   0.681  -0.554  1.00  0.00     0.142 C 
ENDROOT
BRANCH   9  17
HETATM   17  O1  UNL     1      -1.991  -0.026  -1.775  1.00  0.00    -0.390 OA
ATOM     18  H1  UNL     1      -2.390  -0.604  -2.415  1.00  0.00     0.210 HD
ENDBRANCH   9  17
BRANCH  14  19
HETATM   19  O2  UNL     1       3.041   1.657  -0.265  1.00  0.00    -0.388 OA
ATOM     20  H2  UNL     1       3.254   2.214  -1.004  1.00  0.00     0.210 HD
ENDBRANCH  14  19
TORSDOF 2
