REMARK  2 active torsions:
REMARK  status: ('A' for Active; 'I' for Inactive)
REMARK    1  A    between atoms: C2_2  and  N1_3 
REMARK    2  A    between atoms: C12_20  and  C13_21 
ROOT
HETATM    1  C1  UNL     1       2.086   1.192  -1.781  1.00  0.00     0.047 C 
HETATM    2  C2  UNL     1       1.598   1.309  -0.340  1.00  0.00     0.129 C 
HETATM    3  C3  UNL     1       2.127   0.230   0.610  1.00  0.00     0.031 A 
HETATM    4  C4  UNL     1       1.555  -1.185   0.853  1.00  0.00    -0.003 A 
HETATM    5  C5  UNL     1       1.132  -2.009  -0.378  1.00  0.00     0.006 C 
HETATM    6  C6  UNL     1      -0.297  -2.626  -0.576  1.00  0.00     0.007 C 
HETATM    7  C7  UNL     1      -1.576  -1.722  -0.510  1.00  0.00     0.013 C 
HETATM    8  C8  UNL     1      -1.173  -0.897   0.705  1.00  0.00     0.028 C 
HETATM    9  C9  UNL     1      -1.441   0.369   1.526  1.00  0.00     0.195 C 
HETATM   10  N2  UNL     1      -2.586   1.114   0.967  1.00  0.00    -0.069 N 
ATOM     11  H21 UNL     1      -2.348   2.097   0.836  1.00  0.00     0.277 HD
ATOM     12  H22 UNL     1      -3.328   1.210   1.661  1.00  0.00     0.277 HD
HETATM   13  C10 UNL     1      -3.117   0.526  -0.296  1.00  0.00     0.254 C 
HETATM   14  C11 UNL     1      -2.063  -0.272  -1.106  1.00  0.00     0.050 C 
HETATM   15 BR1  UNL     1      -2.422  -0.337  -3.009  1.00  0.00    -0.083 Br
HETATM   16  C12 UNL     1      -0.659   0.086  -0.666  1.00  0.00     0.020 C 
HETATM   17  C13 UNL     1       0.051   1.318  -0.129  1.00  0.00     0.034 C 
HETATM   18  C14 UNL     1      -0.086   1.048   1.366  1.00  0.00     0.028 C 
HETATM   19  C15 UNL     1       1.078   0.072   1.665  1.00  0.00     0.003 A 
ENDROOT
BRANCH   2  20
HETATM   20  N1  UNL     1       2.142   2.589   0.155  1.00  0.00    -0.070 N 
ATOM     21  H13 UNL     1       3.154   2.671   0.056  1.00  0.00     0.275 HD
ATOM     22  H12 UNL     1       1.900   3.391  -0.427  1.00  0.00     0.275 HD
ATOM     23  H11 UNL     1       1.816   2.667   1.118  1.00  0.00     0.275 HD
ENDBRANCH   2  20
TORSDOF 2
