REMARK  2 active torsions:
REMARK  status: ('A' for Active; 'I' for Inactive)
REMARK    1  A    between atoms: C5_6  and  C6_7 
REMARK    2  A    between atoms: C6_7  and  O1_8 
ROOT
HETATM    1  C1  UNL     1      -0.522  -2.016   0.685  1.00  0.00     0.273 C 
HETATM    2  N1  UNL     1      -0.740  -0.579   0.456  1.00  0.00    -0.066 N 
HETATM    3  C2  UNL     1      -2.051  -0.224  -0.094  1.00  0.00     0.239 A 
HETATM    4  C3  UNL     1      -1.376   0.299  -1.365  1.00  0.00     0.062 A 
HETATM    5  C4  UNL     1      -0.036  -0.085  -0.740  1.00  0.00     0.199 A 
HETATM    6  C5  UNL     1       0.606   1.022   0.108  1.00  0.00     0.066 C 
HETATM    7  C7  UNL     1       0.008   0.321   1.338  1.00  0.00     0.246 C 
ENDROOT
BRANCH   6   8
HETATM    8  C6  UNL     1       2.118   1.067   0.034  1.00  0.00     0.172 C 
BRANCH   8   9
HETATM    9  O1  UNL     1       2.471   1.262  -1.325  1.00  0.00    -0.400 OA
ATOM     10  H1  UNL     1       3.419   1.290  -1.371  1.00  0.00     0.209 HD
ENDBRANCH   8   9
ENDBRANCH   6   8
TORSDOF 2
