REMARK  3 active torsions:
REMARK  status: ('A' for Active; 'I' for Inactive)
REMARK    1  A    between atoms: C3_3  and  N1_4 
REMARK    2  A    between atoms: N1_4  and  C4_7 
REMARK    3  A    between atoms: C7_10  and  C8_11 
ROOT
HETATM    1  C1  UNL     1      -4.461   0.636  -0.871  1.00  0.00     0.013 C 
HETATM    2  C2  UNL     1      -3.609  -0.211  -0.864  1.00  0.00    -0.090 C 
HETATM    3  C3  UNL     1      -2.557  -1.238  -0.814  1.00  0.00     0.325 C 
ENDROOT
BRANCH   3   4
HETATM    4  N1  UNL     1      -1.609  -0.960   0.266  1.00  0.00    -0.060 N 
ATOM      5  H12 UNL     1      -2.099  -0.741   1.133  1.00  0.00     0.278 HD
ATOM      6  H11 UNL     1      -1.128  -1.811   0.557  1.00  0.00     0.278 HD
BRANCH   4   7
HETATM    7  C4  UNL     1      -0.649   0.093  -0.072  1.00  0.00     0.196 C 
HETATM    8  C5  UNL     1       0.030   0.621   1.203  1.00  0.00     0.022 C 
HETATM    9  C6  UNL     1       0.804   1.939   0.951  1.00  0.00     0.012 C 
HETATM   10  C11 UNL     1       1.409  -0.084   1.398  1.00  0.00     0.001 C 
HETATM   11  C7  UNL     1       2.017   1.086   0.571  1.00  0.00    -0.005 C 
HETATM   12  C10 UNL     1       1.443  -1.217   0.323  1.00  0.00    -0.003 C 
HETATM   13  C9  UNL     1       2.653  -0.936  -0.619  1.00  0.00     0.011 C 
HETATM   14  C12 UNL     1       0.584  -0.487  -0.762  1.00  0.00     0.025 C 
HETATM   15  C8  UNL     1       1.896   0.416  -0.838  1.00  0.00    -0.003 C 
ENDBRANCH   4   7
ENDBRANCH   3   4
TORSDOF 3
