REMARK  6 active torsions:
REMARK  status: ('A' for Active; 'I' for Inactive)
REMARK    1  A    between atoms: C3_3  and  C4_4 
REMARK    2  A    between atoms: C4_4  and  N1_5 
REMARK       I    between atoms: N1_5  and  C5_7 
REMARK       I    between atoms: C5_7  and  N2_9 
REMARK    3  A    between atoms: N2_9  and  C7_11 
REMARK    4  A    between atoms: C15_19  and  C16_20 
REMARK    5  A    between atoms: C19_23  and  O2_24 
REMARK    6  A    between atoms: N3_26  and  C20_27 
ROOT
HETATM    1  C7  UNL     1      -0.258  -2.310  -0.050  1.00  0.00     0.100 C 
HETATM    2  C8  UNL     1      -0.259  -1.575  -1.416  1.00  0.00     0.021 C 
HETATM    3  C9  UNL     1       0.975  -1.991  -2.338  1.00  0.00     0.013 C 
HETATM    4  C10 UNL     1       1.512  -0.542  -2.104  1.00  0.00     0.004 C 
HETATM    5  C11 UNL     1       2.631   0.435  -1.693  1.00  0.00     0.023 C 
HETATM    6  C12 UNL     1       1.751   1.611  -1.225  1.00  0.00     0.042 C 
HETATM    7  C13 UNL     1       0.804   0.860  -0.278  1.00  0.00     0.202 C 
HETATM    8  C14 UNL     1       0.698  -0.533  -0.819  1.00  0.00     0.006 C 
HETATM    9  C15 UNL     1       1.056  -1.580   0.274  1.00  0.00     0.051 C 
HETATM   10  C16 UNL     1       1.227  -0.682   1.514  1.00  0.00     0.200 C 
HETATM   11  C17 UNL     1       2.713  -0.767   1.945  1.00  0.00     0.070 C 
HETATM   12  C18 UNL     1       2.975   0.370   0.918  1.00  0.00     0.222 C 
HETATM   13  C19 UNL     1       3.549   0.072  -0.516  1.00  0.00     0.153 C 
HETATM   14  N3  UNL     1       1.490   0.721   1.044  1.00  0.00    -0.051 N 
ENDROOT
BRANCH   1  15
HETATM   15  N2  UNL     1      -1.379  -2.179   0.928  1.00  0.00    -0.333 N 
HETATM   16  C5  UNL     1      -2.048  -1.005   1.243  1.00  0.00     0.318 C 
HETATM   17  N1  UNL     1      -2.513  -0.339   0.140  1.00  0.00    -0.340 N 
HETATM   18  O1  UNL     1      -2.231  -0.633   2.400  1.00  0.00    -0.247 OA
ATOM     19  H1  UNL     1      -2.204  -0.610  -0.794  1.00  0.00     0.164 HD
HETATM   20  C6  UNL     1      -1.544  -3.289   1.876  1.00  0.00     0.155 C 
BRANCH  17  21
HETATM   21  C4  UNL     1      -3.448   0.754   0.314  1.00  0.00     0.151 C 
BRANCH  21  22
HETATM   22  C3  UNL     1      -4.309   0.802  -0.907  1.00  0.00    -0.012 C 
HETATM   23  C2  UNL     1      -4.214   1.608  -1.978  1.00  0.00    -0.033 C 
HETATM   24  C1  UNL     1      -3.189   2.663  -2.245  1.00  0.00     0.036 C 
ENDBRANCH  21  22
ENDBRANCH  17  21
ENDBRANCH   1  15
BRANCH  14  25
HETATM   25  C20 UNL     1       1.319   1.769   2.111  1.00  0.00     0.234 C 
HETATM   26  C21 UNL     1      -0.078   2.344   2.229  1.00  0.00     0.035 C 
ENDBRANCH  14  25
BRANCH  13  27
HETATM   27  O2  UNL     1       3.999  -1.270  -0.614  1.00  0.00    -0.393 OA
ATOM     28  H2  UNL     1       4.567  -1.494   0.114  1.00  0.00     0.210 HD
ENDBRANCH  13  27
TORSDOF 6
