REMARK  9 active torsions:
REMARK  status: ('A' for Active; 'I' for Inactive)
REMARK    1  A    between atoms: O1_2  and  C2_3 
REMARK    2  A    between atoms: C5_7  and  O3_8 
REMARK    3  A    between atoms: C6_10  and  O4_11 
REMARK    4  A    between atoms: C7_13  and  O5_15 
REMARK    5  A    between atoms: C15_23  and  O6_24 
REMARK    6  A    between atoms: C20_30  and  C21_31 
REMARK    7  A    between atoms: C21_31  and  C22_33 
REMARK    8  A    between atoms: C22_33  and  C23_34 
REMARK    9  A    between atoms: C26_37  and  C27_38 
ROOT
HETATM    1  C2  UNL     1      -2.353  -0.749   1.388  1.00  0.00     0.196 C 
HETATM    2  C3  UNL     1      -0.966  -1.440   1.181  1.00  0.00     0.093 C 
HETATM    3  C4  UNL     1      -1.241  -2.118  -0.254  1.00  0.00     0.153 C 
HETATM    4  O2  UNL     1      -2.656  -2.449  -0.231  1.00  0.00    -0.344 OA
HETATM    5  C5  UNL     1      -3.252  -1.231   0.187  1.00  0.00     0.219 C 
HETATM    6  C6  UNL     1      -3.307  -0.348  -1.098  1.00  0.00     0.218 C 
HETATM    7  C7  UNL     1      -2.221  -0.769  -2.173  1.00  0.00     0.101 C 
HETATM    8  C8  UNL     1      -2.037   0.328  -3.226  1.00  0.00     0.050 C 
HETATM    9  C9  UNL     1      -0.879  -1.282  -1.549  1.00  0.00     0.063 C 
HETATM   10  C10 UNL     1       0.082  -2.133  -2.606  1.00  0.00    -0.012 C 
HETATM   11  C11 UNL     1       1.729  -1.839  -2.897  1.00  0.00    -0.025 C 
HETATM   12  C12 UNL     1       2.933  -1.033  -2.044  1.00  0.00     0.009 C 
HETATM   13  C13 UNL     1       4.198  -1.074  -2.923  1.00  0.00     0.014 C 
HETATM   14  C14 UNL     1       3.464  -1.307  -0.455  1.00  0.00     0.079 C 
HETATM   15  C15 UNL     1       2.479  -1.877   0.676  1.00  0.00     0.187 C 
HETATM   16  C17 UNL     1       1.364  -2.258  -0.167  1.00  0.00     0.236 C 
HETATM   17  O7  UNL     1       1.115  -0.896  -0.560  1.00  0.00    -0.379 OA
HETATM   18  C18 UNL     1       0.075  -0.217  -1.178  1.00  0.00     0.140 C 
HETATM   19  C19 UNL     1      -0.214   0.982  -0.288  1.00  0.00     0.049 C 
HETATM   20  C20 UNL     1       0.464   0.901   1.085  1.00  0.00     0.100 C 
HETATM   21  C26 UNL     1       0.386  -0.531   1.702  1.00  0.00     0.136 C 
HETATM   22  O10 UNL     1       1.853  -1.037   1.700  1.00  0.00    -0.333 OA
ENDROOT
BRANCH  20  23
HETATM   23  C21 UNL     1      -0.042   2.058   1.953  1.00  0.00     0.134 C 
HETATM   24  O8  UNL     1      -1.074   1.963   2.619  1.00  0.00    -0.297 OA
BRANCH  23  25
HETATM   25  C22 UNL     1       0.692   3.389   1.859  1.00  0.00     0.082 C 
BRANCH  25  26
HETATM   26  C23 UNL     1      -0.026   4.344   0.889  1.00  0.00    -0.016 C 
HETATM   27  C24 UNL     1       0.897   4.769  -0.255  1.00  0.00     0.010 C 
HETATM   28  C25 UNL     1      -0.544   5.582   1.624  1.00  0.00     0.010 C 
ENDBRANCH  25  26
ENDBRANCH  23  25
ENDBRANCH  20  23
BRANCH  21  29
HETATM   29  C27 UNL     1       0.228  -0.412   3.238  1.00  0.00     0.270 C 
HETATM   30  O9  UNL     1       1.144  -0.206   4.035  1.00  0.00    -0.304 OA
ENDBRANCH  21  29
BRANCH   1  31
HETATM   31  O1  UNL     1      -2.823  -1.242   2.659  1.00  0.00    -0.385 OA
HETATM   32  C1  UNL     1      -3.727  -0.353   3.307  1.00  0.00     0.202 C 
ENDBRANCH   1  31
BRANCH  15  33
HETATM   33  O6  UNL     1       3.048  -3.037   1.288  1.00  0.00    -0.358 OA
HETATM   34  C16 UNL     1       4.003  -2.700   2.287  1.00  0.00     0.205 C 
ENDBRANCH  15  33
BRANCH   7  35
HETATM   35  O5  UNL     1      -2.783  -1.888  -2.908  1.00  0.00    -0.386 OA
ATOM     36  H5  UNL     1      -2.132  -2.140  -3.552  1.00  0.00     0.210 HD
ENDBRANCH   7  35
BRANCH   5  37
HETATM   37  O3  UNL     1      -4.589  -1.474   0.596  1.00  0.00    -0.361 OA
ATOM     38  H3  UNL     1      -5.131  -1.765  -0.128  1.00  0.00     0.213 HD
ENDBRANCH   5  37
BRANCH   6  39
HETATM   39  O4  UNL     1      -3.343   1.040  -0.779  1.00  0.00    -0.387 OA
ATOM     40  H4  UNL     1      -3.376   1.578  -1.561  1.00  0.00     0.210 HD
ENDBRANCH   6  39
TORSDOF 9
