REMARK  1 active torsions:
REMARK  status: ('A' for Active; 'I' for Inactive)
REMARK    1  A    between atoms: C7_8  and  C8_9 
ROOT
HETATM    1  C1  UNL     1       1.081  -3.382  -0.225  1.00  0.00     0.017 C 
HETATM    2  C2  UNL     1       1.741  -1.980  -0.484  1.00  0.00    -0.020 C 
HETATM    3  C3  UNL     1       2.869  -2.333  -1.490  1.00  0.00     0.017 C 
HETATM    4  C4  UNL     1       0.669  -1.002  -1.109  1.00  0.00     0.060 C 
HETATM    5  C5  UNL     1      -0.528  -0.901  -0.068  1.00  0.00    -0.025 C 
HETATM    6  C6  UNL     1      -0.181  -0.942   1.247  1.00  0.00     0.029 C 
HETATM    7 CL1  UNL     1      -1.309  -1.124   2.530  1.00  0.00    -0.088 Cl
HETATM    8  C7  UNL     1       1.202  -0.295   1.523  1.00  0.00     0.036 C 
HETATM    9  C9  UNL     1       1.026   1.150   0.800  1.00  0.00     0.069 C 
HETATM   10  C10 UNL     1      -0.011   2.150   1.379  1.00  0.00     0.178 C 
HETATM   11  F1  UNL     1       0.617   3.343   1.578  1.00  0.00    -0.249 F 
HETATM   12  C11 UNL     1      -1.197   2.406   0.364  1.00  0.00     0.051 C 
HETATM   13  C12 UNL     1      -2.228   1.268  -0.129  1.00  0.00     0.004 C 
HETATM   14  C13 UNL     1      -3.373   1.248   0.918  1.00  0.00     0.019 C 
HETATM   15  C14 UNL     1      -2.711   1.697  -1.546  1.00  0.00     0.092 C 
HETATM   16 BR1  UNL     1      -4.125   3.009  -1.633  1.00  0.00    -0.088 Br
HETATM   17  C15 UNL     1      -3.099   0.420  -2.247  1.00  0.00     0.185 C 
HETATM   18  O1  UNL     1      -2.078  -0.500  -1.856  1.00  0.00    -0.379 OA
HETATM   19  C16 UNL     1      -1.862  -0.292  -0.449  1.00  0.00     0.161 C 
HETATM   20  C17 UNL     1       1.675   1.462  -0.518  1.00  0.00     0.225 A 
HETATM   21  N1  UNL     1       2.665   0.763  -1.275  1.00  0.00    -0.061 N 
ATOM     22  H11 UNL     1       3.484   0.228  -0.986  1.00  0.00     0.278 HD
ATOM     23  H12 UNL     1       3.417   1.098  -1.877  1.00  0.00     0.278 HD
HETATM   24  C18 UNL     1       1.305   0.354  -1.572  1.00  0.00     0.226 A 
HETATM   25  C19 UNL     1       2.199  -1.380   0.917  1.00  0.00     0.106 C 
HETATM   26 CL3  UNL     1       3.921  -0.884   0.960  1.00  0.00    -0.123 Cl
ENDROOT
BRANCH   8  27
HETATM   27  C8  UNL     1       1.508  -0.074   3.034  1.00  0.00     0.132 C 
HETATM   28 CL2  UNL     1       2.820   1.089   3.356  1.00  0.00    -0.129 Cl
ENDBRANCH   8  27
TORSDOF 1
