REMARK  17 active torsions:
REMARK  status: ('A' for Active; 'I' for Inactive)
REMARK    1  A    between atoms: C2_2  and  S1_4 
REMARK    2  A    between atoms: S1_4  and  C4_5 
REMARK    3  A    between atoms: C4_5  and  C5_6 
REMARK    4  A    between atoms: C5_6  and  C6_7 
REMARK    5  A    between atoms: C5_6  and  N4_21 
REMARK    6  A    between atoms: C5_6  and  C24_39 
REMARK    7  A    between atoms: C6_7  and  C7_8 
REMARK    8  A    between atoms: C7_8  and  C8_9 
REMARK    9  A    between atoms: C8_9  and  C9_10 
REMARK   10  A    between atoms: C9_10  and  C10_11 
REMARK   11  A    between atoms: C10_11  and  N1_12 
REMARK       I    between atoms: N1_12  and  C11_14 
REMARK       I    between atoms: C11_14  and  N2_15 
REMARK       I    between atoms: N4_21  and  C12_23 
REMARK       I    between atoms: C12_23  and  N5_25 
REMARK   12  A    between atoms: N5_25  and  C13_27 
REMARK       I    between atoms: C24_39  and  N6_41 
REMARK   13  A    between atoms: N6_41  and  C25_43 
REMARK   14  A    between atoms: C25_43  and  C26_44 
REMARK   15  A    between atoms: C26_44  and  O4_45 
REMARK   16  A    between atoms: C26_44  and  C27_47 
REMARK   17  A    between atoms: C27_47  and  N7_48 
ROOT
HETATM    1  C5  UNL     1       0.473  -1.754   1.457  1.00  0.00     0.123 C 
ENDROOT
BRANCH   1   2
HETATM    2  C4  UNL     1      -0.021  -1.772  -0.039  1.00  0.00     0.115 C 
BRANCH   2   3
HETATM    3  S1  UNL     1       0.960  -0.796  -1.265  1.00  0.00    -0.162 SA
BRANCH   3   4
HETATM    4  C2  UNL     1       0.450  -1.575  -2.850  1.00  0.00     0.039 C 
HETATM    5  C1  UNL     1       1.107  -0.777  -3.973  1.00  0.00     0.021 C 
HETATM    6  C3  UNL     1      -1.060  -1.617  -3.054  1.00  0.00     0.021 C 
ENDBRANCH   3   4
ENDBRANCH   2   3
ENDBRANCH   1   2
BRANCH   1   7
HETATM    7  C6  UNL     1       1.887  -2.453   1.522  1.00  0.00     0.042 C 
BRANCH   7   8
HETATM    8  C7  UNL     1       1.987  -3.930   1.910  1.00  0.00     0.003 C 
BRANCH   8   9
HETATM    9  C8  UNL     1       3.238  -4.679   1.396  1.00  0.00     0.002 C 
BRANCH   9  10
HETATM   10  C9  UNL     1       4.521  -3.861   1.138  1.00  0.00     0.020 C 
BRANCH  10  11
HETATM   11  C10 UNL     1       4.744  -3.565  -0.351  1.00  0.00     0.138 C 
BRANCH  11  12
HETATM   12  N1  UNL     1       5.852  -2.622  -0.505  1.00  0.00    -0.227 N 
HETATM   13  C11 UNL     1       5.632  -1.457  -0.986  1.00  0.00     0.665 C 
HETATM   14  N2  UNL     1       4.482  -0.898  -1.413  1.00  0.00    -0.235 N 
HETATM   15  N3  UNL     1       6.647  -0.569  -1.094  1.00  0.00    -0.235 N 
ATOM     16  H22 UNL     1       3.717  -1.567  -1.332  1.00  0.00     0.174 HD
ATOM     17  H21 UNL     1       4.307   0.031  -1.796  1.00  0.00     0.174 HD
ATOM     18  H32 UNL     1       7.517  -0.992  -0.771  1.00  0.00     0.174 HD
ATOM     19  H31 UNL     1       6.472   0.360  -1.477  1.00  0.00     0.174 HD
ATOM     20  H1  UNL     1       6.796  -2.892  -0.230  1.00  0.00     0.177 HD
ENDBRANCH  11  12
ENDBRANCH  10  11
ENDBRANCH   9  10
ENDBRANCH   8   9
ENDBRANCH   7   8
ENDBRANCH   1   7
BRANCH   1  21
HETATM   21  N4  UNL     1      -0.528  -2.449   2.340  1.00  0.00    -0.324 N 
HETATM   22  C12 UNL     1      -1.887  -2.268   2.257  1.00  0.00     0.317 C 
HETATM   23  O1  UNL     1      -2.644  -3.215   2.395  1.00  0.00    -0.247 OA
HETATM   24  N5  UNL     1      -2.273  -1.018   1.916  1.00  0.00    -0.338 N 
ATOM     25  H5  UNL     1      -1.680  -0.245   2.219  1.00  0.00     0.164 HD
ATOM     26  H4  UNL     1      -0.175  -3.096   3.045  1.00  0.00     0.165 HD
BRANCH  24  27
HETATM   27  C13 UNL     1      -3.458  -0.689   1.157  1.00  0.00     0.096 C 
HETATM   28  C14 UNL     1      -4.778  -0.725   1.931  1.00  0.00     0.010 C 
HETATM   29  C15 UNL     1      -4.832   0.394   2.989  1.00  0.00     0.007 C 
HETATM   30  C23 UNL     1      -5.991  -0.655   0.965  1.00  0.00     0.020 C 
HETATM   31  C16 UNL     1      -4.624   1.781   2.404  1.00  0.00     0.001 C 
HETATM   32  C17 UNL     1      -3.375   1.837   1.530  1.00  0.00     0.009 C 
HETATM   33  C18 UNL     1      -3.302   0.694   0.502  1.00  0.00     0.039 C 
HETATM   34  C19 UNL     1      -4.399   0.866  -0.549  1.00  0.00     0.137 A 
HETATM   35  O2  UNL     1      -4.101   0.067  -1.725  1.00  0.00    -0.384 OA
HETATM   36  C21 UNL     1      -5.753   0.128  -0.343  1.00  0.00     0.004 A 
HETATM   37  C20 UNL     1      -5.272  -0.750  -1.528  1.00  0.00     0.179 A 
HETATM   38  C22 UNL     1      -6.973   0.966  -0.740  1.00  0.00     0.020 C 
ENDBRANCH  24  27
ENDBRANCH   1  21
BRANCH   1  39
HETATM   39  C24 UNL     1       0.654  -0.279   2.012  1.00  0.00     0.246 C 
HETATM   40  O3  UNL     1      -0.180   0.285   2.719  1.00  0.00    -0.271 OA
HETATM   41  N6  UNL     1       1.811   0.379   1.657  1.00  0.00    -0.356 N 
ATOM     42  H6  UNL     1       2.441  -0.049   0.978  1.00  0.00     0.162 HD
BRANCH  41  43
HETATM   43  C25 UNL     1       2.151   1.668   2.229  1.00  0.00     0.156 C 
BRANCH  43  44
HETATM   44  C26 UNL     1       1.569   2.864   1.472  1.00  0.00     0.164 C 
BRANCH  44  45
HETATM   45  O4  UNL     1       1.880   4.048   2.219  1.00  0.00    -0.392 OA
ATOM     46  H4  UNL     1       1.519   4.790   1.749  1.00  0.00     0.210 HD
ENDBRANCH  44  45
BRANCH  44  47
HETATM   47  C27 UNL     1       2.170   2.949   0.053  1.00  0.00     0.305 C 
BRANCH  47  48
HETATM   48  N7  UNL     1       1.569   4.057  -0.715  1.00  0.00     0.095 N 
HETATM   49  C28 UNL     1       2.525   5.168  -0.897  1.00  0.00     0.298 C 
HETATM   50  C29 UNL     1       3.607   4.903  -1.963  1.00  0.00     0.198 C 
HETATM   51  O5  UNL     1       3.032   4.516  -3.217  1.00  0.00    -0.388 OA
HETATM   52  C30 UNL     1       2.199   3.366  -3.056  1.00  0.00     0.198 C 
HETATM   53  C31 UNL     1       1.074   3.636  -2.043  1.00  0.00     0.298 C 
ENDBRANCH  47  48
ENDBRANCH  44  47
ENDBRANCH  43  44
ENDBRANCH  41  43
ENDBRANCH   1  39
TORSDOF 17
