REMARK  4 active torsions:
REMARK  status: ('A' for Active; 'I' for Inactive)
REMARK    1  A    between atoms: O1_2  and  N1_3 
REMARK       I    between atoms: N1_3  and  C2_5 
REMARK       I    between atoms: C2_5  and  N2_7 
REMARK    2  A    between atoms: N2_7  and  C3_9 
REMARK    3  A    between atoms: C6_13  and  O3_14 
REMARK    4  A    between atoms: C6_13  and  C7_16 
ROOT
HETATM    1  C3  UNL     1      -0.704   0.653   0.286  1.00  0.00     0.060 A 
HETATM    2  C4  UNL     1      -0.964   0.619   1.790  1.00  0.00     0.096 A 
HETATM    3 BR1  UNL     1      -1.724   2.135   2.691  1.00  0.00    -0.088 Br
HETATM    4  C5  UNL     1       0.483   0.756   1.382  1.00  0.00     0.067 A 
HETATM    5  C6  UNL     1       1.355  -0.494   1.439  1.00  0.00     0.073 C 
HETATM    6  C7  UNL     1       2.718  -0.912   0.783  1.00  0.00     0.026 C 
HETATM    7  C8  UNL     1       3.662   0.151   0.180  1.00  0.00     0.013 C 
HETATM    8  C9  UNL     1       2.948  -0.043  -1.161  1.00  0.00    -0.004 C 
HETATM    9  C10 UNL     1       2.612  -1.492  -0.907  1.00  0.00     0.002 C 
HETATM   10  C11 UNL     1       1.028  -1.017  -1.708  1.00  0.00     0.002 C 
HETATM   11  C12 UNL     1       1.462   0.160  -0.952  1.00  0.00     0.002 C 
HETATM   12  C13 UNL     1       0.755  -1.119   0.263  1.00  0.00     0.033 C 
HETATM   13  C14 UNL     1      -0.386  -0.696  -0.586  1.00  0.00     0.028 C 
ENDROOT
BRANCH   1  14
HETATM   14  N2  UNL     1      -1.150   1.787  -0.472  1.00  0.00    -0.330 N 
HETATM   15  C2  UNL     1      -2.379   2.059  -0.982  1.00  0.00     0.340 C 
HETATM   16  N1  UNL     1      -3.404   1.188  -0.874  1.00  0.00    -0.217 N 
HETATM   17  O2  UNL     1      -2.550   3.125  -1.581  1.00  0.00    -0.245 OA
ATOM     18  H1  UNL     1      -4.213   1.303  -1.485  1.00  0.00     0.199 HD
ATOM     19  H2  UNL     1      -0.438   2.494  -0.655  1.00  0.00     0.165 HD
BRANCH  16  20
HETATM   20  O1  UNL     1      -3.397   0.129   0.049  1.00  0.00    -0.281 OA
HETATM   21  C1  UNL     1      -4.274  -0.901  -0.396  1.00  0.00     0.237 C 
ENDBRANCH  16  20
ENDBRANCH   1  14
BRANCH   5  22
HETATM   22  O3  UNL     1       1.093  -1.262   2.598  1.00  0.00    -0.389 OA
ATOM     23  H3  UNL     1       1.636  -2.041   2.634  1.00  0.00     0.210 HD
ENDBRANCH   5  22
TORSDOF 4
