REMARK  13 active torsions:
REMARK  status: ('A' for Active; 'I' for Inactive)
REMARK    1  A    between atoms: C2_2  and  C3_5 
REMARK    2  A    between atoms: C3_5  and  O1_6 
REMARK    3  A    between atoms: C3_5  and  C4_8 
REMARK    4  A    between atoms: C3_5  and  C13_17 
REMARK    5  A    between atoms: C4_8  and  C5_9 
REMARK    6  A    between atoms: C5_9  and  C6_10 
REMARK    7  A    between atoms: C6_10  and  C7_11 
REMARK    8  A    between atoms: C13_17  and  N1_18 
REMARK       I    between atoms: N1_18  and  C14_20 
REMARK    9  A    between atoms: C14_20  and  C15_22 
REMARK   10  A    between atoms: C15_22  and  C16_23 
REMARK   11  A    between atoms: C16_23  and  N2_24 
REMARK       I    between atoms: N2_24  and  C17_26 
REMARK       I    between atoms: C17_26  and  N3_28 
REMARK   12  A    between atoms: N3_28  and  C18_30 
REMARK   13  A    between atoms: C18_30  and  C21_34 
ROOT
HETATM    1  C18 UNL     1       3.408  -1.781   0.789  1.00  0.00     0.128 C 
HETATM    2  C19 UNL     1       4.494  -2.718   0.235  1.00  0.00     0.056 C 
HETATM    3  C20 UNL     1       3.087  -2.202   2.185  1.00  0.00     0.091 C 
HETATM    4  N4  UNL     1       2.812  -2.519   3.270  1.00  0.00    -0.195 NA
ENDROOT
BRANCH   1   5
HETATM    5  N3  UNL     1       2.144  -1.783   0.041  1.00  0.00    -0.321 N 
HETATM    6  C17 UNL     1       1.911  -2.354  -1.176  1.00  0.00     0.317 C 
HETATM    7  N2  UNL     1       0.556  -2.490  -1.385  1.00  0.00    -0.343 N 
HETATM    8  O3  UNL     1       2.761  -2.747  -1.964  1.00  0.00    -0.247 OA
ATOM      9  H2  UNL     1      -0.115  -1.909  -0.882  1.00  0.00     0.164 HD
ATOM     10  H3  UNL     1       1.356  -1.306   0.478  1.00  0.00     0.166 HD
BRANCH   7  11
HETATM   11  C16 UNL     1       0.111  -3.489  -2.347  1.00  0.00     0.133 C 
BRANCH  11  12
HETATM   12  C15 UNL     1      -1.402  -3.498  -2.504  1.00  0.00     0.122 C 
BRANCH  12  13
HETATM   13  C14 UNL     1      -2.075  -3.583  -1.145  1.00  0.00     0.219 C 
HETATM   14  N1  UNL     1      -2.784  -2.449  -0.796  1.00  0.00    -0.358 N 
ATOM     15  H1  UNL     1      -2.853  -1.684  -1.467  1.00  0.00     0.162 HD
HETATM   16  O2  UNL     1      -1.934  -4.539  -0.394  1.00  0.00    -0.274 OA
BRANCH  14  17
HETATM   17  C13 UNL     1      -3.436  -2.311   0.501  1.00  0.00     0.166 C 
BRANCH  17  18
HETATM   18  C3  UNL     1      -2.557  -1.570   1.560  1.00  0.00     0.138 C 
BRANCH  18  19
HETATM   19  C2  UNL     1      -3.397  -1.459   2.874  1.00  0.00     0.272 C 
HETATM   20  C1  UNL     1      -2.754  -0.787   4.072  1.00  0.00     0.093 C 
HETATM   21  F1  UNL     1      -4.564  -0.804   2.609  1.00  0.00    -0.203 F 
HETATM   22  F2  UNL     1      -3.780  -2.711   3.258  1.00  0.00    -0.203 F 
ENDBRANCH  18  19
BRANCH  18  23
HETATM   23  O1  UNL     1      -1.347  -2.346   1.762  1.00  0.00    -0.382 OA
ATOM     24  H1  UNL     1      -0.837  -2.413   0.964  1.00  0.00     0.210 HD
ENDBRANCH  18  23
BRANCH  18  25
HETATM   25  C4  UNL     1      -2.033  -0.194   1.064  1.00  0.00     0.046 C 
BRANCH  25  26
HETATM   26  C5  UNL     1      -3.072   0.889   0.746  1.00  0.00     0.004 C 
BRANCH  26  27
HETATM   27  C6  UNL     1      -2.433   2.242   0.395  1.00  0.00     0.005 C 
BRANCH  27  28
HETATM   28  C7  UNL     1      -1.829   2.306  -1.022  1.00  0.00    -0.014 C 
HETATM   29  C8  UNL     1      -2.914   2.656  -2.067  1.00  0.00     0.004 C 
HETATM   30  C9  UNL     1      -2.319   3.296  -3.317  1.00  0.00     0.000 C 
HETATM   31  C10 UNL     1      -1.572   4.595  -3.010  1.00  0.00     0.000 C 
HETATM   32  C11 UNL     1      -1.015   4.659  -1.587  1.00  0.00     0.000 C 
HETATM   33  C12 UNL     1      -0.630   3.276  -1.082  1.00  0.00     0.004 C 
ENDBRANCH  27  28
ENDBRANCH  26  27
ENDBRANCH  25  26
ENDBRANCH  18  25
ENDBRANCH  17  18
ENDBRANCH  14  17
ENDBRANCH  12  13
ENDBRANCH  11  12
ENDBRANCH   7  11
ENDBRANCH   1   5
BRANCH   1  34
HETATM   34  C21 UNL     1       3.922  -0.344   0.764  1.00  0.00     0.003 C 
HETATM   35  C22 UNL     1       4.136   0.428  -0.586  1.00  0.00     0.018 C 
HETATM   36  C23 UNL     1       3.495   1.677   0.043  1.00  0.00    -0.008 C 
HETATM   37  C24 UNL     1       4.442   2.465   0.969  1.00  0.00     0.010 C 
HETATM   38  C27 UNL     1       3.065   0.839   1.247  1.00  0.00     0.006 C 
HETATM   39  C25 UNL     1       4.236   1.393   2.053  1.00  0.00    -0.008 C 
HETATM   40  C26 UNL     1       5.023   0.097   1.794  1.00  0.00     0.018 C 
ENDBRANCH   1  34
TORSDOF 13
