REMARK  13 active torsions:
REMARK  status: ('A' for Active; 'I' for Inactive)
REMARK    1  A    between atoms: C2_2  and  C3_3 
REMARK    2  A    between atoms: C3_3  and  N1_5 
REMARK    3  A    between atoms: N1_5  and  C5_8 
REMARK    4  A    between atoms: C5_8  and  C6_9 
REMARK    5  A    between atoms: C6_9  and  O1_10 
REMARK    6  A    between atoms: C6_9  and  C7_12 
REMARK    7  A    between atoms: C7_12  and  C8_13 
REMARK    8  A    between atoms: C7_12  and  N2_20 
REMARK    9  A    between atoms: C8_13  and  C9_14 
REMARK   10  A    between atoms: N2_20  and  C15_22 
REMARK   11  A    between atoms: C19_26  and  C20_27 
REMARK       I    between atoms: C20_27  and  N3_29 
REMARK   12  A    between atoms: N3_29  and  C21_31 
REMARK   13  A    between atoms: C21_31  and  C22_32 
ROOT
HETATM    1  N2  UNL     1       0.238  -0.569  -2.093  1.00  0.00    -0.410 N 
ATOM      2  H2  UNL     1       0.383  -0.215  -3.039  1.00  0.00     0.154 HD
ENDROOT
BRANCH   1   3
HETATM    3  C7  UNL     1      -0.857  -0.027  -1.251  1.00  0.00     0.107 C 
BRANCH   3   4
HETATM    4  C6  UNL     1      -1.030   1.440  -1.756  1.00  0.00     0.166 C 
BRANCH   4   5
HETATM    5  C5  UNL     1      -2.017   2.323  -0.970  1.00  0.00     0.266 C 
BRANCH   5   6
HETATM    6  N1  UNL     1      -1.817   2.267   0.484  1.00  0.00    -0.069 N 
ATOM      7  H12 UNL     1      -1.381   1.386   0.756  1.00  0.00     0.277 HD
ATOM      8  H11 UNL     1      -2.709   2.170   0.969  1.00  0.00     0.277 HD
BRANCH   6   9
HETATM    9  C3  UNL     1      -1.059   3.408   1.012  1.00  0.00     0.181 C 
HETATM   10  C4  UNL     1      -1.987   4.615   1.196  1.00  0.00     0.040 C 
BRANCH   9  11
HETATM   11  C2  UNL     1      -0.381   3.011   2.339  1.00  0.00     0.028 C 
HETATM   12  C1  UNL     1      -1.314   2.510   3.434  1.00  0.00     0.007 C 
ENDBRANCH   9  11
ENDBRANCH   6   9
ENDBRANCH   5   6
ENDBRANCH   4   5
BRANCH   4  13
HETATM   13  O1  UNL     1       0.279   2.050  -1.788  1.00  0.00    -0.392 OA
ATOM     14  H1  UNL     1       0.888   1.505  -2.273  1.00  0.00     0.210 HD
ENDBRANCH   4  13
ENDBRANCH   3   4
BRANCH   3  15
HETATM   15  C8  UNL     1      -2.143  -0.867  -1.435  1.00  0.00     0.032 C 
BRANCH  15  16
HETATM   16  C9  UNL     1      -3.017  -0.976  -0.161  1.00  0.00    -0.013 C 
HETATM   17  C10 UNL     1      -2.986  -2.415   0.385  1.00  0.00     0.005 C 
HETATM   18  C11 UNL     1      -3.857  -2.574   1.628  1.00  0.00     0.000 C 
HETATM   19  C12 UNL     1      -5.293  -2.133   1.365  1.00  0.00     0.000 C 
HETATM   20  C13 UNL     1      -5.351  -0.716   0.802  1.00  0.00     0.000 C 
HETATM   21  C14 UNL     1      -4.475  -0.573  -0.443  1.00  0.00     0.005 C 
ENDBRANCH  15  16
ENDBRANCH   3  15
ENDBRANCH   1   3
BRANCH   1  22
HETATM   22  C15 UNL     1       1.106  -1.613  -1.556  1.00  0.00     0.087 C 
HETATM   23  C16 UNL     1       0.806  -2.393  -0.240  1.00  0.00     0.031 C 
HETATM   24  C17 UNL     1       2.153  -2.655   0.539  1.00  0.00     0.001 C 
HETATM   25  C18 UNL     1       2.580  -1.268   1.099  1.00  0.00     0.020 C 
HETATM   26  C25 UNL     1       3.287  -3.178  -0.441  1.00  0.00    -0.009 C 
HETATM   27  C19 UNL     1       2.590  -0.263  -0.071  1.00  0.00     0.089 C 
HETATM   28  C23 UNL     1       2.531  -1.062  -1.398  1.00  0.00     0.062 C 
HETATM   29  C24 UNL     1       3.432  -2.072  -1.507  1.00  0.00     0.005 C 
HETATM   30 CL1  UNL     1       4.006  -2.527  -3.073  1.00  0.00    -0.092 Cl
HETATM   31  C26 UNL     1       4.626  -3.376   0.292  1.00  0.00     0.021 C 
HETATM   32  C27 UNL     1       2.863  -4.553  -1.010  1.00  0.00     0.021 C 
BRANCH  27  33
HETATM   33  C20 UNL     1       3.814   0.655  -0.138  1.00  0.00     0.222 C 
HETATM   34  O2  UNL     1       4.946   0.299   0.155  1.00  0.00    -0.273 OA
HETATM   35  N3  UNL     1       3.501   1.910  -0.626  1.00  0.00    -0.358 N 
ATOM     36  H3  UNL     1       2.526   2.208  -0.644  1.00  0.00     0.162 HD
BRANCH  35  37
HETATM   37  C21 UNL     1       4.527   2.815  -1.113  1.00  0.00     0.153 C 
BRANCH  37  38
HETATM   38  C22 UNL     1       4.013   4.241  -1.230  1.00  0.00     0.241 C 
HETATM   39  F1  UNL     1       4.955   5.017  -1.829  1.00  0.00    -0.254 F 
ENDBRANCH  37  38
ENDBRANCH  35  37
ENDBRANCH  27  33
ENDBRANCH   1  22
TORSDOF 13
