REMARK  5 active torsions:
REMARK  status: ('A' for Active; 'I' for Inactive)
REMARK    1  A    between atoms: O1_1  and  C1_3 
REMARK    2  A    between atoms: C1_3  and  C2_4 
REMARK    3  A    between atoms: C3_5  and  C4_6 
REMARK    4  A    between atoms: C8_10  and  O2_11 
REMARK    5  A    between atoms: C9_13  and  O3_14 
ROOT
HETATM    1  C2  UNL     1      -1.431  -0.248  -0.455  1.00  0.00     0.051 C 
HETATM    2  C3  UNL     1      -0.317  -1.301  -0.547  1.00  0.00     0.007 C 
HETATM    3  C4  UNL     1       0.721  -1.278   0.627  1.00  0.00    -0.002 C 
HETATM    4  C5  UNL     1       2.037  -1.721  -0.096  1.00  0.00     0.011 C 
HETATM    5  C6  UNL     1       1.855  -0.344  -0.805  1.00  0.00     0.000 C 
HETATM    6  C7  UNL     1       1.381   0.172   0.589  1.00  0.00     0.026 C 
HETATM    7  C8  UNL     1       0.536   1.393   0.284  1.00  0.00     0.158 C 
HETATM    8  C9  UNL     1      -0.347   0.824  -0.831  1.00  0.00     0.094 C 
HETATM    9  C10 UNL     1       0.456  -0.344  -1.504  1.00  0.00     0.032 C 
ENDROOT
BRANCH   1  10
HETATM   10  C1  UNL     1      -2.228  -0.182   0.834  1.00  0.00     0.172 C 
BRANCH  10  11
HETATM   11  O1  UNL     1      -2.795   1.117   0.962  1.00  0.00    -0.400 OA
ATOM     12  H1  UNL     1      -3.294   1.158   1.769  1.00  0.00     0.209 HD
ENDBRANCH  10  11
ENDBRANCH   1  10
BRANCH   8  13
HETATM   13  O3  UNL     1      -0.807   1.872  -1.709  1.00  0.00    -0.386 OA
ATOM     14  H3  UNL     1      -0.151   2.521  -1.936  1.00  0.00     0.210 HD
ENDBRANCH   8  13
BRANCH   7  15
HETATM   15  O2  UNL     1      -0.222   1.809   1.413  1.00  0.00    -0.392 OA
ATOM     16  H2  UNL     1      -0.752   2.574   1.222  1.00  0.00     0.210 HD
ENDBRANCH   7  15
TORSDOF 5
