REMARK  12 active torsions:
REMARK  status: ('A' for Active; 'I' for Inactive)
REMARK    1  A    between atoms: C2_2  and  O1_3 
REMARK    2  A    between atoms: O1_3  and  C3_4 
REMARK    3  A    between atoms: C11_15  and  O3_16 
REMARK    4  A    between atoms: O3_16  and  C12_17 
REMARK    5  A    between atoms: C12_17  and  C13_18 
REMARK    6  A    between atoms: C13_18  and  C14_19 
REMARK    7  A    between atoms: C14_19  and  N2_20 
REMARK    8  A    between atoms: C15_24  and  C16_25 
REMARK    9  A    between atoms: C16_25  and  N3_26 
REMARK   10  A    between atoms: N3_26  and  C17_28 
REMARK   11  A    between atoms: C17_28  and  N4_29 
REMARK       I    between atoms: N4_29  and  C18_31 
REMARK       I    between atoms: C18_31  and  N5_32 
REMARK   12  A    between atoms: C19_38  and  O4_39 
ROOT
HETATM    1  C3  UNL     1      -2.092   3.000   0.700  1.00  0.00     0.151 C 
HETATM    2  C4  UNL     1      -0.591   3.118   0.473  1.00  0.00     0.033 C 
HETATM    3  C5  UNL     1      -0.012   2.127  -0.242  1.00  0.00     0.050 C 
HETATM    4  N1  UNL     1       0.187   2.518  -1.563  1.00  0.00    -0.327 N 
ATOM      5  H1  UNL     1       1.097   2.796  -1.930  1.00  0.00     0.168 HD
HETATM    6  C6  UNL     1      -0.980   2.495  -2.345  1.00  0.00     0.230 C 
HETATM    7  O2  UNL     1      -1.064   3.118  -3.397  1.00  0.00    -0.272 OA
HETATM    8  C7  UNL     1      -2.176   1.744  -1.679  1.00  0.00     0.116 C 
HETATM    9  C8  UNL     1      -1.608   0.445  -1.130  1.00  0.00    -0.029 C 
HETATM   10  C9  UNL     1      -1.924  -0.751  -1.649  1.00  0.00    -0.017 C 
HETATM   11  C10 UNL     1      -1.135  -1.989  -1.361  1.00  0.00     0.060 C 
HETATM   12  C11 UNL     1       0.059  -1.843  -0.386  1.00  0.00     0.134 C 
HETATM   13  C15 UNL     1       0.652  -0.400  -0.345  1.00  0.00     0.078 C 
HETATM   14  C19 UNL     1      -0.486   0.634  -0.127  1.00  0.00     0.131 C 
HETATM   15  C20 UNL     1      -2.878   2.659  -0.621  1.00  0.00     0.032 C 
HETATM   16  C21 UNL     1      -4.242   2.055  -0.251  1.00  0.00     0.014 C 
ENDROOT
BRANCH  13  17
HETATM   17  C16 UNL     1       1.735  -0.258   0.762  1.00  0.00     0.131 C 
BRANCH  17  18
HETATM   18  N3  UNL     1       3.084  -0.688   0.363  1.00  0.00    -0.385 N 
ATOM     19  H3  UNL     1       3.561  -1.483   0.788  1.00  0.00     0.160 HD
BRANCH  18  20
HETATM   20  C17 UNL     1       3.611   0.028  -0.570  1.00  0.00     0.193 C 
BRANCH  20  21
HETATM   21  N4  UNL     1       4.862  -0.255  -1.039  1.00  0.00    -0.189 N 
HETATM   22  C18 UNL     1       5.868  -0.011  -0.280  1.00  0.00     0.670 C 
HETATM   23  N5  UNL     1       7.127  -0.244  -0.715  1.00  0.00    -0.235 N 
HETATM   24  N6  UNL     1       5.897   0.484   0.980  1.00  0.00    -0.235 N 
ATOM     25  H52 UNL     1       7.105  -0.617  -1.664  1.00  0.00     0.174 HD
ATOM     26  H51 UNL     1       7.926  -0.050  -0.112  1.00  0.00     0.174 HD
ATOM     27  H62 UNL     1       4.947   0.660   1.308  1.00  0.00     0.174 HD
ATOM     28  H61 UNL     1       6.696   0.678   1.583  1.00  0.00     0.174 HD
ATOM     29  H4  UNL     1       4.994  -0.651  -1.970  1.00  0.00     0.184 HD
ENDBRANCH  20  21
ENDBRANCH  18  20
ENDBRANCH  17  18
ENDBRANCH  13  17
BRANCH  12  30
HETATM   30  O3  UNL     1       1.109  -2.722  -0.812  1.00  0.00    -0.385 OA
BRANCH  30  31
HETATM   31  C12 UNL     1       1.073  -4.037  -0.256  1.00  0.00     0.169 C 
BRANCH  31  32
HETATM   32  C13 UNL     1       0.322  -5.019  -1.159  1.00  0.00     0.053 C 
BRANCH  32  33
HETATM   33  C14 UNL     1      -0.851  -5.710  -0.464  1.00  0.00     0.231 C 
BRANCH  33  34
HETATM   34  N2  UNL     1      -0.407  -6.606   0.599  1.00  0.00    -0.079 N 
ATOM     35  H23 UNL     1       0.269  -7.286   0.251  1.00  0.00     0.274 HD
ATOM     36  H22 UNL     1       0.186  -6.118   1.271  1.00  0.00     0.274 HD
ATOM     37  H21 UNL     1      -1.190  -7.067   1.063  1.00  0.00     0.274 HD
ENDBRANCH  33  34
ENDBRANCH  32  33
ENDBRANCH  31  32
ENDBRANCH  30  31
ENDBRANCH  12  30
BRANCH  14  38
HETATM   38  O4  UNL     1      -1.058   0.385   1.161  1.00  0.00    -0.378 OA
ATOM     39  H4  UNL     1      -1.345  -0.518   1.231  1.00  0.00     0.211 HD
ENDBRANCH  14  38
BRANCH   1  40
HETATM   40  O1  UNL     1      -2.547   4.295   1.127  1.00  0.00    -0.382 OA
BRANCH  40  41
HETATM   41  C2  UNL     1      -3.069   4.324   2.454  1.00  0.00     0.164 C 
HETATM   42  C1  UNL     1      -1.957   4.258   3.486  1.00  0.00     0.033 C 
ENDBRANCH  40  41
ENDBRANCH   1  40
TORSDOF 12
