REMARK  5 active torsions:
REMARK  status: ('A' for Active; 'I' for Inactive)
REMARK    1  A    between atoms: C2_2  and  C3_3 
REMARK    2  A    between atoms: C3_3  and  C4_4 
REMARK    3  A    between atoms: C4_4  and  C5_5 
REMARK    4  A    between atoms: C5_5  and  C6_6 
REMARK    5  A    between atoms: C6_6  and  C7_7 
ROOT
HETATM    1  C7  UNL     1      -0.416   1.066   0.411  1.00  0.00    -0.035 C 
HETATM    2  C8  UNL     1      -0.184   0.254  -0.656  1.00  0.00     0.010 C 
HETATM    3  C9  UNL     1       0.588  -1.004  -0.506  1.00  0.00     0.015 C 
HETATM    4  C10 UNL     1       1.929  -1.052  -0.307  1.00  0.00    -0.001 C 
HETATM    5  C11 UNL     1       2.951  -0.439  -1.146  1.00  0.00     0.042 C 
HETATM    6  C12 UNL     1       4.023  -1.207  -1.446  1.00  0.00     0.030 C 
HETATM    7  C13 UNL     1       4.253  -2.568  -0.965  1.00  0.00     0.002 C 
HETATM    8  C14 UNL     1       3.952  -3.030   0.267  1.00  0.00     0.001 C 
HETATM    9  C15 UNL     1       3.346  -2.229   1.326  1.00  0.00     0.010 C 
HETATM   10  C16 UNL     1       2.383  -1.323   1.092  1.00  0.00    -0.022 C 
HETATM   11  C17 UNL     1       1.932  -0.238   2.097  1.00  0.00     0.129 C 
HETATM   12  N1  UNL     1       0.531  -0.171   2.425  1.00  0.00    -0.382 N 
ATOM     13  H1  UNL     1      -0.108  -0.651   3.059  1.00  0.00     0.160 HD
HETATM   14  C18 UNL     1       0.454   0.768   1.554  1.00  0.00     0.022 C 
HETATM   15  C19 UNL     1       1.865   1.084   1.749  1.00  0.00     0.087 C 
HETATM   16  C20 UNL     1       2.602   2.026   0.849  1.00  0.00     0.003 C 
HETATM   17  C21 UNL     1       2.979   1.912  -0.436  1.00  0.00     0.085 C 
HETATM   18  N2  UNL     1       2.921   0.923  -1.412  1.00  0.00    -0.365 N 
ATOM     19  H2  UNL     1       2.852   1.217  -2.386  1.00  0.00     0.165 HD
ENDROOT
BRANCH   1  20
HETATM   20  C6  UNL     1      -1.399   2.177   0.596  1.00  0.00     0.040 C 
BRANCH  20  21
HETATM   21  C5  UNL     1      -2.392   2.503  -0.528  1.00  0.00     0.005 C 
BRANCH  21  22
HETATM   22  C4  UNL     1      -3.308   1.390  -1.057  1.00  0.00     0.000 C 
BRANCH  22  23
HETATM   23  C3  UNL     1      -3.997   0.481  -0.024  1.00  0.00    -0.000 C 
BRANCH  23  24
HETATM   24  C2  UNL     1      -3.601  -0.995  -0.194  1.00  0.00    -0.005 C 
HETATM   25  C1  UNL     1      -4.450  -1.923   0.661  1.00  0.00     0.005 C 
ENDBRANCH  23  24
ENDBRANCH  22  23
ENDBRANCH  21  22
ENDBRANCH  20  21
ENDBRANCH   1  20
TORSDOF 5
