REMARK  10 active torsions:
REMARK  status: ('A' for Active; 'I' for Inactive)
REMARK    1  A    between atoms: C2_2  and  C3_3 
REMARK    2  A    between atoms: C3_3  and  C4_4 
REMARK    3  A    between atoms: C4_4  and  C5_5 
REMARK    4  A    between atoms: C5_5  and  C6_6 
REMARK    5  A    between atoms: C6_6  and  O2_8 
REMARK    6  A    between atoms: O2_8  and  C7_9 
REMARK    7  A    between atoms: C7_9  and  C8_10 
REMARK    8  A    between atoms: C8_10  and  C9_11 
REMARK       I    between atoms: N1_13  and  C11_14 
REMARK    9  A    between atoms: C11_14  and  C12_16 
REMARK   10  A    between atoms: C13_17  and  C14_18 
ROOT
HETATM    1  C9  UNL     1       1.878   2.337  -0.751  1.00  0.00     0.141 C 
HETATM    2  C10 UNL     1       1.836   1.759   0.683  1.00  0.00     0.158 C 
HETATM    3  N1  UNL     1       0.945   2.606   1.473  1.00  0.00    -0.344 N 
HETATM    4  C11 UNL     1      -0.307   2.099   1.732  1.00  0.00     0.243 C 
HETATM    5  O3  UNL     1      -0.466   1.077   2.387  1.00  0.00    -0.268 OA
HETATM    6  C26 UNL     1       1.308   4.025   1.461  1.00  0.00     0.152 C 
HETATM    7  C27 UNL     1       1.584   4.554   0.047  1.00  0.00     0.188 C 
HETATM    8  O4  UNL     1       2.425   3.668  -0.707  1.00  0.00    -0.383 OA
ENDROOT
BRANCH   4   9
HETATM    9  C12 UNL     1      -1.438   2.790   1.076  1.00  0.00     0.071 C 
HETATM   10  C13 UNL     1      -2.543   2.212   0.567  1.00  0.00    -0.010 C 
BRANCH  10  11
HETATM   11  C14 UNL     1      -3.078   0.753   0.449  1.00  0.00    -0.011 C 
HETATM   12  C15 UNL     1      -3.716   0.686   1.885  1.00  0.00     0.021 C 
HETATM   13  C16 UNL     1      -4.025   0.668  -1.053  1.00  0.00    -0.028 C 
HETATM   14  C17 UNL     1      -4.257  -0.465  -2.299  1.00  0.00     0.011 C 
HETATM   15  C21 UNL     1      -4.793  -0.488  -0.270  1.00  0.00     0.020 C 
HETATM   16  C25 UNL     1      -2.542   0.875  -1.781  1.00  0.00     0.011 C 
HETATM   17  C18 UNL     1      -3.770  -1.827  -1.774  1.00  0.00     0.011 C 
HETATM   18  C19 UNL     1      -3.654  -1.511  -0.282  1.00  0.00    -0.035 C 
HETATM   19  C20 UNL     1      -3.931  -2.741   0.573  1.00  0.00     0.016 C 
HETATM   20  C22 UNL     1      -2.360  -0.596   0.094  1.00  0.00    -0.025 C 
HETATM   21  C23 UNL     1      -1.432  -1.300   1.075  1.00  0.00     0.017 C 
HETATM   22  C24 UNL     1      -1.573  -0.116  -1.132  1.00  0.00     0.012 C 
ENDBRANCH  10  11
ENDBRANCH   4   9
BRANCH   1  23
HETATM   23  C8  UNL     1       2.686   1.499  -1.739  1.00  0.00     0.060 C 
BRANCH  23  24
HETATM   24  C7  UNL     1       4.170   1.432  -1.415  1.00  0.00     0.181 C 
BRANCH  24  25
HETATM   25  O2  UNL     1       4.876   0.637  -2.384  1.00  0.00    -0.321 OA
BRANCH  25  26
HETATM   26  C6  UNL     1       5.370  -0.569  -1.994  1.00  0.00     0.258 C 
HETATM   27  O1  UNL     1       6.550  -0.863  -2.137  1.00  0.00    -0.265 OA
BRANCH  26  28
HETATM   28  C5  UNL     1       4.332  -1.560  -1.518  1.00  0.00     0.111 C 
BRANCH  28  29
HETATM   29  C4  UNL     1       4.330  -1.798  -0.010  1.00  0.00     0.010 C 
BRANCH  29  30
HETATM   30  C3  UNL     1       3.134  -2.676   0.377  1.00  0.00     0.000 C 
BRANCH  30  31
HETATM   31  C2  UNL     1       3.101  -3.005   1.867  1.00  0.00    -0.005 C 
HETATM   32  C1  UNL     1       1.956  -3.951   2.203  1.00  0.00     0.005 C 
ENDBRANCH  30  31
ENDBRANCH  29  30
ENDBRANCH  28  29
ENDBRANCH  26  28
ENDBRANCH  25  26
ENDBRANCH  24  25
ENDBRANCH  23  24
ENDBRANCH   1  23
TORSDOF 10
