REMARK  9 active torsions:
REMARK  status: ('A' for Active; 'I' for Inactive)
REMARK    1  A    between atoms: O1_2  and  C2_3 
REMARK    2  A    between atoms: C6_7  and  O2_8 
REMARK    3  A    between atoms: O2_8  and  C7_9 
REMARK    4  A    between atoms: C7_9  and  C8_10 
REMARK    5  A    between atoms: C8_10  and  N1_11 
REMARK    6  A    between atoms: N1_11  and  C11_14 
REMARK    7  A    between atoms: C11_14  and  C12_15 
REMARK    8  A    between atoms: C12_15  and  O3_16 
REMARK    9  A    between atoms: O3_16  and  C13_17 
ROOT
HETATM    1  C13 UNL     1      -0.204   1.853  -0.174  1.00  0.00     0.060 C 
HETATM    2  C14 UNL     1       0.832   0.925  -0.115  1.00  0.00     0.040 C 
HETATM    3  C15 UNL     1       2.089   1.320  -0.589  1.00  0.00    -0.051 C 
HETATM    4  C16 UNL     1       2.117   2.354  -1.540  1.00  0.00     0.005 C 
HETATM    5  C17 UNL     1       1.057   3.280  -1.527  1.00  0.00    -0.009 C 
HETATM    6  C18 UNL     1       0.160   3.184  -0.445  1.00  0.00     0.115 C 
HETATM    7  C19 UNL     1       0.665   3.919   0.822  1.00  0.00     0.023 C 
HETATM    8  C20 UNL     1      -0.014   3.858   2.027  1.00  0.00     0.026 C 
HETATM    9  C21 UNL     1       0.702   3.402   3.140  1.00  0.00     0.004 C 
HETATM   10  C22 UNL     1       2.006   2.915   2.968  1.00  0.00     0.025 C 
HETATM   11  C23 UNL     1       2.612   3.103   1.740  1.00  0.00     0.013 C 
HETATM   12  N2  UNL     1       2.019   3.903   0.835  1.00  0.00    -0.362 N 
ATOM     13  H2  UNL     1       2.565   4.472   0.188  1.00  0.00     0.165 HD
HETATM   14  C24 UNL     1       3.786   2.294   1.177  1.00  0.00     0.039 C 
HETATM   15  C25 UNL     1       4.820   1.933   2.248  1.00  0.00     0.017 C 
HETATM   16  C26 UNL     1       3.362   1.038   0.244  1.00  0.00     0.024 C 
HETATM   17  C27 UNL     1       3.260  -0.278   1.031  1.00  0.00     0.016 C 
ENDROOT
BRANCH   1  18
HETATM   18  O3  UNL     1      -1.363   1.525   0.476  1.00  0.00    -0.353 OA
BRANCH  18  19
HETATM   19  C12 UNL     1      -2.501   1.695  -0.367  1.00  0.00     0.203 C 
BRANCH  19  20
HETATM   20  C11 UNL     1      -3.222   0.352  -0.585  1.00  0.00     0.263 C 
BRANCH  20  21
HETATM   21  N1  UNL     1      -3.709  -0.394   0.703  1.00  0.00    -0.071 N 
HETATM   22  C9  UNL     1      -4.771  -1.410   0.276  1.00  0.00     0.272 C 
HETATM   23  C10 UNL     1      -4.376   0.592   1.662  1.00  0.00     0.272 C 
BRANCH  21  24
HETATM   24  C8  UNL     1      -2.565  -1.114   1.491  1.00  0.00     0.263 C 
BRANCH  24  25
HETATM   25  C7  UNL     1      -1.979  -2.376   0.830  1.00  0.00     0.203 C 
BRANCH  25  26
HETATM   26  O2  UNL     1      -1.318  -2.017  -0.375  1.00  0.00    -0.349 OA
BRANCH  26  27
HETATM   27  C6  UNL     1      -0.730  -3.020  -1.090  1.00  0.00     0.071 A 
HETATM   28  C5  UNL     1      -1.085  -4.369  -1.053  1.00  0.00     0.037 A 
HETATM   29  C4  UNL     1      -0.412  -5.292  -1.862  1.00  0.00     0.005 A 
HETATM   30  C3  UNL     1       0.611  -4.868  -2.709  1.00  0.00     0.037 A 
HETATM   31  C2  UNL     1       0.936  -3.520  -2.769  1.00  0.00     0.070 A 
HETATM   32  C28 UNL     1       0.282  -2.598  -1.955  1.00  0.00     0.073 A 
BRANCH  31  33
HETATM   33  O1  UNL     1       1.952  -3.121  -3.592  1.00  0.00    -0.356 OA
HETATM   34  C1  UNL     1       1.423  -2.492  -4.760  1.00  0.00     0.210 C 
ENDBRANCH  31  33
ENDBRANCH  26  27
ENDBRANCH  25  26
ENDBRANCH  24  25
ENDBRANCH  21  24
ENDBRANCH  20  21
ENDBRANCH  19  20
ENDBRANCH  18  19
ENDBRANCH   1  18
TORSDOF 9
