REMARK  1 active torsions:
REMARK  status: ('A' for Active; 'I' for Inactive)
REMARK    1  A    between atoms: C8_11  and  N2_12 
ROOT
HETATM    1  C1  UNL     1      -5.240  -2.339  -2.047  1.00  0.00     0.054 C 
HETATM    2  C2  UNL     1      -3.956  -2.656  -1.337  1.00  0.00     0.011 C 
HETATM    3  C3  UNL     1      -3.679  -2.251  -0.078  1.00  0.00     0.005 C 
HETATM    4  C4  UNL     1      -2.290  -2.474   0.343  1.00  0.00     0.139 C 
HETATM    5  C5  UNL     1      -1.426  -2.995  -0.562  1.00  0.00     0.150 C 
HETATM    6  O1  UNL     1      -1.624  -3.573  -1.681  1.00  0.00    -0.260 OA
HETATM    7  C6  UNL     1      -2.929  -3.420  -2.164  1.00  0.00     0.295 C 
HETATM    8  O2  UNL     1      -3.239  -3.885  -3.260  1.00  0.00    -0.259 OA
HETATM    9  N1  UNL     1      -0.391  -2.304  -0.011  1.00  0.00    -0.278 N 
HETATM   10  C7  UNL     1      -1.259  -1.596   0.783  1.00  0.00     0.076 C 
HETATM   11  C8  UNL     1      -0.999  -0.467   1.469  1.00  0.00     0.129 C 
HETATM   12  N3  UNL     1       0.202   0.130   1.000  1.00  0.00    -0.122 NA
HETATM   13  C11 UNL     1       0.044   0.947  -0.178  1.00  0.00     0.089 C 
HETATM   14  N4  UNL     1       0.161   0.414  -1.386  1.00  0.00    -0.348 N 
ATOM     15  H4  UNL     1      -0.629   0.052  -1.920  1.00  0.00     0.167 HD
HETATM   16  C12 UNL     1       1.476   0.399  -1.853  1.00  0.00     0.046 C 
HETATM   17  C13 UNL     1       1.952  -0.499  -2.751  1.00  0.00     0.030 C 
HETATM   18  C14 UNL     1       1.869  -1.944  -2.541  1.00  0.00     0.006 C 
HETATM   19  C15 UNL     1       1.515  -2.589  -1.414  1.00  0.00     0.051 C 
HETATM   20  C16 UNL     1       0.860  -1.971  -0.225  1.00  0.00     0.132 C 
HETATM   21  N5  UNL     1       1.375  -0.940   0.497  1.00  0.00    -0.251 N 
HETATM   22  C17 UNL     1       2.588  -0.249   0.195  1.00  0.00     0.041 C 
HETATM   23  C18 UNL     1       3.550  -0.183   1.352  1.00  0.00     0.071 C 
HETATM   24  C19 UNL     1       2.487   0.688  -0.802  1.00  0.00     0.025 C 
HETATM   25  C20 UNL     1       2.744   2.120  -0.512  1.00  0.00    -0.015 A 
HETATM   26  C21 UNL     1       3.991   2.704  -0.745  1.00  0.00     0.013 A 
HETATM   27  C22 UNL     1       4.171   4.072  -0.549  1.00  0.00     0.001 A 
HETATM   28  C23 UNL     1       3.120   4.862  -0.090  1.00  0.00     0.001 A 
HETATM   29  C24 UNL     1       1.866   4.298   0.138  1.00  0.00     0.008 A 
HETATM   30  C25 UNL     1       1.648   2.931  -0.094  1.00  0.00    -0.040 A 
HETATM   31  C26 UNL     1       0.202   2.450  -0.025  1.00  0.00     0.112 C 
ENDROOT
BRANCH  11  32
HETATM   32  N2  UNL     1      -1.866   0.132   2.401  1.00  0.00    -0.377 N 
HETATM   33  C9  UNL     1      -1.357   1.186   3.302  1.00  0.00     0.150 C 
HETATM   34  C10 UNL     1      -2.944  -0.632   3.040  1.00  0.00     0.150 C 
ENDBRANCH  11  32
TORSDOF 1
