REMARK  8 active torsions:
REMARK  status: ('A' for Active; 'I' for Inactive)
REMARK    1  A    between atoms: N1_2  and  C2_5 
REMARK    2  A    between atoms: C2_5  and  C3_6 
REMARK    3  A    between atoms: C3_6  and  O1_7 
REMARK    4  A    between atoms: C4_9  and  C5_10 
REMARK    5  A    between atoms: C5_10  and  C7_12 
REMARK    6  A    between atoms: C7_12  and  C8_14 
REMARK    7  A    between atoms: C8_14  and  C10_16 
REMARK    8  A    between atoms: C23_30  and  O4_31 
ROOT
HETATM    1  C10 UNL     1       0.136  -0.987  -1.371  1.00  0.00    -0.035 C 
HETATM    2  C11 UNL     1       1.176  -0.388  -1.980  1.00  0.00    -0.012 C 
HETATM    3  C12 UNL     1       2.455  -1.067  -1.532  1.00  0.00     0.053 C 
HETATM    4  C13 UNL     1       2.039  -2.370  -0.889  1.00  0.00     0.171 A 
HETATM    5  O3  UNL     1       0.934  -3.252  -1.145  1.00  0.00    -0.363 OA
HETATM    6  C14 UNL     1       0.627  -2.055  -0.467  1.00  0.00     0.116 A 
HETATM    7  C15 UNL     1       0.549  -1.968   1.040  1.00  0.00     0.080 C 
HETATM    8  C16 UNL     1       1.275  -0.760   1.749  1.00  0.00    -0.070 C 
HETATM    9  C17 UNL     1       1.144   0.604   1.030  1.00  0.00     0.045 C 
HETATM   10  C18 UNL     1       2.542   0.953   0.504  1.00  0.00    -0.023 C 
HETATM   11  C19 UNL     1       3.322   1.415   1.778  1.00  0.00     0.038 C 
HETATM   12  C20 UNL     1       3.382   0.226   2.724  1.00  0.00    -0.019 C 
HETATM   13  C21 UNL     1       2.742  -0.890   2.292  1.00  0.00    -0.057 C 
HETATM   14  C22 UNL     1       3.728  -1.793   1.577  1.00  0.00     0.071 C 
HETATM   15  C23 UNL     1       4.321  -1.042   0.306  1.00  0.00     0.132 C 
HETATM   16  C24 UNL     1       3.252  -0.179  -0.489  1.00  0.00     0.004 C 
HETATM   17  C25 UNL     1       3.873   1.071  -1.211  1.00  0.00     0.014 C 
HETATM   18  C26 UNL     1       2.741   1.967  -0.648  1.00  0.00     0.012 C 
ENDROOT
BRANCH   1  19
HETATM   19  C8  UNL     1      -1.296  -0.896  -1.847  1.00  0.00     0.083 C 
HETATM   20  C9  UNL     1      -1.417  -1.513  -3.253  1.00  0.00     0.023 C 
BRANCH  19  21
HETATM   21  C7  UNL     1      -2.313  -1.603  -0.922  1.00  0.00     0.142 C 
HETATM   22  O2  UNL     1      -2.693  -2.765  -1.127  1.00  0.00    -0.297 OA
BRANCH  21  23
HETATM   23  C5  UNL     1      -2.847  -0.807   0.267  1.00  0.00     0.077 C 
HETATM   24  C6  UNL     1      -3.360  -1.721   1.387  1.00  0.00     0.022 C 
BRANCH  23  25
HETATM   25  C4  UNL     1      -3.980   0.076  -0.177  1.00  0.00     0.019 C 
HETATM   26  C3  UNL     1      -3.901   1.405  -0.319  1.00  0.00     0.066 C 
BRANCH  26  27
HETATM   27  C2  UNL     1      -5.119   2.274  -0.546  1.00  0.00     0.295 C 
BRANCH  27  28
HETATM   28  N1  UNL     1      -5.574   2.892   0.702  1.00  0.00    -0.073 N 
HETATM   29  C1  UNL     1      -4.864   4.110   1.063  1.00  0.00     0.267 C 
ATOM     30  H12 UNL     1      -5.537   2.218   1.467  1.00  0.00     0.277 HD
ATOM     31  H11 UNL     1      -6.579   3.063   0.669  1.00  0.00     0.277 HD
ENDBRANCH  27  28
ENDBRANCH  26  27
BRANCH  26  32
HETATM   32  O1  UNL     1      -2.674   2.033  -0.243  1.00  0.00    -0.364 OA
ATOM     33  H1  UNL     1      -1.909   1.487  -0.101  1.00  0.00     0.217 HD
ENDBRANCH  26  32
ENDBRANCH  23  25
ENDBRANCH  21  23
ENDBRANCH  19  21
ENDBRANCH   1  19
BRANCH  15  34
HETATM   34  O4  UNL     1       5.040  -1.894  -0.593  1.00  0.00    -0.394 OA
ATOM     35  H4  UNL     1       5.394  -1.446  -1.352  1.00  0.00     0.210 HD
ENDBRANCH  15  34
TORSDOF 8
