REMARK  7 active torsions:
REMARK  status: ('A' for Active; 'I' for Inactive)
REMARK    1  A    between atoms: C2_2  and  C4_4 
REMARK    2  A    between atoms: C4_4  and  N1_5 
REMARK    3  A    between atoms: C4_4  and  C21_31 
REMARK       I    between atoms: N1_5  and  C5_7 
REMARK    4  A    between atoms: C5_7  and  C6_9 
REMARK       I    between atoms: N2_10  and  C7_11 
REMARK    5  A    between atoms: C7_11  and  C8_13 
REMARK    6  A    between atoms: C8_13  and  N3_14 
REMARK    7  A    between atoms: C8_13  and  C9_18 
ROOT
HETATM    1  C6  UNL     1       0.446   2.063  -0.206  1.00  0.00     0.233 C 
HETATM    2  N2  UNL     1      -0.660   1.214  -0.702  1.00  0.00    -0.323 N 
HETATM    3  C7  UNL     1      -0.321   0.150  -1.523  1.00  0.00     0.252 C 
HETATM    4  O2  UNL     1       0.815   0.067  -2.001  1.00  0.00    -0.271 OA
HETATM    5  C15 UNL     1      -1.998   1.890  -0.611  1.00  0.00     0.106 C 
HETATM    6  C16 UNL     1      -1.659   3.381  -0.907  1.00  0.00     0.092 C 
HETATM    7  S1  UNL     1      -0.492   3.440   0.399  1.00  0.00    -0.185 SA
HETATM    8  C17 UNL     1      -1.572   2.847   1.685  1.00  0.00     0.076 C 
HETATM    9  C18 UNL     1      -2.537   1.899   0.887  1.00  0.00    -0.018 C 
HETATM   10  C19 UNL     1      -3.983   2.439   0.920  1.00  0.00     0.018 C 
HETATM   11  C20 UNL     1      -2.571   0.506   1.523  1.00  0.00     0.018 C 
ENDROOT
BRANCH   1  12
HETATM   12  C5  UNL     1       1.308   1.320   0.819  1.00  0.00     0.250 C 
HETATM   13  N1  UNL     1       2.570   1.863   1.008  1.00  0.00    -0.344 N 
ATOM     14  H1  UNL     1       2.714   2.872   0.974  1.00  0.00     0.163 HD
HETATM   15  O1  UNL     1       0.955   0.283   1.375  1.00  0.00    -0.270 OA
BRANCH  13  16
HETATM   16  C4  UNL     1       3.701   0.945   1.260  1.00  0.00     0.189 C 
BRANCH  16  17
HETATM   17  C2  UNL     1       4.047   0.133  -0.022  1.00  0.00     0.010 C 
HETATM   18  C1  UNL     1       4.203   1.054  -1.247  1.00  0.00     0.012 C 
HETATM   19  C3  UNL     1       5.344  -0.680   0.103  1.00  0.00     0.012 C 
ENDBRANCH  16  17
BRANCH  16  20
HETATM   20  C21 UNL     1       3.553   0.101   2.555  1.00  0.00     0.197 C 
HETATM   21  O3  UNL     1       4.117  -0.951   2.812  1.00  0.00    -0.646 OA
HETATM   22  O4  UNL     1       2.839   0.714   3.527  1.00  0.00    -0.646 OA
ENDBRANCH  16  20
ENDBRANCH  13  16
ENDBRANCH   1  12
BRANCH   3  23
HETATM   23  C8  UNL     1      -1.404  -0.924  -1.777  1.00  0.00     0.278 C 
BRANCH  23  24
HETATM   24  N3  UNL     1      -2.044  -0.636  -3.082  1.00  0.00    -0.066 N 
ATOM     25  H33 UNL     1      -2.411   0.314  -3.139  1.00  0.00     0.275 HD
ATOM     26  H32 UNL     1      -1.370  -0.569  -3.845  1.00  0.00     0.275 HD
ATOM     27  H31 UNL     1      -2.758  -1.344  -3.250  1.00  0.00     0.275 HD
ENDBRANCH  23  24
BRANCH  23  28
HETATM   28  C9  UNL     1      -0.790  -2.358  -1.779  1.00  0.00     0.025 C 
HETATM   29  C10 UNL     1      -1.854  -3.474  -1.912  1.00  0.00     0.007 C 
HETATM   30  C11 UNL     1      -2.638  -3.710  -0.620  1.00  0.00     0.000 C 
HETATM   31  C12 UNL     1      -1.702  -4.036   0.537  1.00  0.00     0.000 C 
HETATM   32  C13 UNL     1      -0.676  -2.929   0.731  1.00  0.00     0.000 C 
HETATM   33  C14 UNL     1       0.102  -2.668  -0.554  1.00  0.00     0.007 C 
ENDBRANCH  23  28
ENDBRANCH   3  23
TORSDOF 7
