REMARK  3 active torsions:
REMARK  status: ('A' for Active; 'I' for Inactive)
REMARK       I    between atoms: C1_2  and  N1_3 
REMARK    1  A    between atoms: C1_2  and  C12_21 
REMARK    2  A    between atoms: N1_3  and  C2_5 
REMARK    3  A    between atoms: C2_5  and  C11_20 
ROOT
HETATM    1  C2  UNL     1      -0.236   0.085   0.750  1.00  0.00     0.068 C 
HETATM    2  C3  UNL     1      -0.244   1.403   1.538  1.00  0.00     0.039 C 
HETATM    3  C4  UNL     1      -1.653   1.907   1.200  1.00  0.00     0.002 C 
HETATM    4  C5  UNL     1      -2.156   2.027  -0.364  1.00  0.00     0.034 C 
HETATM    5  C6  UNL     1      -1.418   1.350  -1.624  1.00  0.00     0.201 C 
HETATM    6  N2  UNL     1      -2.288   0.175  -2.172  1.00  0.00    -0.040 N 
ATOM      7  H21 UNL     1      -1.791  -0.457  -2.800  1.00  0.00     0.280 HD
ATOM      8  H22 UNL     1      -3.001   0.460  -2.844  1.00  0.00     0.280 HD
HETATM    9  C7  UNL     1      -2.818  -0.467  -0.970  1.00  0.00     0.393 C 
HETATM   10  N3  UNL     1      -2.107  -1.514  -0.187  1.00  0.00    -0.038 N 
ATOM     11  H31 UNL     1      -1.396  -2.022  -0.713  1.00  0.00     0.280 HD
ATOM     12  H32 UNL     1      -2.677  -2.328   0.041  1.00  0.00     0.280 HD
HETATM   13  C8  UNL     1      -1.544  -0.723   1.091  1.00  0.00     0.222 C 
HETATM   14  C9  UNL     1      -2.391   0.527   1.293  1.00  0.00     0.037 C 
HETATM   15  C10 UNL     1      -2.259   0.564  -0.159  1.00  0.00     0.034 C 
HETATM   16  C11 UNL     1      -0.586   0.511  -0.652  1.00  0.00     0.060 C 
ENDROOT
BRANCH   1  17
HETATM   17  N1  UNL     1       0.956  -0.733   0.755  1.00  0.00    -0.349 N 
HETATM   18  C1  UNL     1       2.216  -0.233   0.536  1.00  0.00     0.222 C 
HETATM   19  O1  UNL     1       2.524   0.950   0.530  1.00  0.00    -0.273 OA
ATOM     20  H1  UNL     1       0.856  -1.733   0.930  1.00  0.00     0.163 HD
BRANCH  18  21
HETATM   21  C12 UNL     1       3.220  -1.286   0.217  1.00  0.00     0.078 A 
HETATM   22  C13 UNL     1       3.744  -1.358  -1.200  1.00  0.00     0.015 A 
HETATM   23  C14 UNL     1       4.660  -0.946  -0.085  1.00  0.00     0.015 A 
ENDBRANCH  18  21
ENDBRANCH   1  17
TORSDOF 3
