REMARK  4 active torsions:
REMARK  status: ('A' for Active; 'I' for Inactive)
REMARK    1  A    between atoms: C2_2  and  N1_4 
REMARK       I    between atoms: N1_4  and  C4_6 
REMARK       I    between atoms: C4_6  and  N2_8 
REMARK    2  A    between atoms: N2_8  and  C5_10 
REMARK    3  A    between atoms: C9_14  and  N3_16 
REMARK    4  A    between atoms: C11_20  and  C12_21 
ROOT
HETATM    1  C5  UNL     1       0.518  -1.131  -0.355  1.00  0.00     0.045 C 
HETATM    2  C6  UNL     1       1.840  -1.898  -0.037  1.00  0.00     0.042 C 
HETATM    3  C7  UNL     1       2.567  -0.397  -0.089  1.00  0.00    -0.025 C 
HETATM    4  C8  UNL     1       2.856   1.120  -0.240  1.00  0.00     0.050 C 
HETATM    5  C9  UNL     1       1.815   1.843   0.703  1.00  0.00     0.138 C 
HETATM    6  C10 UNL     1       2.585   2.844   1.602  1.00  0.00     0.047 C 
HETATM    7  C11 UNL     1       1.179   0.649   1.493  1.00  0.00     0.084 C 
HETATM    8  C13 UNL     1       2.377  -0.283   1.489  1.00  0.00     0.033 C 
HETATM    9  C14 UNL     1       0.027  -0.189   0.798  1.00  0.00     0.055 C 
HETATM   10  C15 UNL     1       1.437  -0.412  -1.317  1.00  0.00    -0.007 C 
HETATM   11  C16 UNL     1       1.927  -1.079  -2.621  1.00  0.00     0.013 C 
HETATM   12  C17 UNL     1       0.910  -0.225  -3.392  1.00  0.00     0.002 C 
HETATM   13  C18 UNL     1       0.776   0.683  -2.154  1.00  0.00     0.013 C 
ENDROOT
BRANCH   1  14
HETATM   14  N2  UNL     1      -0.519  -2.010  -0.983  1.00  0.00    -0.333 N 
HETATM   15  C4  UNL     1      -1.846  -1.734  -1.170  1.00  0.00     0.317 C 
HETATM   16  N1  UNL     1      -2.504  -1.274  -0.074  1.00  0.00    -0.339 N 
HETATM   17  O1  UNL     1      -2.365  -1.947  -2.259  1.00  0.00    -0.247 OA
ATOM     18  H1  UNL     1      -2.004  -1.234   0.814  1.00  0.00     0.164 HD
ATOM     19  H2  UNL     1      -0.198  -2.922  -1.310  1.00  0.00     0.165 HD
BRANCH  16  20
HETATM   20  C2  UNL     1      -3.892  -0.836  -0.112  1.00  0.00     0.078 C 
HETATM   21  C1  UNL     1      -4.864  -1.994  -0.325  1.00  0.00     0.032 C 
HETATM   22  C3  UNL     1      -4.225  -0.091   1.179  1.00  0.00     0.032 C 
ENDBRANCH  16  20
ENDBRANCH   1  14
BRANCH   7  23
HETATM   23  C12 UNL     1       0.751   1.010   2.900  1.00  0.00     0.184 C 
HETATM   24  O2  UNL     1       1.282   0.651   3.939  1.00  0.00    -0.647 OA
HETATM   25  O3  UNL     1      -0.324   1.819   2.937  1.00  0.00    -0.647 OA
ENDBRANCH   7  23
BRANCH   5  26
HETATM   26  N3  UNL     1       0.827   2.643  -0.017  1.00  0.00    -0.069 N 
ATOM     27  H33 UNL     1       1.287   3.317  -0.629  1.00  0.00     0.275 HD
ATOM     28  H32 UNL     1       0.346   2.077  -0.717  1.00  0.00     0.275 HD
ATOM     29  H31 UNL     1       0.155   3.110   0.592  1.00  0.00     0.275 HD
ENDBRANCH   5  26
TORSDOF 4
