REMARK  0 active torsions:
REMARK  status: ('A' for Active; 'I' for Inactive)
REMARK       I    between atoms: N1_13  and  C13_14 
REMARK       I    between atoms: C13_14  and  N2_15 
ROOT
HETATM    1  C1  UNL     1       1.787  -2.421   1.825  1.00  0.00     0.011 C 
HETATM    2  C2  UNL     1       0.761  -1.786   0.897  1.00  0.00    -0.002 C 
HETATM    3  C3  UNL     1      -0.266  -0.556   1.441  1.00  0.00     0.019 C 
HETATM    4  C4  UNL     1      -1.213   0.390   0.571  1.00  0.00     0.111 C 
HETATM    5  C5  UNL     1      -0.287   1.376  -0.289  1.00  0.00     0.019 C 
HETATM    6  C6  UNL     1       0.723   1.717   0.783  1.00  0.00    -0.003 C 
HETATM    7  C7  UNL     1       2.021   2.309   0.238  1.00  0.00     0.006 C 
HETATM    8  C8  UNL     1       2.904   1.228  -0.407  1.00  0.00     0.006 C 
HETATM    9  C9  UNL     1       2.039   0.089  -0.960  1.00  0.00     0.000 C 
HETATM   10  C10 UNL     1       0.546   0.645  -1.415  1.00  0.00     0.003 C 
HETATM   11  C11 UNL     1       0.156  -0.811  -1.278  1.00  0.00     0.019 C 
HETATM   12  C12 UNL     1      -1.358  -1.101  -1.310  1.00  0.00     0.147 C 
HETATM   13  N1  UNL     1      -2.102  -0.370  -0.285  1.00  0.00    -0.213 N 
HETATM   14  C13 UNL     1      -3.308   0.189  -0.616  1.00  0.00     0.667 C 
HETATM   15  N2  UNL     1      -3.561   1.454  -0.576  1.00  0.00    -0.235 N 
ATOM     16  H21 UNL     1      -4.459   1.870  -0.822  1.00  0.00     0.174 HD
ATOM     17  H22 UNL     1      -2.855   2.142  -0.313  1.00  0.00     0.174 HD
HETATM   18  N3  UNL     1      -4.246  -0.725  -0.966  1.00  0.00    -0.235 N 
ATOM     19  H31 UNL     1      -5.144  -0.309  -1.212  1.00  0.00     0.174 HD
ATOM     20  H32 UNL     1      -4.046  -1.725  -0.998  1.00  0.00     0.174 HD
HETATM   21  C14 UNL     1       1.183  -0.696  -0.013  1.00  0.00    -0.023 C 
HETATM   22  C15 UNL     1       0.971   0.289   1.238  1.00  0.00     0.006 C 
ENDROOT
TORSDOF 0
