REMARK  1 active torsions:
REMARK  status: ('A' for Active; 'I' for Inactive)
REMARK    1  A    between atoms: C11_14  and  O1_15 
ROOT
HETATM    1  C1  UNL     1       1.516   2.412   1.607  1.00  0.00     0.032 C 
HETATM    2  C2  UNL     1       1.710   1.411   0.468  1.00  0.00     0.080 C 
HETATM    3  N1  UNL     1       2.337   0.063   1.168  1.00  0.00    -0.412 N 
ATOM      4  H1  UNL     1       2.773   0.081   2.090  1.00  0.00     0.154 HD
HETATM    5  C3  UNL     1       2.223  -1.221   0.343  1.00  0.00     0.082 C 
HETATM    6  C4  UNL     1       1.238  -2.421   0.472  1.00  0.00     0.030 C 
HETATM    7  C5  UNL     1       0.064  -2.193  -0.606  1.00  0.00     0.000 C 
HETATM    8  C6  UNL     1      -0.981  -1.244  -0.129  1.00  0.00     0.004 C 
HETATM    9  C7  UNL     1      -2.250  -1.274   0.682  1.00  0.00     0.072 C 
HETATM   10  S1  UNL     1      -3.602  -0.129  -0.253  1.00  0.00    -0.200 SA
HETATM   11  C8  UNL     1      -3.429   1.258   0.902  1.00  0.00     0.083 C 
HETATM   12  C9  UNL     1      -2.576   0.520  -1.455  1.00  0.00     0.033 C 
HETATM   13  C10 UNL     1      -1.505   0.667  -1.995  1.00  0.00     0.017 C 
HETATM   14  C11 UNL     1      -0.013   0.533  -1.844  1.00  0.00     0.086 C 
HETATM   15  C12 UNL     1       0.247   1.175  -0.343  1.00  0.00     0.051 C 
HETATM   16  C13 UNL     1       0.034  -0.145   0.248  1.00  0.00     0.006 C 
HETATM   17  C14 UNL     1       1.411  -0.584  -0.658  1.00  0.00     0.021 C 
HETATM   18  C15 UNL     1       0.588  -1.132  -1.712  1.00  0.00     0.035 C 
ENDROOT
BRANCH  14  19
HETATM   19  O1  UNL     1       0.667   1.259  -2.848  1.00  0.00    -0.385 OA
ATOM     20  H1  UNL     1       1.608   1.174  -2.753  1.00  0.00     0.211 HD
ENDBRANCH  14  19
TORSDOF 1
