REMARK  20 active torsions:
REMARK  status: ('A' for Active; 'I' for Inactive)
REMARK    1  A    between atoms: N1_2  and  C2_3 
REMARK    2  A    between atoms: N1_2  and  C17_37 
REMARK    3  A    between atoms: C2_3  and  C3_4 
REMARK    4  A    between atoms: C2_3  and  C8_17 
REMARK    5  A    between atoms: C3_4  and  S1_5 
REMARK    6  A    between atoms: S1_5  and  C4_6 
REMARK    7  A    between atoms: C4_6  and  C5_7 
REMARK    8  A    between atoms: C5_7  and  N2_8 
REMARK    9  A    between atoms: C5_7  and  C7_12 
REMARK   10  A    between atoms: C7_12  and  O1_13 
REMARK   11  A    between atoms: C7_12  and  O2_15 
REMARK   12  A    between atoms: C8_17  and  C9_18 
REMARK   13  A    between atoms: C9_18  and  O3_19 
REMARK   14  A    between atoms: C9_18  and  C10_21 
REMARK   15  A    between atoms: C10_21  and  O4_22 
REMARK   16  A    between atoms: C14_30  and  N6_31 
REMARK   17  A    between atoms: C17_37  and  C18_38 
REMARK   18  A    between atoms: C17_37  and  C19_41 
REMARK   19  A    between atoms: C18_38  and  O6_39 
REMARK   20  A    between atoms: C21_47  and  N9_48 
ROOT
HETATM    1  N2  UNL     1       0.189  -3.469  -1.793  1.00  0.00    -0.319 N 
ATOM      2  H2  UNL     1       0.362  -2.533  -1.426  1.00  0.00     0.172 HD
HETATM    3  C6  UNL     1       0.412  -3.721  -3.089  1.00  0.00     0.177 C 
HETATM    4  N3  UNL     1       0.579  -3.971  -4.205  1.00  0.00    -0.172 NA
ENDROOT
BRANCH   1   5
HETATM    5  C5  UNL     1      -0.315  -4.551  -0.867  1.00  0.00     0.156 C 
BRANCH   5   6
HETATM    6  C4  UNL     1       0.321  -4.382   0.531  1.00  0.00     0.104 C 
BRANCH   6   7
HETATM    7  S1  UNL     1      -0.141  -2.885   1.476  1.00  0.00    -0.165 SA
BRANCH   7   8
HETATM    8  C3  UNL     1       1.264  -1.796   1.008  1.00  0.00     0.109 C 
BRANCH   8   9
HETATM    9  C2  UNL     1       1.127  -0.330   1.513  1.00  0.00     0.235 C 
BRANCH   9  10
HETATM   10  N1  UNL     1       2.316   0.532   1.250  1.00  0.00     0.102 N 
HETATM   11  C1  UNL     1       3.285   0.469   2.346  1.00  0.00     0.311 C 
BRANCH  10  12
HETATM   12  C17 UNL     1       2.900   0.456  -0.112  1.00  0.00     0.297 C 
BRANCH  12  13
HETATM   13  C18 UNL     1       4.318  -0.139  -0.299  1.00  0.00     0.206 C 
BRANCH  13  14
HETATM   14  O6  UNL     1       5.326   0.676   0.291  1.00  0.00    -0.398 OA
ATOM     15  H6  UNL     1       6.196   0.311   0.176  1.00  0.00     0.209 HD
ENDBRANCH  13  14
ENDBRANCH  12  13
BRANCH  12  16
HETATM   16  C19 UNL     1       2.855   1.807  -0.811  1.00  0.00     0.079 A 
HETATM   17  C20 UNL     1       2.938   3.079   0.005  1.00  0.00     0.135 A 
HETATM   18  N7  UNL     1       2.888   4.255  -0.547  1.00  0.00    -0.296 N 
HETATM   19  N8  UNL     1       2.767   4.210  -1.903  1.00  0.00    -0.133 N 
ATOM     20  H7  UNL     1       2.935   5.125  -0.017  1.00  0.00     0.186 HD
HETATM   21  C21 UNL     1       2.749   3.079  -2.663  1.00  0.00     0.690 A 
ATOM     22  H8  UNL     1       2.682   5.101  -2.392  1.00  0.00     0.205 HD
HETATM   23  N10 UNL     1       2.758   1.836  -2.114  1.00  0.00    -0.191 N 
ATOM     24  H10 UNL     1       2.694   0.988  -2.677  1.00  0.00     0.184 HD
BRANCH  21  25
HETATM   25  N9  UNL     1       2.738   3.087  -3.949  1.00  0.00    -0.233 N 
ATOM     26  H92 UNL     1       2.731   4.020  -4.361  1.00  0.00     0.174 HD
ATOM     27  H91 UNL     1       2.725   2.240  -4.518  1.00  0.00     0.174 HD
ENDBRANCH  21  25
ENDBRANCH  12  16
ENDBRANCH  10  12
ENDBRANCH   9  10
BRANCH   9  28
HETATM   28  C8  UNL     1      -0.168   0.366   0.983  1.00  0.00     0.074 C 
BRANCH  28  29
HETATM   29  C9  UNL     1      -1.147   0.666   2.132  1.00  0.00     0.184 C 
BRANCH  29  30
HETATM   30  O3  UNL     1      -0.516   1.606   3.030  1.00  0.00    -0.390 OA
ATOM     31  H3  UNL     1      -1.120   1.791   3.739  1.00  0.00     0.210 HD
ENDBRANCH  29  30
BRANCH  29  32
HETATM   32  C10 UNL     1      -2.591   1.175   1.808  1.00  0.00     0.205 C 
HETATM   33  C11 UNL     1      -3.517   0.142   1.058  1.00  0.00     0.202 C 
HETATM   34  N4  UNL     1      -3.949   0.539  -0.279  1.00  0.00    -0.323 N 
HETATM   35  C12 UNL     1      -4.912   1.509  -0.450  1.00  0.00     0.185 C 
HETATM   36  C14 UNL     1      -3.015   0.789  -1.260  1.00  0.00     0.125 C 
HETATM   37  N5  UNL     1      -4.361   2.569  -1.000  1.00  0.00    -0.352 N 
HETATM   38  C13 UNL     1      -3.064   2.169  -1.249  1.00  0.00     0.056 C 
ATOM     39  H5  UNL     1      -4.791   3.473  -1.196  1.00  0.00     0.166 HD
HETATM   40  C15 UNL     1      -1.930   3.056  -0.909  1.00  0.00     0.087 C 
HETATM   41  C16 UNL     1      -1.807   3.241   0.625  1.00  0.00     0.177 C 
HETATM   42  O5  UNL     1      -2.743   2.551   1.458  1.00  0.00    -0.351 OA
BRANCH  32  43
HETATM   43  O4  UNL     1      -3.182   1.246   3.144  1.00  0.00    -0.362 OA
ATOM     44  H4  UNL     1      -4.059   1.555   2.947  1.00  0.00     0.213 HD
ENDBRANCH  32  43
BRANCH  36  45
HETATM   45  N6  UNL     1      -2.117  -0.136  -1.658  1.00  0.00    -0.384 N 
ATOM     46  H62 UNL     1      -2.081  -1.155  -1.666  1.00  0.00     0.157 HD
ATOM     47  H61 UNL     1      -1.425   0.049  -2.384  1.00  0.00     0.157 HD
ENDBRANCH  36  45
ENDBRANCH  29  32
ENDBRANCH  28  29
ENDBRANCH   9  28
ENDBRANCH   8   9
ENDBRANCH   7   8
ENDBRANCH   6   7
ENDBRANCH   5   6
BRANCH   5  48
HETATM   48  C7  UNL     1      -1.872  -4.600  -0.932  1.00  0.00     0.277 C 
BRANCH  48  49
HETATM   49  O1  UNL     1      -2.480  -5.113   0.228  1.00  0.00    -0.369 OA
ATOM     50  H1  UNL     1      -3.429  -5.143   0.188  1.00  0.00     0.212 HD
ENDBRANCH  48  49
BRANCH  48  51
HETATM   51  O2  UNL     1      -2.435  -3.310  -1.163  1.00  0.00    -0.369 OA
ATOM     52  H2  UNL     1      -3.384  -3.340  -1.203  1.00  0.00     0.212 HD
ENDBRANCH  48  51
ENDBRANCH   5  48
ENDBRANCH   1   5
TORSDOF 20
