REMARK  9 active torsions:
REMARK  status: ('A' for Active; 'I' for Inactive)
REMARK    1  A    between atoms: N3_8  and  C3_9 
REMARK    2  A    between atoms: C3_9  and  C4_10 
REMARK    3  A    between atoms: C4_10  and  O1_11 
REMARK    4  A    between atoms: O1_11  and  C5_12 
REMARK    5  A    between atoms: C5_12  and  C6_14 
REMARK    6  A    between atoms: C6_14  and  N4_15 
REMARK    7  A    between atoms: C7_19  and  C8_20 
REMARK    8  A    between atoms: C11_29  and  N9_30 
REMARK    9  A    between atoms: N9_30  and  N10_32 
ROOT
HETATM    1  N1  UNL     1       3.746  -1.763   1.524  1.00  0.00    -0.234 N 
ATOM      2  H11 UNL     1       4.549  -1.183   1.769  1.00  0.00     0.174 HD
ATOM      3  H12 UNL     1       3.370  -2.549   2.055  1.00  0.00     0.174 HD
HETATM    4  C1  UNL     1       3.159  -1.389   0.442  1.00  0.00     0.687 C 
HETATM    5  N2  UNL     1       2.077  -2.171   0.112  1.00  0.00    -0.021 N 
ATOM      6  H2  UNL     1       2.025  -3.163   0.345  1.00  0.00     0.203 HD
HETATM    7  C2  UNL     1       1.127  -1.550  -0.519  1.00  0.00     0.724 C 
HETATM    8  N3  UNL     1       0.738  -2.156  -1.699  1.00  0.00    -0.106 N 
HETATM    9  N7  UNL     1       0.984  -1.449  -2.875  1.00  0.00    -0.225 N 
ATOM     10  H7  UNL     1       0.621  -1.763  -3.775  1.00  0.00     0.209 HD
HETATM   11  N8  UNL     1       1.688  -0.388  -2.768  1.00  0.00    -0.271 N 
ATOM     12  H8  UNL     1       2.224  -0.037  -3.562  1.00  0.00     0.190 HD
HETATM   13  C9  UNL     1       1.710   0.284  -1.539  1.00  0.00     0.152 C 
HETATM   14  C10 UNL     1       2.888   0.684  -0.959  1.00  0.00     0.223 C 
HETATM   15  C11 UNL     1       2.664   1.858  -0.053  1.00  0.00     0.084 C 
HETATM   16  C12 UNL     1       1.631   1.801   0.829  1.00  0.00     0.117 C 
HETATM   17  N11 UNL     1       1.440   2.676   1.892  1.00  0.00    -0.096 NA
HETATM   18  C13 UNL     1       0.673   0.623   0.605  1.00  0.00     0.150 C 
HETATM   19  N12 UNL     1      -0.334   0.411   1.410  1.00  0.00    -0.383 N 
ATOM     20 1H12 UNL     1      -0.971  -0.372   1.261  1.00  0.00     0.157 HD
ATOM     21 2H12 UNL     1      -0.473   1.002   2.230  1.00  0.00     0.157 HD
HETATM   22  N13 UNL     1       0.864  -0.187  -0.518  1.00  0.00    -0.114 N 
HETATM   23  N14 UNL     1       3.673  -0.314  -0.285  1.00  0.00    -0.209 N 
ATOM     24  H14 UNL     1       4.688  -0.230  -0.343  1.00  0.00     0.179 HD
ENDROOT
BRANCH   8  25
HETATM   25  C3  UNL     1      -0.210  -3.246  -1.693  1.00  0.00     0.196 C 
BRANCH  25  26
HETATM   26  C4  UNL     1      -1.646  -2.764  -1.917  1.00  0.00     0.201 C 
BRANCH  26  27
HETATM   27  O1  UNL     1      -1.894  -1.591  -1.121  1.00  0.00    -0.319 OA
BRANCH  27  28
HETATM   28  C5  UNL     1      -3.147  -1.067  -1.235  1.00  0.00     0.273 C 
HETATM   29  O2  UNL     1      -4.089  -1.641  -1.769  1.00  0.00    -0.264 OA
BRANCH  28  30
HETATM   30  C6  UNL     1      -3.171   0.360  -0.724  1.00  0.00     0.230 C 
BRANCH  30  31
HETATM   31  N4  UNL     1      -4.145   0.562   0.341  1.00  0.00    -0.148 NA
HETATM   32  N5  UNL     1      -4.577   1.849   0.647  1.00  0.00    -0.040 NA
HETATM   33  N6  UNL     1      -4.092   1.728   1.906  1.00  0.00    -0.271 N 
HETATM   34  C7  UNL     1      -3.757   0.501   1.653  1.00  0.00     0.191 A 
ATOM     35  H6  UNL     1      -4.020   2.345   2.715  1.00  0.00     0.185 HD
BRANCH  34  36
HETATM   36  C8  UNL     1      -3.085  -0.515   2.517  1.00  0.00     0.241 C 
HETATM   37  O3  UNL     1      -2.705  -0.319   3.656  1.00  0.00    -0.642 OA
HETATM   38  O4  UNL     1      -2.935  -1.689   1.892  1.00  0.00    -0.642 OA
ENDBRANCH  34  36
ENDBRANCH  30  31
ENDBRANCH  28  30
ENDBRANCH  27  28
ENDBRANCH  26  27
ENDBRANCH  25  26
ENDBRANCH   8  25
BRANCH  15  39
HETATM   39  N9  UNL     1       3.611   2.881  -0.087  1.00  0.00    -0.307 N 
ATOM     40  H9  UNL     1       4.610   2.675  -0.059  1.00  0.00     0.186 HD
BRANCH  39  41
HETATM   41  N10 UNL     1       3.142   4.218  -0.162  1.00  0.00    -0.345 N 
ATOM     42 2H10 UNL     1       2.140   4.408  -0.189  1.00  0.00     0.176 HD
ATOM     43 1H10 UNL     1       3.835   4.966  -0.187  1.00  0.00     0.176 HD
ENDBRANCH  39  41
ENDBRANCH  15  39
TORSDOF 9
