REMARK  19 active torsions:
REMARK  status: ('A' for Active; 'I' for Inactive)
REMARK    1  A    between atoms: C2_2  and  C3_3 
REMARK    2  A    between atoms: C3_3  and  C4_4 
REMARK    3  A    between atoms: C4_4  and  C5_5 
REMARK    4  A    between atoms: C7_7  and  C8_8 
REMARK    5  A    between atoms: C8_8  and  C9_9 
REMARK    6  A    between atoms: C9_9  and  N1_10 
REMARK    7  A    between atoms: C9_9  and  C24_29 
REMARK    8  A    between atoms: N1_10  and  C10_12 
REMARK    9  A    between atoms: C10_12  and  C11_13 
REMARK   10  A    between atoms: C10_12  and  C18_20 
REMARK   11  A    between atoms: C11_13  and  C12_14 
REMARK       I    between atoms: C18_20  and  N2_22 
REMARK   12  A    between atoms: N2_22  and  C19_24 
REMARK   13  A    between atoms: C19_24  and  C20_25 
REMARK   14  A    between atoms: C24_29  and  C25_30 
REMARK   15  A    between atoms: C24_29  and  C32_41 
REMARK   16  A    between atoms: C25_30  and  C26_31 
REMARK   17  A    between atoms: C26_31  and  O2_32 
REMARK   18  A    between atoms: C26_31  and  C27_34 
REMARK   19  A    between atoms: C27_34  and  C28_35 
ROOT
HETATM    1  C9  UNL     1      -0.461   1.339  -0.103  1.00  0.00     0.082 C 
ENDROOT
BRANCH   1   2
HETATM    2  C8  UNL     1       0.184   1.841   1.219  1.00  0.00     0.039 C 
BRANCH   2   3
HETATM    3  C7  UNL     1       1.037   0.835   2.001  1.00  0.00     0.081 C 
HETATM    4  C6  UNL     1       1.729   1.506   3.205  1.00  0.00     0.039 C 
HETATM    5  C5  UNL     1       2.960   0.642   3.473  1.00  0.00     0.085 C 
HETATM    6  N3  UNL     1       3.287   0.165   2.158  1.00  0.00    -0.356 N 
HETATM    7  C38 UNL     1       2.245   0.287   1.262  1.00  0.00     0.222 C 
ATOM      8  H3  UNL     1       4.197  -0.224   1.912  1.00  0.00     0.162 HD
HETATM    9  O5  UNL     1       2.326  -0.003   0.078  1.00  0.00    -0.273 OA
BRANCH   5  10
HETATM   10  C4  UNL     1       2.760  -0.524   4.449  1.00  0.00     0.025 C 
BRANCH  10  11
HETATM   11  C3  UNL     1       2.492  -0.058   5.885  1.00  0.00     0.002 C 
BRANCH  11  12
HETATM   12  C2  UNL     1       1.030  -0.244   6.293  1.00  0.00    -0.004 C 
HETATM   13  C1  UNL     1       0.723   0.474   7.599  1.00  0.00     0.005 C 
ENDBRANCH  11  12
ENDBRANCH  10  11
ENDBRANCH   5  10
ENDBRANCH   2   3
ENDBRANCH   1   2
BRANCH   1  14
HETATM   14  N1  UNL     1      -1.746   0.672   0.161  1.00  0.00    -0.405 N 
ATOM     15  H1  UNL     1      -2.603   1.224   0.118  1.00  0.00     0.154 HD
BRANCH  14  16
HETATM   16  C10 UNL     1      -1.844  -0.766   0.486  1.00  0.00     0.170 C 
BRANCH  16  17
HETATM   17  C11 UNL     1      -2.315  -1.031   1.937  1.00  0.00     0.039 C 
BRANCH  17  18
HETATM   18  C12 UNL     1      -3.857  -1.197   2.064  1.00  0.00    -0.012 C 
HETATM   19  C13 UNL     1      -4.382  -2.465   1.360  1.00  0.00     0.005 C 
HETATM   20  C14 UNL     1      -4.062  -3.747   2.123  1.00  0.00     0.000 C 
HETATM   21  C15 UNL     1      -4.434  -3.678   3.603  1.00  0.00     0.000 C 
HETATM   22  C16 UNL     1      -5.116  -2.371   3.986  1.00  0.00     0.000 C 
HETATM   23  C17 UNL     1      -4.293  -1.160   3.548  1.00  0.00     0.005 C 
ENDBRANCH  17  18
ENDBRANCH  16  17
BRANCH  16  24
HETATM   24  C18 UNL     1      -0.627  -1.617   0.072  1.00  0.00     0.240 C 
HETATM   25  O1  UNL     1       0.101  -2.191   0.876  1.00  0.00    -0.271 OA
HETATM   26  N2  UNL     1      -0.471  -1.690  -1.301  1.00  0.00    -0.359 N 
ATOM     27  H2  UNL     1      -1.176  -1.256  -1.897  1.00  0.00     0.162 HD
BRANCH  26  28
HETATM   28  C19 UNL     1       0.650  -2.356  -1.926  1.00  0.00     0.131 C 
BRANCH  28  29
HETATM   29  C20 UNL     1       0.283  -3.715  -2.566  1.00  0.00    -0.035 C 
HETATM   30  C21 UNL     1      -0.221  -4.705  -1.504  1.00  0.00     0.016 C 
HETATM   31  C22 UNL     1      -0.803  -3.545  -3.643  1.00  0.00     0.016 C 
HETATM   32  C23 UNL     1       1.549  -4.291  -3.226  1.00  0.00     0.016 C 
ENDBRANCH  28  29
ENDBRANCH  26  28
ENDBRANCH  16  24
ENDBRANCH  14  16
ENDBRANCH   1  14
BRANCH   1  33
HETATM   33  C24 UNL     1      -0.770   2.540  -1.092  1.00  0.00     0.014 C 
BRANCH  33  34
HETATM   34  C25 UNL     1       0.412   3.513  -1.387  1.00  0.00     0.038 C 
BRANCH  34  35
HETATM   35  C26 UNL     1       1.873   3.025  -1.490  1.00  0.00     0.121 C 
BRANCH  35  36
HETATM   36  O2  UNL     1       2.659   4.201  -1.740  1.00  0.00    -0.395 OA
ATOM     37  H2  UNL     1       3.558   3.901  -1.803  1.00  0.00     0.210 HD
ENDBRANCH  35  36
BRANCH  35  38
HETATM   38  C27 UNL     1       2.187   1.974  -2.558  1.00  0.00     0.063 C 
BRANCH  38  39
HETATM   39  C28 UNL     1       3.636   1.460  -2.452  1.00  0.00     0.128 C 
HETATM   40  C29 UNL     1       3.887   0.315  -3.432  1.00  0.00     0.058 C 
HETATM   41  C30 UNL     1       5.367   0.226  -3.776  1.00  0.00     0.173 C 
HETATM   42  O3  UNL     1       6.137   0.701  -2.679  1.00  0.00    -0.367 OA
HETATM   43  C31 UNL     1       5.902   2.091  -2.463  1.00  0.00     0.338 C 
HETATM   44  O4  UNL     1       4.562   2.516  -2.737  1.00  0.00    -0.362 OA
ENDBRANCH  38  39
ENDBRANCH  35  38
ENDBRANCH  34  35
ENDBRANCH  33  34
BRANCH  33  45
HETATM   45  C32 UNL     1      -1.613   2.089  -2.368  1.00  0.00    -0.008 C 
HETATM   46  C33 UNL     1      -2.988   2.813  -2.414  1.00  0.00     0.005 C 
HETATM   47  C34 UNL     1      -2.987   3.993  -3.378  1.00  0.00     0.000 C 
HETATM   48  C35 UNL     1      -2.710   3.547  -4.814  1.00  0.00     0.000 C 
HETATM   49  C36 UNL     1      -1.901   2.252  -4.897  1.00  0.00     0.000 C 
HETATM   50  C37 UNL     1      -0.908   2.138  -3.743  1.00  0.00     0.005 C 
ENDBRANCH  33  45
ENDBRANCH   1  33
TORSDOF 19
