REMARK  20 active torsions:
REMARK  status: ('A' for Active; 'I' for Inactive)
REMARK    1  A    between atoms: C2_2  and  C3_3 
REMARK    2  A    between atoms: C3_3  and  N1_4 
REMARK    3  A    between atoms: N1_4  and  C4_5 
REMARK       I    between atoms: N1_4  and  C8_9 
REMARK    4  A    between atoms: C4_5  and  C5_6 
REMARK    5  A    between atoms: C8_9  and  O2_11 
REMARK    6  A    between atoms: O2_11  and  C9_12 
REMARK    7  A    between atoms: C9_12  and  C10_13 
REMARK    8  A    between atoms: C9_12  and  C18_25 
REMARK    9  A    between atoms: C9_12  and  C29_36 
REMARK   10  A    between atoms: C10_13  and  N2_14 
REMARK   11  A    between atoms: N2_14  and  C11_15 
REMARK       I    between atoms: N2_14  and  C14_18 
REMARK   12  A    between atoms: C11_15  and  C12_16 
REMARK       I    between atoms: C14_18  and  N3_20 
REMARK   13  A    between atoms: N3_20  and  C15_22 
REMARK   14  A    between atoms: C15_22  and  C16_23 
REMARK   15  A    between atoms: C18_25  and  C19_26 
REMARK   16  A    between atoms: C29_36  and  O4_37 
REMARK   17  A    between atoms: C29_36  and  C30_39 
REMARK   18  A    between atoms: C30_39  and  N4_40 
REMARK       I    between atoms: N4_40  and  C31_42 
REMARK   19  A    between atoms: C31_42  and  O6_44 
REMARK   20  A    between atoms: O6_44  and  C32_45 
ROOT
HETATM    1  C9  UNL     1      -0.642   0.196  -0.942  1.00  0.00     0.116 C 
ENDROOT
BRANCH   1   2
HETATM    2  O2  UNL     1       0.325  -0.575  -0.148  1.00  0.00    -0.288 OA
BRANCH   2   3
HETATM    3  C8  UNL     1       0.048  -1.561   0.737  1.00  0.00     0.363 C 
HETATM    4  N1  UNL     1       1.223  -2.080   1.297  1.00  0.00    -0.324 N 
HETATM    5  O1  UNL     1      -1.083  -1.905   1.051  1.00  0.00    -0.238 OA
BRANCH   4   6
HETATM    6  C3  UNL     1       1.072  -2.759   2.578  1.00  0.00     0.154 C 
BRANCH   6   7
HETATM    7  C2  UNL     1       1.235  -1.779   3.707  1.00  0.00    -0.017 C 
HETATM    8  C1  UNL     1       0.318  -1.569   4.660  1.00  0.00     0.008 C 
ENDBRANCH   6   7
ENDBRANCH   4   6
BRANCH   4   9
HETATM    9  C4  UNL     1       2.536  -1.608   0.837  1.00  0.00     0.132 C 
BRANCH   9  10
HETATM   10  C5  UNL     1       3.776  -2.527   0.917  1.00  0.00    -0.005 C 
HETATM   11  C6  UNL     1       4.461  -2.542   2.283  1.00  0.00     0.011 C 
HETATM   12  C7  UNL     1       3.535  -3.932   0.378  1.00  0.00     0.011 C 
ENDBRANCH   9  10
ENDBRANCH   4   9
ENDBRANCH   2   3
ENDBRANCH   1   2
BRANCH   1  13
HETATM   13  C10 UNL     1      -1.018  -0.635  -2.235  1.00  0.00     0.169 C 
BRANCH  13  14
HETATM   14  N2  UNL     1      -1.962  -1.739  -2.045  1.00  0.00    -0.331 N 
HETATM   15  C14 UNL     1      -1.465  -3.024  -1.839  1.00  0.00     0.318 C 
HETATM   16  O3  UNL     1      -0.314  -3.349  -2.110  1.00  0.00    -0.247 OA
HETATM   17  N3  UNL     1      -2.396  -3.895  -1.333  1.00  0.00    -0.343 N 
ATOM     18  H3  UNL     1      -3.311  -3.531  -1.066  1.00  0.00     0.164 HD
BRANCH  14  19
HETATM   19  C11 UNL     1      -3.381  -1.472  -2.314  1.00  0.00     0.127 C 
BRANCH  19  20
HETATM   20  C12 UNL     1      -3.914  -2.077  -3.623  1.00  0.00     0.015 C 
HETATM   21  C13 UNL     1      -3.252  -1.504  -4.867  1.00  0.00     0.006 C 
ENDBRANCH  19  20
ENDBRANCH  14  19
BRANCH  17  22
HETATM   22  C15 UNL     1      -2.135  -5.308  -1.162  1.00  0.00     0.124 C 
BRANCH  22  23
HETATM   23  C16 UNL     1      -1.433  -5.689   0.144  1.00  0.00     0.015 C 
HETATM   24  C17 UNL     1       0.083  -5.593   0.077  1.00  0.00     0.006 C 
ENDBRANCH  22  23
ENDBRANCH  17  22
ENDBRANCH  13  14
ENDBRANCH   1  13
BRANCH   1  25
HETATM   25  C18 UNL     1      -1.917   0.645  -0.140  1.00  0.00     0.052 C 
BRANCH  25  26
HETATM   26  C19 UNL     1      -1.965   1.511   1.187  1.00  0.00    -0.036 C 
HETATM   27  C20 UNL     1      -2.364   2.987   0.868  1.00  0.00     0.014 C 
HETATM   28  C21 UNL     1      -2.617   3.803   2.151  1.00  0.00    -0.013 C 
HETATM   29  C22 UNL     1      -3.750   3.156   2.966  1.00  0.00     0.009 C 
HETATM   30  C26 UNL     1      -1.332   3.822   2.993  1.00  0.00     0.009 C 
HETATM   31  C23 UNL     1      -3.352   1.725   3.352  1.00  0.00    -0.013 C 
HETATM   32  C24 UNL     1      -2.067   1.759   4.189  1.00  0.00     0.009 C 
HETATM   33  C28 UNL     1      -3.115   0.913   2.069  1.00  0.00     0.014 C 
HETATM   34  C25 UNL     1      -0.937   2.382   3.364  1.00  0.00    -0.013 C 
HETATM   35  C27 UNL     1      -0.703   1.557   2.078  1.00  0.00     0.014 C 
ENDBRANCH  25  26
ENDBRANCH   1  25
BRANCH   1  36
HETATM   36  C29 UNL     1       0.258   1.373  -1.463  1.00  0.00     0.172 C 
BRANCH  36  37
HETATM   37  O4  UNL     1       1.054   1.907  -0.388  1.00  0.00    -0.391 OA
ATOM     38  H4  UNL     1       1.598   2.619  -0.703  1.00  0.00     0.210 HD
ENDBRANCH  36  37
BRANCH  36  39
HETATM   39  C30 UNL     1      -0.439   2.547  -2.176  1.00  0.00     0.159 C 
BRANCH  39  40
HETATM   40  N4  UNL     1       0.387   3.741  -2.058  1.00  0.00    -0.334 N 
HETATM   41  C31 UNL     1       1.515   3.841  -2.826  1.00  0.00     0.361 C 
HETATM   42  O5  UNL     1       1.585   3.539  -4.002  1.00  0.00    -0.238 OA
ATOM     43  H4  UNL     1       0.129   4.489  -1.414  1.00  0.00     0.164 HD
BRANCH  41  44
HETATM   44  O6  UNL     1       2.524   4.214  -2.008  1.00  0.00    -0.294 OA
BRANCH  44  45
HETATM   45  C32 UNL     1       3.923   4.157  -2.393  1.00  0.00     0.061 C 
HETATM   46  C33 UNL     1       4.268   3.053  -3.400  1.00  0.00     0.046 C 
HETATM   47  C34 UNL     1       4.340   5.537  -2.895  1.00  0.00     0.046 C 
HETATM   48  C35 UNL     1       4.670   3.848  -1.087  1.00  0.00     0.046 C 
ENDBRANCH  44  45
ENDBRANCH  41  44
ENDBRANCH  39  40
ENDBRANCH  36  39
ENDBRANCH   1  36
TORSDOF 20
