REMARK  4 active torsions:
REMARK  status: ('A' for Active; 'I' for Inactive)
REMARK    1  A    between atoms: N1_2  and  C2_3 
REMARK    2  A    between atoms: N1_2  and  S2_27 
REMARK    3  A    between atoms: C7_9  and  C8_10 
REMARK       I    between atoms: C8_10  and  N2_12 
REMARK    4  A    between atoms: C10_16  and  C11_17 
ROOT
HETATM    1  C8  UNL     1       1.786  -1.725   0.439  1.00  0.00     0.260 C 
HETATM    2  O1  UNL     1       1.008  -2.046   1.329  1.00  0.00    -0.267 OA
HETATM    3  N2  UNL     1       1.584  -1.839  -0.908  1.00  0.00    -0.297 N 
ATOM      4  H2  UNL     1       2.342  -2.103  -1.537  1.00  0.00     0.171 HD
HETATM    5  C9  UNL     1       0.399  -1.600  -1.353  1.00  0.00     0.194 A 
HETATM    6  O2  UNL     1      -0.667  -1.201  -0.594  1.00  0.00    -0.291 OA
HETATM    7  C10 UNL     1      -1.762  -1.021  -1.473  1.00  0.00     0.072 A 
HETATM    8  C19 UNL     1      -1.533  -1.246  -2.774  1.00  0.00     0.087 A 
HETATM    9  S1  UNL     1       0.084  -1.749  -3.075  1.00  0.00    -0.056 SA
ENDROOT
BRANCH   1  10
HETATM   10  C7  UNL     1       3.143  -1.276   0.819  1.00  0.00     0.061 A 
HETATM   11  C2  UNL     1       3.633  -0.010   0.439  1.00  0.00     0.077 A 
HETATM   12  C3  UNL     1       4.984   0.265   0.709  1.00  0.00     0.039 A 
HETATM   13 BR1  UNL     1       5.897   1.818   0.111  1.00  0.00    -0.049 Br
HETATM   14  C4  UNL     1       5.773  -0.663   1.411  1.00  0.00     0.021 A 
HETATM   15  C5  UNL     1       5.246  -1.883   1.830  1.00  0.00     0.002 A 
HETATM   16  C6  UNL     1       3.930  -2.200   1.520  1.00  0.00     0.019 A 
BRANCH  11  17
HETATM   17  N1  UNL     1       2.698   0.932  -0.150  1.00  0.00    -0.278 N 
HETATM   18  C1  UNL     1       2.936   1.340  -1.552  1.00  0.00     0.169 C 
BRANCH  17  19
HETATM   19  S2  UNL     1       2.078   2.170   0.844  1.00  0.00     0.228 S 
HETATM   20  C20 UNL     1       1.336   1.294   2.208  1.00  0.00     0.186 C 
HETATM   21  O3  UNL     1       3.171   2.959   1.367  1.00  0.00    -0.206 OA
HETATM   22  O4  UNL     1       1.003   2.802   0.105  1.00  0.00    -0.206 OA
ENDBRANCH  17  19
ENDBRANCH  11  17
ENDBRANCH   1  10
BRANCH   7  23
HETATM   23  C11 UNL     1      -3.022  -0.630  -0.875  1.00  0.00     0.025 A 
HETATM   24  C12 UNL     1      -4.134  -1.624  -0.659  1.00  0.00     0.008 A 
HETATM   25  C13 UNL     1      -5.289  -1.081   0.106  1.00  0.00     0.012 C 
HETATM   26  C15 UNL     1      -4.296  -0.494  -1.602  1.00  0.00     0.012 A 
HETATM   27  C14 UNL     1      -4.844   0.315  -0.513  1.00  0.00     0.001 C 
HETATM   28  C16 UNL     1      -3.307   0.697  -0.204  1.00  0.00    -0.029 C 
HETATM   29  C17 UNL     1      -2.944   0.774   1.278  1.00  0.00     0.016 C 
HETATM   30  C18 UNL     1      -2.827   1.950  -0.944  1.00  0.00     0.016 C 
ENDBRANCH   7  23
TORSDOF 4
