REMARK  15 active torsions:
REMARK  status: ('A' for Active; 'I' for Inactive)
REMARK    1  A    between atoms: C15_20  and  N3_21 
REMARK    2  A    between atoms: N4_24  and  C18_25 
REMARK    3  A    between atoms: C18_25  and  C19_26 
REMARK    4  A    between atoms: C19_26  and  C20_27 
REMARK    5  A    between atoms: C20_27  and  C21_28 
REMARK    6  A    between atoms: C21_28  and  C22_29 
REMARK    7  A    between atoms: N5_30  and  C23_32 
REMARK    8  A    between atoms: C23_32  and  C24_33 
REMARK    9  A    between atoms: C24_33  and  C25_34 
REMARK   10  A    between atoms: C25_34  and  C26_35 
REMARK   11  A    between atoms: C26_35  and  N6_36 
REMARK   12  A    between atoms: N6_36  and  C27_37 
REMARK   13  A    between atoms: N6_36  and  C29_40 
REMARK   14  A    between atoms: C27_37  and  C28_38 
REMARK   15  A    between atoms: C29_40  and  C30_41 
ROOT
HETATM    1  N3  UNL     1       1.046   0.564  -1.868  1.00  0.00    -0.265 NA
HETATM    2  C16 UNL     1      -0.134   1.423  -2.036  1.00  0.00     0.127 C 
HETATM    3  C17 UNL     1      -0.341   2.302  -0.764  1.00  0.00     0.287 C 
HETATM    4  N4  UNL     1       0.867   2.976  -0.217  1.00  0.00     0.090 N 
HETATM    5  C31 UNL     1       1.997   2.792  -1.143  1.00  0.00     0.287 C 
HETATM    6  C32 UNL     1       2.283   1.318  -1.517  1.00  0.00     0.127 C 
ENDROOT
BRANCH   1   7
HETATM    7  C15 UNL     1       1.325  -0.308  -2.956  1.00  0.00     0.097 C 
HETATM    8  N2  UNL     1       0.935   0.085  -4.186  1.00  0.00    -0.342 N 
HETATM    9  C14 UNL     1       1.542  -0.513  -5.214  1.00  0.00     0.182 C 
ATOM     10  H2  UNL     1       0.218   0.798  -4.323  1.00  0.00     0.167 HD
HETATM   11  N1  UNL     1       2.550  -1.383  -5.128  1.00  0.00    -0.352 N 
HETATM   12  C13 UNL     1       2.894  -1.787  -3.901  1.00  0.00     0.047 C 
ATOM     13  H1  UNL     1       3.035  -1.723  -5.958  1.00  0.00     0.166 HD
HETATM   14  C12 UNL     1       4.019  -2.587  -3.753  1.00  0.00     0.031 C 
HETATM   15  C33 UNL     1       2.203  -1.406  -2.749  1.00  0.00     0.041 C 
HETATM   16  C11 UNL     1       4.488  -2.994  -2.500  1.00  0.00     0.011 C 
HETATM   17  C10 UNL     1       3.735  -2.753  -1.351  1.00  0.00    -0.038 C 
HETATM   18  C2  UNL     1       4.223  -3.114   0.069  1.00  0.00    -0.016 C 
HETATM   19  C9  UNL     1       2.498  -2.079  -1.519  1.00  0.00    -0.002 C 
HETATM   20  C1  UNL     1       5.439  -4.064   0.095  1.00  0.00     0.020 C 
HETATM   21  C3  UNL     1       4.664  -1.802   0.762  1.00  0.00     0.020 C 
HETATM   22  C4  UNL     1       3.091  -3.767   0.913  1.00  0.00     0.053 C 
HETATM   23  C5  UNL     1       1.756  -3.125   0.691  1.00  0.00    -0.039 C 
HETATM   24  C6  UNL     1       0.639  -3.298   1.483  1.00  0.00     0.057 C 
HETATM   25  C8  UNL     1       1.490  -2.311  -0.464  1.00  0.00    -0.011 C 
HETATM   26  S1  UNL     1      -0.763  -2.649   0.761  1.00  0.00    -0.112 SA
HETATM   27  C7  UNL     1       0.132  -2.091  -0.585  1.00  0.00     0.062 C 
ENDBRANCH   1   7
BRANCH   4  28
HETATM   28  C18 UNL     1       1.216   2.521   1.141  1.00  0.00     0.272 C 
BRANCH  28  29
HETATM   29  C19 UNL     1       1.087   3.710   2.111  1.00  0.00     0.030 C 
BRANCH  29  30
HETATM   30  C20 UNL     1       1.210   3.288   3.585  1.00  0.00     0.007 C 
BRANCH  30  31
HETATM   31  C21 UNL     1      -0.142   3.129   4.296  1.00  0.00     0.044 C 
BRANCH  31  32
HETATM   32  C22 UNL     1      -0.993   2.104   3.598  1.00  0.00     0.055 C 
HETATM   33  N5  UNL     1      -1.271   0.969   4.137  1.00  0.00    -0.402 N 
ATOM     34  H5  UNL     1      -1.080   0.748   5.114  1.00  0.00     0.158 HD
BRANCH  33  35
HETATM   35  C23 UNL     1      -1.893   0.024   3.196  1.00  0.00     0.118 C 
BRANCH  35  36
HETATM   36  C24 UNL     1      -3.361   0.346   2.911  1.00  0.00     0.021 C 
BRANCH  36  37
HETATM   37  C25 UNL     1      -3.848  -0.463   1.699  1.00  0.00     0.021 C 
BRANCH  37  38
HETATM   38  C26 UNL     1      -5.273  -0.098   1.252  1.00  0.00     0.117 C 
BRANCH  38  39
HETATM   39  N6  UNL     1      -5.416   0.512  -0.077  1.00  0.00    -0.410 N 
BRANCH  39  40
HETATM   40  C27 UNL     1      -4.561   1.683  -0.312  1.00  0.00     0.131 C 
BRANCH  40  41
HETATM   41  C28 UNL     1      -5.137   2.709  -1.307  1.00  0.00     0.134 C 
HETATM   42 CL1  UNL     1      -6.698   3.374  -0.756  1.00  0.00    -0.129 Cl
ENDBRANCH  40  41
ENDBRANCH  39  40
BRANCH  39  43
HETATM   43  C29 UNL     1      -5.516  -0.435  -1.198  1.00  0.00     0.131 C 
BRANCH  43  44
HETATM   44  C30 UNL     1      -4.277  -1.284  -1.511  1.00  0.00     0.134 C 
HETATM   45 CL2  UNL     1      -4.552  -2.285  -2.963  1.00  0.00    -0.129 Cl
ENDBRANCH  43  44
ENDBRANCH  39  43
ENDBRANCH  38  39
ENDBRANCH  37  38
ENDBRANCH  36  37
ENDBRANCH  35  36
ENDBRANCH  33  35
ENDBRANCH  31  32
ENDBRANCH  30  31
ENDBRANCH  29  30
ENDBRANCH  28  29
ENDBRANCH   4  28
TORSDOF 15
