REMARK  0 active torsions:
REMARK  status: ('A' for Active; 'I' for Inactive)
ROOT
HETATM    1  O1  UNL     1       3.421   1.489  -2.303  1.00  0.00    -0.283 OA
HETATM    2  C1  UNL     1       3.306   1.119  -1.149  1.00  0.00     0.227 C 
HETATM    3  C2  UNL     1       4.143   0.098  -0.459  1.00  0.00     0.086 C 
HETATM    4  C3  UNL     1       3.583  -1.132  -0.503  1.00  0.00     0.034 C 
HETATM    5  C4  UNL     1       2.180  -1.354  -0.909  1.00  0.00     0.017 C 
HETATM    6  C5  UNL     1       1.151  -0.533  -0.569  1.00  0.00     0.006 C 
HETATM    7  C6  UNL     1      -0.230  -0.904  -0.540  1.00  0.00     0.004 A 
HETATM    8  C7  UNL     1      -0.954  -2.060  -0.903  1.00  0.00     0.015 A 
HETATM    9  C8  UNL     1      -2.345  -2.099  -0.739  1.00  0.00     0.013 A 
HETATM   10  C9  UNL     1      -3.043  -1.010  -0.206  1.00  0.00    -0.024 A 
HETATM   11  C10 UNL     1      -4.439  -1.041  -0.056  1.00  0.00     0.012 A 
HETATM   12  C11 UNL     1      -5.125   0.050   0.484  1.00  0.00     0.001 A 
HETATM   13  C12 UNL     1      -4.429   1.188   0.887  1.00  0.00     0.001 A 
HETATM   14  C13 UNL     1      -3.042   1.246   0.745  1.00  0.00     0.014 A 
HETATM   15  C14 UNL     1      -2.343   0.152   0.195  1.00  0.00     0.002 A 
HETATM   16  C15 UNL     1      -0.933   0.174   0.018  1.00  0.00     0.055 A 
HETATM   17  N1  UNL     1      -0.004   1.149   0.322  1.00  0.00    -0.352 N 
ATOM     18  H1  UNL     1      -0.211   2.017   0.816  1.00  0.00     0.166 HD
HETATM   19  C16 UNL     1       1.232   0.786  -0.133  1.00  0.00     0.075 C 
HETATM   20  C17 UNL     1       2.320   1.592  -0.124  1.00  0.00     0.114 C 
HETATM   21  N2  UNL     1       2.849   2.135   1.047  1.00  0.00    -0.347 N 
ATOM     22  H2  UNL     1       2.376   2.849   1.601  1.00  0.00     0.167 HD
HETATM   23  C18 UNL     1       4.015   1.633   1.359  1.00  0.00     0.181 C 
HETATM   24  N3  UNL     1       4.692   0.592   0.725  1.00  0.00    -0.349 N 
ATOM     25  H3  UNL     1       5.554   0.207   1.111  1.00  0.00     0.166 HD
ENDROOT
TORSDOF 0
