REMARK  12 active torsions:
REMARK  status: ('A' for Active; 'I' for Inactive)
REMARK    1  A    between atoms: C2_2  and  C3_3 
REMARK    2  A    between atoms: C3_3  and  N1_4 
REMARK    3  A    between atoms: C5_6  and  C6_7 
REMARK    4  A    between atoms: C6_7  and  N2_8 
REMARK    5  A    between atoms: N2_8  and  C7_10 
REMARK    6  A    between atoms: C7_10  and  O1_11 
REMARK    7  A    between atoms: N3_13  and  C8_15 
REMARK    8  A    between atoms: C8_15  and  C9_16 
REMARK    9  A    between atoms: C9_16  and  N4_17 
REMARK       I    between atoms: N4_17  and  C10_19 
REMARK   10  A    between atoms: C14_25  and  C16_27 
REMARK   11  A    between atoms: C16_27  and  N6_28 
REMARK   12  A    between atoms: C27_40  and  O4_41 
ROOT
HETATM    1  N1  UNL     1      -0.200   2.083  -0.387  1.00  0.00    -0.028 N 
HETATM    2  C4  UNL     1       0.722   2.055   0.870  1.00  0.00     0.271 C 
HETATM    3  C5  UNL     1       0.732   0.673   1.581  1.00  0.00     0.132 C 
HETATM    4  N5  UNL     1       0.103  -0.392   0.762  1.00  0.00    -0.338 N 
HETATM    5  C12 UNL     1      -1.304  -0.173   0.528  1.00  0.00     0.192 C 
HETATM    6  C13 UNL     1      -1.499   1.292   0.024  1.00  0.00     0.136 C 
HETATM    7  C14 UNL     1      -2.784   1.782   0.030  1.00  0.00    -0.026 C 
HETATM    8  C15 UNL     1      -3.234   3.209   0.319  1.00  0.00     0.047 C 
HETATM    9  C20 UNL     1       0.682  -1.009  -0.345  1.00  0.00     0.234 C 
HETATM   10  O3  UNL     1       0.433  -2.199  -0.562  1.00  0.00    -0.272 OA
HETATM   11  C21 UNL     1       1.165  -0.074  -1.437  1.00  0.00     0.102 C 
HETATM   12  C22 UNL     1       1.038  -0.587  -2.939  1.00  0.00     0.033 C 
HETATM   13  C23 UNL     1       2.019   0.591  -3.167  1.00  0.00     0.029 C 
HETATM   14  C24 UNL     1       1.460   1.910  -2.557  1.00  0.00     0.026 C 
HETATM   15  C25 UNL     1       2.741   2.490  -1.949  1.00  0.00     0.010 C 
HETATM   16  C26 UNL     1       3.488   1.299  -1.379  1.00  0.00     0.040 C 
HETATM   17  C27 UNL     1       2.693   0.104  -1.855  1.00  0.00     0.080 C 
HETATM   18  C28 UNL     1       0.417   1.275  -1.596  1.00  0.00     0.222 C 
ENDROOT
BRANCH   3  19
HETATM   19  C6  UNL     1       2.111   0.364   2.215  1.00  0.00     0.150 C 
BRANCH  19  20
HETATM   20  N2  UNL     1       2.324  -1.052   2.487  1.00  0.00    -0.355 N 
ATOM     21  H2  UNL     1       2.971  -1.596   1.916  1.00  0.00     0.163 HD
BRANCH  20  22
HETATM   22  C7  UNL     1       1.692  -1.602   3.448  1.00  0.00     0.212 C 
HETATM   23  N3  UNL     1       1.863  -2.890   3.814  1.00  0.00    -0.355 N 
ATOM     24  H3  UNL     1       2.673  -3.173   4.365  1.00  0.00     0.163 HD
BRANCH  22  25
HETATM   25  O1  UNL     1       0.808  -0.962   4.229  1.00  0.00    -0.333 OA
ATOM     26  H1  UNL     1       0.337  -1.372   4.945  1.00  0.00     0.220 HD
ENDBRANCH  22  25
BRANCH  23  27
HETATM   27  C8  UNL     1       0.852  -3.875   3.399  1.00  0.00     0.143 C 
BRANCH  27  28
HETATM   28  C9  UNL     1       1.343  -5.279   3.794  1.00  0.00     0.142 C 
BRANCH  28  29
HETATM   29  N4  UNL     1       2.587  -5.610   3.117  1.00  0.00    -0.360 N 
HETATM   30  C10 UNL     1       2.627  -5.849   1.760  1.00  0.00     0.213 C 
HETATM   31  C11 UNL     1       4.013  -5.977   1.200  1.00  0.00     0.117 C 
HETATM   32  O2  UNL     1       1.616  -5.933   1.067  1.00  0.00    -0.274 OA
ATOM     33  H4  UNL     1       3.449  -5.667   3.659  1.00  0.00     0.162 HD
ENDBRANCH  28  29
ENDBRANCH  27  28
ENDBRANCH  23  27
ENDBRANCH  20  22
ENDBRANCH  19  20
ENDBRANCH   3  19
BRANCH   1  34
HETATM   34  C3  UNL     1      -0.543   3.529  -0.805  1.00  0.00     0.271 C 
BRANCH  34  35
HETATM   35  C2  UNL     1       0.533   4.502  -1.150  1.00  0.00    -0.009 C 
HETATM   36  C1  UNL     1       1.096   5.346  -0.274  1.00  0.00     0.008 C 
ENDBRANCH  34  35
ENDBRANCH   1  34
BRANCH   7  37
HETATM   37  C16 UNL     1      -4.015   0.849  -0.051  1.00  0.00     0.271 C 
BRANCH  37  38
HETATM   38  N6  UNL     1      -4.568   0.615  -1.488  1.00  0.00    -0.075 N 
HETATM   39  C17 UNL     1      -4.574   1.871  -2.350  1.00  0.00     0.272 C 
HETATM   40  C18 UNL     1      -3.803  -0.496  -2.209  1.00  0.00     0.272 C 
HETATM   41  C19 UNL     1      -6.035   0.143  -1.386  1.00  0.00     0.272 C 
ENDBRANCH  37  38
ENDBRANCH   7  37
BRANCH  17  42
HETATM   42  O4  UNL     1       3.508  -1.075  -1.903  1.00  0.00    -0.388 OA
ATOM     43  H4  UNL     1       4.419  -0.969  -2.152  1.00  0.00     0.210 HD
ENDBRANCH  17  42
TORSDOF 12
