REMARK  8 active torsions:
REMARK  status: ('A' for Active; 'I' for Inactive)
REMARK    1  A    between atoms: N1_1  and  S1_4 
REMARK    2  A    between atoms: S1_4  and  C1_5 
REMARK    3  A    between atoms: C1_5  and  N2_6 
REMARK    4  A    between atoms: C1_5  and  N4_11 
REMARK    5  A    between atoms: N2_6  and  N3_8 
REMARK    6  A    between atoms: N4_11  and  C2_13 
REMARK    7  A    between atoms: C2_13  and  C3_14 
REMARK    8  A    between atoms: C3_14  and  N5_15 
ROOT
HETATM    1  C2  UNL     1      -1.759   1.506   0.825  1.00  0.00     0.138 C 
ENDROOT
BRANCH   1   2
HETATM    2  N4  UNL     1      -2.674   1.384  -0.314  1.00  0.00    -0.367 N 
ATOM      3  H4  UNL     1      -2.571   2.061  -1.070  1.00  0.00     0.161 HD
BRANCH   2   4
HETATM    4  C1  UNL     1      -3.661   0.432  -0.449  1.00  0.00     0.174 C 
BRANCH   4   5
HETATM    5  S1  UNL     1      -4.323   0.059  -2.109  1.00  0.00     0.017 SA
BRANCH   5   6
HETATM    6  N1  UNL     1      -3.080  -0.115  -2.656  1.00  0.00    -0.367 N 
ATOM      7  H12 UNL     1      -2.139  -0.055  -2.267  1.00  0.00     0.164 HD
ATOM      8  H11 UNL     1      -3.450  -0.323  -3.583  1.00  0.00     0.164 HD
ENDBRANCH   5   6
ENDBRANCH   4   5
BRANCH   4   9
HETATM    9  N2  UNL     1      -4.064  -0.220   0.691  1.00  0.00    -0.285 N 
ATOM     10  H2  UNL     1      -3.686   0.065   1.594  1.00  0.00     0.188 HD
BRANCH   9  11
HETATM   11  N3  UNL     1      -4.986  -1.270   0.630  1.00  0.00    -0.343 N 
ATOM     12  H32 UNL     1      -5.354  -1.543  -0.281  1.00  0.00     0.176 HD
ATOM     13  H31 UNL     1      -5.285  -1.754   1.476  1.00  0.00     0.176 HD
ENDBRANCH   9  11
ENDBRANCH   4   9
ENDBRANCH   2   4
ENDBRANCH   1   2
BRANCH   1  14
HETATM   14  C3  UNL     1      -0.940   0.230   1.058  1.00  0.00     0.134 C 
BRANCH  14  15
HETATM   15  N5  UNL     1       0.476   0.315   0.744  1.00  0.00    -0.206 NA
HETATM   16  C4  UNL     1       1.103   1.014  -0.152  1.00  0.00     0.067 C 
HETATM   17  C5  UNL     1       1.941   1.494   0.791  1.00  0.00     0.255 C 
HETATM   18  C11 UNL     1       1.133   0.945  -1.658  1.00  0.00     0.058 C 
HETATM   19  O1  UNL     1       2.987   2.214   0.857  1.00  0.00    -0.272 OA
HETATM   20  N6  UNL     1       1.409   0.687   1.677  1.00  0.00    -0.174 NA
HETATM   21  C6  UNL     1       2.224  -0.430   2.212  1.00  0.00     0.118 C 
HETATM   22  C7  UNL     1       2.345  -1.664   1.269  1.00  0.00     0.016 C 
HETATM   23  C8  UNL     1       3.112  -1.435  -0.056  1.00  0.00     0.001 C 
HETATM   24  C9  UNL     1       2.250  -1.400  -1.352  1.00  0.00     0.000 C 
HETATM   25  C10 UNL     1       2.233  -0.041  -2.102  1.00  0.00     0.006 C 
ENDBRANCH  14  15
ENDBRANCH   1  14
TORSDOF 8
