REMARK  0 active torsions:
REMARK  status: ('A' for Active; 'I' for Inactive)
ROOT
HETATM    1  O1  UNL     1      -3.513  -0.377  -0.827  1.00  0.00    -0.268 OA
HETATM    2  C1  UNL     1      -2.414  -0.711  -0.405  1.00  0.00     0.248 C 
HETATM    3  C2  UNL     1      -1.305  -1.098  -1.328  1.00  0.00     0.083 C 
HETATM    4  C3  UNL     1      -0.127  -0.431  -1.325  1.00  0.00    -0.037 C 
HETATM    5  C4  UNL     1       0.929  -1.361  -0.776  1.00  0.00    -0.022 A 
HETATM    6  C5  UNL     1       1.406  -2.531  -1.359  1.00  0.00     0.012 A 
HETATM    7  C6  UNL     1       2.265  -3.345  -0.618  1.00  0.00     0.001 A 
HETATM    8  C7  UNL     1       2.635  -2.993   0.690  1.00  0.00     0.001 A 
HETATM    9  C8  UNL     1       2.165  -1.815   1.278  1.00  0.00     0.009 A 
HETATM   10  C9  UNL     1       1.313  -0.993   0.549  1.00  0.00    -0.038 A 
HETATM   11  C10 UNL     1       0.844   0.332   0.981  1.00  0.00     0.060 C 
HETATM   12  C11 UNL     1      -0.376   0.678   1.505  1.00  0.00     0.003 C 
HETATM   13  C12 UNL     1      -1.421  -0.291   1.884  1.00  0.00     0.251 C 
HETATM   14  O2  UNL     1      -1.712  -0.367   3.076  1.00  0.00    -0.268 OA
HETATM   15  N1  UNL     1      -2.165  -1.004   0.933  1.00  0.00    -0.290 N 
ATOM     16  H1  UNL     1      -2.588  -1.868   1.273  1.00  0.00     0.172 HD
HETATM   17  C13 UNL     1      -0.761   1.861   0.886  1.00  0.00     0.037 C 
HETATM   18  C14 UNL     1      -1.080   1.766  -0.454  1.00  0.00     0.026 C 
HETATM   19  C15 UNL     1      -1.369   2.955  -1.132  1.00  0.00    -0.021 C 
HETATM   20  C16 UNL     1      -0.601   4.059  -0.781  1.00  0.00    -0.007 C 
HETATM   21  C17 UNL     1       0.374   3.828   0.181  1.00  0.00    -0.021 C 
HETATM   22  C18 UNL     1       0.398   2.549   0.776  1.00  0.00     0.023 C 
HETATM   23  C19 UNL     1       0.933   1.339   0.072  1.00  0.00     0.016 C 
HETATM   24  C20 UNL     1      -0.011   1.059  -0.937  1.00  0.00     0.034 C 
ENDROOT
TORSDOF 0
