REMARK  7 active torsions:
REMARK  status: ('A' for Active; 'I' for Inactive)
REMARK    1  A    between atoms: N1_1  and  N2_4 
REMARK    2  A    between atoms: N2_4  and  N3_5 
REMARK    3  A    between atoms: N3_5  and  C1_7 
REMARK    4  A    between atoms: N6_14  and  C4_16 
REMARK    5  A    between atoms: C4_16  and  C5_17 
REMARK    6  A    between atoms: C5_17  and  O2_18 
REMARK    7  A    between atoms: C9_27  and  N9_28 
ROOT
HETATM    1  C1  UNL     1       0.256  -2.911  -0.055  1.00  0.00     0.115 C 
HETATM    2  N4  UNL     1      -0.782  -2.210   0.304  1.00  0.00    -0.279 N 
ATOM      3  H4  UNL     1      -1.749  -2.530   0.352  1.00  0.00     0.188 HD
HETATM    4  N5  UNL     1      -0.317  -0.959   0.604  1.00  0.00    -0.204 N 
HETATM    5  C2  UNL     1      -1.051  -0.060   1.342  1.00  0.00     0.294 C 
HETATM    6  O1  UNL     1      -2.151  -0.214   1.848  1.00  0.00    -0.264 OA
HETATM    7  C3  UNL     1      -0.263   1.218   1.544  1.00  0.00     0.131 C 
HETATM    8  N6  UNL     1      -0.735   2.411   1.701  1.00  0.00    -0.381 N 
ATOM      9  H6  UNL     1      -0.088   3.190   1.824  1.00  0.00     0.160 HD
HETATM   10  C6  UNL     1       1.235   1.074   1.467  1.00  0.00     0.133 C 
HETATM   11  N7  UNL     1       1.790  -0.101   1.377  1.00  0.00    -0.338 N 
ATOM     12  H7  UNL     1       2.552  -0.475   1.942  1.00  0.00     0.164 HD
HETATM   13  C7  UNL     1       1.081  -0.763   0.290  1.00  0.00     0.229 C 
HETATM   14  C8  UNL     1       1.574  -2.196   0.147  1.00  0.00     0.159 C 
HETATM   15  N8  UNL     1       1.306  -0.092  -0.990  1.00  0.00    -0.178 N 
ATOM     16  H8  UNL     1       0.907  -0.568  -1.799  1.00  0.00     0.182 HD
HETATM   17  C9  UNL     1       1.926   1.000  -1.258  1.00  0.00     0.678 C 
HETATM   18  N10 UNL     1       2.430   1.952  -0.395  1.00  0.00    -0.155 N 
ATOM     19  H10 UNL     1       3.133   2.579  -0.787  1.00  0.00     0.187 HD
HETATM   20  C10 UNL     1       2.104   2.166   0.935  1.00  0.00     0.288 C 
HETATM   21  O3  UNL     1       2.437   3.129   1.601  1.00  0.00    -0.265 OA
ENDROOT
BRANCH   1  22
HETATM   22  N3  UNL     1       0.274  -4.209  -0.523  1.00  0.00    -0.272 N 
ATOM     23  H3  UNL     1       1.091  -4.809  -0.409  1.00  0.00     0.185 HD
BRANCH  22  24
HETATM   24  N2  UNL     1      -0.875  -4.655  -1.155  1.00  0.00    -0.029 NA
BRANCH  24  25
HETATM   25  N1  UNL     1      -0.555  -4.934  -2.507  1.00  0.00    -0.329 N 
ATOM     26  H12 UNL     1       0.367  -4.821  -2.927  1.00  0.00     0.174 HD
ATOM     27  H11 UNL     1      -1.401  -5.262  -2.972  1.00  0.00     0.174 HD
ENDBRANCH  24  25
ENDBRANCH  22  24
ENDBRANCH   1  22
BRANCH  17  28
HETATM   28  N9  UNL     1       2.120   1.288  -2.570  1.00  0.00    -0.235 N 
ATOM     29  H92 UNL     1       1.748   0.584  -3.208  1.00  0.00     0.174 HD
ATOM     30  H91 UNL     1       2.613   2.155  -2.783  1.00  0.00     0.174 HD
ENDBRANCH  17  28
BRANCH   8  31
HETATM   31  C4  UNL     1      -2.171   2.669   1.706  1.00  0.00     0.146 C 
BRANCH  31  32
HETATM   32  C5  UNL     1      -2.417   4.062   1.106  1.00  0.00     0.183 C 
BRANCH  32  33
HETATM   33  O2  UNL     1      -3.795   4.426   1.159  1.00  0.00    -0.399 OA
ATOM     34  H2  UNL     1      -3.947   5.287   0.788  1.00  0.00     0.209 HD
ENDBRANCH  32  33
ENDBRANCH  31  32
ENDBRANCH   8  31
TORSDOF 7
