REMARK  11 active torsions:
REMARK  status: ('A' for Active; 'I' for Inactive)
REMARK    1  A    between atoms: O1_2  and  C2_3 
REMARK    2  A    between atoms: C2_3  and  C3_4 
REMARK    3  A    between atoms: C4_5  and  N1_6 
REMARK    4  A    between atoms: N1_6  and  C6_8 
REMARK    5  A    between atoms: C6_8  and  C7_9 
REMARK    6  A    between atoms: C7_9  and  C8_10 
REMARK    7  A    between atoms: C8_10  and  N2_11 
REMARK    8  A    between atoms: C19_25  and  O2_26 
REMARK    9  A    between atoms: C31_39  and  C32_40 
REMARK   10  A    between atoms: C33_43  and  C34_44 
REMARK   11  A    between atoms: C34_44  and  O5_45 
ROOT
HETATM    1  N2  UNL     1      -0.944   0.733  -0.294  1.00  0.00    -0.376 N 
HETATM    2  C9  UNL     1      -1.112   2.050   0.229  1.00  0.00     0.011 C 
HETATM    3  C10 UNL     1      -2.146   2.838  -0.122  1.00  0.00    -0.002 C 
HETATM    4  C11 UNL     1      -1.969   4.341  -0.145  1.00  0.00     0.029 C 
HETATM    5  C12 UNL     1      -0.616   4.710  -0.796  1.00  0.00     0.011 C 
HETATM    6  C13 UNL     1       0.585   4.035  -0.102  1.00  0.00     0.033 C 
HETATM    7  C14 UNL     1       1.515   3.216  -1.028  1.00  0.00     0.221 C 
HETATM    8  N3  UNL     1       2.871   3.146  -1.600  1.00  0.00    -0.059 N 
ATOM      9  H31 UNL     1       3.549   3.750  -1.135  1.00  0.00     0.278 HD
ATOM     10  H32 UNL     1       2.953   3.570  -2.524  1.00  0.00     0.278 HD
HETATM   11  C15 UNL     1       3.234   1.662  -1.564  1.00  0.00     0.217 C 
HETATM   12  C16 UNL     1       1.928   1.277  -1.453  1.00  0.00    -0.029 C 
HETATM   13  C17 UNL     1       1.823   2.078  -0.367  1.00  0.00    -0.041 C 
HETATM   14  C18 UNL     1       2.395   2.410   0.979  1.00  0.00     0.075 C 
HETATM   15  C19 UNL     1       1.246   1.970   1.806  1.00  0.00     0.071 C 
HETATM   16  C20 UNL     1       1.429   0.397   1.868  1.00  0.00     0.044 C 
HETATM   17  C21 UNL     1       2.956  -0.051   1.680  1.00  0.00    -0.003 C 
HETATM   18  C22 UNL     1       3.400  -1.512   1.985  1.00  0.00    -0.005 C 
HETATM   19  C23 UNL     1       2.379  -2.607   1.690  1.00  0.00     0.005 C 
HETATM   20  C24 UNL     1       3.117  -3.869   1.278  1.00  0.00     0.000 C 
HETATM   21  C25 UNL     1       3.921  -3.588   0.002  1.00  0.00     0.000 C 
HETATM   22  C26 UNL     1       5.046  -2.576   0.245  1.00  0.00     0.005 C 
HETATM   23  C27 UNL     1       4.569  -1.304   0.940  1.00  0.00    -0.006 C 
HETATM   24  C28 UNL     1       3.661  -0.276   0.186  1.00  0.00    -0.003 C 
HETATM   25  C29 UNL     1       4.331   0.871  -0.766  1.00  0.00     0.043 C 
HETATM   26  C30 UNL     1      -0.002   2.796   1.037  1.00  0.00     0.076 C 
HETATM   27  C31 UNL     1       0.990   0.290  -2.063  1.00  0.00     0.143 C 
HETATM   28  C33 UNL     1      -0.545   0.528  -1.802  1.00  0.00     0.126 C 
ENDROOT
BRANCH   1  29
HETATM   29  C8  UNL     1      -1.901  -0.314   0.185  1.00  0.00     0.125 C 
BRANCH  29  30
HETATM   30  C7  UNL     1      -1.339  -1.730   0.005  1.00  0.00     0.040 C 
BRANCH  30  31
HETATM   31  C6  UNL     1      -1.831  -2.743   1.041  1.00  0.00     0.123 C 
BRANCH  31  32
HETATM   32  N1  UNL     1      -3.236  -3.108   0.798  1.00  0.00    -0.394 N 
HETATM   33  C5  UNL     1      -3.461  -4.191  -0.156  1.00  0.00     0.148 C 
BRANCH  32  34
HETATM   34  C4  UNL     1      -4.276  -2.422   1.401  1.00  0.00     0.083 C 
HETATM   35  C3  UNL     1      -5.566  -2.390   1.062  1.00  0.00     0.016 C 
BRANCH  35  36
HETATM   36  C2  UNL     1      -6.560  -1.453   1.673  1.00  0.00     0.195 C 
BRANCH  36  37
HETATM   37  O1  UNL     1      -7.193  -0.690   0.646  1.00  0.00    -0.392 OA
HETATM   38  C1  UNL     1      -6.321   0.234   0.002  1.00  0.00     0.201 C 
ENDBRANCH  36  37
ENDBRANCH  35  36
ENDBRANCH  32  34
ENDBRANCH  31  32
ENDBRANCH  30  31
ENDBRANCH  29  30
ENDBRANCH   1  29
BRANCH  28  39
HETATM   39  C34 UNL     1      -1.217   1.525  -2.779  1.00  0.00     0.190 C 
BRANCH  39  40
HETATM   40  O5  UNL     1      -1.455   0.916  -4.054  1.00  0.00    -0.399 OA
ATOM     41  H5  UNL     1      -1.867   1.527  -4.653  1.00  0.00     0.209 HD
ENDBRANCH  39  40
ENDBRANCH  28  39
BRANCH  27  42
HETATM   42  C32 UNL     1       1.265   0.136  -3.558  1.00  0.00     0.183 C 
HETATM   43  O3  UNL     1       1.255  -0.921  -4.176  1.00  0.00    -0.647 OA
HETATM   44  O4  UNL     1       1.534   1.287  -4.220  1.00  0.00    -0.647 OA
ENDBRANCH  27  42
BRANCH  15  45
HETATM   45  O2  UNL     1       1.421   2.509   3.127  1.00  0.00    -0.389 OA
ATOM     46  H2  UNL     1       0.685   2.227   3.657  1.00  0.00     0.210 HD
ENDBRANCH  15  45
TORSDOF 11
