REMARK  8 active torsions:
REMARK  status: ('A' for Active; 'I' for Inactive)
REMARK    1  A    between atoms: C2_2  and  C4_4 
REMARK    2  A    between atoms: C4_4  and  C5_5 
REMARK    3  A    between atoms: C5_5  and  C6_6 
REMARK    4  A    between atoms: C10_11  and  O2_12 
REMARK    5  A    between atoms: C12_15  and  O3_16 
REMARK    6  A    between atoms: C17_24  and  C18_25 
REMARK    7  A    between atoms: C17_24  and  C19_28 
REMARK    8  A    between atoms: C25_34  and  O8_35 
ROOT
HETATM    1  C6  UNL     1      -1.146  -0.992  -1.157  1.00  0.00     0.130 C 
HETATM    2  O1  UNL     1      -0.844   0.328  -0.684  1.00  0.00    -0.371 OA
HETATM    3  C7  UNL     1       0.504   0.732  -0.455  1.00  0.00     0.095 C 
HETATM    4  C8  UNL     1       0.562   2.272  -0.292  1.00  0.00     0.044 C 
HETATM    5  C9  UNL     1       1.861   2.945   0.279  1.00  0.00     0.035 C 
HETATM    6  C10 UNL     1       3.303   2.313   0.289  1.00  0.00     0.120 C 
HETATM    7  C11 UNL     1       3.686   1.252   1.358  1.00  0.00     0.064 C 
HETATM    8  C12 UNL     1       3.467  -0.287   1.127  1.00  0.00     0.135 C 
HETATM    9  C13 UNL     1       2.165  -0.819   0.441  1.00  0.00     0.050 C 
HETATM   10  C14 UNL     1       2.275  -0.780  -1.127  1.00  0.00     0.168 C 
HETATM   11  O4  UNL     1       1.671  -1.973  -1.652  1.00  0.00    -0.371 OA
HETATM   12  C15 UNL     1       1.486  -2.909  -0.597  1.00  0.00     0.198 C 
HETATM   13  C16 UNL     1       1.968  -2.325   0.723  1.00  0.00     0.170 C 
HETATM   14  O5  UNL     1       0.741  -2.706   1.377  1.00  0.00    -0.357 OA
HETATM   15  C17 UNL     1       0.084  -3.041   0.100  1.00  0.00     0.183 C 
HETATM   16  C19 UNL     1      -1.183  -2.122  -0.094  1.00  0.00     0.063 C 
HETATM   17  C20 UNL     1      -1.814  -1.738   1.256  1.00  0.00     0.011 C 
HETATM   18  C21 UNL     1      -1.411  -0.418   1.901  1.00  0.00     0.005 C 
HETATM   19  C22 UNL     1       0.084  -0.143   2.116  1.00  0.00    -0.010 C 
HETATM   20  C23 UNL     1       0.137   1.094   3.063  1.00  0.00     0.010 C 
HETATM   21  C24 UNL     1       0.991   0.093   0.852  1.00  0.00     0.043 C 
HETATM   22  C25 UNL     1       1.424   0.355  -1.652  1.00  0.00     0.183 C 
ENDROOT
BRANCH   1  23
HETATM   23  C5  UNL     1      -2.542  -0.881  -1.861  1.00  0.00     0.033 C 
BRANCH  23  24
HETATM   24  C4  UNL     1      -2.930   0.536  -2.340  1.00  0.00     0.006 C 
BRANCH  24  25
HETATM   25  C2  UNL     1      -3.812   1.256  -1.288  1.00  0.00    -0.023 C 
HETATM   26  C1  UNL     1      -5.294   1.032  -1.609  1.00  0.00     0.009 C 
HETATM   27  C3  UNL     1      -3.501   2.753  -1.206  1.00  0.00     0.009 C 
ENDBRANCH  24  25
ENDBRANCH  23  24
ENDBRANCH   1  23
BRANCH  22  28
HETATM   28  O8  UNL     1       2.231   1.400  -2.185  1.00  0.00    -0.390 OA
ATOM     29  H8  UNL     1       2.793   1.170  -2.916  1.00  0.00     0.210 HD
ENDBRANCH  22  28
BRANCH   6  30
HETATM   30  O2  UNL     1       4.171   3.440   0.594  1.00  0.00    -0.395 OA
ATOM     31  H2  UNL     1       5.041   3.059   0.600  1.00  0.00     0.210 HD
ENDBRANCH   6  30
BRANCH   8  32
HETATM   32  O3  UNL     1       4.604  -0.829   0.452  1.00  0.00    -0.395 OA
ATOM     33  H3  UNL     1       4.472  -1.759   0.312  1.00  0.00     0.210 HD
ENDBRANCH   8  32
BRANCH  15  34
HETATM   34  C18 UNL     1      -0.390  -4.598   0.017  1.00  0.00     0.212 C 
HETATM   35  O6  UNL     1      -0.926  -5.175  -0.921  1.00  0.00    -0.646 OA
HETATM   36  O7  UNL     1      -0.128  -5.326   1.136  1.00  0.00    -0.646 OA
ENDBRANCH  15  34
TORSDOF 8
