REMARK  7 active torsions:
REMARK  status: ('A' for Active; 'I' for Inactive)
REMARK    1  A    between atoms: O1_2  and  C2_3 
REMARK    2  A    between atoms: C3_4  and  O2_5 
REMARK    3  A    between atoms: O2_5  and  C4_6 
REMARK    4  A    between atoms: C4_6  and  O3_7 
REMARK    5  A    between atoms: C5_9  and  O4_10 
REMARK    6  A    between atoms: C13_19  and  O5_20 
REMARK    7  A    between atoms: C15_23  and  O6_24 
ROOT
HETATM    1  C2  UNL     1       2.010   1.854  -0.225  1.00  0.00     0.157 C 
HETATM    2  C3  UNL     1       2.755   0.648   0.477  1.00  0.00     0.188 C 
HETATM    3  C5  UNL     1       2.349  -0.739  -0.151  1.00  0.00     0.093 C 
HETATM    4  C6  UNL     1       2.469  -1.970   0.758  1.00  0.00     0.041 C 
HETATM    5  C7  UNL     1       1.229  -2.279   1.582  1.00  0.00     0.013 C 
HETATM    6  C8  UNL     1      -0.001  -2.477   0.695  1.00  0.00     0.050 C 
HETATM    7  C9  UNL     1      -1.357  -2.412   1.325  1.00  0.00     0.132 C 
HETATM    8  C10 UNL     1      -1.581  -1.033   1.992  1.00  0.00     0.038 C 
HETATM    9  C11 UNL     1      -0.587   0.180   1.743  1.00  0.00     0.000 C 
HETATM   10  C12 UNL     1      -1.279   1.430   2.347  1.00  0.00     0.037 C 
HETATM   11  C13 UNL     1      -2.207   2.294   1.486  1.00  0.00     0.121 C 
HETATM   12  C14 UNL     1      -2.748   1.712   0.187  1.00  0.00     0.070 C 
HETATM   13  C15 UNL     1      -1.745   1.346  -0.936  1.00  0.00     0.070 C 
HETATM   14  C17 UNL     1      -0.480   2.241  -1.093  1.00  0.00     0.046 C 
HETATM   15  C18 UNL     1       0.476   1.799   0.013  1.00  0.00     0.030 C 
HETATM   16  C19 UNL     1      -0.016   0.373   0.281  1.00  0.00    -0.012 C 
HETATM   17  C20 UNL     1      -1.174  -0.095  -0.630  1.00  0.00     0.066 C 
HETATM   18  C21 UNL     1      -0.231  -1.565  -0.510  1.00  0.00     0.085 C 
HETATM   19  O7  UNL     1      -0.766  -2.475  -1.494  1.00  0.00    -0.343 OA
HETATM   20  C22 UNL     1      -2.009  -3.057  -1.005  1.00  0.00     0.158 C 
HETATM   21  C23 UNL     1      -1.927  -4.586  -1.022  1.00  0.00     0.078 C 
HETATM   22  C24 UNL     1      -3.125  -2.627  -1.960  1.00  0.00     0.078 C 
HETATM   23  O8  UNL     1      -2.397  -2.599   0.322  1.00  0.00    -0.350 OA
HETATM   24  C25 UNL     1       0.921  -0.594  -0.662  1.00  0.00     0.068 C 
ENDROOT
BRANCH   2  25
HETATM   25  O2  UNL     1       4.163   0.920   0.364  1.00  0.00    -0.356 OA
BRANCH  25  26
HETATM   26  C4  UNL     1       4.941   0.554   1.479  1.00  0.00     0.335 C 
BRANCH  26  27
HETATM   27  O3  UNL     1       4.631   1.391   2.577  1.00  0.00    -0.377 OA
ATOM     28  H3  UNL     1       5.156   1.144   3.329  1.00  0.00     0.212 HD
ENDBRANCH  26  27
ENDBRANCH  25  26
ENDBRANCH   2  25
BRANCH   1  29
HETATM   29  O1  UNL     1       2.272   1.913  -1.633  1.00  0.00    -0.388 OA
HETATM   30  C1  UNL     1       3.333   2.794  -1.976  1.00  0.00     0.202 C 
ENDBRANCH   1  29
BRANCH   3  31
HETATM   31  O4  UNL     1       3.223  -1.012  -1.266  1.00  0.00    -0.387 OA
ATOM     32  H4  UNL     1       2.978  -1.848  -1.645  1.00  0.00     0.210 HD
ENDBRANCH   3  31
BRANCH  13  33
HETATM   33  O6  UNL     1      -2.511   1.272  -2.165  1.00  0.00    -0.384 OA
HETATM   34  C16 UNL     1      -2.830   2.501  -2.804  1.00  0.00     0.202 C 
ENDBRANCH  13  33
BRANCH  11  35
HETATM   35  O5  UNL     1      -3.315   2.654   2.325  1.00  0.00    -0.395 OA
ATOM     36  H5  UNL     1      -3.890   3.190   1.791  1.00  0.00     0.210 HD
ENDBRANCH  11  35
TORSDOF 7
