REMARK  6 active torsions:
REMARK  status: ('A' for Active; 'I' for Inactive)
REMARK    1  A    between atoms: C3_3  and  C4_4 
REMARK    2  A    between atoms: C4_4  and  C5_5 
REMARK    3  A    between atoms: C4_4  and  N2_31 
REMARK    4  A    between atoms: C13_15  and  O1_16 
REMARK    5  A    between atoms: C16_21  and  C18_23 
REMARK    6  A    between atoms: C18_23  and  O4_26 
ROOT
HETATM    1  C1  UNL     1       2.075   0.067   3.683  1.00  0.00     0.102 C 
HETATM    2  C2  UNL     1       2.563  -0.380   2.569  1.00  0.00    -0.158 C 
HETATM    3  C3  UNL     1       3.138  -0.877   1.510  1.00  0.00     0.076 C 
ENDROOT
BRANCH   3   4
HETATM    4  C4  UNL     1       2.755  -0.743   0.045  1.00  0.00     0.043 C 
BRANCH   4   5
HETATM    5  C5  UNL     1       1.569  -1.711  -0.438  1.00  0.00     0.068 C 
HETATM    6  N1  UNL     1       1.038  -2.667   0.635  1.00  0.00    -0.389 N 
HETATM    7  C6  UNL     1      -0.260  -2.300   1.256  1.00  0.00     0.128 C 
ATOM      8  H1  UNL     1       1.547  -3.508   0.907  1.00  0.00     0.159 HD
HETATM    9  C7  UNL     1      -1.450  -2.557   0.305  1.00  0.00     0.055 C 
HETATM   10  C8  UNL     1      -2.760  -1.695   0.130  1.00  0.00     0.092 C 
HETATM   11  C22 UNL     1      -1.080  -2.082  -1.009  1.00  0.00     0.039 A 
HETATM   12  C9  UNL     1      -3.748  -2.632  -0.622  1.00  0.00     0.041 C 
HETATM   13  O2  UNL     1      -2.410  -0.637  -0.971  1.00  0.00    -0.337 OA
HETATM   14  C21 UNL     1      -3.173  -0.904   1.353  1.00  0.00     0.210 C 
HETATM   15  C10 UNL     1      -2.954  -3.463  -1.726  1.00  0.00     0.009 C 
HETATM   16  C11 UNL     1      -1.782  -2.648  -2.230  1.00  0.00     0.009 A 
HETATM   17  C12 UNL     1      -0.211  -2.505  -2.064  1.00  0.00     0.052 A 
HETATM   18  C13 UNL     1       0.503  -1.195  -1.549  1.00  0.00     0.165 C 
HETATM   19  C15 UNL     1      -0.965  -0.574  -0.938  1.00  0.00     0.215 C 
HETATM   20  O3  UNL     1      -0.695   0.242   0.239  1.00  0.00    -0.312 OA
HETATM   21  C16 UNL     1      -1.724   1.055   0.896  1.00  0.00     0.194 C 
HETATM   22  C17 UNL     1      -1.143   1.333   2.295  1.00  0.00     0.082 C 
HETATM   23  O5  UNL     1      -3.040   0.498   1.119  1.00  0.00    -0.350 OA
BRANCH  18  24
HETATM   24  O1  UNL     1       1.175  -0.452  -2.609  1.00  0.00    -0.372 OA
HETATM   25  C14 UNL     1       0.433   0.539  -3.297  1.00  0.00     0.203 C 
ENDBRANCH  18  24
BRANCH  21  26
HETATM   26  C18 UNL     1      -1.937   2.437   0.126  1.00  0.00     0.106 C 
HETATM   27  C19 UNL     1      -2.786   3.442   0.927  1.00  0.00     0.051 C 
HETATM   28  C20 UNL     1      -2.624   2.269  -1.238  1.00  0.00     0.051 C 
BRANCH  26  29
HETATM   29  O4  UNL     1      -0.674   3.077  -0.121  1.00  0.00    -0.385 OA
ATOM     30  H4  UNL     1      -0.801   3.899  -0.579  1.00  0.00     0.210 HD
ENDBRANCH  26  29
ENDBRANCH  21  26
ENDBRANCH   4   5
BRANCH   4  31
HETATM   31  N2  UNL     1       2.895   0.588  -0.569  1.00  0.00    -0.277 NA
HETATM   32  C23 UNL     1       2.275   1.722   0.122  1.00  0.00     0.122 C 
HETATM   33  C24 UNL     1       3.178   2.567   1.043  1.00  0.00     0.182 C 
HETATM   34  O6  UNL     1       4.428   2.900   0.426  1.00  0.00    -0.389 OA
HETATM   35  C25 UNL     1       5.095   1.697   0.028  1.00  0.00     0.182 C 
HETATM   36  C26 UNL     1       4.256   0.949  -1.017  1.00  0.00     0.122 C 
ENDBRANCH   4  31
ENDBRANCH   3   4
TORSDOF 6
