REMARK  4 active torsions:
REMARK  status: ('A' for Active; 'I' for Inactive)
REMARK    1  A    between atoms: C20_25  and  N4_26 
REMARK    2  A    between atoms: N4_26  and  N5_28 
REMARK    3  A    between atoms: N5_28  and  C21_30 
REMARK    4  A    between atoms: C21_30  and  N6_31 
ROOT
HETATM    1  C1  UNL     1      -0.869   0.995  -1.996  1.00  0.00     0.157 C 
HETATM    2  N1  UNL     1      -2.165   0.562  -1.440  1.00  0.00    -0.346 N 
HETATM    3  C2  UNL     1      -3.290   0.853  -2.207  1.00  0.00     0.094 C 
HETATM    4  C3  UNL     1      -4.423   0.153  -2.213  1.00  0.00     0.047 C 
HETATM    5  C4  UNL     1      -4.495  -1.056  -1.360  1.00  0.00     0.041 C 
HETATM    6  N2  UNL     1      -5.513  -1.859  -1.415  1.00  0.00    -0.398 N 
ATOM      7  H21 UNL     1      -5.563  -2.691  -0.828  1.00  0.00     0.156 HD
ATOM      8  H22 UNL     1      -6.300  -1.689  -2.042  1.00  0.00     0.156 HD
HETATM    9  C5  UNL     1      -3.340  -1.305  -0.440  1.00  0.00     0.035 C 
HETATM   10  C6  UNL     1      -3.342  -2.481   0.417  1.00  0.00     0.020 C 
HETATM   11  C7  UNL     1      -2.247  -2.863   1.093  1.00  0.00     0.031 C 
HETATM   12  C8  UNL     1      -1.089  -2.045   1.037  1.00  0.00     0.042 C 
HETATM   13  C9  UNL     1       0.245  -2.245   1.326  1.00  0.00     0.046 C 
HETATM   14  C10 UNL     1       0.886  -1.000   1.121  1.00  0.00     0.018 C 
HETATM   15  C11 UNL     1      -0.102  -0.060   0.888  1.00  0.00     0.064 C 
HETATM   16  N3  UNL     1      -1.204  -0.785   0.433  1.00  0.00    -0.295 N 
HETATM   17  C12 UNL     1      -2.264  -0.474  -0.472  1.00  0.00     0.127 C 
HETATM   18  C13 UNL     1       0.108   1.381   1.008  1.00  0.00    -0.001 A 
HETATM   19  C14 UNL     1      -0.943   2.302   1.099  1.00  0.00     0.014 A 
HETATM   20  C15 UNL     1      -0.680   3.663   1.259  1.00  0.00     0.001 A 
HETATM   21  C16 UNL     1       0.632   4.117   1.349  1.00  0.00     0.001 A 
HETATM   22  C17 UNL     1       1.688   3.208   1.287  1.00  0.00     0.008 A 
HETATM   23  C18 UNL     1       1.440   1.835   1.133  1.00  0.00    -0.040 A 
HETATM   24  C19 UNL     1       2.619   0.878   1.080  1.00  0.00     0.099 C 
HETATM   25  C20 UNL     1       2.280  -0.610   1.107  1.00  0.00     0.042 C 
ENDROOT
BRANCH  25  26
HETATM   26  N4  UNL     1       3.126  -1.587   0.959  1.00  0.00    -0.301 N 
ATOM     27  H4  UNL     1       2.817  -2.554   1.063  1.00  0.00     0.186 HD
BRANCH  26  28
HETATM   28  N5  UNL     1       4.429  -1.311   0.664  1.00  0.00    -0.276 N 
ATOM     29  H5  UNL     1       4.841  -0.416   0.928  1.00  0.00     0.189 HD
BRANCH  28  30
HETATM   30  C21 UNL     1       5.181  -2.260   0.003  1.00  0.00     0.184 C 
HETATM   31  S1  UNL     1       4.878  -3.892  -0.120  1.00  0.00    -0.040 SA
BRANCH  30  32
HETATM   32  N6  UNL     1       6.279  -1.739  -0.627  1.00  0.00    -0.375 N 
ATOM     33  H62 UNL     1       6.465  -0.739  -0.552  1.00  0.00     0.158 HD
ATOM     34  H61 UNL     1       6.835  -2.441  -1.116  1.00  0.00     0.158 HD
ENDBRANCH  30  32
ENDBRANCH  28  30
ENDBRANCH  26  28
ENDBRANCH  25  26
TORSDOF 4
