REMARK  13 active torsions:
REMARK  status: ('A' for Active; 'I' for Inactive)
REMARK    1  A    between atoms: C2_2  and  N1_3 
REMARK    2  A    between atoms: C16_22  and  C17_23 
REMARK    3  A    between atoms: C17_23  and  C18_24 
REMARK    4  A    between atoms: C18_24  and  C19_25 
REMARK    5  A    between atoms: C19_25  and  C20_26 
REMARK    6  A    between atoms: C20_26  and  C21_27 
REMARK    7  A    between atoms: C21_27  and  C22_28 
REMARK    8  A    between atoms: C22_28  and  N4_29 
REMARK    9  A    between atoms: N4_29  and  C25_32 
REMARK   10  A    between atoms: C27_34  and  O2_35 
REMARK   11  A    between atoms: C27_34  and  C28_37 
REMARK   12  A    between atoms: C29_38  and  C30_39 
REMARK   13  A    between atoms: C30_39  and  N5_40 
ROOT
HETATM    1  N1  UNL     1       5.022  -2.006   1.402  1.00  0.00    -0.367 N 
HETATM    2  C3  UNL     1       5.990  -1.988   0.236  1.00  0.00     0.129 C 
HETATM    3  C4  UNL     1       5.348  -1.653  -1.169  1.00  0.00     0.060 C 
HETATM    4  C5  UNL     1       3.941  -2.177  -1.406  1.00  0.00    -0.028 C 
HETATM    5  C6  UNL     1       2.941  -1.432  -2.060  1.00  0.00     0.021 C 
HETATM    6  C7  UNL     1       1.533  -1.564  -1.775  1.00  0.00    -0.002 C 
HETATM    7  C8  UNL     1       1.158  -2.472  -0.736  1.00  0.00    -0.017 C 
HETATM    8  C9  UNL     1       2.225  -3.055   0.001  1.00  0.00     0.009 C 
HETATM    9  C10 UNL     1       2.656  -2.848   1.419  1.00  0.00    -0.005 C 
HETATM   10  C11 UNL     1       1.908  -2.097   2.463  1.00  0.00     0.053 C 
HETATM   11  C12 UNL     1       4.056  -2.994   1.345  1.00  0.00     0.110 C 
HETATM   12  N2  UNL     1       4.135  -3.958   0.341  1.00  0.00    -0.341 N 
ATOM     13  H2  UNL     1       4.550  -4.890   0.327  1.00  0.00     0.167 HD
HETATM   14  C13 UNL     1       3.459  -3.228  -0.638  1.00  0.00     0.051 C 
HETATM   15  C14 UNL     1      -0.231  -2.889  -0.356  1.00  0.00     0.162 C 
HETATM   16  N3  UNL     1      -1.121  -1.776  -0.405  1.00  0.00    -0.356 N 
ATOM     17  H3  UNL     1      -1.389  -1.209   0.399  1.00  0.00     0.162 HD
HETATM   18  C15 UNL     1      -1.568  -1.575  -1.695  1.00  0.00     0.226 C 
HETATM   19  O1  UNL     1      -2.394  -2.317  -2.212  1.00  0.00    -0.273 OA
HETATM   20  C16 UNL     1      -0.947  -0.364  -2.320  1.00  0.00     0.129 C 
HETATM   21  C27 UNL     1       0.613  -0.541  -2.534  1.00  0.00     0.161 C 
ENDROOT
BRANCH  20  22
HETATM   22  C17 UNL     1      -1.726   0.045  -3.594  1.00  0.00     0.018 C 
BRANCH  22  23
HETATM   23  C18 UNL     1      -3.215   0.396  -3.390  1.00  0.00     0.001 C 
BRANCH  23  24
HETATM   24  C19 UNL     1      -3.486   1.666  -2.575  1.00  0.00     0.000 C 
BRANCH  24  25
HETATM   25  C20 UNL     1      -3.743   1.460  -1.071  1.00  0.00     0.002 C 
BRANCH  25  26
HETATM   26  C21 UNL     1      -5.037   0.695  -0.724  1.00  0.00     0.028 C 
BRANCH  26  27
HETATM   27  C22 UNL     1      -4.827  -0.608   0.067  1.00  0.00     0.236 C 
BRANCH  27  28
HETATM   28  N4  UNL     1      -4.772  -0.494   1.616  1.00  0.00    -0.075 N 
HETATM   29  C23 UNL     1      -4.504  -1.940   2.124  1.00  0.00     0.272 C 
HETATM   30  C24 UNL     1      -6.134  -0.098   2.187  1.00  0.00     0.272 C 
BRANCH  28  31
HETATM   31  C25 UNL     1      -3.635   0.374   2.156  1.00  0.00     0.232 C 
HETATM   32  C26 UNL     1      -3.982   1.843   2.352  1.00  0.00     0.034 C 
ENDBRANCH  28  31
ENDBRANCH  27  28
ENDBRANCH  26  27
ENDBRANCH  25  26
ENDBRANCH  24  25
ENDBRANCH  23  24
ENDBRANCH  22  23
ENDBRANCH  20  22
BRANCH  21  33
HETATM   33  O2  UNL     1       0.848  -0.750  -3.927  1.00  0.00    -0.372 OA
ATOM     34  H2  UNL     1       0.292  -0.132  -4.386  1.00  0.00     0.212 HD
ENDBRANCH  21  33
BRANCH  21  35
HETATM   35  C28 UNL     1       1.155   0.827  -2.182  1.00  0.00    -0.060 C 
HETATM   36  C29 UNL     1       1.616   1.872  -1.788  1.00  0.00    -0.075 C 
BRANCH  36  37
HETATM   37  C30 UNL     1       2.243   3.089  -1.258  1.00  0.00     0.329 C 
BRANCH  37  38
HETATM   38  N5  UNL     1       1.413   3.722  -0.119  1.00  0.00    -0.069 N 
HETATM   39  C31 UNL     1       1.222   2.740   1.024  1.00  0.00     0.272 C 
HETATM   40  C32 UNL     1       2.187   4.932   0.415  1.00  0.00     0.272 C 
HETATM   41  C33 UNL     1       0.071   4.204  -0.648  1.00  0.00     0.272 C 
ENDBRANCH  37  38
ENDBRANCH  36  37
ENDBRANCH  21  35
BRANCH   1  42
HETATM   42  C2  UNL     1       5.634  -1.785   2.721  1.00  0.00     0.120 C 
HETATM   43  C1  UNL     1       5.834  -0.298   2.969  1.00  0.00     0.026 C 
ENDBRANCH   1  42
TORSDOF 13
