REMARK  8 active torsions:
REMARK  status: ('A' for Active; 'I' for Inactive)
REMARK    1  A    between atoms: N1_2  and  C4_5 
REMARK    2  A    between atoms: C4_5  and  C5_6 
REMARK    3  A    between atoms: C5_6  and  N2_7 
REMARK       I    between atoms: N2_7  and  C6_9 
REMARK    4  A    between atoms: C6_9  and  C7_11 
REMARK    5  A    between atoms: C13_17  and  C21_29 
REMARK    6  A    between atoms: C18_22  and  C19_23 
REMARK    7  A    between atoms: C20_26  and  O4_27 
REMARK    8  A    between atoms: C22_30  and  C23_31 
ROOT
HETATM    1  C7  UNL     1       0.012  -2.079  -0.334  1.00  0.00     0.087 C 
HETATM    2  C8  UNL     1       1.413  -2.779  -0.509  1.00  0.00     0.007 C 
HETATM    3  C9  UNL     1       1.836  -3.659   0.775  1.00  0.00     0.032 C 
HETATM    4  C10 UNL     1       2.818  -2.987   1.897  1.00  0.00    -0.030 C 
HETATM    5  C11 UNL     1       2.769  -1.479   2.551  1.00  0.00    -0.025 C 
HETATM    6  C12 UNL     1       2.409  -0.027   1.885  1.00  0.00     0.018 C 
HETATM    7  C13 UNL     1       0.936   0.086   1.395  1.00  0.00     0.007 C 
HETATM    8  C14 UNL     1       0.757  -1.234   0.730  1.00  0.00     0.009 C 
HETATM    9  C15 UNL     1       2.073  -1.524  -0.143  1.00  0.00     0.002 C 
HETATM   10  C16 UNL     1       2.669  -0.299  -0.722  1.00  0.00     0.017 C 
HETATM   11  C17 UNL     1       3.244   0.388   0.614  1.00  0.00     0.022 C 
HETATM   12  C18 UNL     1       2.818   1.760  -0.038  1.00  0.00     0.097 C 
HETATM   13  C20 UNL     1       1.540   2.427   0.571  1.00  0.00     0.144 C 
HETATM   14  C21 UNL     1       0.788   1.105   0.256  1.00  0.00     0.042 C 
HETATM   15  C22 UNL     1       1.804   0.928  -0.917  1.00  0.00     0.079 C 
ENDROOT
BRANCH   1  16
HETATM   16  C6  UNL     1      -0.735  -1.323  -1.443  1.00  0.00     0.222 C 
HETATM   17  N2  UNL     1      -2.099  -1.256  -1.206  1.00  0.00    -0.359 N 
ATOM     18  H2  UNL     1      -2.501  -1.771  -0.423  1.00  0.00     0.162 HD
HETATM   19  O1  UNL     1      -0.242  -0.764  -2.417  1.00  0.00    -0.273 OA
BRANCH  17  20
HETATM   20  C5  UNL     1      -2.962  -0.461  -2.060  1.00  0.00     0.150 C 
BRANCH  20  21
HETATM   21  C4  UNL     1      -4.350  -0.219  -1.443  1.00  0.00     0.255 C 
BRANCH  21  22
HETATM   22  N1  UNL     1      -4.388   0.759  -0.237  1.00  0.00    -0.077 N 
HETATM   23  C1  UNL     1      -4.013   2.176  -0.666  1.00  0.00     0.271 C 
HETATM   24  C2  UNL     1      -5.827   0.796   0.295  1.00  0.00     0.271 C 
HETATM   25  C3  UNL     1      -3.474   0.328   0.903  1.00  0.00     0.271 C 
ENDBRANCH  21  22
ENDBRANCH  20  21
ENDBRANCH  17  20
ENDBRANCH   1  16
BRANCH  15  26
HETATM   26  C23 UNL     1       1.540   1.413  -2.362  1.00  0.00     0.184 C 
HETATM   27  O5  UNL     1       2.088   1.035  -3.387  1.00  0.00    -0.647 OA
HETATM   28  O6  UNL     1       0.617   2.400  -2.454  1.00  0.00    -0.647 OA
ENDBRANCH  15  26
BRANCH  12  29
HETATM   29  C19 UNL     1       3.829   2.692  -0.752  1.00  0.00     0.186 C 
HETATM   30  O2  UNL     1       3.551   3.430  -1.693  1.00  0.00    -0.647 OA
HETATM   31  O3  UNL     1       5.092   2.690  -0.243  1.00  0.00    -0.647 OA
ENDBRANCH  12  29
BRANCH  13  32
HETATM   32  O4  UNL     1       1.570   2.834   1.949  1.00  0.00    -0.394 OA
ATOM     33  H4  UNL     1       0.794   3.239   2.319  1.00  0.00     0.210 HD
ENDBRANCH  13  32
TORSDOF 8
