REMARK  5 active torsions:
REMARK  status: ('A' for Active; 'I' for Inactive)
REMARK    1  A    between atoms: C9_11  and  S1_12 
REMARK    2  A    between atoms: S1_12  and  S2_13 
REMARK    3  A    between atoms: S2_13  and  C10_14 
REMARK    4  A    between atoms: C10_14  and  N1_15 
REMARK    5  A    between atoms: N2_18  and  O3_20 
ROOT
HETATM    1  C1  UNL     1      -3.742   1.678   0.295  1.00  0.00     0.056 C 
HETATM    2  C2  UNL     1      -2.413   1.135  -0.146  1.00  0.00     0.133 A 
HETATM    3  O1  UNL     1      -1.653   2.111  -0.874  1.00  0.00    -0.338 OA
HETATM    4  C3  UNL     1      -1.098   1.754   0.395  1.00  0.00     0.300 A 
HETATM    5  O2  UNL     1       0.186   1.045   0.297  1.00  0.00    -0.351 OA
HETATM    6  C4  UNL     1       0.226  -0.401   0.448  1.00  0.00     0.143 C 
HETATM    7  C5  UNL     1      -0.736  -0.879   1.554  1.00  0.00     0.038 C 
HETATM    8  C6  UNL     1      -2.147  -1.080   0.991  1.00  0.00     0.040 C 
HETATM    9  C7  UNL     1      -2.271  -0.334  -0.330  1.00  0.00    -0.044 C 
HETATM   10  C8  UNL     1      -1.479  -0.753  -1.349  1.00  0.00    -0.002 C 
HETATM   11  C9  UNL     1      -0.079  -1.155  -0.892  1.00  0.00     0.111 C 
ENDROOT
BRANCH  11  12
HETATM   12  S1  UNL     1       1.156  -0.791  -2.204  1.00  0.00    -0.078 SA
BRANCH  12  13
HETATM   13  S2  UNL     1       2.782  -1.946  -1.672  1.00  0.00    -0.019 SA
BRANCH  13  14
HETATM   14  C10 UNL     1       3.902  -0.774  -0.990  1.00  0.00     0.168 C 
HETATM   15  N2  UNL     1       4.394   0.152  -1.754  1.00  0.00    -0.247 N 
ATOM     16  H2  UNL     1       4.180   0.261  -2.745  1.00  0.00     0.196 HD
BRANCH  14  17
HETATM   17  N1  UNL     1       4.203  -0.943   0.330  1.00  0.00    -0.378 N 
ATOM     18  H12 UNL     1       3.816  -1.671   0.931  1.00  0.00     0.158 HD
ATOM     19  H11 UNL     1       4.853  -0.263   0.726  1.00  0.00     0.158 HD
ENDBRANCH  14  17
BRANCH  15  20
HETATM   20  O3  UNL     1       5.263   0.984  -1.026  1.00  0.00    -0.288 OA
ATOM     21  H3  UNL     1       5.623   1.662  -1.585  1.00  0.00     0.244 HD
ENDBRANCH  15  20
ENDBRANCH  13  14
ENDBRANCH  12  13
ENDBRANCH  11  12
TORSDOF 5
