REMARK  2 active torsions:
REMARK  status: ('A' for Active; 'I' for Inactive)
REMARK    1  A    between atoms: C10_18  and  N5_19 
REMARK    2  A    between atoms: N5_19  and  C11_21 
ROOT
HETATM    1  C1  UNL     1      -2.736   2.821   0.920  1.00  0.00     0.067 C 
HETATM    2  C2  UNL     1      -2.373   1.366   0.717  1.00  0.00     0.022 C 
HETATM    3  N1  UNL     1      -2.838   0.518   1.582  1.00  0.00    -0.311 N 
ATOM      4  H1  UNL     1      -3.419   0.864   2.345  1.00  0.00     0.186 HD
HETATM    5  N2  UNL     1      -2.579  -0.820   1.509  1.00  0.00    -0.322 N 
ATOM      6  H2  UNL     1      -3.058  -1.399   2.199  1.00  0.00     0.181 HD
HETATM    7  C3  UNL     1      -1.771  -1.488   0.643  1.00  0.00     0.174 C 
HETATM    8  C4  UNL     1      -0.391  -1.419   0.706  1.00  0.00     0.056 C 
HETATM    9  S1  UNL     1       0.100  -2.846  -0.186  1.00  0.00    -0.077 SA
HETATM   10  C5  UNL     1      -1.169  -2.444  -1.326  1.00  0.00     0.090 C 
HETATM   11  C6  UNL     1      -1.234  -2.925  -2.665  1.00  0.00     0.107 C 
HETATM   12  N3  UNL     1      -1.296  -3.297  -3.763  1.00  0.00    -0.191 NA
HETATM   13  C7  UNL     1      -1.861  -1.374  -0.768  1.00  0.00    -0.021 C 
HETATM   14  C8  UNL     1      -2.079  -0.035  -1.383  1.00  0.00     0.070 C 
HETATM   15  C9  UNL     1      -1.468   1.059  -0.466  1.00  0.00     0.134 C 
HETATM   16  N4  UNL     1      -0.083   0.888   0.053  1.00  0.00    -0.365 N 
ATOM     17  H4  UNL     1       0.548   1.685  -0.033  1.00  0.00     0.161 HD
HETATM   18  C10 UNL     1       0.393  -0.190   0.607  1.00  0.00     0.113 C 
ENDROOT
BRANCH  18  19
HETATM   19  N5  UNL     1       1.691  -0.103   1.064  1.00  0.00    -0.372 N 
ATOM     20  H5  UNL     1       1.898   0.042   2.052  1.00  0.00     0.161 HD
BRANCH  19  21
HETATM   21  C11 UNL     1       2.764  -0.229   0.065  1.00  0.00     0.075 C 
HETATM   22  C12 UNL     1       3.800  -1.225   0.572  1.00  0.00     0.031 C 
HETATM   23  C13 UNL     1       3.410   1.133  -0.183  1.00  0.00     0.031 C 
ENDBRANCH  19  21
ENDBRANCH  18  19
TORSDOF 2
