REMARK  6 active torsions:
REMARK  status: ('A' for Active; 'I' for Inactive)
REMARK    1  A    between atoms: C2_2  and  N1_3 
REMARK    2  A    between atoms: C4_5  and  C5_6 
REMARK    3  A    between atoms: C5_6  and  S1_7 
REMARK    4  A    between atoms: C10_13  and  C12_15 
REMARK    5  A    between atoms: N2_22  and  C18_23 
REMARK    6  A    between atoms: C18_23  and  C19_24 
REMARK       I    between atoms: C19_24  and  N3_26 
ROOT
HETATM    1  N1  UNL     1       2.358  -0.952  -0.623  1.00  0.00    -0.360 N 
HETATM    2  C3  UNL     1       1.986  -1.867   0.326  1.00  0.00     0.095 C 
HETATM    3  C4  UNL     1       1.464  -1.410   1.541  1.00  0.00    -0.038 C 
HETATM    4  C7  UNL     1       1.588  -0.040   1.807  1.00  0.00     0.108 C 
HETATM    5  C8  UNL     1       2.483   0.670   1.041  1.00  0.00     0.016 C 
HETATM    6  C9  UNL     1       2.305   0.385  -0.311  1.00  0.00     0.019 C 
HETATM    7  C10 UNL     1       1.375   1.394  -1.069  1.00  0.00     0.019 C 
HETATM    8  C11 UNL     1       2.371   2.523  -1.499  1.00  0.00     0.024 C 
HETATM    9  C14 UNL     1       0.294   2.052  -0.050  1.00  0.00     0.114 C 
HETATM   10  C15 UNL     1      -0.679   3.070  -0.665  1.00  0.00     0.098 C 
HETATM   11  C16 UNL     1      -0.977   4.237   0.291  1.00  0.00     0.022 C 
HETATM   12  C17 UNL     1      -1.974   2.429  -1.099  1.00  0.00     0.227 C 
HETATM   13  O2  UNL     1      -2.575   2.854  -2.081  1.00  0.00    -0.273 OA
HETATM   14  N2  UNL     1      -2.430   1.385  -0.319  1.00  0.00    -0.327 N 
HETATM   15  C21 UNL     1      -1.848   1.196   0.973  1.00  0.00     0.254 C 
HETATM   16  N4  UNL     1      -0.402   1.035   0.815  1.00  0.00    -0.347 N 
HETATM   17  C22 UNL     1       0.261   0.617   1.970  1.00  0.00     0.086 C 
HETATM   18  N5  UNL     1      -0.253   0.715   3.151  1.00  0.00    -0.388 N 
ATOM     19  H51 UNL     1      -1.162   1.165   3.263  1.00  0.00     0.157 HD
ATOM     20  H52 UNL     1       0.231   0.410   3.995  1.00  0.00     0.157 HD
ENDROOT
BRANCH  14  21
HETATM   21  C18 UNL     1      -3.801   0.916  -0.539  1.00  0.00     0.230 C 
BRANCH  21  22
HETATM   22  C19 UNL     1      -3.907  -0.079  -1.708  1.00  0.00     0.235 C 
HETATM   23  O3  UNL     1      -4.426   0.207  -2.780  1.00  0.00    -0.272 OA
HETATM   24  N3  UNL     1      -3.378  -1.338  -1.560  1.00  0.00    -0.364 N 
HETATM   25  C20 UNL     1      -3.181  -2.030  -0.314  1.00  0.00     0.149 C 
ATOM     26  H3  UNL     1      -3.099  -1.827  -2.411  1.00  0.00     0.161 HD
ENDBRANCH  21  22
ENDBRANCH  14  21
BRANCH   7  27
HETATM   27  C12 UNL     1       0.771   0.872  -2.402  1.00  0.00     0.013 C 
HETATM   28  C13 UNL     1      -0.292  -0.201  -2.333  1.00  0.00     0.006 C 
ENDBRANCH   7  27
BRANCH   3  29
HETATM   29  C5  UNL     1       0.780  -2.321   2.525  1.00  0.00     0.144 C 
BRANCH  29  30
HETATM   30  S1  UNL     1       1.871  -2.566   3.966  1.00  0.00     0.014 S 
HETATM   31  C6  UNL     1       0.632  -3.298   5.064  1.00  0.00     0.127 C 
HETATM   32  O1  UNL     1       2.863  -3.617   3.563  1.00  0.00    -0.258 OA
ENDBRANCH  29  30
ENDBRANCH   3  29
BRANCH   1  33
HETATM   33  C2  UNL     1       3.113  -1.390  -1.835  1.00  0.00     0.124 C 
HETATM   34  C1  UNL     1       2.398  -2.475  -2.614  1.00  0.00     0.027 C 
ENDBRANCH   1  33
TORSDOF 6
