REMARK  8 active torsions:
REMARK  status: ('A' for Active; 'I' for Inactive)
REMARK    1  A    between atoms: C2_2  and  C3_3 
REMARK    2  A    between atoms: C3_3  and  N1_4 
REMARK       I    between atoms: N1_4  and  C4_6 
REMARK    3  A    between atoms: C4_6  and  C5_8 
REMARK    4  A    between atoms: C5_8  and  C6_10 
REMARK    5  A    between atoms: C7_11  and  C8_12 
REMARK    6  A    between atoms: C14_19  and  C15_20 
REMARK       I    between atoms: C15_20  and  N3_22 
REMARK    7  A    between atoms: N3_22  and  C16_24 
REMARK    8  A    between atoms: C22_30  and  C23_31 
REMARK       I    between atoms: C23_31  and  N4_32 
ROOT
HETATM    1  C6  UNL     1       1.852  -0.054   1.016  1.00  0.00     0.090 C 
HETATM    2  C7  UNL     1       1.364   0.714  -0.184  1.00  0.00     0.043 C 
HETATM    3  C8  UNL     1       2.001   1.162  -1.461  1.00  0.00     0.051 C 
HETATM    4  C9  UNL     1       1.960   0.031  -2.556  1.00  0.00     0.245 C 
HETATM    5  N2  UNL     1       0.493   0.076  -2.264  1.00  0.00    -0.055 N 
HETATM    6  C10 UNL     1      -0.316  -0.447  -3.368  1.00  0.00     0.274 C 
HETATM    7  C11 UNL     1       0.636   1.567  -2.237  1.00  0.00     0.205 C 
HETATM    8  C12 UNL     1      -0.636   2.263  -1.663  1.00  0.00     0.048 C 
HETATM    9  C13 UNL     1      -0.252   3.684  -1.243  1.00  0.00     0.017 C 
HETATM   10  C14 UNL     1      -1.484   1.454  -0.597  1.00  0.00     0.000 C 
HETATM   11  C20 UNL     1      -1.003   0.018  -0.246  1.00  0.00     0.059 C 
HETATM   12  C21 UNL     1      -0.695  -0.500   1.218  1.00  0.00     0.031 C 
HETATM   13  C22 UNL     1       0.744  -1.159   1.101  1.00  0.00     0.055 C 
HETATM   14  C24 UNL     1       0.693  -1.645  -0.356  1.00  0.00     0.060 C 
HETATM   15  C25 UNL     1       0.349  -0.252  -0.844  1.00  0.00     0.143 C 
ENDROOT
BRANCH   1  16
HETATM   16  C5  UNL     1       3.278  -0.567   1.169  1.00  0.00     0.222 C 
HETATM   17  O2  UNL     1       3.864  -0.544   2.250  1.00  0.00    -0.287 OA
BRANCH  16  18
HETATM   18  C4  UNL     1       3.952  -1.267   0.005  1.00  0.00     0.288 C 
HETATM   19  N1  UNL     1       4.128  -2.611   0.209  1.00  0.00    -0.351 N 
ATOM     20  H1  UNL     1       3.857  -2.999   1.113  1.00  0.00     0.163 HD
HETATM   21  O1  UNL     1       4.209  -0.633  -1.003  1.00  0.00    -0.264 OA
BRANCH  19  22
HETATM   22  C3  UNL     1       4.672  -3.507  -0.776  1.00  0.00     0.149 C 
BRANCH  22  23
HETATM   23  C2  UNL     1       3.662  -4.597  -0.980  1.00  0.00    -0.018 C 
HETATM   24  C1  UNL     1       3.786  -5.843  -0.499  1.00  0.00     0.008 C 
ENDBRANCH  22  23
ENDBRANCH  19  22
ENDBRANCH  16  18
ENDBRANCH   1  16
BRANCH  13  25
HETATM   25  C23 UNL     1       1.105  -2.200   2.131  1.00  0.00     0.225 C 
HETATM   26  N4  UNL     1       0.989  -1.829   3.434  1.00  0.00    -0.369 N 
ATOM     27  H42 UNL     1       0.583  -0.933   3.704  1.00  0.00     0.159 HD
ATOM     28  H41 UNL     1       1.233  -2.533   4.131  1.00  0.00     0.159 HD
HETATM   29  O4  UNL     1       1.593  -3.277   1.807  1.00  0.00    -0.273 OA
ENDBRANCH  13  25
BRANCH  10  30
HETATM   30  C15 UNL     1      -1.903   2.244   0.642  1.00  0.00     0.245 C 
HETATM   31  O3  UNL     1      -1.134   2.434   1.571  1.00  0.00    -0.268 OA
HETATM   32  N3  UNL     1      -3.189   2.740   0.607  1.00  0.00    -0.349 N 
ATOM     33  H3  UNL     1      -3.414   3.483  -0.054  1.00  0.00     0.163 HD
BRANCH  32  34
HETATM   34  C16 UNL     1      -4.253   2.228   1.498  1.00  0.00     0.022 C 
HETATM   35  C17 UNL     1      -4.861   0.971   0.849  1.00  0.00     0.037 C 
HETATM   36  C18 UNL     1      -5.345   3.301   1.611  1.00  0.00     0.037 C 
HETATM   37  C19 UNL     1      -3.766   1.875   2.913  1.00  0.00     0.037 C 
ENDBRANCH  32  34
ENDBRANCH  10  30
TORSDOF 8
