REMARK  10 active torsions:
REMARK  status: ('A' for Active; 'I' for Inactive)
REMARK    1  A    between atoms: C9_13  and  N3_14 
REMARK       I    between atoms: N3_14  and  C10_16 
REMARK    2  A    between atoms: C10_16  and  C11_18 
REMARK    3  A    between atoms: C11_18  and  N4_19 
REMARK    4  A    between atoms: C11_18  and  C18_38 
REMARK       I    between atoms: N4_19  and  C12_21 
REMARK    5  A    between atoms: C12_21  and  C13_23 
REMARK    6  A    between atoms: C13_23  and  N5_24 
REMARK    7  A    between atoms: C13_23  and  N7_29 
REMARK    8  A    between atoms: N5_24  and  N6_26 
REMARK    9  A    between atoms: C18_38  and  O6_39 
REMARK   10  A    between atoms: C18_38  and  O7_41 
ROOT
HETATM    1  C11 UNL     1      -1.115  -2.930  -0.921  1.00  0.00     0.232 C 
ENDROOT
BRANCH   1   2
HETATM    2  C10 UNL     1      -0.362  -1.741  -0.314  1.00  0.00     0.249 C 
HETATM    3  N3  UNL     1       0.085  -0.754  -1.198  1.00  0.00    -0.328 N 
ATOM      4  H3  UNL     1      -0.104  -0.805  -2.199  1.00  0.00     0.168 HD
HETATM    5  O2  UNL     1      -0.359  -1.597   0.912  1.00  0.00    -0.271 OA
BRANCH   3   6
HETATM    6  C9  UNL     1       0.812   0.317  -0.634  1.00  0.00     0.020 C 
HETATM    7  C8  UNL     1       0.156   1.461  -0.154  1.00  0.00     0.027 C 
HETATM    8  C7  UNL     1       0.909   2.397   0.579  1.00  0.00     0.017 C 
HETATM    9  C6  UNL     1       2.174   1.990   1.026  1.00  0.00     0.013 C 
HETATM   10  C5  UNL     1       3.307   2.936   1.214  1.00  0.00     0.210 C 
HETATM   11  C20 UNL     1       2.454   0.639   0.929  1.00  0.00    -0.000 C 
HETATM   12  C4  UNL     1       4.670   2.463   0.970  1.00  0.00     0.112 C 
HETATM   13  O1  UNL     1       3.046   4.081   1.575  1.00  0.00    -0.285 OA
HETATM   14  N1  UNL     1       5.764   2.981   1.640  1.00  0.00    -0.292 N 
HETATM   15  C3  UNL     1       5.202   1.492   0.106  1.00  0.00     0.009 C 
HETATM   16  C1  UNL     1       5.782   4.026   2.644  1.00  0.00     0.178 C 
HETATM   17  N2  UNL     1       6.905   2.323   1.400  1.00  0.00    -0.309 N 
HETATM   18  C2  UNL     1       6.586   1.473   0.431  1.00  0.00     0.120 C 
ATOM     19  H2  UNL     1       7.809   2.446   1.856  1.00  0.00     0.186 HD
HETATM   20  C22 UNL     1       4.647   0.576  -0.964  1.00  0.00    -0.011 C 
HETATM   21  C21 UNL     1       3.179   0.623  -1.409  1.00  0.00     0.043 C 
HETATM   22  C19 UNL     1       2.166   0.182  -0.338  1.00  0.00     0.062 C 
ENDBRANCH   3   6
ENDBRANCH   1   2
BRANCH   1  23
HETATM   23  N4  UNL     1      -2.525  -2.490  -0.976  1.00  0.00    -0.337 N 
HETATM   24  C12 UNL     1      -3.399  -3.080  -0.072  1.00  0.00     0.288 C 
HETATM   25  O3  UNL     1      -3.414  -4.309   0.034  1.00  0.00    -0.264 OA
ATOM     26  H4  UNL     1      -2.841  -1.788  -1.645  1.00  0.00     0.164 HD
BRANCH  24  27
HETATM   27  C13 UNL     1      -4.249  -2.118   0.828  1.00  0.00     0.199 C 
BRANCH  27  28
HETATM   28  N5  UNL     1      -5.670  -2.561   0.953  1.00  0.00    -0.287 N 
ATOM     29  H5  UNL     1      -5.967  -3.172   1.714  1.00  0.00     0.188 HD
BRANCH  28  30
HETATM   30  N6  UNL     1      -6.605  -2.096  -0.037  1.00  0.00    -0.343 N 
ATOM     31  H62 UNL     1      -6.292  -1.485  -0.792  1.00  0.00     0.176 HD
ATOM     32  H61 UNL     1      -7.575  -2.399   0.048  1.00  0.00     0.176 HD
ENDBRANCH  28  30
ENDBRANCH  27  28
BRANCH  27  33
HETATM   33  N7  UNL     1      -4.081  -0.660   0.642  1.00  0.00    -0.254 N 
HETATM   34  C14 UNL     1      -4.461  -0.009  -0.525  1.00  0.00     0.109 A 
HETATM   35  C15 UNL     1      -4.223   1.287  -0.733  1.00  0.00     0.092 A 
HETATM   36  C16 UNL     1      -3.464   2.044   0.271  1.00  0.00     0.250 A 
HETATM   37  O4  UNL     1      -3.074   3.176   0.041  1.00  0.00    -0.268 OA
HETATM   38  N8  UNL     1      -3.195   1.367   1.429  1.00  0.00    -0.275 N 
HETATM   39  C17 UNL     1      -3.454   0.045   1.674  1.00  0.00     0.335 A 
ATOM     40  H8  UNL     1      -2.759   1.898   2.183  1.00  0.00     0.173 HD
HETATM   41  O5  UNL     1      -3.137  -0.442   2.766  1.00  0.00    -0.246 OA
ENDBRANCH  27  33
ENDBRANCH  24  27
ENDBRANCH   1  23
BRANCH   1  42
HETATM   42  C18 UNL     1      -0.559  -3.494  -2.234  1.00  0.00     0.285 C 
BRANCH  42  43
HETATM   43  O6  UNL     1      -1.219  -4.690  -2.602  1.00  0.00    -0.369 OA
ATOM     44  H6  UNL     1      -0.875  -5.039  -3.415  1.00  0.00     0.212 HD
ENDBRANCH  42  43
BRANCH  42  45
HETATM   45  O7  UNL     1      -0.726  -2.613  -3.326  1.00  0.00    -0.369 OA
ATOM     46  H7  UNL     1      -0.382  -2.962  -4.139  1.00  0.00     0.212 HD
ENDBRANCH  42  45
ENDBRANCH   1  42
TORSDOF 10
