REMARK  12 active torsions:
REMARK  status: ('A' for Active; 'I' for Inactive)
REMARK    1  A    between atoms: C2_2  and  C3_4 
REMARK    2  A    between atoms: C3_4  and  N1_5 
REMARK    3  A    between atoms: C3_4  and  N2_9 
REMARK    4  A    between atoms: C3_4  and  C10_21 
REMARK       I    between atoms: N2_9  and  C4_11 
REMARK    5  A    between atoms: C4_11  and  C5_13 
REMARK       I    between atoms: C10_21  and  N4_23 
REMARK    6  A    between atoms: N4_23  and  C11_25 
REMARK    7  A    between atoms: C11_25  and  C12_26 
REMARK    8  A    between atoms: C11_25  and  C16_37 
REMARK       I    between atoms: C12_26  and  N5_28 
REMARK    9  A    between atoms: N5_28  and  C13_30 
REMARK   10  A    between atoms: C13_30  and  C14_31 
REMARK   11  A    between atoms: C14_31  and  C15_32 
REMARK   12  A    between atoms: C15_32  and  N6_33 
ROOT
HETATM    1  C3  UNL     1       2.045  -1.185  -1.079  1.00  0.00     0.338 C 
ENDROOT
BRANCH   1   2
HETATM    2  C2  UNL     1       2.758  -1.419  -2.439  1.00  0.00     0.189 C 
HETATM    3  C1  UNL     1       2.693  -0.316  -3.471  1.00  0.00     0.096 C 
HETATM    4  O1  UNL     1       3.301  -2.494  -2.708  1.00  0.00    -0.293 OA
ENDBRANCH   1   2
BRANCH   1   5
HETATM    5  N1  UNL     1       2.509  -2.189  -0.115  1.00  0.00    -0.036 N 
ATOM      6  H13 UNL     1       2.387  -3.142  -0.458  1.00  0.00     0.278 HD
ATOM      7  H12 UNL     1       3.525  -2.199  -0.024  1.00  0.00     0.278 HD
ATOM      8  H11 UNL     1       2.041  -2.035   0.778  1.00  0.00     0.278 HD
ENDBRANCH   1   5
BRANCH   1   9
HETATM    9  N2  UNL     1       0.599  -1.300  -1.264  1.00  0.00    -0.313 N 
HETATM   10  C4  UNL     1      -0.236  -2.376  -1.118  1.00  0.00     0.251 C 
HETATM   11  O2  UNL     1      -1.101  -2.484  -2.002  1.00  0.00    -0.271 OA
ATOM     12  H2  UNL     1       0.136  -0.437  -1.549  1.00  0.00     0.166 HD
BRANCH  10  13
HETATM   13  C5  UNL     1      -0.209  -3.272   0.174  1.00  0.00     0.283 C 
HETATM   14  N3  UNL     1      -1.605  -3.735   0.483  1.00  0.00    -0.057 N 
HETATM   15  C6  UNL     1      -1.686  -2.810   1.612  1.00  0.00     0.193 C 
ATOM     16  H32 UNL     1      -2.319  -3.706  -0.245  1.00  0.00     0.278 HD
ATOM     17  H31 UNL     1      -1.786  -4.728   0.631  1.00  0.00     0.278 HD
HETATM   18  C7  UNL     1      -1.548  -3.586   2.925  1.00  0.00     0.034 C 
HETATM   19  C9  UNL     1      -0.175  -2.608   1.569  1.00  0.00     0.056 C 
HETATM   20  C8  UNL     1      -0.013  -3.600   2.740  1.00  0.00     0.011 C 
ENDBRANCH  10  13
ENDBRANCH   1   9
BRANCH   1  21
HETATM   21  C10 UNL     1       2.385   0.230  -0.502  1.00  0.00     0.283 C 
HETATM   22  O3  UNL     1       3.503   0.731  -0.592  1.00  0.00    -0.268 OA
HETATM   23  N4  UNL     1       1.362   0.828   0.212  1.00  0.00    -0.343 N 
ATOM     24  H4  UNL     1       0.565   0.269   0.518  1.00  0.00     0.163 HD
BRANCH  23  25
HETATM   25  C11 UNL     1       1.412   2.263   0.535  1.00  0.00     0.180 C 
BRANCH  25  26
HETATM   26  C12 UNL     1       0.158   2.919  -0.083  1.00  0.00     0.240 C 
HETATM   27  O4  UNL     1       0.165   4.059  -0.536  1.00  0.00    -0.271 OA
HETATM   28  N5  UNL     1      -0.980   2.122  -0.064  1.00  0.00    -0.359 N 
ATOM     29  H5  UNL     1      -0.988   1.262   0.485  1.00  0.00     0.162 HD
BRANCH  28  30
HETATM   30  C13 UNL     1      -2.157   2.505  -0.820  1.00  0.00     0.124 C 
BRANCH  30  31
HETATM   31  C14 UNL     1      -2.791   1.260  -1.432  1.00  0.00     0.047 C 
BRANCH  31  32
HETATM   32  C15 UNL     1      -3.881   1.617  -2.437  1.00  0.00     0.231 C 
BRANCH  32  33
HETATM   33  N6  UNL     1      -4.494   0.411  -2.973  1.00  0.00    -0.079 N 
ATOM     34  H63 UNL     1      -3.801  -0.221  -3.374  1.00  0.00     0.274 HD
ATOM     35  H62 UNL     1      -4.845  -0.197  -2.233  1.00  0.00     0.274 HD
ATOM     36  H61 UNL     1      -5.223   0.650  -3.645  1.00  0.00     0.274 HD
ENDBRANCH  32  33
ENDBRANCH  31  32
ENDBRANCH  30  31
ENDBRANCH  28  30
ENDBRANCH  25  26
BRANCH  25  37
HETATM   37  C16 UNL     1       1.659   2.500   2.038  1.00  0.00     0.009 C 
HETATM   38  C17 UNL     1       0.398   2.702   2.875  1.00  0.00     0.012 C 
HETATM   39  C18 UNL     1       2.609   3.691   2.227  1.00  0.00     0.012 C 
ENDBRANCH  25  37
ENDBRANCH  23  25
ENDBRANCH   1  21
TORSDOF 12
