REMARK  12 active torsions:
REMARK  status: ('A' for Active; 'I' for Inactive)
REMARK    1  A    between atoms: C4_4  and  O1_5 
REMARK    2  A    between atoms: C10_13  and  C11_14 
REMARK       I    between atoms: C11_14  and  N1_16 
REMARK    3  A    between atoms: N1_16  and  C12_18 
REMARK    4  A    between atoms: C12_18  and  C13_19 
REMARK    5  A    between atoms: C13_19  and  C14_20 
REMARK    6  A    between atoms: C14_20  and  N2_21 
REMARK    7  A    between atoms: N2_21  and  C15_24 
REMARK    8  A    between atoms: C15_24  and  C16_25 
REMARK    9  A    between atoms: C16_25  and  C17_26 
REMARK   10  A    between atoms: C17_26  and  C18_27 
REMARK   11  A    between atoms: C18_27  and  N3_28 
REMARK   12  A    between atoms: C30_40  and  O4_41 
ROOT
HETATM    1  C1  UNL     1       1.757  -2.235   3.420  1.00  0.00     0.011 C 
HETATM    2  C2  UNL     1       1.883  -0.836   2.810  1.00  0.00    -0.001 C 
HETATM    3  C3  UNL     1       3.366  -0.418   2.796  1.00  0.00     0.042 C 
HETATM    4  C4  UNL     1       3.589   1.032   2.369  1.00  0.00     0.152 C 
HETATM    5  C5  UNL     1       2.831   1.454   1.074  1.00  0.00    -0.019 C 
HETATM    6  C6  UNL     1       3.603   1.226  -0.258  1.00  0.00    -0.051 C 
HETATM    7  C7  UNL     1       4.422  -0.072  -0.357  1.00  0.00     0.118 C 
HETATM    8  C8  UNL     1       3.783  -1.331  -0.840  1.00  0.00     0.151 C 
HETATM    9  O2  UNL     1       4.215  -1.877  -1.860  1.00  0.00    -0.293 OA
HETATM   10  C9  UNL     1       2.744  -2.034  -0.015  1.00  0.00     0.048 C 
HETATM   11  C10 UNL     1       1.300  -1.508   0.210  1.00  0.00     0.091 C 
HETATM   12  C21 UNL     1       0.683  -1.050  -1.154  1.00  0.00    -0.002 C 
HETATM   13  C22 UNL     1       1.375  -0.207  -2.221  1.00  0.00     0.006 C 
HETATM   14  C23 UNL     1       1.628   1.306  -2.147  1.00  0.00    -0.041 C 
HETATM   15  C24 UNL     1       0.378   2.191  -1.898  1.00  0.00    -0.041 C 
HETATM   16  C25 UNL     1      -0.410   1.942  -0.618  1.00  0.00     0.065 C 
HETATM   17  C26 UNL     1       0.322   2.078   0.694  1.00  0.00    -0.014 C 
HETATM   18  C27 UNL     1       1.351   1.052   1.233  1.00  0.00    -0.042 C 
HETATM   19  C28 UNL     1       1.052  -0.496   1.464  1.00  0.00     0.010 C 
HETATM   20  C29 UNL     1      -0.457  -0.571   1.895  1.00  0.00     0.023 C 
HETATM   21  C30 UNL     1       0.624   3.701  -2.237  1.00  0.00     0.148 C 
HETATM   22  C31 UNL     1       2.082   4.049  -2.521  1.00  0.00     0.037 C 
HETATM   23  C32 UNL     1       2.984   3.384  -1.492  1.00  0.00     0.021 C 
HETATM   24  C33 UNL     1       3.015   1.817  -1.611  1.00  0.00     0.008 C 
HETATM   25  C34 UNL     1       4.067   1.535  -2.748  1.00  0.00     0.025 C 
ENDROOT
BRANCH  11  26
HETATM   26  C11 UNL     1       0.575  -2.912   0.517  1.00  0.00     0.235 C 
HETATM   27  O3  UNL     1       1.158  -3.832   1.100  1.00  0.00    -0.272 OA
HETATM   28  N1  UNL     1      -0.719  -3.106   0.087  1.00  0.00    -0.360 N 
ATOM     29  H1  UNL     1      -1.267  -2.302  -0.217  1.00  0.00     0.162 HD
BRANCH  28  30
HETATM   30  C12 UNL     1      -1.324  -4.430   0.056  1.00  0.00     0.124 C 
BRANCH  30  31
HETATM   31  C13 UNL     1      -2.100  -4.668  -1.246  1.00  0.00     0.047 C 
BRANCH  31  32
HETATM   32  C14 UNL     1      -3.604  -4.444  -1.076  1.00  0.00     0.234 C 
BRANCH  32  33
HETATM   33  N2  UNL     1      -3.883  -3.055  -0.725  1.00  0.00    -0.075 N 
ATOM     34  H22 UNL     1      -3.028  -2.552  -0.486  1.00  0.00     0.277 HD
ATOM     35  H21 UNL     1      -4.162  -2.513  -1.543  1.00  0.00     0.277 HD
BRANCH  33  36
HETATM   36  C15 UNL     1      -4.875  -2.958   0.343  1.00  0.00     0.232 C 
BRANCH  36  37
HETATM   37  C16 UNL     1      -5.376  -1.525   0.533  1.00  0.00     0.029 C 
BRANCH  37  38
HETATM   38  C17 UNL     1      -4.261  -0.516   0.815  1.00  0.00     0.032 C 
BRANCH  38  39
HETATM   39  C18 UNL     1      -4.832   0.883   1.092  1.00  0.00     0.271 C 
BRANCH  39  40
HETATM   40  N3  UNL     1      -4.055   1.935   0.415  1.00  0.00     0.080 N 
HETATM   41  C19 UNL     1      -4.415   2.014  -1.007  1.00  0.00     0.309 C 
HETATM   42  C20 UNL     1      -4.303   3.231   1.050  1.00  0.00     0.309 C 
ENDBRANCH  39  40
ENDBRANCH  38  39
ENDBRANCH  37  38
ENDBRANCH  36  37
ENDBRANCH  33  36
ENDBRANCH  32  33
ENDBRANCH  31  32
ENDBRANCH  30  31
ENDBRANCH  28  30
ENDBRANCH  11  26
BRANCH   4  43
HETATM   43  O1  UNL     1       4.978   1.322   2.273  1.00  0.00    -0.391 OA
ATOM     44  H1  UNL     1       5.117   2.224   2.008  1.00  0.00     0.210 HD
ENDBRANCH   4  43
BRANCH  21  45
HETATM   45  O4  UNL     1       0.173   4.583  -1.208  1.00  0.00    -0.391 OA
ATOM     46  H4  UNL     1       0.322   5.498  -1.414  1.00  0.00     0.210 HD
ENDBRANCH  21  45
TORSDOF 12
