REMARK  13 active torsions:
REMARK  status: ('A' for Active; 'I' for Inactive)
REMARK    1  A    between atoms: O1_2  and  C2_3 
REMARK    2  A    between atoms: C2_3  and  C3_5 
REMARK    3  A    between atoms: C6_9  and  C7_10 
REMARK    4  A    between atoms: C7_10  and  O4_11 
REMARK    5  A    between atoms: C8_13  and  O5_14 
REMARK    6  A    between atoms: C8_13  and  C9_16 
REMARK    7  A    between atoms: C9_16  and  C10_17 
REMARK    8  A    between atoms: C10_17  and  C11_18 
REMARK    9  A    between atoms: C11_18  and  C12_19 
REMARK   10  A    between atoms: C17_24  and  C19_26 
REMARK   11  A    between atoms: C20_27  and  C21_28 
REMARK   12  A    between atoms: C21_28  and  C22_30 
REMARK   13  A    between atoms: C22_30  and  C24_32 
ROOT
HETATM    1  C3  UNL     1       2.037  -1.182   0.248  1.00  0.00     0.168 C 
HETATM    2  O3  UNL     1       2.696  -2.354   1.043  1.00  0.00    -0.362 OA
HETATM    3  C4  UNL     1       1.497  -2.092   1.913  1.00  0.00     0.133 C 
HETATM    4  C5  UNL     1       0.385  -2.633   1.038  1.00  0.00     0.051 C 
HETATM    5  C6  UNL     1       0.681  -1.800  -0.236  1.00  0.00     0.056 C 
HETATM    6  C8  UNL     1      -0.421  -0.727  -0.524  1.00  0.00     0.072 C 
HETATM    7  C15 UNL     1      -1.055  -0.105   0.747  1.00  0.00     0.040 C 
HETATM    8  C16 UNL     1      -0.262   0.957   1.502  1.00  0.00     0.016 C 
HETATM    9  C17 UNL     1       1.183   0.767   2.012  1.00  0.00    -0.017 C 
HETATM   10  C18 UNL     1       1.183   0.870   3.562  1.00  0.00     0.020 C 
HETATM   11  C25 UNL     1       1.880  -0.570   1.679  1.00  0.00     0.072 C 
ENDROOT
BRANCH   9  12
HETATM   12  C19 UNL     1       2.161   1.856   1.495  1.00  0.00    -0.013 C 
HETATM   13  C20 UNL     1       2.034   3.098   0.993  1.00  0.00     0.047 C 
BRANCH  13  14
HETATM   14  C21 UNL     1       0.812   3.938   0.907  1.00  0.00     0.153 C 
HETATM   15  O6  UNL     1       0.144   4.113   1.928  1.00  0.00    -0.293 OA
BRANCH  14  16
HETATM   16  C22 UNL     1       0.405   4.590  -0.423  1.00  0.00     0.069 C 
HETATM   17  C23 UNL     1      -0.884   3.933  -0.932  1.00  0.00     0.019 C 
BRANCH  16  18
HETATM   18  C24 UNL     1       1.504   4.615  -1.485  1.00  0.00     0.126 C 
HETATM   19 CL1  UNL     1       1.044   5.591  -2.908  1.00  0.00    -0.130 Cl
ENDBRANCH  16  18
ENDBRANCH  14  16
ENDBRANCH  13  14
ENDBRANCH   9  12
BRANCH   1  20
HETATM   20  C2  UNL     1       3.027  -0.530  -0.807  1.00  0.00     0.295 C 
HETATM   21  O2  UNL     1       3.015   0.623  -1.233  1.00  0.00    -0.262 OA
BRANCH  20  22
HETATM   22  O1  UNL     1       3.975  -1.440  -1.225  1.00  0.00    -0.324 OA
HETATM   23  C1  UNL     1       4.893  -0.952  -2.208  1.00  0.00     0.213 C 
ENDBRANCH  20  22
ENDBRANCH   1  20
BRANCH   6  24
HETATM   24  O5  UNL     1       0.163   0.349  -1.273  1.00  0.00    -0.389 OA
ATOM     25  H5  UNL     1      -0.506   1.000  -1.448  1.00  0.00     0.210 HD
ENDBRANCH   6  24
BRANCH   6  26
HETATM   26  C9  UNL     1      -1.593  -1.267  -1.416  1.00  0.00     0.050 C 
BRANCH  26  27
HETATM   27  C10 UNL     1      -2.392  -2.403  -0.852  1.00  0.00     0.083 C 
BRANCH  27  28
HETATM   28  C11 UNL     1      -3.627  -2.315  -0.444  1.00  0.00    -0.179 C 
BRANCH  28  29
HETATM   29  C12 UNL     1      -4.870  -2.246  -0.056  1.00  0.00     0.044 C 
HETATM   30  C13 UNL     1      -5.562  -3.413   0.592  1.00  0.00     0.022 C 
HETATM   31  C14 UNL     1      -5.711  -1.031  -0.325  1.00  0.00     0.022 C 
ENDBRANCH  28  29
ENDBRANCH  27  28
ENDBRANCH  26  27
ENDBRANCH   6  26
BRANCH   5  32
HETATM   32  C7  UNL     1       1.023  -2.717  -1.429  1.00  0.00     0.180 C 
BRANCH  32  33
HETATM   33  O4  UNL     1       1.195  -1.930  -2.605  1.00  0.00    -0.400 OA
ATOM     34  H4  UNL     1       1.406  -2.495  -3.339  1.00  0.00     0.209 HD
ENDBRANCH  32  33
ENDBRANCH   5  32
TORSDOF 13
