REMARK  19 active torsions:
REMARK  status: ('A' for Active; 'I' for Inactive)
REMARK       I    between atoms: N1_2  and  C2_4 
REMARK    1  A    between atoms: C2_4  and  C3_6 
REMARK    2  A    between atoms: C3_6  and  C6_9 
REMARK    3  A    between atoms: C6_9  and  C7_11 
REMARK       I    between atoms: C7_11  and  N3_13 
REMARK    4  A    between atoms: N3_13  and  C9_15 
REMARK    5  A    between atoms: C9_15  and  C10_16 
REMARK    6  A    between atoms: C10_16  and  C11_17 
REMARK    7  A    between atoms: C10_16  and  C18_27 
REMARK    8  A    between atoms: C11_17  and  C12_18 
REMARK    9  A    between atoms: C12_18  and  C13_19 
REMARK   10  A    between atoms: C18_27  and  C19_28 
REMARK   11  A    between atoms: C18_27  and  N5_35 
REMARK   12  A    between atoms: C19_28  and  C20_29 
REMARK       I    between atoms: N5_35  and  C26_37 
REMARK   13  A    between atoms: C26_37  and  C27_39 
REMARK   14  A    between atoms: C27_39  and  C28_40 
REMARK       I    between atoms: C28_40  and  N6_42 
REMARK   15  A    between atoms: N6_42  and  C29_44 
REMARK   16  A    between atoms: C29_44  and  C30_45 
REMARK   17  A    between atoms: C30_45  and  C31_46 
REMARK   18  A    between atoms: C31_46  and  C32_47 
REMARK   19  A    between atoms: C32_47  and  N7_48 
ROOT
HETATM    1  C18 UNL     1      -0.003   0.266  -1.145  1.00  0.00     0.090 C 
ENDROOT
BRANCH   1   2
HETATM    2  C10 UNL     1      -1.047  -0.066  -0.015  1.00  0.00     0.026 C 
BRANCH   2   3
HETATM    3  C9  UNL     1      -0.794  -1.500   0.530  1.00  0.00     0.132 C 
BRANCH   3   4
HETATM    4  N3  UNL     1       0.318  -1.648   1.455  1.00  0.00    -0.351 N 
HETATM    5  C7  UNL     1       1.239  -2.685   1.456  1.00  0.00     0.264 C 
HETATM    6  O2  UNL     1       2.232  -2.624   2.197  1.00  0.00    -0.267 OA
HETATM    7  C8  UNL     1       0.305  -0.771   2.614  1.00  0.00     0.152 C 
BRANCH   5   8
HETATM    8  C6  UNL     1       1.089  -3.947   0.540  1.00  0.00     0.108 C 
HETATM    9  N2  UNL     1       1.386  -3.613  -0.873  1.00  0.00    -0.100 NA
BRANCH   8  10
HETATM   10  C3  UNL     1      -0.103  -4.933   0.816  1.00  0.00     0.079 C 
HETATM   11  C4  UNL     1       0.333  -6.387   0.492  1.00  0.00     0.031 C 
HETATM   12  C5  UNL     1      -0.477  -4.926   2.316  1.00  0.00     0.031 C 
BRANCH  10  13
HETATM   13  C2  UNL     1      -1.372  -4.628  -0.009  1.00  0.00     0.231 C 
HETATM   14  N1  UNL     1      -1.281  -4.833  -1.379  1.00  0.00    -0.364 N 
HETATM   15  C1  UNL     1      -2.453  -4.632  -2.202  1.00  0.00     0.149 C 
ATOM     16  H1  UNL     1      -0.398  -5.122  -1.800  1.00  0.00     0.161 HD
HETATM   17  O1  UNL     1      -2.400  -4.191   0.496  1.00  0.00    -0.272 OA
ENDBRANCH  10  13
ENDBRANCH   8  10
ENDBRANCH   5   8
ENDBRANCH   3   4
ENDBRANCH   2   3
BRANCH   2  18
HETATM   18  C11 UNL     1      -2.552   0.001  -0.405  1.00  0.00     0.009 C 
BRANCH  18  19
HETATM   19  C12 UNL     1      -3.442   0.329   0.815  1.00  0.00     0.005 C 
BRANCH  19  20
HETATM   20  C13 UNL     1      -3.544   1.853   1.038  1.00  0.00    -0.011 C 
HETATM   21  C14 UNL     1      -3.493   2.216   2.527  1.00  0.00     0.032 C 
HETATM   22  C15 UNL     1      -3.659   3.722   2.720  1.00  0.00     0.232 C 
HETATM   23  N4  UNL     1      -4.915   4.194   2.134  1.00  0.00    -0.075 N 
HETATM   24  C16 UNL     1      -4.981   3.909   0.699  1.00  0.00     0.232 C 
ATOM     25  H42 UNL     1      -5.723   3.813   2.627  1.00  0.00     0.277 HD
ATOM     26  H41 UNL     1      -5.066   5.185   2.324  1.00  0.00     0.277 HD
HETATM   27  C17 UNL     1      -4.834   2.416   0.417  1.00  0.00     0.032 C 
ENDBRANCH  19  20
ENDBRANCH  18  19
ENDBRANCH   2  18
ENDBRANCH   1   2
BRANCH   1  28
HETATM   28  C19 UNL     1      -0.541   1.086  -2.344  1.00  0.00     0.030 C 
BRANCH  28  29
HETATM   29  C20 UNL     1      -1.215   0.239  -3.448  1.00  0.00    -0.013 C 
HETATM   30  C21 UNL     1      -2.208   1.098  -4.251  1.00  0.00     0.005 C 
HETATM   31  C22 UNL     1      -2.863   0.306  -5.383  1.00  0.00     0.000 C 
HETATM   32  C23 UNL     1      -1.819  -0.295  -6.318  1.00  0.00     0.000 C 
HETATM   33  C24 UNL     1      -0.801  -1.134  -5.552  1.00  0.00     0.000 C 
HETATM   34  C25 UNL     1      -0.164  -0.349  -4.405  1.00  0.00     0.005 C 
ENDBRANCH  28  29
ENDBRANCH   1  28
BRANCH   1  35
HETATM   35  N5  UNL     1       1.215   0.932  -0.615  1.00  0.00    -0.353 N 
HETATM   36  C26 UNL     1       1.229   2.224  -0.111  1.00  0.00     0.262 C 
HETATM   37  O3  UNL     1       0.168   2.795   0.147  1.00  0.00    -0.270 OA
ATOM     38  H5  UNL     1       2.091   0.409  -0.622  1.00  0.00     0.163 HD
BRANCH  36  39
HETATM   39  C27 UNL     1       2.610   2.959  -0.001  1.00  0.00     0.221 C 
HETATM   40  C33 UNL     1       3.896   2.108  -0.094  1.00  0.00     0.058 C 
HETATM   41  C34 UNL     1       4.345   1.753  -1.514  1.00  0.00     0.006 C 
HETATM   42  C35 UNL     1       4.278   2.950  -2.440  1.00  0.00     0.026 C 
HETATM   43  C36 UNL     1       2.899   3.568  -2.356  1.00  0.00     0.170 C 
HETATM   44  O5  UNL     1       2.635   3.988  -1.030  1.00  0.00    -0.361 OA
BRANCH  39  45
HETATM   45  C28 UNL     1       2.645   3.803   1.321  1.00  0.00     0.262 C 
HETATM   46  O4  UNL     1       2.639   5.042   1.328  1.00  0.00    -0.270 OA
HETATM   47  N6  UNL     1       2.732   3.237   2.558  1.00  0.00    -0.358 N 
ATOM     48  H6  UNL     1       2.703   3.913   3.321  1.00  0.00     0.162 HD
BRANCH  47  49
HETATM   49  C29 UNL     1       2.858   1.863   3.001  1.00  0.00     0.122 C 
BRANCH  49  50
HETATM   50  C30 UNL     1       4.262   1.610   3.544  1.00  0.00     0.021 C 
BRANCH  50  51
HETATM   51  C31 UNL     1       4.487   0.174   4.020  1.00  0.00     0.029 C 
BRANCH  51  52
HETATM   52  C32 UNL     1       3.581  -0.300   5.157  1.00  0.00     0.229 C 
BRANCH  52  53
HETATM   53  N7  UNL     1       3.706   0.518   6.358  1.00  0.00    -0.079 N 
ATOM     54  H73 UNL     1       4.678   0.572   6.664  1.00  0.00     0.274 HD
ATOM     55  H72 UNL     1       3.543   1.503   6.148  1.00  0.00     0.274 HD
ATOM     56  H71 UNL     1       3.102   0.202   7.116  1.00  0.00     0.274 HD
ENDBRANCH  52  53
ENDBRANCH  51  52
ENDBRANCH  50  51
ENDBRANCH  49  50
ENDBRANCH  47  49
ENDBRANCH  39  45
ENDBRANCH  36  39
ENDBRANCH   1  35
TORSDOF 19
