REMARK  5 active torsions:
REMARK  status: ('A' for Active; 'I' for Inactive)
REMARK    1  A    between atoms: C1_2  and  C2_4 
REMARK    2  A    between atoms: C2_4  and  C3_5 
REMARK    3  A    between atoms: C3_5  and  C4_6 
REMARK    4  A    between atoms: C8_10  and  N1_11 
REMARK       I    between atoms: N1_11  and  C9_13 
REMARK    5  A    between atoms: C9_13  and  C10_15 
ROOT
HETATM    1  C4  UNL     1       3.146  -0.210   0.737  1.00  0.00    -0.035 C 
HETATM    2  C5  UNL     1       2.745  -1.682   1.144  1.00  0.00     0.015 C 
HETATM    3  C6  UNL     1       1.216  -1.262   1.117  1.00  0.00    -0.007 C 
HETATM    4  C7  UNL     1       0.182  -1.982   0.216  1.00  0.00     0.030 C 
HETATM    5  C8  UNL     1      -0.434  -1.034  -0.882  1.00  0.00     0.085 C 
HETATM    6  C15 UNL     1       0.626  -0.218  -1.723  1.00  0.00     0.030 C 
HETATM    7  C16 UNL     1       1.963  -0.455  -1.067  1.00  0.00    -0.007 C 
HETATM    8  C17 UNL     1       3.385   0.088  -0.803  1.00  0.00     0.015 C 
HETATM    9  C18 UNL     1       1.679  -0.011   0.402  1.00  0.00     0.002 C 
ENDROOT
BRANCH   5  10
HETATM   10  N1  UNL     1      -1.273  -1.813  -1.787  1.00  0.00    -0.356 N 
HETATM   11  C9  UNL     1      -2.553  -1.651  -2.208  1.00  0.00     0.222 C 
HETATM   12  O3  UNL     1      -2.913  -2.324  -3.179  1.00  0.00    -0.273 OA
ATOM     13  H1  UNL     1      -0.810  -2.634  -2.177  1.00  0.00     0.162 HD
BRANCH  11  14
HETATM   14  C10 UNL     1      -3.542  -0.719  -1.525  1.00  0.00     0.081 C 
HETATM   15  C11 UNL     1      -3.239   0.766  -1.731  1.00  0.00     0.041 C 
HETATM   16  C12 UNL     1      -4.252   1.635  -0.986  1.00  0.00     0.233 C 
HETATM   17  N2  UNL     1      -4.303   1.278   0.433  1.00  0.00    -0.075 N 
HETATM   18  C13 UNL     1      -4.740  -0.107   0.613  1.00  0.00     0.233 C 
ATOM     19  H22 UNL     1      -3.412   1.454   0.897  1.00  0.00     0.277 HD
ATOM     20  H21 UNL     1      -4.885   1.927   0.963  1.00  0.00     0.277 HD
HETATM   21  C14 UNL     1      -3.771  -1.080  -0.054  1.00  0.00     0.041 C 
ENDBRANCH  11  14
ENDBRANCH   5  10
BRANCH   1  22
HETATM   22  C3  UNL     1       3.838   0.601   1.818  1.00  0.00     0.020 C 
BRANCH  22  23
HETATM   23  C2  UNL     1       4.040   2.061   1.436  1.00  0.00     0.114 C 
BRANCH  23  24
HETATM   24  C1  UNL     1       4.598   2.848   2.593  1.00  0.00     0.172 C 
HETATM   25  O1  UNL     1       5.792   2.982   2.816  1.00  0.00    -0.648 OA
HETATM   26  O2  UNL     1       3.648   3.376   3.393  1.00  0.00    -0.648 OA
ENDBRANCH  23  24
ENDBRANCH  22  23
ENDBRANCH   1  22
TORSDOF 5
