REMARK  5 active torsions:
REMARK  status: ('A' for Active; 'I' for Inactive)
REMARK    1  A    between atoms: C2_2  and  C3_3 
REMARK    2  A    between atoms: C3_3  and  C4_4 
REMARK    3  A    between atoms: C4_4  and  C5_5 
REMARK    4  A    between atoms: C5_5  and  N1_6 
REMARK       I    between atoms: N1_6  and  C6_8 
REMARK       I    between atoms: C6_8  and  N3_12 
REMARK    5  A    between atoms: C15_25  and  N6_26 
REMARK       I    between atoms: N6_26  and  C16_28 
ROOT
HETATM    1  N1  UNL     1      -1.767   0.585   0.476  1.00  0.00    -0.226 N 
ATOM      2  H1  UNL     1      -1.692   1.516   0.065  1.00  0.00     0.177 HD
HETATM    3  C6  UNL     1      -0.609  -0.024   0.837  1.00  0.00     0.680 C 
HETATM    4  N2  UNL     1      -0.535  -1.112   1.543  1.00  0.00    -0.234 N 
ATOM      5  H21 UNL     1       0.335  -1.570   1.814  1.00  0.00     0.174 HD
ATOM      6  H22 UNL     1      -1.373  -1.550   1.925  1.00  0.00     0.174 HD
HETATM    7  N3  UNL     1       0.519   0.565   0.323  1.00  0.00    -0.128 N 
HETATM    8  C7  UNL     1       0.838   1.958   0.248  1.00  0.00     0.176 C 
HETATM    9  N4  UNL     1       0.044   2.886  -0.177  1.00  0.00    -0.375 N 
ATOM     10  H41 UNL     1       0.271   3.879  -0.230  1.00  0.00     0.158 HD
ATOM     11  H42 UNL     1      -0.861   2.650  -0.584  1.00  0.00     0.158 HD
HETATM   12  N5  UNL     1       2.082   2.283   0.807  1.00  0.00    -0.239 NA
HETATM   13  C8  UNL     1       3.448   2.790  -0.054  1.00  0.00     0.101 C 
HETATM   14  C9  UNL     1       5.119   2.074   0.652  1.00  0.00     0.029 A 
HETATM   15  C10 UNL     1       4.605   0.314   1.115  1.00  0.00     0.019 A 
HETATM   16  C11 UNL     1       3.783   1.390   0.924  1.00  0.00     0.012 A 
HETATM   17  C12 UNL     1       3.783   1.621  -0.806  1.00  0.00    -0.054 C 
HETATM   18  C13 UNL     1       3.419   0.654  -1.983  1.00  0.00    -0.019 C 
HETATM   19  C14 UNL     1       2.166  -0.244  -2.272  1.00  0.00     0.058 C 
HETATM   20  C15 UNL     1       1.829  -1.222  -1.097  1.00  0.00     0.135 C 
HETATM   21  C18 UNL     1       1.717  -0.323   0.131  1.00  0.00     0.044 C 
HETATM   22  C19 UNL     1       2.849  -0.294   1.179  1.00  0.00     0.060 C 
HETATM   23  C20 UNL     1       2.527   1.129   1.616  1.00  0.00     0.090 C 
ENDROOT
BRANCH   1  24
HETATM   24  C5  UNL     1      -3.092   0.040   0.619  1.00  0.00     0.138 C 
BRANCH  24  25
HETATM   25  C4  UNL     1      -3.947   0.246  -0.631  1.00  0.00     0.020 C 
BRANCH  25  26
HETATM   26  C3  UNL     1      -5.299  -0.467  -0.505  1.00  0.00     0.001 C 
BRANCH  26  27
HETATM   27  C2  UNL     1      -6.104   0.023   0.704  1.00  0.00    -0.004 C 
HETATM   28  C1  UNL     1      -6.016  -0.939   1.879  1.00  0.00     0.005 C 
ENDBRANCH  26  27
ENDBRANCH  25  26
ENDBRANCH  24  25
ENDBRANCH   1  24
BRANCH  20  29
HETATM   29  N6  UNL     1       0.599  -1.970  -1.339  1.00  0.00    -0.351 N 
HETATM   30  C16 UNL     1       0.470  -3.307  -0.990  1.00  0.00     0.214 C 
HETATM   31  C17 UNL     1      -0.976  -3.773  -1.005  1.00  0.00     0.117 C 
HETATM   32  O1  UNL     1       1.415  -4.045  -0.751  1.00  0.00    -0.274 OA
ATOM     33  H6  UNL     1      -0.190  -1.495  -1.778  1.00  0.00     0.163 HD
ENDBRANCH  20  29
TORSDOF 5
