REMARK  6 active torsions:
REMARK  status: ('A' for Active; 'I' for Inactive)
REMARK       I    between atoms: C3_5  and  N2_6 
REMARK       I    between atoms: C3_5  and  N3_11 
REMARK    1  A    between atoms: N2_6  and  C4_8 
REMARK    2  A    between atoms: C4_8  and  C5_9 
REMARK    3  A    between atoms: N3_11  and  C7_13 
REMARK    4  A    between atoms: C7_13  and  C8_14 
REMARK       I    between atoms: C8_14  and  N4_16 
REMARK    5  A    between atoms: N4_16  and  C9_18 
REMARK    6  A    between atoms: C18_28  and  O2_30 
ROOT
HETATM    1  C1  UNL     1      -2.258  -3.851   1.758  1.00  0.00     0.037 C 
HETATM    2  C2  UNL     1      -2.218  -2.658   1.714  1.00  0.00     0.015 C 
HETATM    3  N1  UNL     1      -2.178  -1.318   1.651  1.00  0.00    -0.150 N 
ATOM      4  H1  UNL     1      -1.561  -0.792   2.270  1.00  0.00     0.195 HD
HETATM    5  C3  UNL     1      -2.930  -0.699   0.797  1.00  0.00     0.681 C 
HETATM    6  N2  UNL     1      -3.815  -1.262  -0.091  1.00  0.00    -0.226 N 
ATOM      7  H2  UNL     1      -4.773  -1.484   0.179  1.00  0.00     0.177 HD
HETATM    8  N3  UNL     1      -2.912   0.660   0.639  1.00  0.00    -0.217 N 
ATOM      9  H3  UNL     1      -3.278   1.071  -0.220  1.00  0.00     0.178 HD
ENDROOT
BRANCH   6  10
HETATM   10  C4  UNL     1      -3.317  -1.529  -1.444  1.00  0.00     0.137 C 
BRANCH  10  11
HETATM   11  C5  UNL     1      -4.326  -1.107  -2.506  1.00  0.00     0.016 C 
HETATM   12  C6  UNL     1      -4.486   0.405  -2.589  1.00  0.00     0.006 C 
ENDBRANCH  10  11
ENDBRANCH   6  10
BRANCH   8  13
HETATM   13  C7  UNL     1      -2.375   1.532   1.685  1.00  0.00     0.240 C 
BRANCH  13  14
HETATM   14  C8  UNL     1      -1.852   2.855   1.123  1.00  0.00     0.236 C 
HETATM   15  O1  UNL     1      -2.493   3.906   1.210  1.00  0.00    -0.272 OA
HETATM   16  N4  UNL     1      -0.616   2.868   0.510  1.00  0.00    -0.355 N 
ATOM     17  H4  UNL     1      -0.302   3.774   0.162  1.00  0.00     0.162 HD
BRANCH  16  18
HETATM   18  C9  UNL     1       0.313   1.738   0.292  1.00  0.00     0.087 C 
HETATM   19  C10 UNL     1       0.853   1.868  -1.138  1.00  0.00     0.031 C 
HETATM   20  C11 UNL     1       2.045   0.999  -1.557  1.00  0.00     0.014 C 
HETATM   21  C12 UNL     1       3.384   1.573  -1.051  1.00  0.00     0.015 C 
HETATM   22  C16 UNL     1       1.822  -0.498  -1.281  1.00  0.00     0.242 C 
HETATM   23  C13 UNL     1       4.040   0.598  -0.098  1.00  0.00     0.046 C 
HETATM   24  C14 UNL     1       4.229  -0.733  -0.856  1.00  0.00     0.244 C 
HETATM   25  C17 UNL     1       3.127  -0.253   0.834  1.00  0.00     0.229 C 
HETATM   26  N5  UNL     1       2.849  -1.089  -0.383  1.00  0.00    -0.063 N 
HETATM   27  C15 UNL     1       2.793  -2.554  -0.103  1.00  0.00     0.273 C 
HETATM   28  C18 UNL     1       2.027   0.326   1.762  1.00  0.00     0.085 C 
HETATM   29  C19 UNL     1       1.010  -0.753   2.127  1.00  0.00     0.048 C 
HETATM   30  C20 UNL     1       1.383   1.688   1.390  1.00  0.00     0.064 C 
BRANCH  28  31
HETATM   31  O2  UNL     1       2.748   0.609   2.988  1.00  0.00    -0.388 OA
ATOM     32  H2  UNL     1       2.074   0.964   3.556  1.00  0.00     0.210 HD
ENDBRANCH  28  31
ENDBRANCH  16  18
ENDBRANCH  13  14
ENDBRANCH   8  13
TORSDOF 6
