REMARK  5 active torsions:
REMARK  status: ('A' for Active; 'I' for Inactive)
REMARK    1  A    between atoms: C3_4  and  C4_5 
REMARK    2  A    between atoms: C9_10  and  C10_11 
REMARK    3  A    between atoms: C9_10  and  C17_24 
REMARK    4  A    between atoms: C10_11  and  N2_12 
REMARK    5  A    between atoms: C17_24  and  C18_25 
ROOT
HETATM    1  C4  UNL     1      -1.360  -0.450   0.089  1.00  0.00     0.021 C 
HETATM    2  C5  UNL     1      -0.905  -1.361   1.255  1.00  0.00     0.019 C 
HETATM    3  C6  UNL     1       0.787  -1.377   1.305  1.00  0.00    -0.030 C 
HETATM    4  C7  UNL     1       0.760  -0.543   2.625  1.00  0.00     0.011 C 
HETATM    5  C8  UNL     1       0.435   0.875   2.171  1.00  0.00     0.019 C 
HETATM    6  C9  UNL     1       0.815   0.839   0.670  1.00  0.00     0.031 C 
HETATM    7  C11 UNL     1       2.004  -0.104   0.941  1.00  0.00     0.012 C 
HETATM    8  C12 UNL     1       2.993  -1.128   0.353  1.00  0.00     0.016 C 
HETATM    9  C13 UNL     1       2.142  -1.721  -0.695  1.00  0.00    -0.035 A 
HETATM   10  C14 UNL     1       2.619  -1.859  -2.123  1.00  0.00     0.011 A 
HETATM   11  C15 UNL     1       2.531  -3.075  -1.252  1.00  0.00     0.011 A 
HETATM   12  C16 UNL     1       0.723  -1.448  -0.261  1.00  0.00     0.014 C 
HETATM   13  C17 UNL     1       0.036  -0.050  -0.422  1.00  0.00    -0.004 C 
ENDROOT
BRANCH   6  14
HETATM   14  C10 UNL     1       1.063   2.304   0.273  1.00  0.00     0.078 C 
HETATM   15  N3  UNL     1       0.011   3.071  -0.115  1.00  0.00    -0.389 N 
ATOM     16  H32 UNL     1      -0.899   2.613  -0.168  1.00  0.00     0.157 HD
ATOM     17  H31 UNL     1       0.175   4.043  -0.378  1.00  0.00     0.157 HD
BRANCH  14  18
HETATM   18  N2  UNL     1       2.218   2.885   0.340  1.00  0.00    -0.389 N 
ATOM     19  H22 UNL     1       3.008   2.309   0.631  1.00  0.00     0.157 HD
ATOM     20  H21 UNL     1       2.382   3.857   0.077  1.00  0.00     0.157 HD
ENDBRANCH  14  18
ENDBRANCH   6  14
BRANCH   1  21
HETATM   21  C3  UNL     1      -2.377   0.597   0.490  1.00  0.00     0.000 C 
HETATM   22  C2  UNL     1      -3.446   1.042  -0.196  1.00  0.00     0.017 C 
HETATM   23  C1  UNL     1      -3.776   0.596  -1.594  1.00  0.00     0.064 C 
HETATM   24  N1  UNL     1      -4.324   1.945   0.378  1.00  0.00    -0.108 NA
ENDBRANCH   1  21
BRANCH  13  25
HETATM   25  C18 UNL     1       0.088   0.509  -1.846  1.00  0.00     0.097 C 
HETATM   26 BR1  UNL     1      -0.658  -0.675  -3.211  1.00  0.00    -0.096 Br
ENDBRANCH  13  25
TORSDOF 5
