REMARK  2 active torsions:
REMARK  status: ('A' for Active; 'I' for Inactive)
REMARK    1  A    between atoms: C2_2  and  N1_3 
REMARK       I    between atoms: N1_3  and  C3_5 
REMARK       I    between atoms: C3_5  and  N2_7 
REMARK    2  A    between atoms: N2_7  and  C4_9 
ROOT
HETATM    1  C4  UNL     1      -1.443   0.566  -0.070  1.00  0.00     0.095 C 
HETATM    2  C5  UNL     1      -1.051  -0.935  -0.223  1.00  0.00     0.064 C 
HETATM    3  C6  UNL     1       0.396  -1.175  -0.327  1.00  0.00    -0.030 C 
HETATM    4  C7  UNL     1       1.433  -0.544   0.315  1.00  0.00     0.024 C 
HETATM    5  N3  UNL     1       2.622  -0.711  -0.432  1.00  0.00    -0.385 N 
ATOM      6  H3  UNL     1       3.611  -0.719  -0.183  1.00  0.00     0.160 HD
HETATM    7  C8  UNL     1       1.947  -0.859  -1.616  1.00  0.00     0.108 C 
HETATM    8  C9  UNL     1       1.196  -1.979  -1.128  1.00  0.00     0.135 C 
HETATM    9  N4  UNL     1       1.798  -3.085  -0.505  1.00  0.00    -0.388 N 
ATOM     10  H4  UNL     1       2.208  -3.792  -1.115  1.00  0.00     0.159 HD
HETATM   11  C10 UNL     1       1.890  -3.312   0.901  1.00  0.00     0.086 C 
HETATM   12  C11 UNL     1       2.197  -2.654   2.048  1.00  0.00     0.059 C 
HETATM   13  C12 UNL     1       2.711  -1.340   2.536  1.00  0.00     0.120 C 
HETATM   14  F1  UNL     1       3.627  -1.560   3.518  1.00  0.00    -0.206 F 
HETATM   15  C13 UNL     1       2.420  -0.009   2.333  1.00  0.00    -0.030 C 
HETATM   16  C14 UNL     1       3.167   1.025   3.126  1.00  0.00     0.048 C 
HETATM   17  C15 UNL     1       1.361   0.445   1.363  1.00  0.00     0.036 C 
HETATM   18  C16 UNL     1      -0.002   0.787   2.005  1.00  0.00     0.029 C 
HETATM   19  C17 UNL     1      -0.436   1.480   0.680  1.00  0.00     0.020 C 
HETATM   20  C18 UNL     1       1.151   1.734   0.384  1.00  0.00    -0.021 C 
HETATM   21  C19 UNL     1       1.582   3.094   0.975  1.00  0.00     0.017 C 
HETATM   22  C20 UNL     1       1.620   1.751  -1.184  1.00  0.00     0.013 C 
HETATM   23  C21 UNL     1       1.499   0.508  -2.192  1.00  0.00     0.028 C 
ENDROOT
BRANCH   1  24
HETATM   24  N2  UNL     1      -1.793   1.239  -1.316  1.00  0.00    -0.338 N 
HETATM   25  C3  UNL     1      -2.820   0.917  -2.152  1.00  0.00     0.316 C 
HETATM   26  N1  UNL     1      -3.720   0.022  -1.655  1.00  0.00    -0.343 N 
HETATM   27  O1  UNL     1      -2.876   1.403  -3.278  1.00  0.00    -0.247 OA
ATOM     28  H1  UNL     1      -3.644  -0.287  -0.686  1.00  0.00     0.164 HD
ATOM     29  H2  UNL     1      -1.210   2.030  -1.589  1.00  0.00     0.164 HD
BRANCH  26  30
HETATM   30  C2  UNL     1      -4.783  -0.494  -2.491  1.00  0.00     0.120 C 
HETATM   31  C1  UNL     1      -5.457  -1.669  -1.818  1.00  0.00     0.026 C 
ENDBRANCH  26  30
ENDBRANCH   1  24
TORSDOF 2
