REMARK  1 active torsions:
REMARK  status: ('A' for Active; 'I' for Inactive)
REMARK    1  A    between atoms: C10_11  and  O2_13 
ROOT
HETATM    1  C1  UNL     1       1.921   1.272  -1.989  1.00  0.00     0.011 C 
HETATM    2  C2  UNL     1       1.128   0.273  -1.137  1.00  0.00    -0.009 C 
HETATM    3  C3  UNL     1       1.701  -1.151  -1.280  1.00  0.00     0.016 C 
HETATM    4  C4  UNL     1       1.379  -1.948  -0.009  1.00  0.00    -0.018 C 
HETATM    5  C5  UNL     1       2.127  -3.290  -0.014  1.00  0.00     0.018 C 
HETATM    6  C6  UNL     1      -0.191  -2.226   0.095  1.00  0.00     0.178 C 
HETATM    7  O1  UNL     1      -0.985  -1.182  -0.477  1.00  0.00    -0.377 OA
HETATM    8  C7  UNL     1      -1.964  -0.352   0.179  1.00  0.00     0.084 C 
HETATM    9  C8  UNL     1      -3.207  -0.608  -0.722  1.00  0.00     0.049 C 
HETATM   10  C9  UNL     1      -2.453  -0.790   1.580  1.00  0.00     0.049 C 
HETATM   11  C10 UNL     1      -1.562   1.253   0.139  1.00  0.00     0.088 C 
HETATM   12  C11 UNL     1      -1.872   1.905  -1.236  1.00  0.00     0.049 C 
HETATM   13  C12 UNL     1      -0.104   1.682   0.684  1.00  0.00     0.027 C 
HETATM   14  C13 UNL     1       0.347   3.108   0.348  1.00  0.00     0.014 C 
HETATM   15  C14 UNL     1       1.026   0.671   0.387  1.00  0.00    -0.030 C 
HETATM   16  C15 UNL     1       2.536   0.402   0.874  1.00  0.00     0.015 C 
HETATM   17  C16 UNL     1       1.955  -1.079   1.169  1.00  0.00    -0.003 C 
HETATM   18  C17 UNL     1       0.832  -0.252   1.732  1.00  0.00     0.015 C 
ENDROOT
BRANCH  11  19
HETATM   19  O2  UNL     1      -2.471   1.946   1.046  1.00  0.00    -0.387 OA
ATOM     20  H2  UNL     1      -2.240   2.867   1.023  1.00  0.00     0.210 HD
ENDBRANCH  11  19
TORSDOF 1
