REMARK  16 active torsions:
REMARK  status: ('A' for Active; 'I' for Inactive)
REMARK       I    between atoms: C2_2  and  N1_4 
REMARK    1  A    between atoms: N1_4  and  C3_6 
REMARK    2  A    between atoms: C3_6  and  C4_7 
REMARK    3  A    between atoms: C4_7  and  C5_8 
REMARK    4  A    between atoms: C5_8  and  O3_10 
REMARK    5  A    between atoms: O3_10  and  C6_11 
REMARK    6  A    between atoms: C6_11  and  N2_12 
REMARK    7  A    between atoms: C7_13  and  N3_14 
REMARK    8  A    between atoms: C13_23  and  C14_24 
REMARK    9  A    between atoms: C14_24  and  O7_26 
REMARK   10  A    between atoms: O7_26  and  C15_27 
REMARK   11  A    between atoms: C15_27  and  C16_28 
REMARK   12  A    between atoms: N7_32  and  C17_33 
REMARK   13  A    between atoms: C21_41  and  C22_42 
REMARK       I    between atoms: C22_42  and  N10_44 
REMARK   14  A    between atoms: C23_46  and  N11_47 
REMARK   15  A    between atoms: C23_46  and  C24_50 
REMARK       I    between atoms: C24_50  and  N12_51 
REMARK   16  A    between atoms: C25_57  and  N14_58 
ROOT
HETATM    1  N2  UNL     1       0.697   1.437  -2.827  1.00  0.00    -0.142 N 
HETATM    2  C7  UNL     1      -0.549   1.758  -2.206  1.00  0.00     0.179 A 
HETATM    3  C21 UNL     1      -1.509   1.243  -3.014  1.00  0.00     0.163 A 
HETATM    4  N13 UNL     1      -0.887   0.620  -4.080  1.00  0.00    -0.182 N 
ATOM      5  H13 UNL     1      -1.384   0.170  -4.849  1.00  0.00     0.184 HD
HETATM    6  C25 UNL     1       0.473   0.680  -3.979  1.00  0.00     0.682 A 
ENDROOT
BRANCH   2   7
HETATM    7  N3  UNL     1      -0.787   2.340  -0.973  1.00  0.00    -0.212 N 
HETATM    8  C8  UNL     1       0.072   3.233  -0.300  1.00  0.00     0.250 C 
HETATM    9  O4  UNL     1       0.898   3.992  -0.777  1.00  0.00    -0.271 OA
HETATM   10  C9  UNL     1      -0.100   3.061   1.210  1.00  0.00     0.125 C 
HETATM   11  C10 UNL     1       0.114   1.615   1.497  1.00  0.00     0.003 C 
HETATM   12  C13 UNL     1      -1.377   3.453   1.480  1.00  0.00     0.190 C 
HETATM   13  C11 UNL     1      -0.749   0.843   0.805  1.00  0.00     0.089 C 
HETATM   14  N4  UNL     1      -1.656   1.554  -0.023  1.00  0.00    -0.128 NA
HETATM   15  C12 UNL     1      -2.363   2.550   0.750  1.00  0.00     0.237 C 
HETATM   16  O5  UNL     1      -3.579   2.638   0.852  1.00  0.00    -0.277 OA
BRANCH  12  17
HETATM   17  C14 UNL     1      -1.553   3.767   2.910  1.00  0.00     0.273 C 
HETATM   18  O6  UNL     1      -0.898   4.619   3.490  1.00  0.00    -0.264 OA
BRANCH  17  19
HETATM   19  O7  UNL     1      -2.389   2.888   3.496  1.00  0.00    -0.313 OA
BRANCH  19  20
HETATM   20  C15 UNL     1      -2.118   2.598   4.881  1.00  0.00     0.257 C 
BRANCH  20  21
HETATM   21  C16 UNL     1      -1.354   1.323   5.011  1.00  0.00     0.135 A 
HETATM   22  N5  UNL     1      -0.355   1.148   5.921  1.00  0.00    -0.268 N 
HETATM   23  N6  UNL     1       0.137  -0.064   5.704  1.00  0.00     0.003 NA
ATOM     24  H5  UNL     1      -0.047   1.816   6.628  1.00  0.00     0.185 HD
HETATM   25  N7  UNL     1      -0.574  -0.582   4.669  1.00  0.00    -0.178 N 
HETATM   26  N9  UNL     1      -1.524   0.274   4.197  1.00  0.00    -0.266 N 
ATOM     27  H9  UNL     1      -2.186   0.149   3.431  1.00  0.00     0.190 HD
BRANCH  25  28
HETATM   28  C17 UNL     1      -0.314  -1.843   4.079  1.00  0.00     0.089 A 
HETATM   29  C18 UNL     1       0.681  -2.771   4.481  1.00  0.00     0.051 A 
HETATM   30  C19 UNL     1       0.614  -3.834   3.605  1.00  0.00     0.090 A 
HETATM   31  N8  UNL     1      -0.386  -3.583   2.697  1.00  0.00    -0.373 N 
HETATM   32  C20 UNL     1      -0.975  -2.383   2.993  1.00  0.00     0.120 A 
ATOM     33  H8  UNL     1      -0.648  -4.194   1.924  1.00  0.00     0.164 HD
ENDBRANCH  25  28
ENDBRANCH  20  21
ENDBRANCH  19  20
ENDBRANCH  17  19
ENDBRANCH  12  17
ENDBRANCH   2   7
BRANCH   1  34
HETATM   34  C6  UNL     1       2.002   1.685  -2.244  1.00  0.00     0.330 C 
BRANCH  34  35
HETATM   35  O3  UNL     1       2.984   0.773  -2.749  1.00  0.00    -0.300 OA
BRANCH  35  36
HETATM   36  C5  UNL     1       4.046   0.613  -1.923  1.00  0.00     0.261 C 
HETATM   37  O2  UNL     1       4.282   1.295  -0.937  1.00  0.00    -0.265 OA
BRANCH  36  38
HETATM   38  C4  UNL     1       4.871  -0.565  -2.357  1.00  0.00     0.131 C 
BRANCH  38  39
HETATM   39  C3  UNL     1       5.126  -1.474  -1.162  1.00  0.00     0.132 C 
BRANCH  39  40
HETATM   40  N1  UNL     1       3.909  -1.934  -0.509  1.00  0.00    -0.361 N 
HETATM   41  C2  UNL     1       3.042  -2.914  -0.897  1.00  0.00     0.213 C 
HETATM   42  C1  UNL     1       3.386  -3.716  -2.122  1.00  0.00     0.117 C 
HETATM   43  O1  UNL     1       2.023  -3.121  -0.240  1.00  0.00    -0.274 OA
ATOM     44  H1  UNL     1       3.671  -1.457   0.361  1.00  0.00     0.162 HD
ENDBRANCH  39  40
ENDBRANCH  38  39
ENDBRANCH  36  38
ENDBRANCH  35  36
ENDBRANCH  34  35
ENDBRANCH   1  34
BRANCH   3  45
HETATM   45  C22 UNL     1      -2.984   1.294  -2.876  1.00  0.00     0.278 C 
HETATM   46  O8  UNL     1      -3.570   2.165  -2.253  1.00  0.00    -0.265 OA
HETATM   47  N10 UNL     1      -3.599   0.272  -3.560  1.00  0.00    -0.303 N 
HETATM   48  C23 UNL     1      -4.157  -0.659  -2.840  1.00  0.00     0.170 C 
ATOM     49  H10 UNL     1      -3.617   0.244  -4.579  1.00  0.00     0.171 HD
BRANCH  48  50
HETATM   50  N11 UNL     1      -4.772  -1.721  -3.458  1.00  0.00    -0.381 N 
ATOM     51 2H11 UNL     1      -4.793  -1.719  -4.478  1.00  0.00     0.157 HD
ATOM     52 1H11 UNL     1      -5.209  -2.450  -2.894  1.00  0.00     0.157 HD
ENDBRANCH  48  50
BRANCH  48  53
HETATM   53  C24 UNL     1      -4.125  -0.662  -1.297  1.00  0.00     0.282 C 
HETATM   54  N12 UNL     1      -4.947   0.245  -0.697  1.00  0.00    -0.363 N 
ATOM     55 2H12 UNL     1      -5.547   0.908  -1.188  1.00  0.00     0.159 HD
ATOM     56 1H12 UNL     1      -4.926   0.243   0.323  1.00  0.00     0.159 HD
HETATM   57  O9  UNL     1      -3.407  -1.455  -0.710  1.00  0.00    -0.265 OA
ENDBRANCH  48  53
ENDBRANCH   3  45
BRANCH   6  58
HETATM   58  N14 UNL     1       1.279   0.097  -4.786  1.00  0.00    -0.234 N 
ATOM     59 2H14 UNL     1       2.295   0.142  -4.711  1.00  0.00     0.174 HD
ATOM     60 1H14 UNL     1       1.115  -0.456  -5.627  1.00  0.00     0.174 HD
ENDBRANCH   6  58
TORSDOF 16
