REMARK  7 active torsions:
REMARK  status: ('A' for Active; 'I' for Inactive)
REMARK    1  A    between atoms: N1_1  and  C1_5 
REMARK    2  A    between atoms: C1_5  and  C2_6 
REMARK    3  A    between atoms: C2_6  and  C3_7 
REMARK    4  A    between atoms: C3_7  and  N4_13 
REMARK    5  A    between atoms: N2_8  and  N3_10 
REMARK    6  A    between atoms: N4_13  and  C4_15 
REMARK    7  A    between atoms: C5_16  and  C9_20 
ROOT
HETATM    1  C3  UNL     1      -1.429  -0.774  -0.367  1.00  0.00     0.093 C 
HETATM    2  N2  UNL     1      -2.217  -0.727   0.672  1.00  0.00    -0.296 N 
ATOM      3  H2  UNL     1      -3.124  -0.261   0.647  1.00  0.00     0.187 HD
ENDROOT
BRANCH   1   4
HETATM    4  C2  UNL     1      -1.981  -0.208  -1.675  1.00  0.00     0.105 C 
BRANCH   4   5
HETATM    5  C1  UNL     1      -2.323   1.275  -1.544  1.00  0.00     0.237 C 
BRANCH   5   6
HETATM    6  N1  UNL     1      -3.660   1.470  -0.988  1.00  0.00    -0.079 N 
ATOM      7  H13 UNL     1      -4.366   0.971  -1.530  1.00  0.00     0.274 HD
ATOM      8  H12 UNL     1      -3.769   0.982  -0.099  1.00  0.00     0.274 HD
ATOM      9  H11 UNL     1      -3.888   2.460  -0.901  1.00  0.00     0.274 HD
ENDBRANCH   5   6
ENDBRANCH   4   5
ENDBRANCH   1   4
BRANCH   1  10
HETATM   10  N4  UNL     1      -0.145  -1.321  -0.378  1.00  0.00    -0.373 N 
ATOM     11  H4  UNL     1       0.044  -2.321  -0.310  1.00  0.00     0.161 HD
BRANCH  10  12
HETATM   12  C4  UNL     1       0.892  -0.314  -0.497  1.00  0.00     0.092 C 
HETATM   13  C5  UNL     1       2.363  -0.901  -0.251  1.00  0.00     0.018 C 
HETATM   14  C6  UNL     1       1.987  -0.769   1.284  1.00  0.00     0.003 C 
HETATM   15  C7  UNL     1       1.182   0.523   0.837  1.00  0.00     0.018 C 
HETATM   16  C10 UNL     1       3.156   0.044   1.490  1.00  0.00     0.000 A 
HETATM   17  C8  UNL     1       2.535   1.187   0.798  1.00  0.00     0.002 A 
HETATM   18  C9  UNL     1       3.363   0.191   0.038  1.00  0.00     0.002 A 
ENDBRANCH  10  12
ENDBRANCH   1  10
BRANCH   2  19
HETATM   19  N3  UNL     1      -1.751  -1.338   1.784  1.00  0.00    -0.344 N 
ATOM     20  H32 UNL     1      -0.842  -1.800   1.794  1.00  0.00     0.176 HD
ATOM     21  H31 UNL     1      -2.367  -1.301   2.596  1.00  0.00     0.176 HD
ENDBRANCH   2  19
TORSDOF 7
