REMARK  10 active torsions:
REMARK  status: ('A' for Active; 'I' for Inactive)
REMARK       I    between atoms: N1_4  and  C4_6 
REMARK    1  A    between atoms: C4_6  and  C5_8 
REMARK    2  A    between atoms: C7_10  and  C8_11 
REMARK    3  A    between atoms: C8_11  and  C9_12 
REMARK    4  A    between atoms: C9_12  and  C10_13 
REMARK    5  A    between atoms: C10_13  and  C11_14 
REMARK       I    between atoms: N2_17  and  C14_18 
REMARK    6  A    between atoms: C14_18  and  C15_20 
REMARK       I    between atoms: C15_20  and  N3_22 
REMARK    7  A    between atoms: C16_24  and  N4_26 
REMARK    8  A    between atoms: N4_26  and  C18_28 
REMARK    9  A    between atoms: C25_35  and  C26_36 
REMARK   10  A    between atoms: C26_36  and  C27_37 
REMARK       I    between atoms: C27_37  and  N5_38 
ROOT
HETATM    1  C5  UNL     1       1.562   0.510   2.195  1.00  0.00     0.179 C 
HETATM    2  C6  UNL     1       1.539   0.143   0.719  1.00  0.00     0.060 C 
HETATM    3  C7  UNL     1       2.168   1.204  -0.209  1.00  0.00     0.091 C 
HETATM    4  N2  UNL     1       1.358   2.440  -0.185  1.00  0.00    -0.325 N 
HETATM    5  C14 UNL     1       0.762   2.965  -1.343  1.00  0.00     0.313 C 
HETATM    6  O2  UNL     1       1.351   3.240  -2.381  1.00  0.00    -0.262 OA
HETATM    7  C25 UNL     1       1.346   3.329   1.002  1.00  0.00     0.189 C 
HETATM    8  C28 UNL     1       0.458   2.797   2.141  1.00  0.00     0.241 C 
HETATM    9  O5  UNL     1      -0.265   3.546   2.807  1.00  0.00    -0.271 OA
HETATM   10  N6  UNL     1       0.553   1.506   2.537  1.00  0.00    -0.346 N 
ATOM     11  H6  UNL     1      -0.185   1.184   3.163  1.00  0.00     0.163 HD
ENDROOT
BRANCH   3  12
HETATM   12  C8  UNL     1       2.313   0.542  -1.607  1.00  0.00     0.025 C 
BRANCH  12  13
HETATM   13  C9  UNL     1       3.513  -0.416  -1.704  1.00  0.00     0.002 C 
BRANCH  13  14
HETATM   14  C10 UNL     1       3.247  -1.550  -2.698  1.00  0.00     0.004 C 
BRANCH  14  15
HETATM   15  C11 UNL     1       2.465  -2.719  -2.066  1.00  0.00    -0.023 C 
HETATM   16  C12 UNL     1       1.772  -3.545  -3.151  1.00  0.00     0.009 C 
HETATM   17  C13 UNL     1       3.393  -3.621  -1.244  1.00  0.00     0.009 C 
ENDBRANCH  14  15
ENDBRANCH  13  14
ENDBRANCH  12  13
ENDBRANCH   3  12
BRANCH   5  18
HETATM   18  C15 UNL     1      -0.792   3.056  -1.300  1.00  0.00     0.315 C 
HETATM   19  O3  UNL     1      -1.311   4.166  -1.262  1.00  0.00    -0.262 OA
HETATM   20  N3  UNL     1      -1.484   1.861  -1.308  1.00  0.00    -0.309 N 
HETATM   21  C16 UNL     1      -2.184   1.541  -2.359  1.00  0.00     0.076 C 
ATOM     22  H3  UNL     1      -1.448   1.237  -0.502  1.00  0.00     0.170 HD
HETATM   23  C17 UNL     1      -2.327   2.447  -3.572  1.00  0.00     0.089 C 
BRANCH  21  24
HETATM   24  N4  UNL     1      -2.827   0.314  -2.449  1.00  0.00    -0.374 N 
ATOM     25  H4  UNL     1      -3.351   0.055  -3.285  1.00  0.00     0.161 HD
BRANCH  24  26
HETATM   26  C18 UNL     1      -2.731  -0.575  -1.333  1.00  0.00     0.092 C 
HETATM   27  C19 UNL     1      -3.613  -0.215  -0.100  1.00  0.00     0.013 C 
HETATM   28  C20 UNL     1      -5.048   0.028  -0.535  1.00  0.00     0.012 C 
HETATM   29  C23 UNL     1      -3.610  -1.755   0.167  1.00  0.00    -0.002 C 
HETATM   30  C21 UNL     1      -5.165  -1.374  -1.096  1.00  0.00    -0.007 C 
HETATM   31  C22 UNL     1      -5.045  -2.316   0.125  1.00  0.00     0.010 C 
HETATM   32  C24 UNL     1      -3.683  -1.785  -1.403  1.00  0.00     0.017 C 
ENDBRANCH  24  26
ENDBRANCH  21  24
ENDBRANCH   5  18
BRANCH   7  33
HETATM   33  C26 UNL     1       2.741   3.700   1.529  1.00  0.00     0.137 C 
BRANCH  33  34
HETATM   34  C27 UNL     1       2.583   4.861   2.484  1.00  0.00     0.217 C 
HETATM   35  N5  UNL     1       2.764   4.572   3.800  1.00  0.00    -0.370 N 
ATOM     36  H52 UNL     1       3.035   3.639   4.110  1.00  0.00     0.159 HD
ATOM     37  H51 UNL     1       2.657   5.355   4.444  1.00  0.00     0.159 HD
HETATM   38  O4  UNL     1       2.257   5.982   2.112  1.00  0.00    -0.274 OA
ENDBRANCH  33  34
ENDBRANCH   7  33
BRANCH   1  39
HETATM   39  C4  UNL     1       1.334  -0.777   3.018  1.00  0.00     0.244 C 
HETATM   40  N1  UNL     1       0.081  -0.870   3.582  1.00  0.00    -0.333 N 
HETATM   41  C2  UNL     1      -0.611  -1.949   3.373  1.00  0.00    -0.018 C 
ATOM     42  H1  UNL     1      -0.294  -0.110   4.150  1.00  0.00     0.168 HD
HETATM   43  C1  UNL     1      -1.967  -2.043   4.031  1.00  0.00     0.062 C 
HETATM   44  C3  UNL     1      -0.150  -3.145   2.571  1.00  0.00     0.062 C 
HETATM   45  O1  UNL     1       2.199  -1.645   3.095  1.00  0.00    -0.271 OA
ENDBRANCH   1  39
TORSDOF 10
