REMARK  7 active torsions:
REMARK  status: ('A' for Active; 'I' for Inactive)
REMARK       I    between atoms: C2_2  and  N1_4 
REMARK    1  A    between atoms: N1_4  and  C3_6 
REMARK    2  A    between atoms: C3_6  and  C4_7 
REMARK    3  A    between atoms: C4_7  and  C5_8 
REMARK    4  A    between atoms: C5_8  and  C6_9 
REMARK    5  A    between atoms: C6_9  and  C7_10 
REMARK    6  A    between atoms: C7_10  and  N2_11 
REMARK       I    between atoms: N2_11  and  C8_13 
REMARK       I    between atoms: C8_13  and  N3_15 
REMARK    7  A    between atoms: C12_19  and  C13_20 
REMARK       I    between atoms: C13_20  and  N4_22 
ROOT
HETATM    1  N2  UNL     1      -1.566   2.980  -0.572  1.00  0.00    -0.343 N 
ATOM      2  H2  UNL     1      -0.940   3.691  -0.193  1.00  0.00     0.164 HD
HETATM    3  C8  UNL     1      -1.086   2.212  -1.612  1.00  0.00     0.318 C 
HETATM    4  O2  UNL     1      -1.742   1.429  -2.284  1.00  0.00    -0.247 OA
HETATM    5  N3  UNL     1       0.277   2.361  -1.772  1.00  0.00    -0.325 N 
HETATM    6  C9  UNL     1       1.106   1.324  -2.515  1.00  0.00     0.139 C 
HETATM    7  C10 UNL     1       2.481   1.322  -1.744  1.00  0.00     0.068 C 
HETATM    8  C11 UNL     1       3.320   0.045  -1.668  1.00  0.00    -0.004 C 
HETATM    9  C12 UNL     1       3.690  -0.643  -0.310  1.00  0.00     0.017 C 
HETATM   10  C16 UNL     1       3.747   0.177   1.072  1.00  0.00     0.016 C 
HETATM   11  C17 UNL     1       3.845  -0.803   2.275  1.00  0.00     0.022 C 
HETATM   12  C18 UNL     1       5.048   1.029   1.118  1.00  0.00     0.022 C 
HETATM   13  C19 UNL     1       2.507   1.095   1.372  1.00  0.00     0.239 C 
HETATM   14  C20 UNL     1       1.262   0.757   0.539  1.00  0.00     0.081 C 
HETATM   15  C21 UNL     1       1.934   1.746  -0.443  1.00  0.00     0.192 C 
HETATM   16  C22 UNL     1       1.192   3.029  -0.815  1.00  0.00     0.157 C 
HETATM   17  C23 UNL     1       1.323   3.294   0.695  1.00  0.00     0.302 C 
HETATM   18  N5  UNL     1       2.603   2.428   0.652  1.00  0.00     0.109 N 
ENDROOT
BRANCH   1  19
HETATM   19  C7  UNL     1      -2.882   2.868   0.033  1.00  0.00     0.124 C 
BRANCH  19  20
HETATM   20  C6  UNL     1      -3.588   1.515  -0.118  1.00  0.00     0.020 C 
BRANCH  20  21
HETATM   21  C5  UNL     1      -4.768   1.424   0.855  1.00  0.00     0.003 C 
BRANCH  21  22
HETATM   22  C4  UNL     1      -5.514   0.079   0.875  1.00  0.00     0.020 C 
BRANCH  22  23
HETATM   23  C3  UNL     1      -4.658  -1.083   1.396  1.00  0.00     0.122 C 
BRANCH  23  24
HETATM   24  N1  UNL     1      -4.896  -2.364   0.740  1.00  0.00    -0.361 N 
HETATM   25  C2  UNL     1      -4.384  -2.553  -0.532  1.00  0.00     0.213 C 
HETATM   26  C1  UNL     1      -4.284  -3.994  -0.969  1.00  0.00     0.117 C 
HETATM   27  O1  UNL     1      -3.970  -1.639  -1.224  1.00  0.00    -0.274 OA
ATOM     28  H1  UNL     1      -5.426  -3.101   1.206  1.00  0.00     0.162 HD
ENDBRANCH  23  24
ENDBRANCH  22  23
ENDBRANCH  21  22
ENDBRANCH  20  21
ENDBRANCH  19  20
ENDBRANCH   1  19
BRANCH   9  29
HETATM   29  C13 UNL     1       3.244  -2.140  -0.177  1.00  0.00     0.249 C 
HETATM   30  O3  UNL     1       4.116  -3.000  -0.058  1.00  0.00    -0.268 OA
HETATM   31  N4  UNL     1       1.896  -2.488  -0.045  1.00  0.00    -0.357 N 
HETATM   32  C14 UNL     1       1.063  -2.461  -1.242  1.00  0.00     0.152 C 
HETATM   33  C15 UNL     1       1.660  -3.671   0.783  1.00  0.00     0.152 C 
ENDBRANCH   9  29
TORSDOF 7
