REMARK  11 active torsions:
REMARK  status: ('A' for Active; 'I' for Inactive)
REMARK    1  A    between atoms: C2_2  and  C4_4 
REMARK    2  A    between atoms: C4_4  and  N1_5 
REMARK    3  A    between atoms: N1_5  and  C5_7 
REMARK    4  A    between atoms: C5_7  and  N2_9 
REMARK    5  A    between atoms: C6_10  and  C21_33 
REMARK    6  A    between atoms: C7_14  and  C8_15 
REMARK    7  A    between atoms: C8_15  and  N4_16 
REMARK       I    between atoms: N4_16  and  C9_18 
REMARK    8  A    between atoms: C9_18  and  C10_20 
REMARK    9  A    between atoms: C10_20  and  C11_21 
REMARK   10  A    between atoms: C11_21  and  N5_22 
REMARK   11  A    between atoms: C16_28  and  C17_29 
ROOT
HETATM    1  N2  UNL     1       1.854  -0.705  -1.319  1.00  0.00    -0.318 N 
HETATM    2  C6  UNL     1       1.965   0.763  -1.149  1.00  0.00     0.294 C 
HETATM    3  N3  UNL     1       1.469   1.054   0.220  1.00  0.00    -0.041 N 
ATOM      4  H31 UNL     1       0.616   1.612   0.183  1.00  0.00     0.280 HD
ATOM      5  H32 UNL     1       2.085   1.715   0.693  1.00  0.00     0.280 HD
HETATM    6  C7  UNL     1       1.263  -0.173   1.060  1.00  0.00     0.277 C 
HETATM    7  C15 UNL     1       2.462  -1.117   0.955  1.00  0.00     0.182 C 
HETATM    8  O2  UNL     1       3.063  -1.538   1.936  1.00  0.00    -0.293 OA
HETATM    9  C16 UNL     1       2.824  -1.501  -0.474  1.00  0.00     0.165 C 
ENDROOT
BRANCH   6  10
HETATM   10  C8  UNL     1       0.894   0.258   2.489  1.00  0.00     0.163 C 
BRANCH  10  11
HETATM   11  N4  UNL     1      -0.315   1.093   2.371  1.00  0.00    -0.359 N 
HETATM   12  C9  UNL     1      -1.544   0.507   2.573  1.00  0.00     0.219 C 
HETATM   13  O1  UNL     1      -1.699  -0.494   3.265  1.00  0.00    -0.274 OA
ATOM     14  H4  UNL     1      -0.242   2.085   2.144  1.00  0.00     0.162 HD
BRANCH  12  15
HETATM   15  C10 UNL     1      -2.703   1.060   1.769  1.00  0.00     0.130 C 
BRANCH  15  16
HETATM   16  C11 UNL     1      -2.756   2.577   1.667  1.00  0.00     0.245 C 
BRANCH  16  17
HETATM   17  N5  UNL     1      -3.957   3.096   0.826  1.00  0.00    -0.078 N 
HETATM   18  C12 UNL     1      -5.280   2.865   1.551  1.00  0.00     0.271 C 
HETATM   19  C13 UNL     1      -4.010   2.440  -0.554  1.00  0.00     0.271 C 
HETATM   20  C14 UNL     1      -3.782   4.607   0.629  1.00  0.00     0.271 C 
ENDBRANCH  16  17
ENDBRANCH  15  16
ENDBRANCH  12  15
ENDBRANCH  10  11
ENDBRANCH   6  10
BRANCH   2  21
HETATM   21  C21 UNL     1       3.423   1.291  -1.311  1.00  0.00     0.041 C 
HETATM   22  C20 UNL     1       4.465   1.079  -2.489  1.00  0.00     0.013 C 
HETATM   23  C19 UNL     1       5.514   0.572  -1.421  1.00  0.00    -0.009 C 
HETATM   24  C18 UNL     1       5.696  -0.973  -1.126  1.00  0.00     0.012 C 
HETATM   25  C22 UNL     1       4.334   0.423  -0.485  1.00  0.00     0.004 C 
HETATM   26  C17 UNL     1       4.153  -1.035  -1.018  1.00  0.00     0.021 C 
ENDBRANCH   2  21
BRANCH   1  27
HETATM   27  C5  UNL     1       0.874  -1.246  -2.122  1.00  0.00     0.172 C 
HETATM   28  S1  UNL     1       0.097  -0.414  -3.366  1.00  0.00    -0.041 SA
BRANCH  27  29
HETATM   29  N1  UNL     1       0.467  -2.532  -1.992  1.00  0.00    -0.367 N 
ATOM     30  H1  UNL     1       0.220  -2.954  -2.887  1.00  0.00     0.161 HD
BRANCH  29  31
HETATM   31  C4  UNL     1       0.297  -3.461  -0.869  1.00  0.00     0.126 C 
BRANCH  31  32
HETATM   32  C2  UNL     1      -1.137  -3.491  -0.289  1.00  0.00    -0.005 C 
HETATM   33  C1  UNL     1      -2.257  -3.418  -1.331  1.00  0.00     0.011 C 
HETATM   34  C3  UNL     1      -1.327  -4.766   0.540  1.00  0.00     0.011 C 
ENDBRANCH  31  32
ENDBRANCH  29  31
ENDBRANCH  27  29
ENDBRANCH   1  27
TORSDOF 11
