REMARK  10 active torsions:
REMARK  status: ('A' for Active; 'I' for Inactive)
REMARK    1  A    between atoms: C4_4  and  C5_5 
REMARK    2  A    between atoms: C5_5  and  N1_6 
REMARK    3  A    between atoms: N1_6  and  C7_8 
REMARK    4  A    between atoms: C7_8  and  C8_9 
REMARK    5  A    between atoms: C8_9  and  C9_10 
REMARK    6  A    between atoms: C10_11  and  C11_12 
REMARK    7  A    between atoms: C11_12  and  N2_13 
REMARK    8  A    between atoms: N2_13  and  C12_16 
REMARK    9  A    between atoms: C12_16  and  C13_17 
REMARK   10  A    between atoms: C26_31  and  O2_32 
ROOT
HETATM    1  C1  UNL     1      -4.582  -2.771   0.905  1.00  0.00     0.017 C 
HETATM    2  C2  UNL     1      -4.280  -1.893   0.147  1.00  0.00    -0.090 C 
HETATM    3  C3  UNL     1      -3.926  -0.847  -0.749  1.00  0.00     0.061 C 
HETATM    4  C4  UNL     1      -4.295   0.420  -0.500  1.00  0.00     0.012 C 
ENDROOT
BRANCH   4   5
HETATM    5  C5  UNL     1      -3.928   1.587  -1.361  1.00  0.00     0.300 C 
BRANCH   5   6
HETATM    6  N1  UNL     1      -3.767   2.881  -0.583  1.00  0.00     0.088 N 
HETATM    7  C6  UNL     1      -3.705   4.067  -1.509  1.00  0.00     0.310 C 
BRANCH   6   8
HETATM    8  C7  UNL     1      -2.564   2.836   0.355  1.00  0.00     0.284 C 
BRANCH   8   9
HETATM    9  C8  UNL     1      -2.719   3.814   1.529  1.00  0.00     0.124 C 
BRANCH   9  10
HETATM   10  C9  UNL     1      -1.666   3.541   2.512  1.00  0.00    -0.103 C 
HETATM   11  C10 UNL     1      -0.773   3.195   3.232  1.00  0.00    -0.079 C 
BRANCH  11  12
HETATM   12  C11 UNL     1       0.354   2.632   3.990  1.00  0.00     0.325 C 
BRANCH  12  13
HETATM   13  N2  UNL     1       1.338   2.179   3.011  1.00  0.00    -0.065 N 
ATOM     14  H22 UNL     1       0.884   1.902   2.141  1.00  0.00     0.278 HD
ATOM     15  H21 UNL     1       1.896   2.961   2.668  1.00  0.00     0.278 HD
BRANCH  13  16
HETATM   16  C12 UNL     1       2.194   1.112   3.511  1.00  0.00     0.238 C 
BRANCH  16  17
HETATM   17  C13 UNL     1       1.627  -0.234   3.147  1.00  0.00     0.021 A 
HETATM   18  C14 UNL     1       2.615  -1.374   3.051  1.00  0.00     0.018 A 
HETATM   19  C15 UNL     1       1.887  -0.932   1.822  1.00  0.00    -0.023 A 
HETATM   20  C16 UNL     1       0.950  -1.841   1.063  1.00  0.00     0.013 A 
HETATM   21  C28 UNL     1       2.402  -0.218   0.596  1.00  0.00     0.038 A 
HETATM   22  C17 UNL     1       1.278  -3.143   0.205  1.00  0.00     0.022 C 
HETATM   23  C23 UNL     1       1.454  -1.114  -0.169  1.00  0.00    -0.002 A 
HETATM   24  C18 UNL     1       0.718  -3.351  -1.298  1.00  0.00     0.017 C 
HETATM   25  C24 UNL     1       2.530  -2.558  -0.275  1.00  0.00     0.136 C 
HETATM   26  C19 UNL     1       1.185  -2.241  -2.491  1.00  0.00    -0.041 C 
HETATM   27  C20 UNL     1       0.869  -2.938  -3.848  1.00  0.00     0.015 C 
HETATM   28  C21 UNL     1       0.255  -1.034  -2.355  1.00  0.00     0.010 C 
HETATM   29  C27 UNL     1       2.726  -1.624  -2.668  1.00  0.00     0.043 C 
HETATM   30  C22 UNL     1       0.326  -0.478  -0.958  1.00  0.00     0.014 C 
HETATM   31  C26 UNL     1       3.485  -0.535  -1.727  1.00  0.00     0.148 C 
HETATM   32  C25 UNL     1       3.681  -0.695  -0.118  1.00  0.00     0.156 C 
HETATM   33  O1  UNL     1       3.754  -2.072   0.253  1.00  0.00    -0.376 OA
BRANCH  31  34
HETATM   34  O2  UNL     1       4.796  -0.374  -2.301  1.00  0.00    -0.393 OA
ATOM     35  H2  UNL     1       4.682  -0.281  -3.239  1.00  0.00     0.210 HD
ENDBRANCH  31  34
ENDBRANCH  16  17
ENDBRANCH  13  16
ENDBRANCH  12  13
ENDBRANCH  11  12
ENDBRANCH   9  10
ENDBRANCH   8   9
ENDBRANCH   6   8
ENDBRANCH   5   6
ENDBRANCH   4   5
TORSDOF 10
