REMARK  10 active torsions:
REMARK  status: ('A' for Active; 'I' for Inactive)
REMARK       I    between atoms: C2_2  and  N1_4 
REMARK    1  A    between atoms: C3_6  and  C4_7 
REMARK    2  A    between atoms: C12_15  and  C13_16 
REMARK       I    between atoms: C13_16  and  N2_18 
REMARK    3  A    between atoms: N2_18  and  C14_20 
REMARK    4  A    between atoms: C14_20  and  C15_21 
REMARK       I    between atoms: C15_21  and  N3_23 
REMARK    5  A    between atoms: N3_23  and  C16_25 
REMARK    6  A    between atoms: C16_25  and  C17_26 
REMARK    7  A    between atoms: C18_27  and  C19_28 
REMARK    8  A    between atoms: C19_28  and  C20_29 
REMARK    9  A    between atoms: C20_29  and  C21_30 
REMARK   10  A    between atoms: C21_30  and  N4_31 
ROOT
HETATM    1  C13 UNL     1      -1.542  -0.138  -0.799  1.00  0.00     0.228 C 
HETATM    2  O2  UNL     1      -0.543  -0.734  -0.383  1.00  0.00    -0.273 OA
HETATM    3  N2  UNL     1      -2.677  -0.816  -1.203  1.00  0.00    -0.352 N 
ATOM      4  H2  UNL     1      -3.402  -0.321  -1.722  1.00  0.00     0.162 HD
ENDROOT
BRANCH   3   5
HETATM    5  C14 UNL     1      -2.848  -2.227  -0.896  1.00  0.00     0.225 C 
BRANCH   5   6
HETATM    6  C15 UNL     1      -1.982  -3.131  -1.779  1.00  0.00     0.236 C 
HETATM    7  O3  UNL     1      -1.661  -2.844  -2.929  1.00  0.00    -0.272 OA
HETATM    8  N3  UNL     1      -1.613  -4.312  -1.154  1.00  0.00    -0.349 N 
ATOM      9  H3  UNL     1      -2.206  -4.720  -0.431  1.00  0.00     0.163 HD
BRANCH   8  10
HETATM   10  C16 UNL     1      -0.381  -4.957  -1.538  1.00  0.00     0.217 C 
BRANCH  10  11
HETATM   11  C17 UNL     1       0.713  -4.280  -0.826  1.00  0.00    -0.087 C 
HETATM   12  C18 UNL     1       1.504  -3.595  -0.228  1.00  0.00    -0.105 C 
BRANCH  12  13
HETATM   13  C19 UNL     1       2.358  -2.643   0.491  1.00  0.00     0.095 C 
BRANCH  13  14
HETATM   14  C20 UNL     1       3.663  -2.406  -0.261  1.00  0.00     0.034 C 
BRANCH  14  15
HETATM   15  C21 UNL     1       4.526  -1.349   0.422  1.00  0.00     0.149 C 
BRANCH  15  16
HETATM   16  N4  UNL     1       4.035  -0.004   0.214  1.00  0.00    -0.304 N 
HETATM   17  C22 UNL     1       3.578   0.878   1.174  1.00  0.00     0.111 A 
HETATM   18  C23 UNL     1       3.281   2.135   0.540  1.00  0.00     0.037 A 
HETATM   19  C24 UNL     1       3.577   1.977  -0.820  1.00  0.00     0.108 A 
HETATM   20  N5  UNL     1       4.026   0.674  -0.993  1.00  0.00    -0.310 N 
ATOM     21  H5  UNL     1       4.310   0.272  -1.886  1.00  0.00     0.186 HD
ENDBRANCH  15  16
ENDBRANCH  14  15
ENDBRANCH  13  14
ENDBRANCH  12  13
ENDBRANCH  10  11
ENDBRANCH   8  10
ENDBRANCH   5   6
ENDBRANCH   3   5
BRANCH   1  22
HETATM   22  C12 UNL     1      -1.627   1.370  -0.796  1.00  0.00     0.062 A 
HETATM   23  C4  UNL     1      -1.853   2.100   0.580  1.00  0.00     0.017 A 
HETATM   24  C5  UNL     1      -2.989   3.471   0.237  1.00  0.00     0.006 C 
HETATM   25  C10 UNL     1      -0.710   2.982   0.115  1.00  0.00     0.011 A 
HETATM   26  C6  UNL     1      -3.239   4.020  -1.476  1.00  0.00     0.011 C 
HETATM   27  C9  UNL     1      -1.794   3.797  -0.423  1.00  0.00     0.002 C 
HETATM   28  C7  UNL     1      -1.885   3.138  -2.318  1.00  0.00    -0.003 C 
HETATM   29  C8  UNL     1      -2.558   2.305  -1.411  1.00  0.00     0.014 C 
HETATM   30  C11 UNL     1      -0.565   2.354  -1.314  1.00  0.00     0.015 A 
BRANCH  23  31
HETATM   31  C3  UNL     1      -1.928   1.324   1.887  1.00  0.00     0.075 C 
HETATM   32  N1  UNL     1      -0.862   0.839   2.440  1.00  0.00    -0.340 N 
HETATM   33  C2  UNL     1      -1.090   0.044   3.542  1.00  0.00     0.217 C 
ATOM     34  H1  UNL     1       0.075   1.031   2.086  1.00  0.00     0.167 HD
HETATM   35  C1  UNL     1       0.169  -0.383   4.252  1.00  0.00     0.117 C 
HETATM   36  O1  UNL     1      -2.189  -0.364   3.900  1.00  0.00    -0.274 OA
ENDBRANCH  23  31
ENDBRANCH   1  22
TORSDOF 10
