REMARK  13 active torsions:
REMARK  status: ('A' for Active; 'I' for Inactive)
REMARK    1  A    between atoms: C2_2  and  C4_4 
REMARK    2  A    between atoms: C4_4  and  C5_5 
REMARK    3  A    between atoms: C5_5  and  N1_6 
REMARK    4  A    between atoms: C5_5  and  C16_23 
REMARK       I    between atoms: N1_6  and  C6_8 
REMARK    5  A    between atoms: C6_8  and  C7_10 
REMARK    6  A    between atoms: C7_10  and  N2_11 
REMARK    7  A    between atoms: C7_10  and  C13_20 
REMARK       I    between atoms: N2_11  and  C8_13 
REMARK    8  A    between atoms: C8_13  and  O3_15 
REMARK    9  A    between atoms: O3_15  and  C9_16 
REMARK       I    between atoms: C16_23  and  N3_25 
REMARK   10  A    between atoms: N3_25  and  C17_27 
REMARK   11  A    between atoms: C17_27  and  C18_28 
REMARK   12  A    between atoms: C17_27  and  C29_43 
REMARK       I    between atoms: C18_28  and  N4_30 
REMARK   13  A    between atoms: N4_30  and  C19_32 
ROOT
HETATM    1  C16 UNL     1       2.829  -1.903  -1.639  1.00  0.00     0.241 C 
HETATM    2  O4  UNL     1       3.130  -2.417  -2.721  1.00  0.00    -0.271 OA
HETATM    3  N3  UNL     1       3.295  -0.639  -1.383  1.00  0.00    -0.345 N 
ATOM      4  H3  UNL     1       4.033  -0.322  -2.011  1.00  0.00     0.163 HD
ENDROOT
BRANCH   1   5
HETATM    5  C5  UNL     1       1.917  -2.616  -0.611  1.00  0.00     0.177 C 
BRANCH   5   6
HETATM    6  C4  UNL     1       2.383  -4.071  -0.399  1.00  0.00     0.038 C 
BRANCH   6   7
HETATM    7  C2  UNL     1       2.018  -4.758   0.941  1.00  0.00    -0.020 C 
HETATM    8  C1  UNL     1       0.520  -4.873   1.204  1.00  0.00     0.009 C 
HETATM    9  C3  UNL     1       2.682  -4.082   2.144  1.00  0.00     0.009 C 
ENDBRANCH   6   7
ENDBRANCH   5   6
BRANCH   5  10
HETATM   10  N1  UNL     1       0.489  -2.403  -0.894  1.00  0.00    -0.346 N 
HETATM   11  C6  UNL     1      -0.406  -3.265  -1.520  1.00  0.00     0.241 C 
HETATM   12  O1  UNL     1      -0.075  -4.265  -2.149  1.00  0.00    -0.271 OA
ATOM     13  H1  UNL     1       0.105  -1.507  -0.592  1.00  0.00     0.163 HD
BRANCH  11  14
HETATM   14  C7  UNL     1      -1.900  -2.817  -1.352  1.00  0.00     0.182 C 
BRANCH  14  15
HETATM   15  N2  UNL     1      -1.927  -2.274   0.016  1.00  0.00    -0.323 N 
HETATM   16  C8  UNL     1      -2.969  -1.957   0.808  1.00  0.00     0.362 C 
HETATM   17  O2  UNL     1      -4.149  -2.148   0.572  1.00  0.00    -0.238 OA
ATOM     18  H2  UNL     1      -1.009  -2.112   0.431  1.00  0.00     0.165 HD
BRANCH  16  19
HETATM   19  O3  UNL     1      -2.446  -1.323   1.881  1.00  0.00    -0.294 OA
BRANCH  19  20
HETATM   20  C9  UNL     1      -3.272  -0.575   2.804  1.00  0.00     0.061 C 
HETATM   21  C10 UNL     1      -2.249   0.183   3.666  1.00  0.00     0.046 C 
HETATM   22  C11 UNL     1      -4.093  -1.517   3.682  1.00  0.00     0.046 C 
HETATM   23  C12 UNL     1      -4.145   0.451   2.079  1.00  0.00     0.046 C 
ENDBRANCH  19  20
ENDBRANCH  16  19
ENDBRANCH  14  15
BRANCH  14  24
HETATM   24  C13 UNL     1      -2.293  -1.752  -2.412  1.00  0.00     0.009 C 
HETATM   25  C14 UNL     1      -3.744  -1.279  -2.284  1.00  0.00     0.012 C 
HETATM   26  C15 UNL     1      -2.089  -2.281  -3.836  1.00  0.00     0.012 C 
ENDBRANCH  14  24
ENDBRANCH  11  14
ENDBRANCH   5  10
ENDBRANCH   1   5
BRANCH   3  27
HETATM   27  C17 UNL     1       2.907   0.332  -0.355  1.00  0.00     0.184 C 
BRANCH  27  28
HETATM   28  C18 UNL     1       2.575   1.661  -1.085  1.00  0.00     0.241 C 
HETATM   29  O5  UNL     1       3.416   2.501  -1.389  1.00  0.00    -0.271 OA
HETATM   30  N4  UNL     1       1.248   1.817  -1.431  1.00  0.00    -0.347 N 
ATOM     31  H4  UNL     1       0.771   1.125  -2.008  1.00  0.00     0.163 HD
BRANCH  30  32
HETATM   32  C19 UNL     1       0.559   2.983  -0.954  1.00  0.00     0.060 C 
HETATM   33  C20 UNL     1      -0.272   2.693   0.317  1.00  0.00     0.039 C 
HETATM   34  C21 UNL     1      -1.323   3.802   0.415  1.00  0.00    -0.003 C 
HETATM   35  C22 UNL     1      -2.708   3.814  -0.405  1.00  0.00     0.037 C 
HETATM   36  C27 UNL     1      -0.775   4.790  -0.499  1.00  0.00     0.025 C 
HETATM   37  C23 UNL     1      -2.424   4.244  -1.981  1.00  0.00     0.122 C 
HETATM   38  C24 UNL     1      -1.238   5.603  -2.355  1.00  0.00     0.037 C 
HETATM   39  O6  UNL     1      -1.700   3.036  -2.253  1.00  0.00    -0.378 OA
HETATM   40  C25 UNL     1       0.171   5.525  -1.265  1.00  0.00    -0.003 C 
HETATM   41  C26 UNL     1       1.298   4.407  -1.061  1.00  0.00     0.039 C 
HETATM   42  C28 UNL     1      -0.492   3.536  -1.809  1.00  0.00     0.155 C 
ENDBRANCH  30  32
ENDBRANCH  27  28
BRANCH  27  43
HETATM   43  C29 UNL     1       3.974   0.538   0.779  1.00  0.00    -0.022 C 
HETATM   44  C30 UNL     1       5.315   1.113   0.280  1.00  0.00     0.017 C 
HETATM   45  C31 UNL     1       3.396   1.500   1.843  1.00  0.00     0.017 C 
HETATM   46  C32 UNL     1       4.286  -0.790   1.492  1.00  0.00     0.017 C 
ENDBRANCH  27  43
ENDBRANCH   3  27
TORSDOF 13
