REMARK  2 active torsions:
REMARK  status: ('A' for Active; 'I' for Inactive)
REMARK    1  A    between atoms: N2_12  and  C11_13 
REMARK    2  A    between atoms: C11_13  and  C12_14 
ROOT
HETATM    1  C1  UNL     1       4.260   0.965   0.708  1.00  0.00     0.310 C 
HETATM    2  N1  UNL     1       2.842   0.593   0.579  1.00  0.00     0.090 N 
HETATM    3  C2  UNL     1       2.000   1.723   1.075  1.00  0.00     0.273 C 
HETATM    4  C3  UNL     1       0.466   1.438   1.432  1.00  0.00     0.047 C 
HETATM    5  C4  UNL     1       0.042   0.391   0.436  1.00  0.00     0.024 C 
HETATM    6  C5  UNL     1       0.211   1.373  -0.976  1.00  0.00     0.018 C 
HETATM    7  C6  UNL     1       0.964   0.717  -2.150  1.00  0.00     0.013 C 
HETATM    8  C7  UNL     1       1.128  -0.613  -1.488  1.00  0.00     0.003 C 
HETATM    9  C8  UNL     1      -0.448  -1.018  -1.300  1.00  0.00     0.033 C 
HETATM   10  C9  UNL     1      -1.200  -2.285  -1.572  1.00  0.00     0.038 C 
HETATM   11  C10 UNL     1      -2.630  -1.794  -1.143  1.00  0.00     0.273 C 
HETATM   12  N2  UNL     1      -2.455  -0.403  -0.557  1.00  0.00     0.095 N 
HETATM   13  C15 UNL     1      -1.107  -0.500   0.010  1.00  0.00     0.241 C 
HETATM   14  C16 UNL     1       1.907  -1.832  -1.655  1.00  0.00     0.028 A 
HETATM   15  C17 UNL     1       2.067  -2.588  -0.352  1.00  0.00     0.092 A 
HETATM   16  N3  UNL     1       1.053  -2.369   0.715  1.00  0.00    -0.396 N 
ATOM     17  H3  UNL     1       0.497  -3.143   1.080  1.00  0.00     0.159 HD
HETATM   18  C18 UNL     1       0.874  -0.973   1.237  1.00  0.00     0.068 C 
HETATM   19  C19 UNL     1       3.003  -1.491  -0.714  1.00  0.00     0.050 A 
HETATM   20  C20 UNL     1       2.665  -0.055  -0.773  1.00  0.00     0.238 C 
ENDROOT
BRANCH  12  21
HETATM   21  C11 UNL     1      -3.510  -0.088   0.397  1.00  0.00     0.277 C 
BRANCH  21  22
HETATM   22  C12 UNL     1      -3.601   1.398   0.563  1.00  0.00     0.014 A 
HETATM   23  C13 UNL     1      -2.981   2.111   1.733  1.00  0.00     0.007 A 
HETATM   24  C14 UNL     1      -4.473   1.969   1.653  1.00  0.00     0.007 A 
ENDBRANCH  21  22
ENDBRANCH  12  21
TORSDOF 2
