REMARK  2 active torsions:
REMARK  status: ('A' for Active; 'I' for Inactive)
REMARK       I    between atoms: N1_2  and  C2_4 
REMARK       I    between atoms: C2_4  and  N2_6 
REMARK    1  A    between atoms: C10_15  and  C11_16 
REMARK    2  A    between atoms: C11_16  and  O2_17 
ROOT
HETATM    1  C1  UNL     1      -5.305   0.296   0.089  1.00  0.00     0.151 C 
HETATM    2  N1  UNL     1      -3.932   0.475   0.496  1.00  0.00    -0.347 N 
ATOM      3  H1  UNL     1      -3.688   0.476   1.486  1.00  0.00     0.163 HD
HETATM    4  C2  UNL     1      -2.959   0.643  -0.451  1.00  0.00     0.318 C 
HETATM    5  O1  UNL     1      -3.195   0.749  -1.650  1.00  0.00    -0.247 OA
HETATM    6  N2  UNL     1      -1.663   0.689   0.037  1.00  0.00    -0.326 N 
HETATM    7  C3  UNL     1      -1.319   0.633   1.540  1.00  0.00     0.140 C 
HETATM    8  C4  UNL     1       0.139   0.860   1.412  1.00  0.00     0.016 C 
HETATM    9  C5  UNL     1       0.045   2.447   1.008  1.00  0.00     0.087 C 
HETATM   10  S1  UNL     1       0.821   3.106  -0.485  1.00  0.00    -0.166 SA
HETATM   11  C6  UNL     1      -0.211   2.170  -1.634  1.00  0.00     0.101 C 
HETATM   12  C7  UNL     1      -0.477   0.789  -1.041  1.00  0.00     0.129 C 
HETATM   13  C8  UNL     1       0.918   0.105  -0.622  1.00  0.00     0.221 C 
HETATM   14  C9  UNL     1       0.364  -0.582   0.559  1.00  0.00     0.065 C 
HETATM   15  C10 UNL     1       1.779  -1.187   0.795  1.00  0.00     0.221 C 
HETATM   16  N3  UNL     1       2.083   0.238   0.502  1.00  0.00    -0.057 N 
HETATM   17  C13 UNL     1       3.413   0.500  -0.053  1.00  0.00     0.273 C 
HETATM   18  C14 UNL     1       1.557   0.879   1.826  1.00  0.00     0.250 C 
ENDROOT
BRANCH  15  19
HETATM   19  C11 UNL     1       2.327  -2.390  -0.001  1.00  0.00     0.201 C 
BRANCH  19  20
HETATM   20  O2  UNL     1       1.962  -2.350  -1.376  1.00  0.00    -0.394 OA
HETATM   21  C12 UNL     1       1.721  -3.642  -1.928  1.00  0.00     0.201 C 
ENDBRANCH  19  20
ENDBRANCH  15  19
TORSDOF 2
