REMARK  8 active torsions:
REMARK  status: ('A' for Active; 'I' for Inactive)
REMARK    1  A    between atoms: C2_2  and  C3_3 
REMARK    2  A    between atoms: C5_5  and  C6_6 
REMARK    3  A    between atoms: C6_6  and  C7_7 
REMARK    4  A    between atoms: C7_7  and  C8_8 
REMARK    5  A    between atoms: C8_8  and  C9_9 
REMARK       I    between atoms: C9_9  and  N1_11 
REMARK    6  A    between atoms: N1_11  and  C10_13 
REMARK    7  A    between atoms: C16_20  and  O3_21 
REMARK    8  A    between atoms: C19_25  and  O4_26 
ROOT
HETATM    1  C10 UNL     1      -0.247   0.155   0.717  1.00  0.00     0.097 C 
HETATM    2  C11 UNL     1      -0.490   1.586  -0.194  1.00  0.00     0.067 C 
HETATM    3  C12 UNL     1       0.971   2.113  -0.336  1.00  0.00     0.100 C 
HETATM    4  O2  UNL     1       1.537   3.151  -1.198  1.00  0.00    -0.370 OA
HETATM    5  C13 UNL     1       2.931   2.604  -0.925  1.00  0.00     0.135 C 
HETATM    6  C14 UNL     1       3.301   2.431   0.572  1.00  0.00     0.041 C 
HETATM    7  C15 UNL     1       2.029   1.429   1.236  1.00  0.00     0.031 C 
HETATM    8  C16 UNL     1       1.135   2.604   1.113  1.00  0.00     0.158 C 
HETATM    9  C17 UNL     1       1.218  -0.084   0.308  1.00  0.00    -0.004 C 
HETATM   10  C18 UNL     1       0.465  -0.480  -1.321  1.00  0.00     0.045 C 
HETATM   11  C19 UNL     1       0.948   0.120  -2.649  1.00  0.00     0.128 C 
HETATM   12  C20 UNL     1       2.396   0.440  -2.465  1.00  0.00     0.062 C 
HETATM   13  C21 UNL     1       2.966  -1.013  -2.417  1.00  0.00    -0.044 A 
HETATM   14  C22 UNL     1       3.479  -1.614  -3.568  1.00  0.00     0.008 A 
HETATM   15  C23 UNL     1       3.857  -2.955  -3.526  1.00  0.00     0.001 A 
HETATM   16  C24 UNL     1       3.711  -3.706  -2.351  1.00  0.00     0.001 A 
HETATM   17  C25 UNL     1       3.188  -3.127  -1.192  1.00  0.00     0.008 A 
HETATM   18  C26 UNL     1       2.817  -1.782  -1.201  1.00  0.00    -0.046 A 
HETATM   19  C27 UNL     1       2.451  -1.030   0.100  1.00  0.00     0.031 C 
HETATM   20  C28 UNL     1       3.461   0.078  -0.196  1.00  0.00     0.026 C 
HETATM   21  C29 UNL     1       2.508   1.164  -1.095  1.00  0.00     0.030 C 
ENDROOT
BRANCH   1  22
HETATM   22  N1  UNL     1      -0.521   0.199   2.127  1.00  0.00    -0.356 N 
HETATM   23  C9  UNL     1      -0.728  -0.984   2.799  1.00  0.00     0.217 C 
HETATM   24  O1  UNL     1      -0.243  -2.049   2.433  1.00  0.00    -0.274 OA
ATOM     25  H1  UNL     1      -0.561   1.091   2.621  1.00  0.00     0.162 HD
BRANCH  23  26
HETATM   26  C8  UNL     1      -1.722  -0.905   3.939  1.00  0.00     0.103 C 
BRANCH  26  27
HETATM   27  C7  UNL     1      -3.136  -1.184   3.406  1.00  0.00     0.010 C 
BRANCH  27  28
HETATM   28  C6  UNL     1      -3.802   0.043   2.778  1.00  0.00     0.006 C 
BRANCH  28  29
HETATM   29  C5  UNL     1      -4.669  -0.321   1.606  1.00  0.00    -0.006 A 
HETATM   30  C3  UNL     1      -4.168  -0.088   0.199  1.00  0.00     0.012 A 
HETATM   31  C4  UNL     1      -5.251   0.790   0.772  1.00  0.00     0.014 A 
BRANCH  30  32
HETATM   32  C2  UNL     1      -4.516  -1.030  -0.863  1.00  0.00    -0.032 C 
HETATM   33  C1  UNL     1      -4.834  -0.689  -2.122  1.00  0.00     0.007 C 
ENDBRANCH  30  32
ENDBRANCH  28  29
ENDBRANCH  27  28
ENDBRANCH  26  27
ENDBRANCH  23  26
ENDBRANCH   1  22
BRANCH   8  34
HETATM   34  O3  UNL     1       0.071   2.622   2.061  1.00  0.00    -0.392 OA
ATOM     35  H3  UNL     1       0.172   2.925   2.956  1.00  0.00     0.210 HD
ENDBRANCH   8  34
BRANCH  11  36
HETATM   36  O4  UNL     1       0.225   1.260  -3.082  1.00  0.00    -0.395 OA
ATOM     37  H4  UNL     1       0.524   1.631  -3.904  1.00  0.00     0.210 HD
ENDBRANCH  11  36
TORSDOF 8
