REMARK  6 active torsions:
REMARK  status: ('A' for Active; 'I' for Inactive)
REMARK       I    between atoms: N1_2  and  C2_4 
REMARK    1  A    between atoms: C2_4  and  C3_6 
REMARK    2  A    between atoms: C3_6  and  C4_7 
REMARK    3  A    between atoms: C4_7  and  C5_8 
REMARK       I    between atoms: C5_8  and  N2_10 
REMARK    4  A    between atoms: N2_10  and  C6_12 
REMARK    5  A    between atoms: C11_17  and  O3_18 
REMARK    6  A    between atoms: C16_24  and  C17_25 
ROOT
HETATM    1  C6  UNL     1       0.326   1.362   0.050  1.00  0.00     0.048 C 
HETATM    2  C7  UNL     1      -0.969   2.130   0.231  1.00  0.00     0.033 C 
HETATM    3  C8  UNL     1      -2.118   1.304   0.769  1.00  0.00     0.009 C 
HETATM    4  C9  UNL     1      -1.885  -0.211   0.906  1.00  0.00     0.010 C 
HETATM    5  C10 UNL     1      -0.386  -0.603   1.124  1.00  0.00     0.023 C 
HETATM    6  C11 UNL     1       0.001  -1.012   2.596  1.00  0.00     0.133 C 
HETATM    7  C13 UNL     1       0.232   0.517   2.832  1.00  0.00     0.041 C 
HETATM    8  C14 UNL     1       0.631   0.562   1.331  1.00  0.00     0.031 C 
HETATM    9  C15 UNL     1       0.287  -1.115  -0.144  1.00  0.00     0.146 C 
HETATM   10  O4  UNL     1      -0.483  -2.100  -0.817  1.00  0.00    -0.371 OA
HETATM   11  C16 UNL     1      -1.617  -1.428  -1.439  1.00  0.00     0.079 C 
HETATM   12  C20 UNL     1      -2.569  -1.151  -0.160  1.00  0.00    -0.011 C 
HETATM   13  C21 UNL     1      -3.990  -0.634  -0.484  1.00  0.00     0.018 C 
HETATM   14  C22 UNL     1      -2.800  -2.487   0.643  1.00  0.00     0.018 C 
HETATM   15  C23 UNL     1      -0.802  -0.163  -2.097  1.00  0.00    -0.003 C 
HETATM   16  C24 UNL     1      -0.135  -0.557  -3.470  1.00  0.00     0.019 C 
HETATM   17  C25 UNL     1      -1.714   0.988  -2.532  1.00  0.00     0.019 C 
HETATM   18  C26 UNL     1       0.377   0.157  -1.045  1.00  0.00     0.019 C 
HETATM   19  C27 UNL     1       1.814   0.130  -1.665  1.00  0.00     0.021 C 
ENDROOT
BRANCH   1  20
HETATM   20  N2  UNL     1       1.434   2.335  -0.104  1.00  0.00    -0.351 N 
HETATM   21  C5  UNL     1       1.861   3.182   0.899  1.00  0.00     0.218 C 
HETATM   22  O2  UNL     1       1.351   3.228   2.016  1.00  0.00    -0.274 OA
ATOM     23  H2  UNL     1       1.909   2.381  -1.005  1.00  0.00     0.163 HD
BRANCH  21  24
HETATM   24  C4  UNL     1       3.075   4.020   0.558  1.00  0.00     0.112 C 
BRANCH  24  25
HETATM   25  C3  UNL     1       4.141   3.859   1.646  1.00  0.00     0.112 C 
BRANCH  25  26
HETATM   26  C2  UNL     1       5.146   2.796   1.266  1.00  0.00     0.217 C 
HETATM   27  N1  UNL     1       4.680   1.506   1.366  1.00  0.00    -0.365 N 
HETATM   28  C1  UNL     1       5.464   0.395   0.901  1.00  0.00     0.149 C 
ATOM     29  H1  UNL     1       3.762   1.335   1.777  1.00  0.00     0.161 HD
HETATM   30  O1  UNL     1       6.272   3.079   0.879  1.00  0.00    -0.274 OA
ENDBRANCH  25  26
ENDBRANCH  24  25
ENDBRANCH  21  24
ENDBRANCH   1  20
BRANCH   6  31
HETATM   31  O3  UNL     1      -1.028  -1.640   3.390  1.00  0.00    -0.390 OA
HETATM   32  C12 UNL     1      -0.726  -1.825   4.764  1.00  0.00     0.202 C 
ENDBRANCH   6  31
BRANCH  11  33
HETATM   33  C17 UNL     1      -2.185  -2.428  -2.566  1.00  0.00     0.014 C 
HETATM   34  C18 UNL     1      -1.265  -3.638  -2.820  1.00  0.00     0.012 C 
HETATM   35  C19 UNL     1      -3.613  -2.980  -2.539  1.00  0.00     0.012 C 
ENDBRANCH  11  33
TORSDOF 6
