REMARK  16 active torsions:
REMARK  status: ('A' for Active; 'I' for Inactive)
REMARK    1  A    between atoms: C2_2  and  C3_3 
REMARK    2  A    between atoms: C3_3  and  C4_4 
REMARK    3  A    between atoms: C4_4  and  N1_5 
REMARK       I    between atoms: N1_5  and  C6_7 
REMARK    4  A    between atoms: C6_7  and  C7_9 
REMARK    5  A    between atoms: C11_13  and  C12_14 
REMARK    6  A    between atoms: C15_17  and  O2_18 
REMARK    7  A    between atoms: C15_17  and  C16_20 
REMARK    8  A    between atoms: C16_20  and  C17_21 
REMARK    9  A    between atoms: C17_21  and  C18_22 
REMARK   10  A    between atoms: C18_22  and  O3_23 
REMARK   11  A    between atoms: C18_22  and  O4_25 
REMARK   12  A    between atoms: O4_25  and  C19_26 
REMARK   13  A    between atoms: C29_36  and  C30_37 
REMARK   14  A    between atoms: C33_40  and  O5_41 
REMARK   15  A    between atoms: C34_43  and  C36_45 
REMARK   16  A    between atoms: C36_45  and  O6_46 
ROOT
HETATM    1  C7  UNL     1      -1.786   0.185   1.570  1.00  0.00     0.099 C 
HETATM    2  C8  UNL     1      -1.984   1.755   1.828  1.00  0.00    -0.019 C 
HETATM    3  C9  UNL     1      -1.803   1.907   3.370  1.00  0.00     0.012 C 
HETATM    4  C10 UNL     1      -0.272   2.262   3.550  1.00  0.00     0.010 C 
HETATM    5  C11 UNL     1       0.145   2.985   2.244  1.00  0.00     0.020 C 
HETATM    6  C12 UNL     1       1.147   2.410   1.164  1.00  0.00    -0.068 C 
HETATM    7  C13 UNL     1       2.174   1.385   1.619  1.00  0.00     0.038 C 
HETATM    8  C14 UNL     1       2.041  -0.026   1.061  1.00  0.00     0.043 C 
HETATM    9  C15 UNL     1       0.735  -0.747   1.382  1.00  0.00     0.067 C 
HETATM   10  C21 UNL     1      -0.613  -0.162   0.547  1.00  0.00     0.008 C 
HETATM   11  C22 UNL     1      -0.997  -1.324  -0.434  1.00  0.00     0.020 C 
HETATM   12  C23 UNL     1      -0.468   1.077  -0.483  1.00  0.00     0.035 C 
HETATM   13  C24 UNL     1      -1.860   1.760  -0.853  1.00  0.00    -0.004 C 
HETATM   14  C25 UNL     1      -2.837   0.986  -1.736  1.00  0.00     0.011 C 
HETATM   15  C26 UNL     1      -2.580   2.276   0.410  1.00  0.00     0.000 C 
HETATM   16  C27 UNL     1      -2.147   3.705   0.649  1.00  0.00     0.012 C 
HETATM   17  C28 UNL     1      -1.264   3.206   1.770  1.00  0.00     0.004 C 
HETATM   18  C29 UNL     1       0.592   2.238  -0.269  1.00  0.00    -0.047 C 
ENDROOT
BRANCH  18  19
HETATM   19  C30 UNL     1       1.460   2.476  -1.590  1.00  0.00    -0.060 C 
HETATM   20  C31 UNL     1       2.099   1.238  -2.264  1.00  0.00     0.038 C 
HETATM   21  C32 UNL     1       3.610   1.427  -2.241  1.00  0.00     0.037 C 
HETATM   22  C33 UNL     1       3.864   2.767  -1.560  1.00  0.00     0.133 C 
HETATM   23  C34 UNL     1       2.568   3.581  -1.738  1.00  0.00     0.027 C 
HETATM   24  C35 UNL     1       2.478   4.152  -3.190  1.00  0.00     0.025 C 
BRANCH  22  25
HETATM   25  O5  UNL     1       4.998   3.423  -2.105  1.00  0.00    -0.394 OA
ATOM     26  H5  UNL     1       5.156   4.258  -1.681  1.00  0.00     0.210 HD
ENDBRANCH  22  25
BRANCH  23  27
HETATM   27  C36 UNL     1       2.579   4.812  -0.817  1.00  0.00     0.180 C 
BRANCH  27  28
HETATM   28  O6  UNL     1       1.288   5.396  -0.723  1.00  0.00    -0.400 OA
ATOM     29  H6  UNL     1       1.295   6.157  -0.154  1.00  0.00     0.209 HD
ENDBRANCH  27  28
ENDBRANCH  23  27
ENDBRANCH  18  19
BRANCH   1  30
HETATM   30  C6  UNL     1      -3.172  -0.546   1.391  1.00  0.00     0.225 C 
HETATM   31  N1  UNL     1      -3.253  -1.939   1.517  1.00  0.00    -0.356 N 
HETATM   32  C5  UNL     1      -2.497  -2.654   2.536  1.00  0.00     0.152 C 
HETATM   33  O1  UNL     1      -4.204   0.096   1.153  1.00  0.00    -0.273 OA
BRANCH  31  34
HETATM   34  C4  UNL     1      -4.521  -2.584   1.137  1.00  0.00     0.125 C 
BRANCH  34  35
HETATM   35  C3  UNL     1      -4.855  -2.533  -0.366  1.00  0.00     0.019 C 
BRANCH  35  36
HETATM   36  C2  UNL     1      -4.008  -3.437  -1.268  1.00  0.00    -0.003 C 
HETATM   37  C1  UNL     1      -4.351  -4.917  -1.166  1.00  0.00     0.005 C 
ENDBRANCH  35  36
ENDBRANCH  34  35
ENDBRANCH  31  34
ENDBRANCH   1  30
BRANCH   9  38
HETATM   38  O2  UNL     1       0.546  -0.480   2.790  1.00  0.00    -0.389 OA
ATOM     39  H2  UNL     1      -0.267  -0.929   2.990  1.00  0.00     0.210 HD
ENDBRANCH   9  38
BRANCH   9  40
HETATM   40  C16 UNL     1       0.909  -2.338   1.447  1.00  0.00     0.043 C 
BRANCH  40  41
HETATM   41  C17 UNL     1       2.238  -3.051   1.136  1.00  0.00     0.063 C 
BRANCH  41  42
HETATM   42  C18 UNL     1       2.508  -3.292  -0.352  1.00  0.00     0.256 C 
BRANCH  42  43
HETATM   43  O3  UNL     1       3.162  -2.178  -0.918  1.00  0.00    -0.371 OA
ATOM     44  H3  UNL     1       3.329  -2.328  -1.841  1.00  0.00     0.212 HD
ENDBRANCH  42  43
BRANCH  42  45
HETATM   45  O4  UNL     1       3.375  -4.415  -0.446  1.00  0.00    -0.362 OA
BRANCH  45  46
HETATM   46  C19 UNL     1       3.497  -4.962  -1.756  1.00  0.00     0.166 C 
HETATM   47  C20 UNL     1       2.317  -5.851  -2.111  1.00  0.00     0.033 C 
ENDBRANCH  45  46
ENDBRANCH  42  45
ENDBRANCH  41  42
ENDBRANCH  40  41
ENDBRANCH   9  40
TORSDOF 16
