REMARK  12 active torsions:
REMARK  status: ('A' for Active; 'I' for Inactive)
REMARK    1  A    between atoms: C2_2  and  C3_3 
REMARK    2  A    between atoms: C3_3  and  C4_4 
REMARK    3  A    between atoms: C4_4  and  C5_5 
REMARK    4  A    between atoms: C10_10  and  N1_11 
REMARK       I    between atoms: N1_11  and  C11_13 
REMARK    5  A    between atoms: C11_13  and  C12_15 
REMARK    6  A    between atoms: C12_15  and  C13_16 
REMARK    7  A    between atoms: C12_15  and  N2_21 
REMARK    8  A    between atoms: C13_16  and  C14_17 
REMARK    9  A    between atoms: C14_17  and  C15_18 
REMARK       I    between atoms: N2_21  and  C16_23 
REMARK   10  A    between atoms: C16_23  and  O5_25 
REMARK   11  A    between atoms: O5_25  and  C17_26 
REMARK   12  A    between atoms: C32_42  and  O7_43 
ROOT
HETATM    1  C5  UNL     1       3.389   1.436   0.169  1.00  0.00    -0.002 A 
HETATM    2  C6  UNL     1       3.788   0.644  -1.091  1.00  0.00     0.014 C 
HETATM    3  C7  UNL     1       2.920   1.066  -2.286  1.00  0.00     0.014 C 
HETATM    4  C8  UNL     1       1.584   1.401  -1.600  1.00  0.00     0.004 C 
HETATM    5  C9  UNL     1       0.923   0.039  -1.340  1.00  0.00     0.043 C 
HETATM    6  C10 UNL     1      -0.060  -0.042  -0.189  1.00  0.00     0.122 C 
HETATM    7  C21 UNL     1      -0.612   1.294   0.258  1.00  0.00     0.005 C 
HETATM    8  C22 UNL     1      -1.189   2.295  -0.525  1.00  0.00    -0.044 C 
HETATM    9  C23 UNL     1      -1.749   3.445   0.067  1.00  0.00     0.008 C 
HETATM   10  C24 UNL     1      -1.534   3.697   1.423  1.00  0.00     0.010 C 
HETATM   11  C25 UNL     1      -0.591   2.924   2.103  1.00  0.00    -0.028 C 
HETATM   12  C26 UNL     1      -0.122   3.363   3.448  1.00  0.00     0.051 C 
HETATM   13  C27 UNL     1      -0.090   1.779   1.458  1.00  0.00     0.084 C 
HETATM   14  O6  UNL     1       1.169   1.252   1.742  1.00  0.00    -0.343 OA
HETATM   15  C28 UNL     1       2.179   2.012   1.019  1.00  0.00     0.148 A 
HETATM   16  C29 UNL     1       2.153   2.242  -0.416  1.00  0.00     0.008 A 
HETATM   17  C30 UNL     1       2.147   3.680  -0.848  1.00  0.00     0.017 C 
HETATM   18  C31 UNL     1       1.313   3.748  -2.143  1.00  0.00     0.040 C 
HETATM   19  C32 UNL     1       0.643   2.362  -2.409  1.00  0.00     0.073 C 
HETATM   20  C34 UNL     1      -0.894   2.285  -1.999  1.00  0.00     0.078 C 
ENDROOT
BRANCH   6  21
HETATM   21  N1  UNL     1      -0.983  -1.156  -0.379  1.00  0.00    -0.350 N 
HETATM   22  C11 UNL     1      -0.525  -2.446  -0.079  1.00  0.00     0.241 C 
HETATM   23  O1  UNL     1       0.559  -2.637   0.498  1.00  0.00    -0.271 OA
ATOM     24  H1  UNL     1      -1.932  -1.001  -0.720  1.00  0.00     0.163 HD
BRANCH  22  25
HETATM   25  C12 UNL     1      -1.287  -3.667  -0.662  1.00  0.00     0.179 C 
BRANCH  25  26
HETATM   26  C13 UNL     1      -1.230  -4.917   0.258  1.00  0.00     0.045 C 
BRANCH  26  27
HETATM   27  C14 UNL     1       0.138  -5.605   0.380  1.00  0.00     0.116 C 
BRANCH  27  28
HETATM   28  C15 UNL     1       0.710  -5.948  -0.975  1.00  0.00     0.172 C 
HETATM   29  O2  UNL     1       0.331  -6.881  -1.666  1.00  0.00    -0.648 OA
HETATM   30  O3  UNL     1       1.664  -5.077  -1.379  1.00  0.00    -0.648 OA
ENDBRANCH  27  28
ENDBRANCH  26  27
ENDBRANCH  25  26
BRANCH  25  31
HETATM   31  N2  UNL     1      -2.616  -3.286  -1.116  1.00  0.00    -0.324 N 
HETATM   32  C16 UNL     1      -3.642  -3.045  -0.257  1.00  0.00     0.362 C 
HETATM   33  O4  UNL     1      -3.780  -3.555   0.834  1.00  0.00    -0.238 OA
ATOM     34  H2  UNL     1      -2.784  -3.196  -2.118  1.00  0.00     0.165 HD
BRANCH  32  35
HETATM   35  O5  UNL     1      -4.384  -2.041  -0.793  1.00  0.00    -0.294 OA
BRANCH  35  36
HETATM   36  C17 UNL     1      -5.407  -1.381   0.009  1.00  0.00     0.061 C 
HETATM   37  C18 UNL     1      -5.822  -0.158  -0.809  1.00  0.00     0.046 C 
HETATM   38  C19 UNL     1      -4.848  -0.882   1.350  1.00  0.00     0.046 C 
HETATM   39  C20 UNL     1      -6.616  -2.300   0.190  1.00  0.00     0.046 C 
ENDBRANCH  35  36
ENDBRANCH  32  35
ENDBRANCH  25  31
ENDBRANCH  22  25
ENDBRANCH   6  21
BRANCH  19  40
HETATM   40  O7  UNL     1       0.801   2.168  -3.836  1.00  0.00    -0.384 OA
HETATM   41  C33 UNL     1      -0.217   1.481  -4.548  1.00  0.00     0.202 C 
ENDBRANCH  19  40
BRANCH   1  42
HETATM   42  C4  UNL     1       4.514   1.354   1.195  1.00  0.00     0.013 C 
BRANCH  42  43
HETATM   43  C3  UNL     1       4.392  -0.009   1.937  1.00  0.00     0.001 C 
BRANCH  43  44
HETATM   44  C2  UNL     1       4.112   0.099   3.439  1.00  0.00    -0.005 C 
HETATM   45  C1  UNL     1       5.390   0.270   4.245  1.00  0.00     0.005 C 
ENDBRANCH  43  44
ENDBRANCH  42  43
ENDBRANCH   1  42
TORSDOF 12
