REMARK  13 active torsions:
REMARK  status: ('A' for Active; 'I' for Inactive)
REMARK    1  A    between atoms: C3_3  and  O1_4 
REMARK    2  A    between atoms: O1_4  and  C4_5 
REMARK    3  A    between atoms: C4_5  and  C5_7 
REMARK    4  A    between atoms: C6_8  and  C7_9 
REMARK    5  A    between atoms: C9_18  and  O3_19 
REMARK    6  A    between atoms: C10_21  and  C11_22 
REMARK    7  A    between atoms: C11_22  and  O4_23 
REMARK    8  A    between atoms: C12_26  and  N4_27 
REMARK    9  A    between atoms: C15_35  and  O7_36 
REMARK   10  A    between atoms: O7_36  and  C16_37 
REMARK   11  A    between atoms: C16_37  and  C17_38 
REMARK   12  A    between atoms: C17_38  and  C18_39 
REMARK   13  A    between atoms: C18_39  and  S1_40 
ROOT
HETATM    1  N4  UNL     1      -0.828  -2.482  -0.773  1.00  0.00    -0.222 N 
HETATM    2  C13 UNL     1       0.076  -1.645  -0.128  1.00  0.00     0.335 C 
HETATM    3  O6  UNL     1       0.826  -1.976   0.784  1.00  0.00    -0.246 OA
HETATM    4  N5  UNL     1       0.107  -0.383  -0.671  1.00  0.00    -0.282 N 
ATOM      5  H5  UNL     1      -0.480   0.389  -0.354  1.00  0.00     0.173 HD
HETATM    6  C14 UNL     1       1.017  -0.284  -1.687  1.00  0.00     0.192 C 
HETATM    7  N6  UNL     1       2.176   0.196  -1.387  1.00  0.00    -0.311 N 
ATOM      8  H6  UNL     1       2.238   0.592  -0.449  1.00  0.00     0.170 HD
HETATM    9  C15 UNL     1       3.348   0.267  -2.115  1.00  0.00     0.146 C 
HETATM   10  C19 UNL     1       3.661  -0.396  -3.244  1.00  0.00     0.091 C 
HETATM   11  C20 UNL     1       2.587  -1.249  -3.728  1.00  0.00     0.105 C 
HETATM   12  N7  UNL     1       2.553  -2.526  -3.535  1.00  0.00    -0.303 N 
ATOM     13  H7  UNL     1       3.399  -3.096  -3.541  1.00  0.00     0.171 HD
HETATM   14  C21 UNL     1       1.297  -3.077  -3.319  1.00  0.00     0.347 C 
HETATM   15  O11 UNL     1       1.092  -4.277  -3.471  1.00  0.00    -0.245 OA
HETATM   16  N8  UNL     1       0.287  -2.208  -2.852  1.00  0.00    -0.158 N 
HETATM   17  C22 UNL     1      -0.814  -2.693  -2.163  1.00  0.00     0.354 C 
HETATM   18  O12 UNL     1      -1.745  -3.256  -2.739  1.00  0.00    -0.244 OA
HETATM   19  N9  UNL     1       0.533  -0.772  -2.893  1.00  0.00    -0.075 NA
HETATM   20  C23 UNL     1       1.317  -0.492  -3.968  1.00  0.00     0.276 C 
HETATM   21  O13 UNL     1       1.139   0.248  -4.912  1.00  0.00    -0.270 OA
ENDROOT
BRANCH   1  22
HETATM   22  C12 UNL     1      -1.630  -3.448  -0.007  1.00  0.00     0.244 C 
HETATM   23  C2  UNL     1      -3.135  -3.140  -0.008  1.00  0.00     0.063 C 
HETATM   24  C1  UNL     1      -3.972  -4.399   0.192  1.00  0.00     0.017 C 
HETATM   25  C3  UNL     1      -3.274  -2.173   1.161  1.00  0.00     0.171 C 
HETATM   26  C10 UNL     1      -2.132  -2.543   2.107  1.00  0.00     0.177 C 
HETATM   27  O5  UNL     1      -1.270  -3.453   1.380  1.00  0.00    -0.355 OA
BRANCH  25  28
HETATM   28  O1  UNL     1      -3.033  -0.884   0.551  1.00  0.00    -0.309 OA
BRANCH  28  29
HETATM   29  C4  UNL     1      -3.481   0.208   1.208  1.00  0.00     0.283 C 
HETATM   30  O2  UNL     1      -3.979   0.259   2.315  1.00  0.00    -0.260 OA
BRANCH  29  31
HETATM   31  C5  UNL     1      -3.182   1.345   0.311  1.00  0.00     0.084 C 
HETATM   32  C6  UNL     1      -3.035   2.581   0.800  1.00  0.00     0.040 C 
BRANCH  32  33
HETATM   33  C7  UNL     1      -2.471   3.673   0.057  1.00  0.00     0.100 A 
HETATM   34  N1  UNL     1      -2.317   3.734  -1.322  1.00  0.00    -0.188 N 
HETATM   35  C8  UNL     1      -1.561   4.825  -1.694  1.00  0.00     0.678 A 
ATOM     36  H1  UNL     1      -2.713   3.058  -1.976  1.00  0.00     0.184 HD
HETATM   37  N2  UNL     1      -1.171   5.129  -2.872  1.00  0.00    -0.234 N 
HETATM   38  N3  UNL     1      -1.311   5.481  -0.510  1.00  0.00    -0.169 N 
ATOM     39  H22 UNL     1      -1.356   4.643  -3.749  1.00  0.00     0.174 HD
ATOM     40  H21 UNL     1      -0.612   5.936  -3.147  1.00  0.00     0.174 HD
HETATM   41  C9  UNL     1      -1.854   4.777   0.544  1.00  0.00     0.182 A 
ATOM     42  H3  UNL     1      -0.799   6.359  -0.425  1.00  0.00     0.186 HD
BRANCH  41  43
HETATM   43  O3  UNL     1      -1.682   5.184   1.823  1.00  0.00    -0.344 OA
ATOM     44  H3  UNL     1      -1.249   5.958   2.164  1.00  0.00     0.219 HD
ENDBRANCH  41  43
ENDBRANCH  32  33
ENDBRANCH  29  31
ENDBRANCH  28  29
ENDBRANCH  25  28
BRANCH  26  45
HETATM   45  C11 UNL     1      -2.580  -3.277   3.372  1.00  0.00     0.198 C 
BRANCH  45  46
HETATM   46  O4  UNL     1      -1.452  -3.507   4.222  1.00  0.00    -0.398 OA
ATOM     47  H4  UNL     1      -1.730  -3.963   5.008  1.00  0.00     0.209 HD
ENDBRANCH  45  46
ENDBRANCH  26  45
ENDBRANCH   1  22
BRANCH   9  48
HETATM   48  O7  UNL     1       4.372   1.032  -1.550  1.00  0.00    -0.336 OA
BRANCH  48  49
HETATM   49  C16 UNL     1       4.501   0.773  -0.140  1.00  0.00     0.178 C 
BRANCH  49  50
HETATM   50  C17 UNL     1       5.267   1.911   0.543  1.00  0.00     0.044 C 
BRANCH  50  51
HETATM   51  C18 UNL     1       5.186   1.787   2.062  1.00  0.00     0.167 C 
BRANCH  51  52
HETATM   52  S1  UNL     1       3.718   2.545   2.762  1.00  0.00     0.101 S 
HETATM   53  O8  UNL     1       2.552   2.278   1.958  1.00  0.00    -0.595 OA
HETATM   54  O9  UNL     1       3.724   2.360   4.194  1.00  0.00    -0.595 OA
HETATM   55  O10 UNL     1       4.132   4.088   2.539  1.00  0.00    -0.595 OA
ENDBRANCH  51  52
ENDBRANCH  50  51
ENDBRANCH  49  50
ENDBRANCH  48  49
ENDBRANCH   9  48
TORSDOF 13
