REMARK  1 active torsions:
REMARK  status: ('A' for Active; 'I' for Inactive)
REMARK    1  A    between atoms: O1_1  and  N1_3 
ROOT
HETATM    1  N1  UNL     1       0.368   1.852  -0.358  1.00  0.00    -0.171 N 
HETATM    2  N2  UNL     1       0.745   1.125  -1.561  1.00  0.00    -0.103 NA
HETATM    3  C1  UNL     1       1.389  -0.178  -1.285  1.00  0.00     0.134 C 
HETATM    4  C2  UNL     1       2.696   0.146  -0.807  1.00  0.00     0.037 C 
HETATM    5  C3  UNL     1       2.738   0.114   0.585  1.00  0.00     0.021 C 
HETATM    6  C4  UNL     1       1.513   0.175   1.158  1.00  0.00     0.059 C 
HETATM    7  C5  UNL     1       1.141  -1.079   0.902  1.00  0.00     0.051 C 
HETATM    8  C6  UNL     1       0.577  -1.044  -0.393  1.00  0.00    -0.024 C 
HETATM    9  C7  UNL     1      -0.941  -1.138  -0.344  1.00  0.00     0.038 C 
HETATM   10  C8  UNL     1      -1.480  -0.949   0.901  1.00  0.00     0.048 C 
HETATM   11  C9  UNL     1      -1.726   0.465   1.370  1.00  0.00     0.009 C 
HETATM   12  C10 UNL     1      -0.769   1.377   1.705  1.00  0.00     0.048 C 
HETATM   13  C11 UNL     1       0.459   1.264   0.840  1.00  0.00     0.062 C 
HETATM   14  S1  UNL     1      -3.391   1.086   1.057  1.00  0.00    -0.101 SA
HETATM   15  C12 UNL     1      -3.639   0.217  -0.488  1.00  0.00     0.067 C 
HETATM   16  C13 UNL     1      -2.636   0.230  -1.397  1.00  0.00     0.095 C 
HETATM   17  N3  UNL     1      -1.710  -0.858  -1.507  1.00  0.00    -0.365 N 
ATOM     18  H3  UNL     1      -1.609  -1.398  -2.366  1.00  0.00     0.165 HD
HETATM   19  C14 UNL     1       2.236  -1.823   1.200  1.00  0.00    -0.020 C 
HETATM   20  C15 UNL     1       3.294  -1.004   1.057  1.00  0.00    -0.024 C 
ENDROOT
BRANCH   1  21
HETATM   21  O1  UNL     1      -0.302   2.915  -0.549  1.00  0.00    -0.271 OA
ATOM     22  H1  UNL     1      -0.548   3.390   0.236  1.00  0.00     0.246 HD
ENDBRANCH   1  21
TORSDOF 1
