REMARK  4 active torsions:
REMARK  status: ('A' for Active; 'I' for Inactive)
REMARK    1  A    between atoms: O1_2  and  C2_3 
REMARK    2  A    between atoms: C2_3  and  C3_4 
REMARK       I    between atoms: C3_4  and  N1_6 
REMARK    3  A    between atoms: C17_23  and  C18_24 
REMARK    4  A    between atoms: C18_24  and  C19_25 
ROOT
HETATM    1  C2  UNL     1      -2.013   0.846   0.258  1.00  0.00     0.141 C 
HETATM    2  C6  UNL     1      -2.437  -0.651   0.654  1.00  0.00     0.100 C 
HETATM    3  C7  UNL     1      -1.323  -1.709   0.829  1.00  0.00     0.000 C 
HETATM    4  C8  UNL     1      -0.284  -1.515  -0.009  1.00  0.00     0.045 C 
HETATM    5  C9  UNL     1       0.500  -0.451   0.671  1.00  0.00     0.017 C 
HETATM    6  C10 UNL     1       1.291  -1.210   1.480  1.00  0.00     0.084 C 
HETATM    7  C11 UNL     1       0.365  -1.772   2.591  1.00  0.00     0.228 C 
HETATM    8  O3  UNL     1       0.778  -1.938   3.736  1.00  0.00    -0.273 OA
HETATM    9  N2  UNL     1      -0.961  -2.047   2.150  1.00  0.00    -0.329 N 
HETATM   10  C12 UNL     1      -1.930  -2.487   3.128  1.00  0.00     0.159 C 
HETATM   11  C13 UNL     1       1.742  -2.310   0.589  1.00  0.00     0.023 C 
HETATM   12  C14 UNL     1       0.826  -2.394  -0.406  1.00  0.00     0.020 C 
HETATM   13  C15 UNL     1       1.332  -2.288  -1.761  1.00  0.00    -0.002 C 
HETATM   14  C16 UNL     1       1.631  -1.081  -2.300  1.00  0.00     0.010 C 
HETATM   15 BR1  UNL     1       2.155  -1.044  -4.120  1.00  0.00    -0.051 Br
HETATM   16  C17 UNL     1       1.542   0.339  -1.649  1.00  0.00    -0.054 C 
HETATM   17  C24 UNL     1       0.620   0.622  -0.368  1.00  0.00     0.025 C 
HETATM   18  C25 UNL     1      -0.867   0.956  -0.837  1.00  0.00     0.057 C 
ENDROOT
BRANCH  16  19
HETATM   19  C18 UNL     1       2.934   1.023  -1.495  1.00  0.00     0.075 C 
BRANCH  19  20
HETATM   20  C19 UNL     1       3.979   0.322  -0.677  1.00  0.00    -0.039 A 
HETATM   21  C20 UNL     1       4.070   0.509   0.703  1.00  0.00     0.010 A 
HETATM   22  C21 UNL     1       5.096  -0.105   1.418  1.00  0.00     0.018 A 
HETATM   23  C22 UNL     1       6.002  -0.888   0.725  1.00  0.00     0.087 A 
HETATM   24  N3  UNL     1       5.944  -1.101  -0.606  1.00  0.00    -0.375 N 
HETATM   25  C23 UNL     1       4.940  -0.490  -1.276  1.00  0.00     0.095 A 
ATOM     26  H3  UNL     1       6.623  -1.693  -1.083  1.00  0.00     0.164 HD
ENDBRANCH  19  20
ENDBRANCH  16  19
BRANCH   1  27
HETATM   27  O1  UNL     1      -1.502   1.628   1.358  1.00  0.00    -0.375 OA
HETATM   28  C1  UNL     1      -2.162   1.541   2.610  1.00  0.00     0.203 C 
ENDBRANCH   1  27
BRANCH   1  29
HETATM   29  C3  UNL     1      -3.320   1.533  -0.284  1.00  0.00     0.234 C 
HETATM   30  O2  UNL     1      -4.261   1.868   0.439  1.00  0.00    -0.276 OA
HETATM   31  N1  UNL     1      -3.402   1.677  -1.677  1.00  0.00    -0.259 NA
HETATM   32  C4  UNL     1      -4.426   0.852  -2.289  1.00  0.00     0.119 C 
HETATM   33  C5  UNL     1      -3.477   3.064  -2.106  1.00  0.00     0.119 C 
ENDBRANCH   1  29
TORSDOF 4
