REMARK  0 active torsions:
REMARK  status: ('A' for Active; 'I' for Inactive)
ROOT
HETATM    1  C1  UNL     1      -1.563  -0.059  -0.294  1.00  0.00     0.204 A 
HETATM    2  O1  UNL     1      -0.899  -1.327  -0.549  1.00  0.00    -0.380 OA
HETATM    3  C2  UNL     1       0.244  -0.899   0.229  1.00  0.00     0.179 A 
HETATM    4  C3  UNL     1       1.361  -0.086  -0.434  1.00  0.00     0.266 C 
HETATM    5  N1  UNL     1       0.609   1.159  -0.187  1.00  0.00    -0.064 N 
ATOM      6  H11 UNL     1       0.322   1.738  -0.976  1.00  0.00     0.277 HD
ATOM      7  H12 UNL     1       1.082   1.956   0.238  1.00  0.00     0.277 HD
HETATM    8  C4  UNL     1      -0.406   0.426   0.581  1.00  0.00     0.240 A 
ENDROOT
TORSDOF 0
