REMARK  12 active torsions:
REMARK  status: ('A' for Active; 'I' for Inactive)
REMARK    1  A    between atoms: C2_2  and  C3_3 
REMARK    2  A    between atoms: C3_3  and  C4_4 
REMARK    3  A    between atoms: C4_4  and  N1_5 
REMARK    4  A    between atoms: C6_7  and  C7_8 
REMARK    5  A    between atoms: C7_8  and  C8_9 
REMARK    6  A    between atoms: C8_9  and  C9_10 
REMARK    7  A    between atoms: C14_19  and  C15_20 
REMARK    8  A    between atoms: C15_20  and  C16_21 
REMARK    9  A    between atoms: C16_21  and  C17_22 
REMARK   10  A    between atoms: C17_22  and  N4_23 
REMARK       I    between atoms: N4_23  and  C18_25 
REMARK       I    between atoms: C18_25  and  N5_26 
REMARK   11  A    between atoms: C20_36  and  C21_37 
REMARK   12  A    between atoms: C21_37  and  C22_38 
ROOT
HETATM    1  C9  UNL     1       3.066  -0.098   0.748  1.00  0.00     0.085 C 
HETATM    2  C10 UNL     1       3.340  -0.342   2.247  1.00  0.00     0.034 C 
HETATM    3  C11 UNL     1       2.210  -0.799   3.193  1.00  0.00     0.100 C 
HETATM    4  C12 UNL     1       2.274   0.040   4.459  1.00  0.00     0.216 C 
HETATM    5  O1  UNL     1       2.975  -0.301   5.408  1.00  0.00    -0.278 OA
HETATM    6  N2  UNL     1       1.632   1.296   4.349  1.00  0.00    -0.173 NA
HETATM    7  C13 UNL     1       2.343   2.374   5.065  1.00  0.00     0.145 C 
HETATM    8  N3  UNL     1       0.230   1.260   4.691  1.00  0.00    -0.334 N 
ATOM      9  H3  UNL     1      -0.083   1.094   5.647  1.00  0.00     0.175 HD
HETATM   10  C14 UNL     1      -0.742   1.479   3.572  1.00  0.00     0.186 C 
HETATM   11  C19 UNL     1      -0.186   2.371   2.428  1.00  0.00     0.242 C 
HETATM   12  O2  UNL     1       0.536   3.341   2.597  1.00  0.00    -0.271 OA
HETATM   13  N7  UNL     1      -0.533   1.896   1.164  1.00  0.00    -0.346 N 
ATOM     14  H7  UNL     1      -1.298   1.226   1.083  1.00  0.00     0.163 HD
HETATM   15  C20 UNL     1       0.167   2.328  -0.061  1.00  0.00     0.177 C 
HETATM   16  C25 UNL     1       1.643   1.813  -0.012  1.00  0.00     0.240 C 
HETATM   17  O3  UNL     1       2.590   2.402  -0.526  1.00  0.00    -0.271 OA
HETATM   18  N8  UNL     1       1.762   0.505   0.476  1.00  0.00    -0.355 N 
ATOM     19  H8  UNL     1       0.917  -0.041   0.646  1.00  0.00     0.162 HD
ENDROOT
BRANCH   1  20
HETATM   20  C8  UNL     1       3.415  -1.279  -0.194  1.00  0.00     0.030 C 
BRANCH  20  21
HETATM   21  C7  UNL     1       2.696  -2.610   0.062  1.00  0.00     0.043 C 
BRANCH  21  22
HETATM   22  C6  UNL     1       1.780  -3.028  -1.070  1.00  0.00    -0.032 C 
HETATM   23  C5  UNL     1       0.679  -2.222  -1.376  1.00  0.00     0.100 C 
HETATM   24  N1  UNL     1      -0.146  -2.566  -2.394  1.00  0.00    -0.343 N 
HETATM   25  C28 UNL     1       0.105  -3.723  -3.056  1.00  0.00     0.110 C 
HETATM   26  C27 UNL     1       0.746  -4.723  -2.361  1.00  0.00     0.061 C 
HETATM   27  N9  UNL     1       0.425  -3.683  -4.425  1.00  0.00    -0.309 N 
HETATM   28  C26 UNL     1       1.895  -4.229  -1.791  1.00  0.00    -0.019 C 
HETATM   29  C31 UNL     1       3.035  -4.512  -2.727  1.00  0.00    -0.046 C 
HETATM   30  C30 UNL     1       2.872  -4.357  -4.067  1.00  0.00     0.082 C 
HETATM   31  C32 UNL     1       4.298  -5.101  -2.148  1.00  0.00     0.049 C 
HETATM   32  C29 UNL     1       1.683  -3.954  -4.944  1.00  0.00     0.247 C 
HETATM   33  O4  UNL     1       1.849  -3.834  -6.160  1.00  0.00    -0.268 OA
ATOM     34  H9  UNL     1      -0.317  -3.438  -5.080  1.00  0.00     0.170 HD
BRANCH  24  35
HETATM   35  C4  UNL     1      -1.260  -1.668  -2.788  1.00  0.00     0.130 C 
BRANCH  35  36
HETATM   36  C3  UNL     1      -2.161  -1.434  -1.563  1.00  0.00     0.020 C 
BRANCH  36  37
HETATM   37  C2  UNL     1      -3.618  -1.839  -1.751  1.00  0.00    -0.003 C 
HETATM   38  C1  UNL     1      -3.789  -3.352  -1.781  1.00  0.00     0.005 C 
ENDBRANCH  36  37
ENDBRANCH  35  36
ENDBRANCH  24  35
ENDBRANCH  21  22
ENDBRANCH  20  21
ENDBRANCH   1  20
BRANCH  15  39
HETATM   39  C21 UNL     1      -0.010   3.812  -0.430  1.00  0.00     0.038 C 
BRANCH  39  40
HETATM   40  C22 UNL     1       0.402   4.162  -1.886  1.00  0.00    -0.020 C 
HETATM   41  C23 UNL     1      -0.569   3.617  -2.935  1.00  0.00     0.009 C 
HETATM   42  C24 UNL     1       0.543   5.680  -2.058  1.00  0.00     0.009 C 
ENDBRANCH  39  40
ENDBRANCH  15  39
BRANCH  10  43
HETATM   43  C15 UNL     1      -2.021   2.030   4.218  1.00  0.00     0.037 C 
BRANCH  43  44
HETATM   44  C16 UNL     1      -3.254   2.258   3.337  1.00  0.00     0.023 C 
BRANCH  44  45
HETATM   45  C17 UNL     1      -3.698   1.078   2.462  1.00  0.00     0.138 C 
BRANCH  45  46
HETATM   46  N4  UNL     1      -3.360   1.335   1.053  1.00  0.00    -0.227 N 
HETATM   47  C18 UNL     1      -4.282   1.294   0.162  1.00  0.00     0.665 C 
HETATM   48  N5  UNL     1      -3.985   1.530  -1.137  1.00  0.00    -0.235 N 
HETATM   49  N6  UNL     1      -5.610   1.063   0.267  1.00  0.00    -0.235 N 
ATOM     50  H52 UNL     1      -2.983   1.704  -1.216  1.00  0.00     0.174 HD
ATOM     51  H51 UNL     1      -4.718   1.497  -1.845  1.00  0.00     0.174 HD
ATOM     52  H62 UNL     1      -5.834   0.885   1.246  1.00  0.00     0.174 HD
ATOM     53  H61 UNL     1      -6.343   1.030  -0.441  1.00  0.00     0.174 HD
ATOM     54  H4  UNL     1      -2.398   1.545   0.786  1.00  0.00     0.177 HD
ENDBRANCH  45  46
ENDBRANCH  44  45
ENDBRANCH  43  44
ENDBRANCH  10  43
TORSDOF 12
