REMARK  10 active torsions:
REMARK  status: ('A' for Active; 'I' for Inactive)
REMARK    1  A    between atoms: C4_4  and  C5_5 
REMARK    2  A    between atoms: C5_5  and  O1_7 
REMARK    3  A    between atoms: C5_5  and  C7_9 
REMARK    4  A    between atoms: C7_9  and  N1_10 
REMARK    5  A    between atoms: N1_10  and  C8_12 
REMARK    6  A    between atoms: C8_12  and  C9_13 
REMARK    7  A    between atoms: C10_14  and  N2_15 
REMARK       I    between atoms: N2_15  and  C11_17 
REMARK    8  A    between atoms: C11_17  and  C12_19 
REMARK    9  A    between atoms: C12_19  and  C13_20 
REMARK   10  A    between atoms: C13_20  and  O3_22 
ROOT
HETATM    1  C1  UNL     1      -5.207   1.169  -4.997  1.00  0.00     0.027 C 
HETATM    2  C2  UNL     1      -4.855   0.870  -3.890  1.00  0.00    -0.026 C 
HETATM    3  C3  UNL     1      -4.412   0.535  -2.631  1.00  0.00    -0.012 C 
HETATM    4  C4  UNL     1      -4.006   0.224  -1.548  1.00  0.00    -0.040 C 
ENDROOT
BRANCH   4   5
HETATM    5  C5  UNL     1      -3.506  -0.185  -0.225  1.00  0.00     0.191 C 
HETATM    6  C6  UNL     1      -4.674  -0.463   0.727  1.00  0.00     0.076 C 
BRANCH   5   7
HETATM    7  O1  UNL     1      -2.840  -1.448  -0.357  1.00  0.00    -0.366 OA
ATOM      8  H1  UNL     1      -2.517  -1.712   0.497  1.00  0.00     0.212 HD
ENDBRANCH   5   7
BRANCH   5   9
HETATM    9  C7  UNL     1      -2.539   0.801   0.400  1.00  0.00    -0.019 C 
BRANCH   9  10
HETATM   10  N1  UNL     1      -1.667   1.402   0.918  1.00  0.00    -0.336 N 
ATOM     11  H1  UNL     1      -1.577   2.413   0.822  1.00  0.00     0.174 HD
BRANCH  10  12
HETATM   12  C8  UNL     1      -0.758   0.641   1.677  1.00  0.00     0.079 C 
BRANCH  12  13
HETATM   13  C9  UNL     1       0.658   0.673   1.142  1.00  0.00     0.088 C 
HETATM   14  C10 UNL     1       0.827   0.755  -0.404  1.00  0.00     0.134 C 
HETATM   15  C15 UNL     1       1.695   2.060  -0.249  1.00  0.00     0.285 C 
HETATM   16  C16 UNL     1       0.911   3.032   0.411  1.00  0.00     0.191 C 
HETATM   17  N3  UNL     1       2.694   2.155   0.860  1.00  0.00    -0.050 N 
HETATM   18  O4  UNL     1      -0.271   3.533   0.273  1.00  0.00    -0.293 OA
HETATM   19  C17 UNL     1       1.378   2.000   1.580  1.00  0.00     0.272 C 
HETATM   20  C18 UNL     1       3.627   1.002   1.041  1.00  0.00     0.274 C 
HETATM   21  C19 UNL     1       3.396   3.472   1.047  1.00  0.00     0.274 C 
BRANCH  14  22
HETATM   22  N2  UNL     1       1.495  -0.383  -0.946  1.00  0.00    -0.353 N 
HETATM   23  C11 UNL     1       0.635  -1.383  -1.400  1.00  0.00     0.220 C 
HETATM   24  O2  UNL     1      -0.527  -1.183  -1.747  1.00  0.00    -0.274 OA
ATOM     25  H2  UNL     1       2.511  -0.459  -0.997  1.00  0.00     0.163 HD
BRANCH  23  26
HETATM   26  C12 UNL     1       1.258  -2.756  -1.292  1.00  0.00     0.134 C 
BRANCH  26  27
HETATM   27  C13 UNL     1       1.482  -3.108   0.209  1.00  0.00     0.122 C 
HETATM   28  C14 UNL     1       1.873  -4.588   0.305  1.00  0.00     0.040 C 
BRANCH  27  29
HETATM   29  O3  UNL     1       2.485  -2.376   0.689  1.00  0.00    -0.395 OA
ATOM     30  H3  UNL     1       2.622  -2.591   1.604  1.00  0.00     0.210 HD
ENDBRANCH  27  29
ENDBRANCH  26  27
ENDBRANCH  23  26
ENDBRANCH  14  22
ENDBRANCH  12  13
ENDBRANCH  10  12
ENDBRANCH   9  10
ENDBRANCH   5   9
ENDBRANCH   4   5
TORSDOF 10
