REMARK  8 active torsions:
REMARK  status: ('A' for Active; 'I' for Inactive)
REMARK    1  A    between atoms: C2_2  and  C4_4 
REMARK    2  A    between atoms: C7_7  and  C8_8 
REMARK       I    between atoms: C8_8  and  N1_10 
REMARK    3  A    between atoms: N1_10  and  C9_12 
REMARK    4  A    between atoms: C9_12  and  C12_15 
REMARK    5  A    between atoms: C15_20  and  C17_22 
REMARK    6  A    between atoms: C30_35  and  O4_36 
REMARK    7  A    between atoms: O4_36  and  C31_37 
REMARK    8  A    between atoms: C31_37  and  O5_38 
ROOT
HETATM    1  C4  UNL     1      -3.600   1.915  -0.477  1.00  0.00     0.021 C 
HETATM    2  C5  UNL     1      -4.668   0.936  -1.030  1.00  0.00     0.011 C 
HETATM    3  C6  UNL     1      -4.251  -0.550  -1.017  1.00  0.00     0.020 C 
HETATM    4  C7  UNL     1      -3.034  -0.847  -0.113  1.00  0.00     0.045 C 
HETATM    5  C13 UNL     1      -2.691  -2.359  -0.070  1.00  0.00     0.020 C 
HETATM    6  C14 UNL     1      -2.198  -2.960  -1.367  1.00  0.00     0.011 C 
HETATM    7  C15 UNL     1      -0.965  -2.271  -1.998  1.00  0.00    -0.036 C 
HETATM    8  C16 UNL     1      -1.196  -2.462  -3.575  1.00  0.00     0.016 C 
HETATM    9  C37 UNL     1      -1.042  -0.712  -1.825  1.00  0.00     0.016 C 
HETATM   10  C38 UNL     1      -1.834  -0.014  -0.660  1.00  0.00     0.012 C 
HETATM   11  C39 UNL     1      -2.176   1.537  -1.013  1.00  0.00    -0.035 C 
HETATM   12  C40 UNL     1      -2.101   1.888  -2.524  1.00  0.00     0.016 C 
HETATM   13  C41 UNL     1      -1.085   2.400  -0.328  1.00  0.00     0.016 C 
ENDROOT
BRANCH   7  14
HETATM   14  C17 UNL     1       0.470  -3.002  -1.667  1.00  0.00    -0.032 C 
HETATM   15  C18 UNL     1       0.314  -4.551  -1.927  1.00  0.00     0.016 C 
HETATM   16  C19 UNL     1       1.518  -2.375  -2.637  1.00  0.00     0.016 C 
HETATM   17  C20 UNL     1       2.635  -2.662  -1.688  1.00  0.00     0.003 A 
HETATM   18  C21 UNL     1       1.737  -3.126  -0.551  1.00  0.00     0.009 A 
HETATM   19  C35 UNL     1       3.194  -1.442  -0.938  1.00  0.00    -0.005 A 
HETATM   20  C22 UNL     1       2.258  -2.006   0.420  1.00  0.00    -0.022 A 
HETATM   21  C23 UNL     1       0.864  -1.521   0.858  1.00  0.00     0.017 C 
HETATM   22  C24 UNL     1       3.098  -2.060   1.830  1.00  0.00    -0.037 C 
HETATM   23  C25 UNL     1       2.353  -2.959   2.845  1.00  0.00     0.015 C 
HETATM   24  C26 UNL     1       4.471  -2.725   1.653  1.00  0.00     0.015 C 
HETATM   25  C27 UNL     1       3.315  -0.534   2.533  1.00  0.00     0.041 C 
HETATM   26  C28 UNL     1       3.094   0.629   1.554  1.00  0.00     0.125 C 
HETATM   27  C29 UNL     1       3.729   1.996   1.355  1.00  0.00     0.064 C 
HETATM   28  O6  UNL     1       3.735   0.037   0.482  1.00  0.00    -0.380 OA
HETATM   29  C30 UNL     1       3.364   2.430  -0.156  1.00  0.00     0.129 C 
HETATM   30  C33 UNL     1       3.570   1.281  -1.273  1.00  0.00     0.065 C 
HETATM   31  C34 UNL     1       2.969   0.031  -0.687  1.00  0.00     0.133 C 
HETATM   32  C36 UNL     1       4.703  -1.664  -1.262  1.00  0.00     0.019 C 
BRANCH  29  33
HETATM   33  O4  UNL     1       4.080   3.611  -0.516  1.00  0.00    -0.362 OA
BRANCH  33  34
HETATM   34  C31 UNL     1       3.313   4.442  -1.383  1.00  0.00     0.337 C 
BRANCH  34  35
HETATM   35  O5  UNL     1       4.152   5.378  -2.045  1.00  0.00    -0.372 OA
HETATM   36  C32 UNL     1       3.399   6.206  -2.920  1.00  0.00     0.204 C 
ENDBRANCH  34  35
ENDBRANCH  33  34
ENDBRANCH  29  33
ENDBRANCH   7  14
BRANCH   4  37
HETATM   37  C8  UNL     1      -3.423  -0.500   1.367  1.00  0.00     0.227 C 
HETATM   38  O1  UNL     1      -4.554  -0.136   1.685  1.00  0.00    -0.273 OA
HETATM   39  N1  UNL     1      -2.433  -0.638   2.306  1.00  0.00    -0.342 N 
ATOM     40  H1  UNL     1      -1.541  -1.023   1.994  1.00  0.00     0.163 HD
BRANCH  39  41
HETATM   41  C9  UNL     1      -2.554  -0.273   3.736  1.00  0.00     0.114 C 
HETATM   42  C10 UNL     1      -2.484   1.248   3.873  1.00  0.00     0.050 C 
HETATM   43  C11 UNL     1      -3.813  -0.827   4.409  1.00  0.00     0.050 C 
BRANCH  41  44
HETATM   44  C12 UNL     1      -1.349  -0.950   4.415  1.00  0.00     0.201 C 
HETATM   45  O2  UNL     1      -0.828  -1.993   4.041  1.00  0.00    -0.646 OA
HETATM   46  O3  UNL     1      -0.878  -0.327   5.510  1.00  0.00    -0.646 OA
ENDBRANCH  41  44
ENDBRANCH  39  41
ENDBRANCH   4  37
BRANCH   1  47
HETATM   47  C2  UNL     1      -4.032   3.386  -0.586  1.00  0.00    -0.088 C 
HETATM   48  C1  UNL     1      -4.615   3.926  -1.671  1.00  0.00     0.014 C 
HETATM   49  C3  UNL     1      -3.857   4.218   0.664  1.00  0.00     0.043 C 
ENDBRANCH   1  47
TORSDOF 8
