REMARK  4 active torsions:
REMARK  status: ('A' for Active; 'I' for Inactive)
REMARK    1  A    between atoms: N4_9  and  C4_11 
REMARK    2  A    between atoms: C4_11  and  C5_12 
REMARK       I    between atoms: C5_12  and  N5_14 
REMARK    3  A    between atoms: N5_14  and  C6_16 
REMARK    4  A    between atoms: C9_19  and  N6_20 
ROOT
HETATM    1  C1  UNL     1       3.895  -1.953  -1.879  1.00  0.00     0.146 C 
HETATM    2  N1  UNL     1       2.672  -1.233  -2.217  1.00  0.00    -0.154 NA
HETATM    3  N2  UNL     1       2.878   0.105  -2.732  1.00  0.00    -0.144 N 
ATOM      4  H2  UNL     1       3.646   0.474  -3.294  1.00  0.00     0.200 HD
HETATM    5  C2  UNL     1       1.794   0.721  -2.273  1.00  0.00     0.710 C 
HETATM    6  N3  UNL     1       1.790   1.863  -1.511  1.00  0.00    -0.021 N 
ATOM      7  H3  UNL     1       2.387   2.627  -1.827  1.00  0.00     0.203 HD
HETATM    8  C3  UNL     1       1.059   2.082  -0.358  1.00  0.00     0.707 C 
HETATM    9  N4  UNL     1       0.497   3.252  -0.310  1.00  0.00    -0.216 N 
ATOM     10  H4  UNL     1       0.767   3.968  -0.984  1.00  0.00     0.178 HD
HETATM   11  N8  UNL     1       0.926   1.076   0.595  1.00  0.00    -0.022 N 
ATOM     12  H8  UNL     1       0.433   1.455   1.404  1.00  0.00     0.203 HD
HETATM   13  C11 UNL     1       1.224  -0.259   0.840  1.00  0.00     0.692 C 
HETATM   14  N9  UNL     1       0.896  -0.801   1.972  1.00  0.00    -0.234 N 
ATOM     15  H91 UNL     1       1.115  -1.781   2.152  1.00  0.00     0.174 HD
ATOM     16  H92 UNL     1       0.400  -0.133   2.562  1.00  0.00     0.174 HD
HETATM   17  N10 UNL     1       1.892  -1.160   0.045  1.00  0.00    -0.164 N 
ATOM     18  H10 UNL     1       2.537  -1.841   0.445  1.00  0.00     0.187 HD
HETATM   19  C12 UNL     1       1.672  -1.112  -1.230  1.00  0.00     0.207 C 
HETATM   20  N11 UNL     1       0.857  -0.196  -1.851  1.00  0.00    -0.162 N 
ATOM     21  H11 UNL     1      -0.156  -0.195  -1.967  1.00  0.00     0.187 HD
ENDROOT
BRANCH   9  22
HETATM   22  C4  UNL     1      -0.522   3.556   0.703  1.00  0.00     0.241 C 
BRANCH  22  23
HETATM   23  C5  UNL     1      -1.803   2.774   0.364  1.00  0.00     0.241 C 
HETATM   24  O1  UNL     1      -2.346   2.837  -0.736  1.00  0.00    -0.271 OA
HETATM   25  N5  UNL     1      -2.179   1.911   1.367  1.00  0.00    -0.312 N 
ATOM     26  H5  UNL     1      -2.321   2.293   2.302  1.00  0.00     0.170 HD
BRANCH  25  27
HETATM   27  C6  UNL     1      -2.378   0.539   1.179  1.00  0.00     0.107 A 
HETATM   28  C7  UNL     1      -2.480  -0.064  -0.070  1.00  0.00     0.051 A 
HETATM   29  C8  UNL     1      -2.451  -1.459  -0.147  1.00  0.00     0.041 A 
HETATM   30  C9  UNL     1      -2.333  -2.195   1.032  1.00  0.00     0.118 A 
HETATM   31  C10 UNL     1      -2.272  -1.521   2.237  1.00  0.00     0.125 A 
HETATM   32  N7  UNL     1      -2.289  -0.163   2.331  1.00  0.00    -0.350 N 
ATOM     33  H7  UNL     1      -2.237   0.306   3.235  1.00  0.00     0.166 HD
BRANCH  30  34
HETATM   34  N6  UNL     1      -2.272  -3.650   0.998  1.00  0.00    -0.114 N 
HETATM   35  O2  UNL     1      -2.366  -4.255   2.076  1.00  0.00    -0.532 OA
HETATM   36  O3  UNL     1      -2.151  -4.195  -0.108  1.00  0.00    -0.532 OA
ENDBRANCH  30  34
ENDBRANCH  25  27
ENDBRANCH  22  23
ENDBRANCH   9  22
TORSDOF 4
