REMARK  5 active torsions:
REMARK  status: ('A' for Active; 'I' for Inactive)
REMARK    1  A    between atoms: C2_2  and  C3_3 
REMARK    2  A    between atoms: C3_3  and  O1_5 
REMARK    3  A    between atoms: O1_5  and  C5_6 
REMARK       I    between atoms: C5_6  and  N1_8 
REMARK    4  A    between atoms: C8_11  and  O3_12 
REMARK    5  A    between atoms: C15_20  and  O5_21 
ROOT
HETATM    1  C5  UNL     1      -1.540  -0.398   0.548  1.00  0.00     0.341 C 
HETATM    2  O2  UNL     1      -1.895  -1.537   0.281  1.00  0.00    -0.245 OA
HETATM    3  N1  UNL     1      -0.218  -0.002   0.455  1.00  0.00    -0.219 NA
HETATM    4  C6  UNL     1       0.204   1.334  -0.135  1.00  0.00     0.115 C 
HETATM    5  C7  UNL     1       1.559   0.582  -0.363  1.00  0.00     0.022 C 
HETATM    6  C8  UNL     1       2.343   0.724   0.994  1.00  0.00     0.133 C 
HETATM    7  C10 UNL     1       3.277  -0.475   0.991  1.00  0.00     0.041 C 
HETATM    8  C11 UNL     1       3.020  -1.101  -0.367  1.00  0.00     0.037 C 
HETATM    9  C12 UNL     1       2.672   0.069  -1.327  1.00  0.00     0.014 C 
HETATM   10  C13 UNL     1       2.295  -0.679  -2.631  1.00  0.00     0.087 C 
HETATM   11  C14 UNL     1       1.788  -1.991  -2.047  1.00  0.00     0.163 C 
HETATM   12  O4  UNL     1       1.525  -3.001  -2.685  1.00  0.00    -0.295 OA
HETATM   13  C15 UNL     1       1.620  -1.771  -0.530  1.00  0.00     0.139 C 
HETATM   14  C16 UNL     1       0.606  -0.632  -0.548  1.00  0.00     0.123 C 
ENDROOT
BRANCH   1  15
HETATM   15  O1  UNL     1      -2.363   0.648   0.808  1.00  0.00    -0.303 OA
BRANCH  15  16
HETATM   16  C3  UNL     1      -3.632   0.741   0.107  1.00  0.00     0.129 C 
HETATM   17  C4  UNL     1      -3.336   1.137  -1.343  1.00  0.00     0.040 C 
BRANCH  16  18
HETATM   18  C2  UNL     1      -4.569  -0.472   0.186  1.00  0.00     0.028 C 
HETATM   19  C1  UNL     1      -4.911  -0.877   1.608  1.00  0.00     0.007 C 
ENDBRANCH  16  18
ENDBRANCH  15  16
ENDBRANCH   1  15
BRANCH  13  20
HETATM   20  O5  UNL     1       1.313  -2.760   0.387  1.00  0.00    -0.380 OA
ATOM     21  H5  UNL     1       0.461  -3.168   0.288  1.00  0.00     0.211 HD
ENDBRANCH  13  20
BRANCH   6  22
HETATM   22  O3  UNL     1       3.059   1.954   0.893  1.00  0.00    -0.390 OA
HETATM   23  C9  UNL     1       3.516   2.450   2.143  1.00  0.00     0.202 C 
ENDBRANCH   6  22
TORSDOF 5
