REMARK  3 active torsions:
REMARK  status: ('A' for Active; 'I' for Inactive)
REMARK    1  A    between atoms: C3_7  and  C4_8 
REMARK       I    between atoms: C4_8  and  N3_10 
REMARK    2  A    between atoms: N3_10  and  C5_12 
REMARK    3  A    between atoms: C12_20  and  C14_22 
ROOT
HETATM    1  C5  UNL     1      -0.824  -1.856  -0.082  1.00  0.00     0.230 C 
HETATM    2  O2  UNL     1       0.042  -1.796  -1.251  1.00  0.00    -0.360 OA
HETATM    3  C6  UNL     1       1.204  -1.913  -0.399  1.00  0.00     0.142 C 
HETATM    4  C7  UNL     1       0.356  -1.476   0.835  1.00  0.00     0.069 C 
HETATM    5  C8  UNL     1       0.929  -0.031   0.627  1.00  0.00     0.008 C 
HETATM    6  C9  UNL     1       1.756   0.927   1.530  1.00  0.00     0.015 C 
HETATM    7  C10 UNL     1       3.170   0.801   0.789  1.00  0.00    -0.038 C 
HETATM    8  C11 UNL     1       2.482   1.664  -0.550  1.00  0.00     0.015 C 
HETATM    9  C12 UNL     1       2.676   0.243  -1.178  1.00  0.00    -0.002 C 
HETATM   10  C13 UNL     1       4.110   0.534  -0.608  1.00  0.00     0.015 C 
HETATM   11  C14 UNL     1       2.092  -0.735  -0.112  1.00  0.00    -0.005 C 
HETATM   12  C15 UNL     1       3.164  -0.760   0.939  1.00  0.00     0.022 C 
ENDROOT
BRANCH   1  13
HETATM   13  N3  UNL     1      -1.936  -0.902  -0.102  1.00  0.00    -0.329 N 
HETATM   14  C4  UNL     1      -3.030  -1.106  -0.923  1.00  0.00     0.263 C 
HETATM   15  O1  UNL     1      -3.260  -2.187  -1.454  1.00  0.00    -0.267 OA
ATOM     16  H3  UNL     1      -1.903  -0.077   0.497  1.00  0.00     0.165 HD
BRANCH  14  17
HETATM   17  C3  UNL     1      -3.833   0.071  -1.116  1.00  0.00     0.110 A 
HETATM   18  C2  UNL     1      -4.289   1.047  -0.245  1.00  0.00     0.043 A 
HETATM   19  C1  UNL     1      -4.152   1.080   1.234  1.00  0.00     0.071 C 
HETATM   20  N1  UNL     1      -4.972   2.092  -0.859  1.00  0.00    -0.296 N 
HETATM   21  N2  UNL     1      -5.078   1.912  -2.166  1.00  0.00    -0.061 NA
ATOM     22  H1  UNL     1      -5.346   2.900  -0.362  1.00  0.00     0.183 HD
HETATM   23  S1  UNL     1      -4.387   0.480  -2.685  1.00  0.00     0.007 SA
ENDBRANCH  14  17
ENDBRANCH   1  13
TORSDOF 3
