REMARK  16 active torsions:
REMARK  status: ('A' for Active; 'I' for Inactive)
REMARK    1  A    between atoms: C2_3  and  C3_4 
REMARK    2  A    between atoms: C2_3  and  C4_9 
REMARK    3  A    between atoms: C3_4  and  O1_5 
REMARK    4  A    between atoms: C3_4  and  O2_7 
REMARK    5  A    between atoms: C16_25  and  C17_26 
REMARK    6  A    between atoms: C17_26  and  O7_27 
REMARK    7  A    between atoms: C17_26  and  C18_29 
REMARK    8  A    between atoms: C18_29  and  O8_30 
REMARK    9  A    between atoms: C18_29  and  C19_32 
REMARK   10  A    between atoms: C19_32  and  O9_33 
REMARK   11  A    between atoms: C19_32  and  C20_35 
REMARK   12  A    between atoms: C20_35  and  O10_36 
REMARK   13  A    between atoms: C20_35  and  C21_38 
REMARK   14  A    between atoms: C21_38  and  O11_39 
REMARK   15  A    between atoms: C22_41  and  C23_42 
REMARK   16  A    between atoms: C23_42  and  O12_43 
ROOT
HETATM    1  N1  UNL     1       2.982  -4.596  -0.951  1.00  0.00    -0.197 NA
HETATM    2  C1  UNL     1       2.174  -4.042  -0.327  1.00  0.00     0.072 C 
HETATM    3  C2  UNL     1       1.085  -3.350   0.400  1.00  0.00     0.183 C 
ENDROOT
BRANCH   3   4
HETATM    4  C3  UNL     1      -0.248  -3.981  -0.111  1.00  0.00     0.274 C 
BRANCH   4   5
HETATM    5  O1  UNL     1      -0.388  -4.134  -1.511  1.00  0.00    -0.370 OA
ATOM      6  H1  UNL     1      -1.199  -4.518  -1.822  1.00  0.00     0.212 HD
ENDBRANCH   4   5
BRANCH   4   7
HETATM    7  O2  UNL     1      -1.391  -3.263   0.293  1.00  0.00    -0.370 OA
ATOM      8  H2  UNL     1      -2.202  -3.647  -0.018  1.00  0.00     0.212 HD
ENDBRANCH   4   7
ENDBRANCH   3   4
BRANCH   3   9
HETATM    9  C4  UNL     1       1.293  -1.748   0.381  1.00  0.00     0.096 C 
HETATM   10  C5  UNL     1       0.864  -1.256  -1.006  1.00  0.00     0.046 C 
HETATM   11  C6  UNL     1       0.996   0.218  -1.286  1.00  0.00     0.072 C 
HETATM   12  C7  UNL     1       1.333   1.135  -0.092  1.00  0.00     0.175 C 
HETATM   13  O3  UNL     1       2.007   0.721   1.125  1.00  0.00    -0.341 OA
HETATM   14  C9  UNL     1       2.792   1.756  -0.337  1.00  0.00     0.107 C 
HETATM   15  O6  UNL     1       0.069   1.494   0.450  1.00  0.00    -0.346 OA
HETATM   16  C8  UNL     1       3.144   0.672   0.461  1.00  0.00     0.197 C 
HETATM   17  C15 UNL     1       3.527  -0.586   0.067  1.00  0.00     0.112 C 
HETATM   18  C14 UNL     1       4.267  -0.529  -1.101  1.00  0.00     0.116 A 
HETATM   19  O5  UNL     1       2.794  -1.650   0.614  1.00  0.00    -0.337 OA
HETATM   20  C11 UNL     1       4.389   0.664  -1.849  1.00  0.00    -0.001 A 
HETATM   21  O4  UNL     1       4.908  -1.546  -1.734  1.00  0.00    -0.319 OA
HETATM   22  C10 UNL     1       3.627   1.821  -1.460  1.00  0.00     0.000 C 
HETATM   23  C12 UNL     1       5.254   0.337  -2.926  1.00  0.00     0.038 A 
HETATM   24  C13 UNL     1       5.539  -1.006  -2.809  1.00  0.00     0.143 A 
HETATM   25  C16 UNL     1      -0.343   0.515   1.482  1.00  0.00     0.165 C 
HETATM   26  C22 UNL     1       0.301  -1.052   1.532  1.00  0.00     0.077 C 
BRANCH  25  27
HETATM   27  C17 UNL     1      -1.893   0.457   1.589  1.00  0.00     0.179 C 
BRANCH  27  28
HETATM   28  O7  UNL     1      -2.244   0.098   2.937  1.00  0.00    -0.390 OA
ATOM     29  H7  UNL     1      -3.191   0.063   3.002  1.00  0.00     0.210 HD
ENDBRANCH  27  28
BRANCH  27  30
HETATM   30  C18 UNL     1      -2.591   1.782   1.206  1.00  0.00     0.180 C 
BRANCH  30  31
HETATM   31  O8  UNL     1      -3.736   1.971   2.065  1.00  0.00    -0.390 OA
ATOM     32  H8  UNL     1      -4.165   2.785   1.830  1.00  0.00     0.210 HD
ENDBRANCH  30  31
BRANCH  30  33
HETATM   33  C19 UNL     1      -3.115   1.696  -0.241  1.00  0.00     0.180 C 
BRANCH  33  34
HETATM   34  O9  UNL     1      -4.316   0.889  -0.250  1.00  0.00    -0.390 OA
ATOM     35  H9  UNL     1      -4.639   0.836  -1.142  1.00  0.00     0.210 HD
ENDBRANCH  33  34
BRANCH  33  36
HETATM   36  C20 UNL     1      -3.444   3.045  -0.898  1.00  0.00     0.173 C 
BRANCH  36  37
HETATM   37  O10 UNL     1      -4.090   2.781  -2.166  1.00  0.00    -0.391 OA
ATOM     38  H10 UNL     1      -4.293   3.615  -2.572  1.00  0.00     0.210 HD
ENDBRANCH  36  37
BRANCH  36  39
HETATM   39  C21 UNL     1      -4.380   3.954  -0.099  1.00  0.00     0.198 C 
BRANCH  39  40
HETATM   40  O11 UNL     1      -4.711   5.094  -0.894  1.00  0.00    -0.398 OA
ATOM     41  H11 UNL     1      -5.292   5.658  -0.398  1.00  0.00     0.209 HD
ENDBRANCH  39  40
ENDBRANCH  36  39
ENDBRANCH  33  36
ENDBRANCH  30  33
ENDBRANCH  27  30
ENDBRANCH  25  27
BRANCH  26  42
HETATM   42  C23 UNL     1       0.755  -1.372   2.980  1.00  0.00     0.174 C 
BRANCH  42  43
HETATM   43  O12 UNL     1       1.834  -0.577   3.433  1.00  0.00    -0.400 OA
ATOM     44  H12 UNL     1       2.112  -0.773   4.320  1.00  0.00     0.209 HD
ENDBRANCH  42  43
ENDBRANCH  26  42
ENDBRANCH   3   9
TORSDOF 16
