REMARK  20 active torsions:
REMARK  status: ('A' for Active; 'I' for Inactive)
REMARK    1  A    between atoms: O1_2  and  C2_3 
REMARK    2  A    between atoms: C3_4  and  O2_5 
REMARK    3  A    between atoms: C4_7  and  C6_9 
REMARK    4  A    between atoms: C6_9  and  O3_10 
REMARK    5  A    between atoms: C6_9  and  N1_12 
REMARK    6  A    between atoms: C7_14  and  C8_15 
REMARK    7  A    between atoms: C9_17  and  O5_18 
REMARK    8  A    between atoms: C9_17  and  C10_20 
REMARK    9  A    between atoms: C10_20  and  O6_21 
REMARK   10  A    between atoms: O6_21  and  C11_22 
REMARK   11  A    between atoms: C11_22  and  C12_24 
REMARK   12  A    between atoms: C12_24  and  O9_26 
REMARK   13  A    between atoms: O9_26  and  C13_27 
REMARK   14  A    between atoms: C17_31  and  O10_32 
REMARK   15  A    between atoms: C17_31  and  C18_34 
REMARK   16  A    between atoms: C18_34  and  O11_35 
REMARK   17  A    between atoms: O11_35  and  C19_36 
REMARK   18  A    between atoms: C21_39  and  N2_40 
REMARK   19  A    between atoms: C23_46  and  C24_47 
REMARK   20  A    between atoms: C24_47  and  O16_48 
ROOT
HETATM    1  C8  UNL     1      -0.910  -2.534   0.915  1.00  0.00     0.195 C 
HETATM    2  O4  UNL     1      -1.203  -2.066   2.232  1.00  0.00    -0.340 OA
HETATM    3  C9  UNL     1      -2.420  -1.336   2.299  1.00  0.00     0.187 C 
HETATM    4  C16 UNL     1      -3.580  -2.252   1.868  1.00  0.00     0.113 C 
HETATM    5  C17 UNL     1      -3.321  -3.262   0.701  1.00  0.00     0.114 C 
HETATM    6  C21 UNL     1      -1.835  -3.683   0.603  1.00  0.00     0.226 C 
ENDROOT
BRANCH   1   7
HETATM    7  C7  UNL     1       0.579  -2.830   0.856  1.00  0.00     0.092 C 
HETATM    8  N1  UNL     1       1.392  -1.861   1.111  1.00  0.00    -0.372 N 
ATOM      9  H1  UNL     1       1.074  -0.978   1.509  1.00  0.00     0.161 HD
BRANCH   8  10
HETATM   10  C6  UNL     1       2.790  -2.107   0.795  1.00  0.00     0.246 C 
BRANCH  10  11
HETATM   11  C4  UNL     1       3.674  -0.791   1.051  1.00  0.00     0.125 C 
HETATM   12  C3  UNL     1       4.455  -0.448  -0.262  1.00  0.00     0.186 C 
HETATM   13  C2  UNL     1       3.756   0.483  -1.302  1.00  0.00     0.127 C 
HETATM   14  C22 UNL     1       2.799   1.482  -0.577  1.00  0.00     0.222 C 
HETATM   15  C26 UNL     1       2.603   0.223  -2.354  1.00  0.00     0.089 C 
HETATM   16  O15 UNL     1       2.065   0.935   0.551  1.00  0.00    -0.274 OA
HETATM   17  C23 UNL     1       1.952   1.542  -1.885  1.00  0.00     0.121 C 
HETATM   18  N3  UNL     1       2.973   0.427   1.557  1.00  0.00    -0.083 NA
HETATM   19  O17 UNL     1       0.638   0.908  -1.841  1.00  0.00    -0.374 OA
HETATM   20  C25 UNL     1       1.256  -0.389  -2.028  1.00  0.00     0.180 C 
HETATM   21  C5  UNL     1       4.682  -1.077   2.210  1.00  0.00     0.044 C 
BRANCH  12  22
HETATM   22  O2  UNL     1       5.691   0.217   0.123  1.00  0.00    -0.390 OA
ATOM     23  H2  UNL     1       6.116  -0.350   0.756  1.00  0.00     0.210 HD
ENDBRANCH  12  22
BRANCH  13  24
HETATM   24  O1  UNL     1       4.890   1.129  -2.026  1.00  0.00    -0.379 OA
HETATM   25  C1  UNL     1       5.516   0.346  -3.058  1.00  0.00     0.202 C 
ENDBRANCH  13  24
BRANCH  17  26
HETATM   26  C24 UNL     1       1.928   2.806  -2.720  1.00  0.00     0.205 C 
BRANCH  26  27
HETATM   27  O16 UNL     1       3.242   3.304  -2.952  1.00  0.00    -0.398 OA
ATOM     28  H16 UNL     1       3.227   4.097  -3.476  1.00  0.00     0.209 HD
ENDBRANCH  26  27
ENDBRANCH  17  26
ENDBRANCH  10  11
BRANCH  10  29
HETATM   29  O3  UNL     1       3.315  -3.239   1.476  1.00  0.00    -0.375 OA
ATOM     30  H3  UNL     1       2.792  -4.018   1.325  1.00  0.00     0.212 HD
ENDBRANCH  10  29
ENDBRANCH   8  10
ENDBRANCH   1   7
BRANCH   6  31
HETATM   31  N2  UNL     1      -1.501  -4.230  -0.760  1.00  0.00    -0.144 N 
HETATM   32  O13 UNL     1      -1.500  -5.455  -0.897  1.00  0.00    -0.536 OA
HETATM   33  O14 UNL     1      -1.197  -3.413  -1.645  1.00  0.00    -0.536 OA
ENDBRANCH   6  31
BRANCH   3  34
HETATM   34  O5  UNL     1      -2.650  -1.060   3.682  1.00  0.00    -0.363 OA
ATOM     35  H5  UNL     1      -3.464  -0.572   3.727  1.00  0.00     0.213 HD
ENDBRANCH   3  34
BRANCH   3  36
HETATM   36  C10 UNL     1      -2.262   0.015   1.543  1.00  0.00     0.247 C 
BRANCH  36  37
HETATM   37  O6  UNL     1      -3.306   0.969   1.761  1.00  0.00    -0.308 OA
BRANCH  37  38
HETATM   38  C11 UNL     1      -3.030   1.842   2.759  1.00  0.00     0.359 C 
HETATM   39  O7  UNL     1      -2.153   1.744   3.601  1.00  0.00    -0.253 OA
BRANCH  38  40
HETATM   40  C12 UNL     1      -3.889   3.105   2.597  1.00  0.00     0.359 C 
HETATM   41  O8  UNL     1      -4.906   3.250   3.262  1.00  0.00    -0.253 OA
BRANCH  40  42
HETATM   42  O9  UNL     1      -3.454   4.014   1.700  1.00  0.00    -0.309 OA
BRANCH  42  43
HETATM   43  C13 UNL     1      -2.232   3.893   0.934  1.00  0.00     0.124 C 
HETATM   44  C14 UNL     1      -1.363   5.114   1.213  1.00  0.00     0.040 C 
HETATM   45  C15 UNL     1      -2.601   3.836  -0.542  1.00  0.00     0.040 C 
ENDBRANCH  42  43
ENDBRANCH  40  42
ENDBRANCH  38  40
ENDBRANCH  37  38
ENDBRANCH  36  37
ENDBRANCH   3  36
BRANCH   5  46
HETATM   46  O10 UNL     1      -4.059  -4.467   1.031  1.00  0.00    -0.385 OA
ATOM     47  H10 UNL     1      -3.902  -5.080   0.323  1.00  0.00     0.210 HD
ENDBRANCH   5  46
BRANCH   5  48
HETATM   48  C18 UNL     1      -3.967  -2.743  -0.604  1.00  0.00     0.219 C 
BRANCH  48  49
HETATM   49  O11 UNL     1      -3.437  -1.484  -1.002  1.00  0.00    -0.319 OA
BRANCH  49  50
HETATM   50  C19 UNL     1      -4.072  -0.970  -2.097  1.00  0.00     0.254 C 
HETATM   51  C20 UNL     1      -3.624   0.430  -2.358  1.00  0.00     0.126 C 
HETATM   52  O12 UNL     1      -4.954  -1.540  -2.728  1.00  0.00    -0.266 OA
ENDBRANCH  49  50
ENDBRANCH  48  49
ENDBRANCH   5  48
TORSDOF 20
