REMARK  14 active torsions:
REMARK  status: ('A' for Active; 'I' for Inactive)
REMARK    1  A    between atoms: C2_2  and  C3_3 
REMARK    2  A    between atoms: C4_6  and  C5_7 
REMARK       I    between atoms: C5_7  and  N2_8 
REMARK    3  A    between atoms: C6_12  and  N3_13 
REMARK    4  A    between atoms: N4_16  and  C7_17 
REMARK    5  A    between atoms: C7_17  and  C8_18 
REMARK    6  A    between atoms: C8_18  and  N5_19 
REMARK       I    between atoms: N7_23  and  C10_25 
REMARK    7  A    between atoms: C10_25  and  C11_27 
REMARK    8  A    between atoms: C14_31  and  C15_32 
REMARK    9  A    between atoms: C15_32  and  N8_33 
REMARK   10  A    between atoms: N14_55  and  C23_56 
REMARK   11  A    between atoms: C23_56  and  C24_57 
REMARK   12  A    between atoms: C24_57  and  C25_58 
REMARK   13  A    between atoms: C25_58  and  N15_59 
REMARK   14  A    between atoms: C25_58  and  O6_63 
ROOT
HETATM    1  N5  UNL     1      -1.248  -1.425  -2.035  1.00  0.00    -0.107 N 
HETATM    2  N6  UNL     1      -1.711  -0.798  -3.160  1.00  0.00    -0.114 N 
ATOM      3  H6  UNL     1      -2.640  -0.886  -3.573  1.00  0.00     0.206 HD
HETATM    4  C9  UNL     1      -0.659  -0.015  -3.628  1.00  0.00     0.724 C 
HETATM    5  N7  UNL     1      -0.658   1.062  -4.332  1.00  0.00    -0.153 N 
ATOM      6  H7  UNL     1       0.150   1.374  -4.871  1.00  0.00     0.187 HD
HETATM    7  C10 UNL     1      -1.838   1.749  -4.291  1.00  0.00     0.271 C 
HETATM    8  O2  UNL     1      -2.874   1.425  -4.855  1.00  0.00    -0.267 OA
HETATM    9  N9  UNL     1       0.496  -0.422  -2.991  1.00  0.00     0.065 N 
HETATM   10  C16 UNL     1       1.780   0.070  -3.144  1.00  0.00     0.314 C 
HETATM   11  O3  UNL     1       2.244   0.522  -4.188  1.00  0.00    -0.264 OA
HETATM   12  C17 UNL     1       2.623  -0.080  -1.919  1.00  0.00     0.146 C 
HETATM   13  C18 UNL     1       2.031  -0.696  -0.851  1.00  0.00     0.159 C 
HETATM   14  N10 UNL     1       0.802  -1.294  -0.826  1.00  0.00    -0.174 N 
ATOM     15  H10 UNL     1       0.482  -1.856  -0.037  1.00  0.00     0.185 HD
HETATM   16  C19 UNL     1       0.077  -1.096  -1.873  1.00  0.00     0.725 C 
HETATM   17  N11 UNL     1       2.790  -0.712   0.341  1.00  0.00    -0.086 NA
HETATM   18  C20 UNL     1       2.684   0.535   1.105  1.00  0.00     0.328 C 
HETATM   19  O4  UNL     1       1.625   0.954   1.572  1.00  0.00    -0.251 OA
HETATM   20  N12 UNL     1       3.871   1.304   1.181  1.00  0.00    -0.275 N 
ATOM     21  H12 UNL     1       3.976   1.940   1.971  1.00  0.00     0.173 HD
HETATM   22  C21 UNL     1       4.905   1.249   0.247  1.00  0.00     0.294 C 
HETATM   23  O5  UNL     1       5.926   1.902   0.179  1.00  0.00    -0.264 OA
HETATM   24  C22 UNL     1       4.514   0.157  -0.740  1.00  0.00     0.189 C 
HETATM   25  N13 UNL     1       3.872   0.568  -1.812  1.00  0.00    -0.330 N 
ATOM     26  H13 UNL     1       4.227   1.258  -2.473  1.00  0.00     0.168 HD
HETATM   27  N14 UNL     1       4.130  -0.979  -0.065  1.00  0.00    -0.277 N 
ENDROOT
BRANCH   1  28
HETATM   28  C8  UNL     1      -2.069  -2.173  -1.108  1.00  0.00     0.189 C 
BRANCH  28  29
HETATM   29  C7  UNL     1      -3.171  -1.312  -0.517  1.00  0.00     0.154 C 
BRANCH  29  30
HETATM   30  N4  UNL     1      -3.096  -1.111   0.921  1.00  0.00    -0.319 N 
HETATM   31  C3  UNL     1      -3.734  -1.913   1.843  1.00  0.00     0.085 C 
HETATM   32  N1  UNL     1      -4.310  -1.159   2.759  1.00  0.00    -0.338 N 
HETATM   33  C4  UNL     1      -3.847   0.136   2.537  1.00  0.00     0.146 C 
ATOM     34  H1  UNL     1      -4.962  -1.462   3.483  1.00  0.00     0.167 HD
HETATM   35  C6  UNL     1      -2.919   0.124   1.506  1.00  0.00     0.135 C 
BRANCH  31  36
HETATM   36  C2  UNL     1      -3.829  -3.400   1.757  1.00  0.00     0.072 C 
HETATM   37  C1  UNL     1      -2.517  -4.092   2.110  1.00  0.00     0.013 C 
ENDBRANCH  31  36
BRANCH  33  38
HETATM   38  C5  UNL     1      -4.341   1.280   3.303  1.00  0.00     0.269 C 
HETATM   39  N2  UNL     1      -5.480   1.004   4.020  1.00  0.00    -0.365 N 
ATOM     40  H22 UNL     1      -5.892   0.071   4.035  1.00  0.00     0.159 HD
ATOM     41  H21 UNL     1      -5.824   1.802   4.554  1.00  0.00     0.159 HD
HETATM   42  O1  UNL     1      -3.845   2.402   3.285  1.00  0.00    -0.266 OA
ENDBRANCH  33  38
BRANCH  35  43
HETATM   43  N3  UNL     1      -2.075   1.042   0.971  1.00  0.00    -0.383 N 
ATOM     44  H32 UNL     1      -1.944   1.956   1.404  1.00  0.00     0.157 HD
ATOM     45  H31 UNL     1      -1.393   1.033   0.213  1.00  0.00     0.157 HD
ENDBRANCH  35  43
ENDBRANCH  29  30
ENDBRANCH  28  29
ENDBRANCH   1  28
BRANCH   7  46
HETATM   46  C11 UNL     1      -1.772   2.764  -3.226  1.00  0.00     0.048 A 
HETATM   47  C12 UNL     1      -2.828   2.978  -2.271  1.00  0.00     0.025 A 
HETATM   48  C13 UNL     1      -2.473   3.843  -1.263  1.00  0.00     0.051 A 
HETATM   49  S1  UNL     1      -0.894   4.445  -1.468  1.00  0.00    -0.104 SA
HETATM   50  C14 UNL     1      -0.675   3.578  -2.942  1.00  0.00     0.023 A 
BRANCH  50  51
HETATM   51  C15 UNL     1       0.612   3.778  -3.704  1.00  0.00     0.276 C 
BRANCH  51  52
HETATM   52  N8  UNL     1       0.645   5.117  -4.305  1.00  0.00    -0.075 N 
ATOM     53  H83 UNL     1      -0.173   5.293  -4.888  1.00  0.00     0.274 HD
ATOM     54  H82 UNL     1       0.496   5.849  -3.611  1.00  0.00     0.274 HD
ATOM     55  H81 UNL     1       1.515   5.252  -4.820  1.00  0.00     0.274 HD
ENDBRANCH  51  52
ENDBRANCH  50  51
ENDBRANCH   7  46
BRANCH  27  56
HETATM   56  C23 UNL     1       4.918  -1.968   0.634  1.00  0.00     0.150 C 
BRANCH  56  57
HETATM   57  C24 UNL     1       5.394  -1.615   2.042  1.00  0.00     0.082 C 
BRANCH  57  58
HETATM   58  C25 UNL     1       4.305  -1.748   3.119  1.00  0.00     0.317 C 
BRANCH  58  59
HETATM   59  N15 UNL     1       4.764  -2.552   4.227  1.00  0.00    -0.053 N 
ATOM     60 3H15 UNL     1       5.098  -3.464   3.916  1.00  0.00     0.277 HD
ATOM     61 2H15 UNL     1       5.635  -2.192   4.617  1.00  0.00     0.277 HD
ATOM     62 1H15 UNL     1       4.041  -2.640   4.942  1.00  0.00     0.277 HD
ENDBRANCH  58  59
BRANCH  58  63
HETATM   63  O6  UNL     1       4.026  -0.465   3.627  1.00  0.00    -0.370 OA
ATOM     64  H6  UNL     1       3.353  -0.547   4.293  1.00  0.00     0.212 HD
ENDBRANCH  58  63
ENDBRANCH  57  58
ENDBRANCH  56  57
ENDBRANCH  27  56
TORSDOF 14
