REMARK  1 active torsions:
REMARK  status: ('A' for Active; 'I' for Inactive)
REMARK    1  A    between atoms: C4_4  and  O1_5 
ROOT
HETATM    1  C1  UNL     1      -2.005   0.667  -0.680  1.00  0.00     0.010 C 
HETATM    2  C2  UNL     1      -1.216  -0.071   0.386  1.00  0.00    -0.009 A 
HETATM    3  C3  UNL     1      -0.529  -1.380  -0.060  1.00  0.00     0.043 A 
HETATM    4  C4  UNL     1       0.822  -0.830   0.411  1.00  0.00     0.062 A 
HETATM    5  C5  UNL     1       1.577  -0.061  -0.681  1.00  0.00     0.038 A 
HETATM    6  C6  UNL     1       0.991   1.253  -0.142  1.00  0.00     0.011 A 
HETATM    7  C7  UNL     1       0.147   0.468   0.866  1.00  0.00     0.024 A 
ENDROOT
BRANCH   4   8
HETATM    8  O1  UNL     1       1.567  -1.584   1.373  1.00  0.00    -0.389 OA
ATOM      9  H1  UNL     1       2.404  -1.243   1.665  1.00  0.00     0.210 HD
ENDBRANCH   4   8
TORSDOF 1
