REMARK  5 active torsions:
REMARK  status: ('A' for Active; 'I' for Inactive)
REMARK    1  A    between atoms: C2_2  and  C18_25 
REMARK    2  A    between atoms: C3_3  and  C4_4 
REMARK    3  A    between atoms: C4_4  and  O1_5 
REMARK    4  A    between atoms: C14_17  and  O3_18 
REMARK    5  A    between atoms: C15_20  and  O4_21 
ROOT
HETATM    1  C18 UNL     1       2.265   3.692  -0.652  1.00  0.00     0.117 C 
HETATM    2  C19 UNL     1       2.495   3.236  -2.094  1.00  0.00     0.030 C 
HETATM    3  C20 UNL     1       1.356   4.858  -0.615  1.00  0.00     0.068 C 
HETATM    4  N1  UNL     1       0.645   5.779  -0.609  1.00  0.00    -0.197 NA
ENDROOT
BRANCH   1   5
HETATM    5  C2  UNL     1       1.772   2.491   0.190  1.00  0.00    -0.067 C 
HETATM    6  C1  UNL     1       2.864   1.867   1.016  1.00  0.00     0.044 C 
HETATM    7  C3  UNL     1       0.472   2.100   0.137  1.00  0.00     0.018 C 
BRANCH   7   8
HETATM    8  C4  UNL     1      -0.412   0.949   0.717  1.00  0.00     0.114 C 
HETATM    9  C5  UNL     1       0.414  -0.283   1.234  1.00  0.00     0.028 C 
HETATM   10  C6  UNL     1       1.356  -1.034   0.247  1.00  0.00     0.011 C 
HETATM   11  C17 UNL     1      -0.369  -1.252   2.083  1.00  0.00     0.018 C 
HETATM   12  C7  UNL     1       1.029  -2.466  -0.277  1.00  0.00     0.038 C 
HETATM   13  C8  UNL     1      -0.226  -3.142   0.291  1.00  0.00     0.065 C 
HETATM   14  C9  UNL     1       0.022  -4.545   0.830  1.00  0.00     0.046 C 
HETATM   15  O2  UNL     1      -1.408  -3.177  -0.624  1.00  0.00    -0.365 OA
HETATM   16  C16 UNL     1      -1.042  -2.231   1.192  1.00  0.00     0.058 C 
HETATM   17  C10 UNL     1      -1.767  -1.860  -0.109  1.00  0.00     0.103 C 
HETATM   18  C11 UNL     1      -3.177  -1.538   0.349  1.00  0.00     0.050 C 
HETATM   19  C14 UNL     1      -1.439  -0.691  -1.111  1.00  0.00     0.124 C 
HETATM   20  C12 UNL     1      -3.102  -0.101  -0.148  1.00  0.00     0.033 C 
HETATM   21  C13 UNL     1      -2.895  -0.405  -1.666  1.00  0.00     0.052 C 
HETATM   22  C15 UNL     1      -1.605   0.638  -0.314  1.00  0.00     0.130 C 
BRANCH   8  23
HETATM   23  O1  UNL     1      -1.047   1.543   1.864  1.00  0.00    -0.382 OA
ATOM     24  H1  UNL     1      -1.584   0.843   2.217  1.00  0.00     0.211 HD
ENDBRANCH   8  23
BRANCH  22  25
HETATM   25  O4  UNL     1      -1.832   1.865  -1.110  1.00  0.00    -0.383 OA
ATOM     26  H4  UNL     1      -2.537   1.681  -1.719  1.00  0.00     0.210 HD
ENDBRANCH  22  25
BRANCH  19  27
HETATM   27  O3  UNL     1      -0.455  -0.791  -2.157  1.00  0.00    -0.383 OA
ATOM     28  H3  UNL     1      -0.257  -0.086  -2.762  1.00  0.00     0.210 HD
ENDBRANCH  19  27
ENDBRANCH   7   8
ENDBRANCH   1   5
TORSDOF 5
