REMARK  0 active torsions:
REMARK  status: ('A' for Active; 'I' for Inactive)
ROOT
HETATM    1  C1  UNL     1      -2.464   0.065  -0.316  1.00  0.00     0.032 C 
HETATM    2  C2  UNL     1      -1.079   0.643  -0.546  1.00  0.00     0.136 A 
HETATM    3  N1  UNL     1      -0.179  -0.287  -1.261  1.00  0.00    -0.040 NA
HETATM    4  N2  UNL     1       0.686  -0.422  -0.159  1.00  0.00     0.013 N 
HETATM    5  C3  UNL     1       0.852  -1.749   0.448  1.00  0.00     0.297 C 
HETATM    6  C4  UNL     1       1.867   0.448  -0.183  1.00  0.00     0.262 A 
HETATM    7  C5  UNL     1       1.080   1.523   0.583  1.00  0.00     0.067 A 
HETATM    8  C6  UNL     1      -0.095   0.539   0.640  1.00  0.00     0.233 A 
ENDROOT
TORSDOF 0
