REMARK  12 active torsions:
REMARK  status: ('A' for Active; 'I' for Inactive)
REMARK    1  A    between atoms: C5_5  and  C6_6 
REMARK    2  A    between atoms: C6_6  and  N1_7 
REMARK       I    between atoms: N1_7  and  C7_9 
REMARK    3  A    between atoms: C7_9  and  C8_11 
REMARK    4  A    between atoms: C8_11  and  N2_12 
REMARK       I    between atoms: N2_12  and  C9_14 
REMARK    5  A    between atoms: C9_14  and  C10_16 
REMARK    6  A    between atoms: C10_16  and  N3_17 
REMARK    7  A    between atoms: N3_17  and  N4_19 
REMARK    8  A    between atoms: N4_19  and  C13_22 
REMARK    9  A    between atoms: C13_22  and  C14_23 
REMARK   10  A    between atoms: C14_23  and  N5_24 
REMARK   11  A    between atoms: N5_24  and  N6_25 
REMARK   12  A    between atoms: C17_30  and  O3_31 
ROOT
HETATM    1  N1  UNL     1       1.275  -2.555   2.620  1.00  0.00    -0.359 N 
ATOM      2  H1  UNL     1       1.804  -2.445   3.485  1.00  0.00     0.162 HD
HETATM    3  C7  UNL     1      -0.076  -2.712   2.740  1.00  0.00     0.235 C 
HETATM    4  O1  UNL     1      -0.618  -2.512   3.830  1.00  0.00    -0.272 OA
ENDROOT
BRANCH   1   5
HETATM    5  C6  UNL     1       2.033  -2.529   1.383  1.00  0.00     0.127 C 
BRANCH   5   6
HETATM    6  C5  UNL     1       1.838  -1.193   0.641  1.00  0.00     0.005 C 
HETATM    7  C4  UNL     1       2.744  -0.088   1.219  1.00  0.00     0.015 C 
HETATM    8  C2  UNL     1       2.342   1.329   0.726  1.00  0.00    -0.042 C 
HETATM    9  C1  UNL     1       1.119   1.822   1.538  1.00  0.00     0.015 C 
HETATM   10  C3  UNL     1       3.486   2.319   0.988  1.00  0.00     0.015 C 
HETATM   11  C22 UNL     1       1.958   1.301  -0.776  1.00  0.00     0.012 C 
HETATM   12  C16 UNL     1       2.197  -0.045  -1.574  1.00  0.00    -0.001 C 
HETATM   13  C21 UNL     1       2.852   1.851  -1.944  1.00  0.00     0.030 C 
HETATM   14  C15 UNL     1       2.059  -1.374  -0.873  1.00  0.00     0.019 C 
HETATM   15  C17 UNL     1       1.440   0.208  -2.888  1.00  0.00     0.157 C 
HETATM   16  C20 UNL     1       3.646   0.538  -1.865  1.00  0.00     0.028 C 
HETATM   17  C18 UNL     1       2.236   1.478  -3.303  1.00  0.00     0.155 C 
HETATM   18  O4  UNL     1       3.360   1.140  -4.116  1.00  0.00    -0.382 OA
HETATM   19  C19 UNL     1       4.230   0.389  -3.261  1.00  0.00     0.174 C 
BRANCH  15  20
HETATM   20  O3  UNL     1       1.554  -0.875  -3.790  1.00  0.00    -0.392 OA
ATOM     21  H3  UNL     1       1.086  -0.719  -4.602  1.00  0.00     0.210 HD
ENDBRANCH  15  20
ENDBRANCH   5   6
ENDBRANCH   1   5
BRANCH   3  22
HETATM   22  C8  UNL     1      -0.890  -3.129   1.514  1.00  0.00     0.225 C 
BRANCH  22  23
HETATM   23  N2  UNL     1      -2.204  -2.518   1.640  1.00  0.00    -0.351 N 
HETATM   24  C9  UNL     1      -2.950  -2.127   0.563  1.00  0.00     0.237 C 
HETATM   25  O2  UNL     1      -2.609  -2.295  -0.603  1.00  0.00    -0.272 OA
ATOM     26  H2  UNL     1      -2.586  -2.375   2.575  1.00  0.00     0.163 HD
BRANCH  24  27
HETATM   27  C10 UNL     1      -4.232  -1.405   0.942  1.00  0.00     0.249 C 
BRANCH  27  28
HETATM   28  N3  UNL     1      -4.655  -0.440  -0.093  1.00  0.00    -0.244 N 
ATOM     29  H3  UNL     1      -5.506  -0.617  -0.627  1.00  0.00     0.187 HD
BRANCH  28  30
HETATM   30  N4  UNL     1      -3.855   0.792  -0.369  1.00  0.00     0.006 N 
HETATM   31  C11 UNL     1      -4.898   1.856  -0.733  1.00  0.00     0.302 C 
HETATM   32  C12 UNL     1      -2.971   0.532  -1.611  1.00  0.00     0.302 C 
BRANCH  30  33
HETATM   33  C13 UNL     1      -2.954   1.256   0.789  1.00  0.00     0.325 C 
BRANCH  33  34
HETATM   34  C14 UNL     1      -3.659   1.662   2.031  1.00  0.00     0.211 C 
BRANCH  34  35
HETATM   35  N5  UNL     1      -3.208   1.186   3.171  1.00  0.00    -0.348 NA
BRANCH  35  36
HETATM   36  N6  UNL     1      -2.793   0.746   4.136  1.00  0.00    -0.281 N 
ATOM     37  H62 UNL     1      -2.448   0.341   3.266  1.00  0.00     0.191 HD
ATOM     38  H61 UNL     1      -2.443   0.377   5.020  1.00  0.00     0.191 HD
ENDBRANCH  35  36
ENDBRANCH  34  35
ENDBRANCH  33  34
ENDBRANCH  30  33
ENDBRANCH  28  30
ENDBRANCH  27  28
ENDBRANCH  24  27
ENDBRANCH  22  23
ENDBRANCH   3  22
TORSDOF 12
