REMARK  0 active torsions:
REMARK  status: ('A' for Active; 'I' for Inactive)
ROOT
HETATM    1  C1  UNL     1       2.598   0.062  -2.163  1.00  0.00     0.003 C 
HETATM    2  C2  UNL     1       2.390  -1.251  -1.934  1.00  0.00     0.030 C 
HETATM    3  C3  UNL     1       1.498  -1.739  -0.921  1.00  0.00     0.045 C 
HETATM    4  N1  UNL     1       2.011  -2.779  -0.137  1.00  0.00    -0.364 N 
ATOM      5  H1  UNL     1       2.122  -3.758  -0.399  1.00  0.00     0.165 HD
HETATM    6  C4  UNL     1       2.338  -2.183   1.083  1.00  0.00     0.100 C 
HETATM    7  C5  UNL     1       1.682  -0.963   1.060  1.00  0.00    -0.006 C 
HETATM    8  C6  UNL     1       0.713  -1.065   0.016  1.00  0.00     0.029 C 
HETATM    9  C7  UNL     1      -0.719  -1.137   0.196  1.00  0.00     0.055 A 
HETATM   10  N2  UNL     1      -1.226  -2.292   0.547  1.00  0.00    -0.384 N 
ATOM     11  H2  UNL     1      -0.738  -3.186   0.605  1.00  0.00     0.160 HD
HETATM   12  C8  UNL     1      -2.651  -2.035   0.842  1.00  0.00     0.159 A 
HETATM   13  C9  UNL     1      -2.856  -0.581   0.603  1.00  0.00    -0.025 A 
HETATM   14  C10 UNL     1      -4.032   0.143   0.744  1.00  0.00     0.010 A 
HETATM   15  C11 UNL     1      -4.022   1.485   0.383  1.00  0.00     0.003 A 
HETATM   16  C12 UNL     1      -2.853   2.063  -0.130  1.00  0.00     0.038 A 
HETATM   17  C13 UNL     1      -1.666   1.321  -0.256  1.00  0.00     0.082 A 
HETATM   18  C14 UNL     1      -1.667  -0.009   0.145  1.00  0.00     0.033 A 
HETATM   19  O1  UNL     1      -0.679   1.949  -0.951  1.00  0.00    -0.346 OA
HETATM   20  C15 UNL     1       0.378   2.479  -0.136  1.00  0.00     0.214 C 
HETATM   21  C16 UNL     1       1.631   1.670  -0.404  1.00  0.00    -0.034 C 
HETATM   22  C17 UNL     1       1.808   1.164  -1.647  1.00  0.00     0.009 C 
HETATM   23  C18 UNL     1       2.351   1.375   0.830  1.00  0.00     0.010 C 
HETATM   24  C19 UNL     1       2.296   0.231   1.537  1.00  0.00     0.014 C 
ENDROOT
TORSDOF 0
