REMARK  9 active torsions:
REMARK  status: ('A' for Active; 'I' for Inactive)
REMARK    1  A    between atoms: C2_2  and  N1_3 
REMARK    2  A    between atoms: N1_3  and  C3_6 
REMARK    3  A    between atoms: C3_6  and  C4_7 
REMARK    4  A    between atoms: C4_7  and  O1_8 
REMARK    5  A    between atoms: O1_8  and  C5_9 
REMARK    6  A    between atoms: C5_9  and  C6_10 
REMARK    7  A    between atoms: C15_20  and  O2_21 
REMARK    8  A    between atoms: C16_23  and  O3_24 
REMARK    9  A    between atoms: C17_26  and  O4_27 
ROOT
HETATM    1  C6  UNL     1       0.291  -1.269  -1.191  1.00  0.00     0.018 C 
HETATM    2  C7  UNL     1       1.274  -2.327  -1.743  1.00  0.00     0.007 C 
HETATM    3  C8  UNL     1       1.737  -3.417  -0.763  1.00  0.00     0.001 C 
HETATM    4  C9  UNL     1       2.457  -3.002   0.534  1.00  0.00     0.002 C 
HETATM    5  C10 UNL     1       3.243  -1.692   0.485  1.00  0.00     0.036 C 
HETATM    6  C11 UNL     1       2.368  -0.472   0.211  1.00  0.00     0.231 C 
HETATM    7  C12 UNL     1       0.845  -0.682   0.109  1.00  0.00     0.062 C 
HETATM    8  C13 UNL     1       0.704   0.658   0.857  1.00  0.00     0.269 C 
HETATM    9  N2  UNL     1       2.099   0.379   1.429  1.00  0.00     0.112 N 
HETATM   10  C14 UNL     1       2.515   1.759   1.123  1.00  0.00     0.294 C 
HETATM   11  C15 UNL     1       2.090   2.750   2.228  1.00  0.00     0.186 C 
HETATM   12  C16 UNL     1       0.864   3.149   1.350  1.00  0.00     0.188 C 
HETATM   13  C17 UNL     1       1.219   2.012   0.354  1.00  0.00     0.151 C 
ENDROOT
BRANCH   1  14
HETATM   14  C5  UNL     1       0.008  -0.217  -2.261  1.00  0.00     0.172 C 
BRANCH  14  15
HETATM   15  O1  UNL     1      -1.084   0.606  -1.851  1.00  0.00    -0.389 OA
BRANCH  15  16
HETATM   16  C4  UNL     1      -2.353   0.153  -2.331  1.00  0.00     0.195 C 
BRANCH  16  17
HETATM   17  C3  UNL     1      -3.448   0.544  -1.325  1.00  0.00     0.258 C 
BRANCH  17  18
HETATM   18  N1  UNL     1      -3.443  -0.337  -0.149  1.00  0.00    -0.073 N 
ATOM     19  H12 UNL     1      -2.526  -0.357   0.297  1.00  0.00     0.277 HD
ATOM     20  H11 UNL     1      -3.510  -1.318  -0.419  1.00  0.00     0.277 HD
BRANCH  18  21
HETATM   21  C2  UNL     1      -4.489   0.026   0.802  1.00  0.00     0.228 C 
HETATM   22  C1  UNL     1      -4.525  -0.992   1.929  1.00  0.00     0.034 C 
ENDBRANCH  18  21
ENDBRANCH  17  18
ENDBRANCH  16  17
ENDBRANCH  15  16
ENDBRANCH  14  15
ENDBRANCH   1  14
BRANCH  13  23
HETATM   23  O4  UNL     1       1.299   2.346  -1.041  1.00  0.00    -0.382 OA
ATOM     24  H4  UNL     1       1.618   3.185  -1.353  1.00  0.00     0.210 HD
ENDBRANCH  13  23
BRANCH  12  25
HETATM   25  O3  UNL     1       0.933   4.494   0.804  1.00  0.00    -0.390 OA
ATOM     26  H3  UNL     1       0.186   4.737   0.269  1.00  0.00     0.210 HD
ENDBRANCH  12  25
BRANCH  11  27
HETATM   27  O2  UNL     1       3.017   3.829   2.494  1.00  0.00    -0.391 OA
ATOM     28  H2  UNL     1       2.755   4.439   3.174  1.00  0.00     0.210 HD
ENDBRANCH  11  27
TORSDOF 9
