REMARK  0 active torsions:
REMARK  status: ('A' for Active; 'I' for Inactive)
ROOT
HETATM    1  N1  UNL     1       1.255   2.252  -3.829  1.00  0.00    -0.191 NA
HETATM    2  C1  UNL     1       1.138   1.513  -2.946  1.00  0.00     0.104 C 
HETATM    3  C2  UNL     1       1.007   0.625  -1.858  1.00  0.00     0.097 C 
HETATM    4  C3  UNL     1      -0.095  -0.071  -1.520  1.00  0.00     0.071 C 
HETATM    5  N2  UNL     1      -1.398   0.148  -1.972  1.00  0.00    -0.349 N 
ATOM      6  H2  UNL     1      -1.639   0.118  -2.963  1.00  0.00     0.166 HD
HETATM    7  C4  UNL     1      -2.336   0.406  -1.000  1.00  0.00     0.085 A 
HETATM    8  S1  UNL     1      -3.752   1.311  -1.268  1.00  0.00    -0.083 SA
HETATM    9  C5  UNL     1      -4.208   1.194   0.382  1.00  0.00     0.053 A 
HETATM   10  C6  UNL     1      -3.307   0.463   1.128  1.00  0.00     0.022 A 
HETATM   11  C7  UNL     1      -2.220   0.021   0.330  1.00  0.00     0.008 A 
HETATM   12  C8  UNL     1      -1.129  -0.827   0.693  1.00  0.00    -0.007 C 
HETATM   13  C9  UNL     1      -1.265  -2.053   1.243  1.00  0.00     0.011 C 
HETATM   14  C10 UNL     1      -0.249  -2.926   0.684  1.00  0.00    -0.000 C 
HETATM   15  C11 UNL     1       0.489  -2.253  -0.215  1.00  0.00     0.016 C 
HETATM   16  C12 UNL     1       0.111  -0.790  -0.177  1.00  0.00     0.127 C 
HETATM   17  N3  UNL     1       1.277  -0.050   0.332  1.00  0.00    -0.332 N 
HETATM   18  C13 UNL     1       1.784  -0.097   1.575  1.00  0.00     0.093 A 
HETATM   19  C14 UNL     1       2.957   0.600   1.853  1.00  0.00     0.017 A 
HETATM   20  C15 UNL     1       3.582   1.325   0.837  1.00  0.00     0.004 A 
HETATM   21  C16 UNL     1       3.026   1.358  -0.440  1.00  0.00     0.031 A 
HETATM   22  C17 UNL     1       1.855   0.650  -0.670  1.00  0.00     0.058 A 
ENDROOT
TORSDOF 0
