REMARK  9 active torsions:
REMARK  status: ('A' for Active; 'I' for Inactive)
REMARK       I    between atoms: C1_2  and  N1_3 
REMARK    1  A    between atoms: C1_2  and  C12_17 
REMARK    2  A    between atoms: N1_3  and  C2_5 
REMARK    3  A    between atoms: C2_5  and  C3_6 
REMARK    4  A    between atoms: N2_9  and  C6_10 
REMARK    5  A    between atoms: C14_19  and  O3_20 
REMARK    6  A    between atoms: C15_22  and  C16_23 
REMARK    7  A    between atoms: C16_23  and  N3_24 
REMARK       I    between atoms: N3_24  and  C17_26 
REMARK    8  A    between atoms: C17_26  and  C18_28 
REMARK    9  A    between atoms: C20_30  and  O5_31 
ROOT
HETATM    1  C12 UNL     1       2.076  -2.291  -1.980  1.00  0.00     0.081 C 
HETATM    2  C13 UNL     1       1.471  -1.021  -1.374  1.00  0.00     0.046 C 
HETATM    3  C14 UNL     1       0.289  -1.468  -0.520  1.00  0.00     0.124 C 
HETATM    4  C15 UNL     1       0.556  -2.940  -0.204  1.00  0.00     0.033 C 
HETATM    5  C28 UNL     1       1.190  -3.443  -1.497  1.00  0.00     0.023 C 
ENDROOT
BRANCH   4   6
HETATM    6  C16 UNL     1      -0.702  -3.738   0.140  1.00  0.00     0.129 C 
BRANCH   6   7
HETATM    7  N3  UNL     1      -1.454  -3.110   1.206  1.00  0.00    -0.360 N 
HETATM    8  C17 UNL     1      -2.835  -3.059   1.156  1.00  0.00     0.222 C 
HETATM    9  O4  UNL     1      -3.496  -3.623   0.293  1.00  0.00    -0.273 OA
ATOM     10  H3  UNL     1      -0.961  -2.702   2.000  1.00  0.00     0.162 HD
BRANCH   8  11
HETATM   11  C18 UNL     1      -3.430  -2.119   2.199  1.00  0.00     0.081 C 
HETATM   12  C19 UNL     1      -4.973  -2.430   2.434  1.00  0.00     0.051 C 
HETATM   13  C20 UNL     1      -5.898  -1.216   2.760  1.00  0.00     0.060 C 
HETATM   14  C21 UNL     1      -6.870  -0.680   1.647  1.00  0.00     0.042 C 
HETATM   15  C27 UNL     1      -5.010  -0.052   3.057  1.00  0.00     0.047 C 
HETATM   16  C22 UNL     1      -6.151   0.292   0.651  1.00  0.00    -0.010 C 
HETATM   17  C23 UNL     1      -5.083   1.404   1.128  1.00  0.00     0.014 C 
HETATM   18  C25 UNL     1      -4.888  -0.441   0.246  1.00  0.00     0.014 C 
HETATM   19  C24 UNL     1      -4.322   0.142   1.686  1.00  0.00    -0.036 C 
HETATM   20  C26 UNL     1      -3.039  -0.636   1.783  1.00  0.00     0.023 C 
BRANCH  13  21
HETATM   21  O5  UNL     1      -6.646  -1.517   3.925  1.00  0.00    -0.390 OA
ATOM     22  H5  UNL     1      -7.209  -0.778   4.123  1.00  0.00     0.210 HD
ENDBRANCH  13  21
ENDBRANCH   8  11
ENDBRANCH   6   7
ENDBRANCH   4   6
BRANCH   3  23
HETATM   23  O3  UNL     1       0.249  -0.674   0.655  1.00  0.00    -0.395 OA
ATOM     24  H3  UNL     1      -0.487  -0.952   1.187  1.00  0.00     0.210 HD
ENDBRANCH   3  23
BRANCH   1  25
HETATM   25  C1  UNL     1       3.530  -2.487  -1.568  1.00  0.00     0.221 C 
HETATM   26  O1  UNL     1       3.871  -3.252  -0.667  1.00  0.00    -0.273 OA
HETATM   27  N1  UNL     1       4.496  -1.797  -2.244  1.00  0.00    -0.360 N 
ATOM     28  H1  UNL     1       5.441  -2.176  -2.180  1.00  0.00     0.162 HD
BRANCH  27  29
HETATM   29  C2  UNL     1       4.348  -0.589  -3.045  1.00  0.00     0.129 C 
BRANCH  29  30
HETATM   30  C3  UNL     1       4.583   0.634  -2.164  1.00  0.00     0.033 C 
HETATM   31  C4  UNL     1       5.928   1.300  -2.404  1.00  0.00     0.038 C 
HETATM   32  C5  UNL     1       5.734   2.631  -1.700  1.00  0.00     0.273 C 
HETATM   33  N2  UNL     1       4.313   2.968  -1.897  1.00  0.00     0.093 N 
HETATM   34  C11 UNL     1       3.616   1.788  -2.405  1.00  0.00     0.279 C 
BRANCH  33  35
HETATM   35  C6  UNL     1       3.738   3.689  -0.760  1.00  0.00     0.227 C 
HETATM   36  C7  UNL     1       2.511   4.504  -1.200  1.00  0.00     0.062 C 
HETATM   37  C8  UNL     1       1.647   4.897  -0.006  1.00  0.00     0.169 C 
HETATM   38  O2  UNL     1       2.447   5.015   1.167  1.00  0.00    -0.391 OA
HETATM   39  C9  UNL     1       2.938   3.748   1.614  1.00  0.00     0.169 C 
HETATM   40  C10 UNL     1       3.390   2.841   0.468  1.00  0.00     0.062 C 
ENDBRANCH  33  35
ENDBRANCH  29  30
ENDBRANCH  27  29
ENDBRANCH   1  25
TORSDOF 9
