REMARK  4 active torsions:
REMARK  status: ('A' for Active; 'I' for Inactive)
REMARK    1  A    between atoms: O1_1  and  C1_3 
REMARK    2  A    between atoms: N1_9  and  C7_10 
REMARK    3  A    between atoms: C12_15  and  N2_16 
REMARK    4  A    between atoms: C16_20  and  C17_21 
ROOT
HETATM    1  C1  UNL     1       1.475  -1.483  -1.548  1.00  0.00     0.072 C 
HETATM    2  C2  UNL     1       1.820  -2.845  -1.117  1.00  0.00     0.035 C 
HETATM    3  C3  UNL     1       2.505  -3.081   0.029  1.00  0.00     0.005 C 
HETATM    4  C4  UNL     1       2.950  -1.979   0.894  1.00  0.00     0.031 C 
HETATM    5  C5  UNL     1       2.086  -1.030   1.317  1.00  0.00     0.048 C 
HETATM    6  C6  UNL     1       0.598  -1.402   1.363  1.00  0.00     0.122 C 
HETATM    7  N1  UNL     1      -0.111  -1.104   0.311  1.00  0.00    -0.336 N 
HETATM    8  C17 UNL     1       1.445   0.489  -0.162  1.00  0.00     0.067 C 
HETATM    9  N3  UNL     1       2.252   0.297   0.867  1.00  0.00    -0.355 N 
ATOM     10  H3  UNL     1       2.886   0.989   1.267  1.00  0.00     0.166 HD
HETATM   11  C18 UNL     1       0.705  -0.681  -0.767  1.00  0.00     0.198 C 
ENDROOT
BRANCH   1  12
HETATM   12  O1  UNL     1       2.340  -1.036  -2.522  1.00  0.00    -0.362 OA
ATOM     13  H1  UNL     1       2.117  -0.156  -2.801  1.00  0.00     0.217 HD
ENDBRANCH   1  12
BRANCH   7  14
HETATM   14  C7  UNL     1      -1.364  -0.473   0.490  1.00  0.00     0.062 A 
HETATM   15  C8  UNL     1      -2.408  -1.322   0.908  1.00  0.00     0.032 A 
HETATM   16  C9  UNL     1      -3.694  -0.821   1.076  1.00  0.00     0.002 A 
HETATM   17  C10 UNL     1      -3.945   0.521   0.826  1.00  0.00     0.002 A 
HETATM   18  C11 UNL     1      -2.919   1.377   0.403  1.00  0.00     0.032 A 
HETATM   19  C12 UNL     1      -1.600   0.916   0.213  1.00  0.00     0.066 A 
BRANCH  19  20
HETATM   20  N2  UNL     1      -0.595   1.900  -0.225  1.00  0.00    -0.318 N 
HETATM   21  C13 UNL     1      -0.851   3.221  -0.560  1.00  0.00     0.098 A 
HETATM   22  C14 UNL     1       0.330   3.889  -0.798  1.00  0.00     0.020 A 
HETATM   23  C15 UNL     1       1.372   2.960  -0.655  1.00  0.00     0.033 A 
HETATM   24  C16 UNL     1       0.795   1.740  -0.374  1.00  0.00     0.064 A 
ENDBRANCH  19  20
ENDBRANCH   7  14
TORSDOF 4
