REMARK  5 active torsions:
REMARK  status: ('A' for Active; 'I' for Inactive)
REMARK    1  A    between atoms: C2_2  and  C3_3 
REMARK    2  A    between atoms: C2_2  and  N5_21 
REMARK    3  A    between atoms: C3_3  and  C4_4 
REMARK    4  A    between atoms: C4_4  and  N1_5 
REMARK       I    between atoms: N2_8  and  C7_9 
REMARK       I    between atoms: C7_9  and  N3_11 
REMARK       I    between atoms: N5_21  and  C16_23 
REMARK    5  A    between atoms: C16_23  and  C17_25 
ROOT
HETATM    1  C3  UNL     1       2.579  -2.183  -1.425  1.00  0.00     0.055 C 
ENDROOT
BRANCH   1   2
HETATM    2  C2  UNL     1       2.561  -1.415  -2.746  1.00  0.00     0.082 C 
HETATM    3  C1  UNL     1       1.183  -1.357  -3.404  1.00  0.00     0.032 C 
BRANCH   2   4
HETATM    4  N5  UNL     1       3.263  -0.123  -2.777  1.00  0.00    -0.356 N 
HETATM    5  C16 UNL     1       2.734   1.109  -2.420  1.00  0.00     0.228 C 
HETATM    6  O2  UNL     1       2.665   1.967  -3.311  1.00  0.00    -0.273 OA
ATOM      7  H5  UNL     1       4.233  -0.134  -3.092  1.00  0.00     0.162 HD
BRANCH   5   8
HETATM    8  C17 UNL     1       2.318   1.392  -0.939  1.00  0.00     0.060 C 
HETATM    9  C18 UNL     1       0.787   1.385  -0.762  1.00  0.00     0.027 C 
HETATM   10  C19 UNL     1       3.152   0.787   0.258  1.00  0.00     0.042 C 
HETATM   11  C20 UNL     1       3.174   2.191   0.928  1.00  0.00     0.060 C 
HETATM   12  C21 UNL     1       2.345   2.369   2.188  1.00  0.00     0.027 C 
HETATM   13  C22 UNL     1       4.434   3.081   0.749  1.00  0.00     0.228 C 
HETATM   14  C23 UNL     1       2.775   2.805  -0.436  1.00  0.00     0.119 C 
HETATM   15  O3  UNL     1       5.297   3.568   1.435  1.00  0.00    -0.273 OA
HETATM   16  N6  UNL     1       4.184   3.213  -0.585  1.00  0.00    -0.353 N 
ATOM     17  H6  UNL     1       4.755   3.489  -1.383  1.00  0.00     0.163 HD
ENDBRANCH   5   8
ENDBRANCH   2   4
ENDBRANCH   1   2
BRANCH   1  18
HETATM   18  C4  UNL     1       1.327  -2.078  -0.547  1.00  0.00     0.274 C 
BRANCH  18  19
HETATM   19  N1  UNL     1       1.221  -3.313   0.231  1.00  0.00     0.091 N 
HETATM   20  C5  UNL     1       1.514  -3.093   1.659  1.00  0.00     0.292 C 
HETATM   21  C6  UNL     1       0.428  -2.291   2.419  1.00  0.00     0.158 C 
HETATM   22  N2  UNL     1      -0.812  -2.102   1.633  1.00  0.00    -0.331 N 
HETATM   23  C7  UNL     1      -1.778  -1.279   2.190  1.00  0.00     0.320 C 
HETATM   24  C14 UNL     1      -1.233  -3.337   0.955  1.00  0.00     0.158 C 
HETATM   25  O1  UNL     1      -1.738  -0.915   3.371  1.00  0.00    -0.247 OA
HETATM   26  N3  UNL     1      -2.779  -0.823   1.323  1.00  0.00    -0.331 N 
HETATM   27  C8  UNL     1      -3.896  -0.079   1.917  1.00  0.00     0.155 C 
HETATM   28  C13 UNL     1      -2.403  -0.403  -0.037  1.00  0.00     0.155 C 
HETATM   29  C9  UNL     1      -3.803   1.424   1.595  1.00  0.00     0.256 C 
HETATM   30  N4  UNL     1      -3.913   1.685   0.058  1.00  0.00    -0.072 N 
HETATM   31  C10 UNL     1      -3.039   2.883  -0.296  1.00  0.00     0.272 C 
HETATM   32  C11 UNL     1      -5.357   2.032  -0.308  1.00  0.00     0.272 C 
HETATM   33  C12 UNL     1      -3.495   0.425  -0.746  1.00  0.00     0.256 C 
HETATM   34  C15 UNL     1      -0.105  -3.951   0.093  1.00  0.00     0.292 C 
ENDBRANCH  18  19
ENDBRANCH   1  18
TORSDOF 5
