REMARK  9 active torsions:
REMARK  status: ('A' for Active; 'I' for Inactive)
REMARK    1  A    between atoms: C2_2  and  C3_3 
REMARK    2  A    between atoms: C2_2  and  C28_35 
REMARK    3  A    between atoms: C4_4  and  C5_5 
REMARK    4  A    between atoms: C5_5  and  N1_6 
REMARK    5  A    between atoms: C13_15  and  N3_16 
REMARK    6  A    between atoms: N3_16  and  C14_18 
REMARK    7  A    between atoms: C14_18  and  N4_19 
REMARK    8  A    between atoms: C25_30  and  O1_31 
REMARK    9  A    between atoms: C28_35  and  O2_36 
ROOT
HETATM    1  N1  UNL     1       0.724   0.560   1.277  1.00  0.00    -0.027 N 
HETATM    2  C6  UNL     1       0.958  -0.832   1.962  1.00  0.00     0.281 C 
HETATM    3  C7  UNL     1      -0.209   1.571   1.931  1.00  0.00     0.212 C 
HETATM    4  C8  UNL     1      -1.071   0.748   2.959  1.00  0.00     0.051 C 
HETATM    5  C9  UNL     1      -2.223  -0.102   2.340  1.00  0.00     0.074 C 
HETATM    6  C10 UNL     1      -3.202   0.967   2.351  1.00  0.00     0.070 C 
HETATM    7  N2  UNL     1      -2.921   1.714   1.355  1.00  0.00    -0.377 N 
HETATM    8  C11 UNL     1      -3.767   2.965   1.207  1.00  0.00     0.150 C 
HETATM    9  C12 UNL     1      -1.654   1.097   0.177  1.00  0.00     0.133 C 
HETATM   10  C13 UNL     1      -2.286  -0.331   0.798  1.00  0.00     0.028 C 
HETATM   11  C19 UNL     1      -0.077   0.443   0.014  1.00  0.00     0.147 C 
HETATM   12  C20 UNL     1       0.693   0.720  -1.319  1.00  0.00     0.019 C 
HETATM   13  C21 UNL     1       0.912   2.099  -1.931  1.00  0.00    -0.018 A 
HETATM   14  C22 UNL     1       0.596   2.125  -3.423  1.00  0.00     0.020 C 
HETATM   15  C23 UNL     1       2.157   2.891  -1.574  1.00  0.00     0.021 A 
HETATM   16  C24 UNL     1       0.810   3.407  -1.140  1.00  0.00     0.028 A 
HETATM   17  C25 UNL     1       0.214   3.505   0.240  1.00  0.00     0.136 C 
HETATM   18  C26 UNL     1      -0.936   2.482   0.670  1.00  0.00     0.048 C 
HETATM   19  C27 UNL     1      -1.830   2.938  -0.699  1.00  0.00     0.023 C 
ENDROOT
BRANCH   1  20
HETATM   20  C5  UNL     1       2.180   1.136   1.283  1.00  0.00     0.337 C 
BRANCH  20  21
HETATM   21  C4  UNL     1       3.219   0.244   0.764  1.00  0.00    -0.078 C 
HETATM   22  C3  UNL     1       4.140  -0.394   0.331  1.00  0.00    -0.098 C 
BRANCH  22  23
HETATM   23  C2  UNL     1       5.327  -1.084  -0.225  1.00  0.00     0.084 C 
HETATM   24  C1  UNL     1       5.079  -2.590  -0.311  1.00  0.00     0.025 C 
BRANCH  23  25
HETATM   25  C28 UNL     1       5.666  -0.485  -1.601  1.00  0.00     0.180 C 
BRANCH  25  26
HETATM   26  O2  UNL     1       6.787  -1.136  -2.173  1.00  0.00    -0.400 OA
ATOM     27  H2  UNL     1       6.996  -0.766  -3.023  1.00  0.00     0.209 HD
ENDBRANCH  25  26
ENDBRANCH  23  25
ENDBRANCH  22  23
ENDBRANCH  20  21
ENDBRANCH   1  20
BRANCH  17  28
HETATM   28  O1  UNL     1       1.200   3.757   1.225  1.00  0.00    -0.394 OA
ATOM     29  H1  UNL     1       0.824   3.819   2.095  1.00  0.00     0.210 HD
ENDBRANCH  17  28
BRANCH  10  30
HETATM   30  N3  UNL     1      -1.996  -1.678   0.219  1.00  0.00    -0.370 N 
ATOM     31  H3  UNL     1      -1.221  -1.842  -0.423  1.00  0.00     0.160 HD
BRANCH  30  32
HETATM   32  C14 UNL     1      -2.919  -2.760   0.647  1.00  0.00     0.365 C 
BRANCH  32  33
HETATM   33  N4  UNL     1      -3.033  -3.946  -0.259  1.00  0.00    -0.033 N 
HETATM   34  C15 UNL     1      -4.004  -5.017   0.190  1.00  0.00     0.281 C 
HETATM   35  C16 UNL     1      -3.195  -3.669  -1.668  1.00  0.00     0.202 A 
HETATM   36  C17 UNL     1      -1.985  -4.161  -1.997  1.00  0.00     0.026 A 
HETATM   37  C18 UNL     1      -1.721  -4.581  -0.558  1.00  0.00     0.273 A 
ENDBRANCH  32  33
ENDBRANCH  30  32
ENDBRANCH  10  30
TORSDOF 9
