REMARK  3 active torsions:
REMARK  status: ('A' for Active; 'I' for Inactive)
REMARK    1  A    between atoms: O1_1  and  C1_3 
REMARK    2  A    between atoms: C1_3  and  C2_4 
REMARK    3  A    between atoms: C10_16  and  C11_17 
ROOT
HETATM    1  C1  UNL     1       1.604  -1.662   1.383  1.00  0.00     0.118 C 
HETATM    2  C3  UNL     1       2.449  -1.595   0.069  1.00  0.00     0.030 C 
HETATM    3  C4  UNL     1       1.546  -2.244  -1.001  1.00  0.00     0.015 C 
HETATM    4  C5  UNL     1       0.648  -1.024  -0.646  1.00  0.00     0.023 C 
HETATM    5  C6  UNL     1       1.994  -0.233  -0.575  1.00  0.00     0.000 C 
HETATM    6  C7  UNL     1       2.164   0.569  -1.833  1.00  0.00     0.023 C 
HETATM    7  C8  UNL     1       1.011   1.619  -1.946  1.00  0.00     0.079 C 
HETATM    8 BR1  UNL     1       1.931   3.146  -2.923  1.00  0.00    -0.090 Br
HETATM    9  C9  UNL     1       0.306   2.188  -0.663  1.00  0.00     0.130 C 
HETATM   10 BR2  UNL     1      -0.928   3.708  -1.225  1.00  0.00    -0.083 Br
HETATM   11  C10 UNL     1      -0.548   1.341   0.415  1.00  0.00     0.072 C 
HETATM   12  O2  UNL     1       0.175   0.388   1.235  1.00  0.00    -0.344 OA
HETATM   13  C17 UNL     1       0.285  -0.987   0.824  1.00  0.00     0.170 C 
ENDROOT
BRANCH  11  14
HETATM   14  C11 UNL     1      -2.002   0.921   0.170  1.00  0.00    -0.006 A 
HETATM   15  C12 UNL     1      -2.527   0.678  -1.102  1.00  0.00     0.014 A 
HETATM   16  C13 UNL     1      -3.890   0.397  -1.267  1.00  0.00     0.001 A 
HETATM   17  C14 UNL     1      -4.740   0.370  -0.161  1.00  0.00     0.000 A 
HETATM   18  C15 UNL     1      -4.240   0.606   1.115  1.00  0.00     0.001 A 
HETATM   19  C16 UNL     1      -2.876   0.862   1.282  1.00  0.00     0.014 A 
ENDBRANCH  11  14
BRANCH   1  20
HETATM   20  O1  UNL     1       1.374  -3.053   1.675  1.00  0.00    -0.384 OA
ATOM     21  H1  UNL     1       0.961  -3.508   0.950  1.00  0.00     0.210 HD
ENDBRANCH   1  20
BRANCH   1  22
HETATM   22  C2  UNL     1       2.275  -0.923   2.560  1.00  0.00     0.215 C 
HETATM   23 CL1  UNL     1       1.252  -0.991   4.033  1.00  0.00    -0.105 Cl
HETATM   24 CL2  UNL     1       3.846  -1.706   2.986  1.00  0.00    -0.105 Cl
ENDBRANCH   1  22
TORSDOF 3
