REMARK  1 active torsions:
REMARK  status: ('A' for Active; 'I' for Inactive)
REMARK    1  A    between atoms: C3_4  and  C4_5 
ROOT
HETATM    1  C1  UNL     1      -2.336  -1.690   1.898  1.00  0.00     0.311 C 
HETATM    2  N1  UNL     1      -2.567  -1.294   0.518  1.00  0.00     0.105 N 
HETATM    3  C2  UNL     1      -3.993  -1.181   0.210  1.00  0.00     0.292 C 
HETATM    4  C3  UNL     1      -3.679   0.018  -0.706  1.00  0.00     0.163 C 
HETATM    5  C5  UNL     1      -2.281   0.106   0.065  1.00  0.00     0.250 C 
HETATM    6  C6  UNL     1      -1.003   0.163  -0.904  1.00  0.00    -0.009 C 
HETATM    7  C7  UNL     1      -0.206  -1.171  -0.994  1.00  0.00     0.010 C 
HETATM    8  C8  UNL     1       0.569  -1.741   0.155  1.00  0.00     0.004 C 
HETATM    9  C9  UNL     1       1.825  -1.551   0.594  1.00  0.00    -0.071 C 
HETATM   10  C10 UNL     1       2.542  -2.281   1.727  1.00  0.00     0.036 C 
HETATM   11  C11 UNL     1       3.526  -1.106   1.709  1.00  0.00     0.018 C 
HETATM   12  C12 UNL     1       3.020  -0.625   0.303  1.00  0.00    -0.015 C 
HETATM   13  C13 UNL     1       3.997  -1.137  -0.766  1.00  0.00     0.020 C 
HETATM   14  C14 UNL     1       2.775   0.927   0.281  1.00  0.00     0.023 C 
HETATM   15  C15 UNL     1       2.506   1.465  -1.109  1.00  0.00    -0.007 C 
HETATM   16  C16 UNL     1       2.035   2.687  -1.516  1.00  0.00     0.014 C 
HETATM   17  C17 UNL     1       0.762   1.849  -1.953  1.00  0.00     0.018 C 
HETATM   18  C18 UNL     1       1.922   0.901  -2.402  1.00  0.00     0.014 C 
HETATM   19  C19 UNL     1      -0.235   1.513  -0.767  1.00  0.00    -0.042 C 
HETATM   20  C20 UNL     1       0.209   1.886   0.697  1.00  0.00     0.083 C 
HETATM   21 CL1  UNL     1       0.200   3.746   0.763  1.00  0.00    -0.112 Cl
HETATM   22  C21 UNL     1      -0.909   1.492   1.717  1.00  0.00     0.095 C 
HETATM   23  C22 UNL     1      -2.288   1.306   1.086  1.00  0.00     0.222 C 
HETATM   24  F1  UNL     1      -2.610   2.431   0.385  1.00  0.00    -0.222 F 
HETATM   25 CL2  UNL     1      -3.514   1.248   2.392  1.00  0.00    -0.079 Cl
HETATM   26  C23 UNL     1       1.589   1.312   1.245  1.00  0.00     0.115 C 
HETATM   27 CL3  UNL     1       2.244   2.276   2.648  1.00  0.00    -0.122 Cl
ENDROOT
BRANCH   4  28
HETATM   28  C4  UNL     1      -3.792  -0.314  -2.223  1.00  0.00     0.181 C 
HETATM   29  O1  UNL     1      -3.111  -1.067  -2.913  1.00  0.00    -0.648 OA
HETATM   30  O2  UNL     1      -4.830   0.327  -2.821  1.00  0.00    -0.648 OA
ENDBRANCH   4  28
TORSDOF 1
