REMARK  1 active torsions:
REMARK  status: ('A' for Active; 'I' for Inactive)
REMARK    1  A    between atoms: C18_21  and  C19_22 
ROOT
HETATM    1  C1  UNL     1       3.287  -1.023   1.714  1.00  0.00     0.016 C 
HETATM    2  C2  UNL     1       2.882  -0.339   0.622  1.00  0.00    -0.063 C 
HETATM    3  C3  UNL     1       1.549  -0.560  -0.104  1.00  0.00     0.123 C 
HETATM    4  C4  UNL     1       0.948  -1.917   0.265  1.00  0.00     0.268 C 
HETATM    5  O1  UNL     1       1.400  -2.993  -0.108  1.00  0.00    -0.264 OA
HETATM    6  O2  UNL     1      -0.157  -1.817   1.042  1.00  0.00    -0.315 OA
HETATM    7  C5  UNL     1      -1.311  -1.999   0.234  1.00  0.00     0.139 C 
HETATM    8  C6  UNL     1      -2.665  -1.902   1.066  1.00  0.00     0.071 C 
HETATM    9  C7  UNL     1      -3.080  -0.535   0.620  1.00  0.00     0.068 C 
HETATM   10  C8  UNL     1      -2.221   0.455   1.441  1.00  0.00     0.046 C 
HETATM   11  C9  UNL     1      -1.952   1.376   0.299  1.00  0.00     0.023 C 
HETATM   12  C10 UNL     1      -3.432   1.341  -0.304  1.00  0.00     0.127 C 
HETATM   13  C11 UNL     1      -3.383   0.553  -1.580  1.00  0.00     0.040 C 
HETATM   14  C12 UNL     1      -2.829  -0.709  -0.944  1.00  0.00     0.030 C 
HETATM   15  C13 UNL     1      -1.347  -0.867  -0.867  1.00  0.00     0.028 C 
HETATM   16  C14 UNL     1      -0.809   0.592  -0.548  1.00  0.00     0.009 C 
HETATM   17  C15 UNL     1       0.626   0.689   0.118  1.00  0.00     0.048 C 
HETATM   18  C16 UNL     1       1.432   1.955  -0.268  1.00  0.00    -0.009 C 
HETATM   19 BR1  UNL     1       0.513   3.542  -0.684  1.00  0.00    -0.056 Br
HETATM   20  C17 UNL     1       2.779   1.990  -0.285  1.00  0.00     0.002 C 
HETATM   21  C18 UNL     1       3.710   0.844   0.098  1.00  0.00     0.092 C 
HETATM   22  O3  UNL     1      -4.188   0.316   0.528  1.00  0.00    -0.374 OA
ENDROOT
BRANCH  21  23
HETATM   23  C19 UNL     1       4.808   0.509  -0.986  1.00  0.00     0.199 C 
HETATM   24 CL1  UNL     1       4.101   0.139  -2.592  1.00  0.00    -0.083 Cl
HETATM   25 CL2  UNL     1       5.843  -0.881  -0.492  1.00  0.00    -0.083 Cl
HETATM   26 CL3  UNL     1       5.926   1.921  -1.192  1.00  0.00    -0.083 Cl
ENDBRANCH  21  23
TORSDOF 1
