REMARK  1 active torsions:
REMARK  status: ('A' for Active; 'I' for Inactive)
REMARK    1  A    between atoms: N2_21  and  S1_23 
ROOT
HETATM    1  C1  UNL     1       1.557  -3.183   1.647  1.00  0.00     0.052 C 
HETATM    2  C2  UNL     1       1.877  -1.896   0.897  1.00  0.00     0.108 C 
HETATM    3  F1  UNL     1       3.074  -1.484   1.450  1.00  0.00    -0.243 F 
HETATM    4  C3  UNL     1       2.233  -2.051  -0.802  1.00  0.00     0.073 C 
HETATM    5  C4  UNL     1       1.249  -1.064  -1.862  1.00  0.00     0.085 C 
HETATM    6 CL1  UNL     1       1.981  -0.825  -3.447  1.00  0.00    -0.115 Cl
HETATM    7  C5  UNL     1      -0.263  -1.626  -1.932  1.00  0.00     0.065 C 
HETATM    8 CL2  UNL     1      -0.857  -2.436  -3.346  1.00  0.00    -0.117 Cl
HETATM    9  C6  UNL     1      -0.284  -2.348  -0.611  1.00  0.00     0.040 C 
HETATM   10  C7  UNL     1       0.173  -0.757  -0.195  1.00  0.00     0.000 C 
HETATM   11  C8  UNL     1       0.835  -0.747   1.104  1.00  0.00     0.059 C 
HETATM   12  C9  UNL     1      -0.115   0.149   1.891  1.00  0.00     0.061 C 
HETATM   13  C10 UNL     1       0.396   0.317   3.274  1.00  0.00     0.070 C 
HETATM   14  N1  UNL     1       0.792   0.404   4.359  1.00  0.00    -0.196 NA
HETATM   15  C11 UNL     1      -1.585  -0.388   1.975  1.00  0.00     0.025 C 
HETATM   16  C12 UNL     1      -2.609   0.006   0.885  1.00  0.00     0.002 C 
HETATM   17  C13 UNL     1      -2.531  -0.750  -0.442  1.00  0.00     0.007 C 
HETATM   18  C14 UNL     1      -1.167  -0.569  -1.107  1.00  0.00     0.022 C 
HETATM   19  C15 UNL     1      -0.018   1.579   1.081  1.00  0.00     0.080 C 
HETATM   20  C16 UNL     1       0.296   1.515  -0.527  1.00  0.00     0.021 C 
HETATM   21  N2  UNL     1       0.077   2.450  -1.392  1.00  0.00    -0.291 N 
ATOM     22  H2  UNL     1       0.304   2.289  -2.373  1.00  0.00     0.178 HD
HETATM   23  C18 UNL     1       1.060   0.199  -1.030  1.00  0.00     0.089 C 
HETATM   24 BR1  UNL     1       2.885   0.934  -0.682  1.00  0.00    -0.076 Br
ENDROOT
BRANCH  21  25
HETATM   25  S1  UNL     1      -0.551   3.871  -0.945  1.00  0.00     0.226 S 
HETATM   26  C17 UNL     1      -0.104   4.875  -2.336  1.00  0.00     0.186 C 
HETATM   27  O1  UNL     1      -1.994   3.738  -0.910  1.00  0.00    -0.206 OA
HETATM   28  O2  UNL     1       0.176   4.377   0.203  1.00  0.00    -0.206 OA
ENDBRANCH  21  25
TORSDOF 1
