REMARK  4 active torsions:
REMARK  status: ('A' for Active; 'I' for Inactive)
REMARK    1  A    between atoms: C2_2  and  N1_3 
REMARK    2  A    between atoms: C2_2  and  N2_6 
REMARK       I    between atoms: N2_6  and  C3_8 
REMARK    3  A    between atoms: C3_8  and  C4_10 
REMARK    4  A    between atoms: C8_15  and  N3_16 
REMARK       I    between atoms: N3_16  and  C9_18 
REMARK       I    between atoms: C9_18  and  N4_20 
REMARK       I    between atoms: N4_20  and  C10_22 
REMARK       I    between atoms: C10_22  and  N5_23 
ROOT
HETATM    1  C4  UNL     1      -1.996  -0.331   0.169  1.00  0.00     0.112 A 
HETATM    2  C5  UNL     1      -1.725  -0.688  -1.315  1.00  0.00     0.056 A 
HETATM    3  C6  UNL     1      -2.899  -1.325  -2.048  1.00  0.00     0.176 A 
HETATM    4  O2  UNL     1      -2.513  -2.646  -1.605  1.00  0.00    -0.383 OA
HETATM    5  C7  UNL     1      -1.364  -2.107  -0.917  1.00  0.00     0.152 A 
HETATM    6  C8  UNL     1      -1.537  -1.749   0.566  1.00  0.00     0.129 A 
ENDROOT
BRANCH   6   7
HETATM    7  N3  UNL     1      -0.386  -1.930   1.470  1.00  0.00    -0.334 N 
HETATM    8  C9  UNL     1       0.963  -1.762   1.315  1.00  0.00     0.334 C 
HETATM    9  O3  UNL     1       1.704  -2.235   2.175  1.00  0.00    -0.246 OA
HETATM   10  N4  UNL     1       1.381  -1.049   0.225  1.00  0.00    -0.142 N 
HETATM   11  C10 UNL     1       2.705  -0.813   0.066  1.00  0.00     0.673 C 
ATOM     12  H4  UNL     1       0.707  -0.701  -0.457  1.00  0.00     0.189 HD
HETATM   13  N5  UNL     1       3.486  -1.725  -0.403  1.00  0.00    -0.235 N 
HETATM   14  N6  UNL     1       3.174   0.426   0.347  1.00  0.00    -0.235 N 
ATOM     15  H52 UNL     1       3.133  -2.658  -0.615  1.00  0.00     0.174 HD
ATOM     16  H51 UNL     1       4.483  -1.547  -0.523  1.00  0.00     0.174 HD
ATOM     17  H62 UNL     1       2.556   1.148   0.718  1.00  0.00     0.174 HD
ATOM     18  H61 UNL     1       4.171   0.604   0.227  1.00  0.00     0.174 HD
ATOM     19  H3  UNL     1      -0.650  -2.246   2.403  1.00  0.00     0.164 HD
ENDBRANCH   6   7
BRANCH   1  20
HETATM   20  C3  UNL     1      -1.292   0.894   0.800  1.00  0.00     0.229 C 
HETATM   21  N2  UNL     1      -0.349   1.426  -0.052  1.00  0.00    -0.317 N 
ATOM     22  H2  UNL     1      -0.130   0.933  -0.918  1.00  0.00     0.170 HD
HETATM   23  O1  UNL     1      -1.558   1.336   1.920  1.00  0.00    -0.273 OA
BRANCH  21  24
HETATM   24  C2  UNL     1       0.266   2.530   0.212  1.00  0.00     0.073 C 
HETATM   25  C1  UNL     1       1.160   3.054  -0.896  1.00  0.00     0.088 C 
BRANCH  24  26
HETATM   26  N1  UNL     1       0.198   3.281   1.350  1.00  0.00    -0.389 N 
ATOM     27  H12 UNL     1       0.684   4.153   1.559  1.00  0.00     0.157 HD
ATOM     28  H11 UNL     1      -0.403   2.929   2.095  1.00  0.00     0.157 HD
ENDBRANCH  24  26
ENDBRANCH  21  24
ENDBRANCH   1  20
TORSDOF 4
