REMARK  4 active torsions:
REMARK  status: ('A' for Active; 'I' for Inactive)
REMARK    1  A    between atoms: C1_2  and  C2_3 
REMARK    2  A    between atoms: C1_2  and  O6_17 
REMARK    3  A    between atoms: C2_3  and  N1_4 
REMARK       I    between atoms: N1_4  and  C3_6 
REMARK       I    between atoms: C3_6  and  N2_8 
REMARK    4  A    between atoms: O6_17  and  C9_18 
ROOT
HETATM    1  C2  UNL     1      -0.475  -3.219   0.210  1.00  0.00     0.235 C 
ENDROOT
BRANCH   1   2
HETATM    2  C1  UNL     1       0.967  -2.804   0.473  1.00  0.00     0.277 C 
HETATM    3  O1  UNL     1       1.877  -3.598   0.676  1.00  0.00    -0.263 OA
BRANCH   2   4
HETATM    4  O6  UNL     1       1.107  -1.445   0.484  1.00  0.00    -0.313 OA
BRANCH   4   5
HETATM    5  C9  UNL     1       2.441  -0.954   0.735  1.00  0.00     0.160 C 
HETATM    6  C10 UNL     1       2.310   0.507   1.303  1.00  0.00     0.041 C 
HETATM    7  C11 UNL     1       3.129   1.370   0.378  1.00  0.00     0.022 C 
HETATM    8  C12 UNL     1       3.347   2.784  -0.212  1.00  0.00     0.015 C 
HETATM    9  C16 UNL     1       2.403   1.104  -0.980  1.00  0.00     0.233 C 
HETATM   10  C13 UNL     1       3.317   2.116  -1.633  1.00  0.00     0.048 C 
HETATM   11  C14 UNL     1       4.205   0.870  -1.953  1.00  0.00     0.279 C 
HETATM   12  N3  UNL     1       3.043  -0.021  -1.630  1.00  0.00     0.096 N 
HETATM   13  C15 UNL     1       3.319  -1.055  -0.589  1.00  0.00     0.305 C 
ENDBRANCH   4   5
ENDBRANCH   2   4
ENDBRANCH   1   2
BRANCH   1  14
HETATM   14  N1  UNL     1      -1.360  -2.094  -0.037  1.00  0.00    -0.334 N 
HETATM   15  C3  UNL     1      -2.714  -2.249  -0.050  1.00  0.00     0.322 C 
HETATM   16  O2  UNL     1      -3.255  -3.347   0.032  1.00  0.00    -0.247 OA
HETATM   17  N2  UNL     1      -3.417  -1.084  -0.160  1.00  0.00    -0.281 N 
HETATM   18  C4  UNL     1      -4.840  -1.107  -0.358  1.00  0.00     0.304 C 
HETATM   19  C8  UNL     1      -2.912   0.202  -0.548  1.00  0.00     0.284 C 
HETATM   20  O3  UNL     1      -5.201   0.157  -0.945  1.00  0.00    -0.338 OA
HETATM   21  C5  UNL     1      -4.178   1.075  -0.533  1.00  0.00     0.310 C 
HETATM   22  O4  UNL     1      -4.517   1.596   0.757  1.00  0.00    -0.355 OA
HETATM   23  C6  UNL     1      -3.371   2.159   1.397  1.00  0.00     0.197 C 
HETATM   24  C7  UNL     1      -2.300   1.089   1.571  1.00  0.00     0.197 C 
HETATM   25  O5  UNL     1      -1.841   0.631   0.294  1.00  0.00    -0.359 OA
ATOM     26  H1  UNL     1      -0.961  -1.170  -0.204  1.00  0.00     0.164 HD
ENDBRANCH   1  14
TORSDOF 4
