REMARK  13 active torsions:
REMARK  status: ('A' for Active; 'I' for Inactive)
REMARK    1  A    between atoms: C2_2  and  C3_3 
REMARK    2  A    between atoms: C3_3  and  N1_4 
REMARK    3  A    between atoms: C6_8  and  C7_9 
REMARK    4  A    between atoms: C11_13  and  C12_14 
REMARK       I    between atoms: C12_14  and  N2_15 
REMARK    5  A    between atoms: C13_19  and  C14_20 
REMARK       I    between atoms: C14_20  and  N3_22 
REMARK    6  A    between atoms: N3_22  and  C15_24 
REMARK    7  A    between atoms: C15_24  and  C16_25 
REMARK    8  A    between atoms: C15_24  and  C17_27 
REMARK    9  A    between atoms: C17_27  and  C18_28 
REMARK   10  A    between atoms: C18_28  and  C19_29 
REMARK   11  A    between atoms: C19_29  and  N4_30 
REMARK       I    between atoms: N4_30  and  C20_32 
REMARK       I    between atoms: C20_32  and  N5_33 
REMARK   12  A    between atoms: C21_39  and  C22_40 
REMARK       I    between atoms: C22_40  and  N7_42 
REMARK   13  A    between atoms: N7_42  and  C23_44 
ROOT
HETATM    1  N1  UNL     1       3.724  -0.705   1.516  1.00  0.00    -0.329 N 
HETATM    2  C4  UNL     1       3.324  -0.783   2.842  1.00  0.00     0.227 C 
HETATM    3  O1  UNL     1       4.059  -0.844   3.819  1.00  0.00    -0.273 OA
HETATM    4  C5  UNL     1       1.809  -0.706   2.826  1.00  0.00     0.106 C 
HETATM    5  C6  UNL     1       0.889  -1.891   3.074  1.00  0.00     0.024 C 
HETATM    6  C7  UNL     1       0.957  -3.275   2.531  1.00  0.00     0.002 A 
HETATM    7  C8  UNL     1       0.818  -3.872   1.148  1.00  0.00    -0.004 A 
HETATM    8  C9  UNL     1       1.629  -3.481  -0.032  1.00  0.00     0.008 C 
HETATM    9  C10 UNL     1       2.833  -2.657   0.375  1.00  0.00     0.043 C 
HETATM   10  C11 UNL     1       2.640  -1.136   0.569  1.00  0.00     0.134 C 
HETATM   11  C13 UNL     1       1.354  -0.630   1.334  1.00  0.00     0.105 C 
HETATM   12  C21 UNL     1       0.045  -1.458   1.832  1.00  0.00     0.070 C 
HETATM   13  C33 UNL     1      -0.191  -2.916   1.617  1.00  0.00     0.014 A 
ENDROOT
BRANCH  11  14
HETATM   14  C14 UNL     1       0.998   0.840   0.818  1.00  0.00     0.232 C 
HETATM   15  O3  UNL     1       0.168   1.048  -0.069  1.00  0.00    -0.273 OA
HETATM   16  N3  UNL     1       1.691   1.866   1.428  1.00  0.00    -0.349 N 
ATOM     17  H3  UNL     1       2.419   1.603   2.093  1.00  0.00     0.163 HD
BRANCH  16  18
HETATM   18  C15 UNL     1       1.476   3.301   1.207  1.00  0.00     0.146 C 
BRANCH  18  19
HETATM   19  C16 UNL     1       0.047   3.701   1.596  1.00  0.00     0.256 C 
HETATM   20  O4  UNL     1      -0.461   4.790   1.335  1.00  0.00    -0.305 OA
ENDBRANCH  18  19
BRANCH  18  21
HETATM   21  C17 UNL     1       1.990   3.862  -0.130  1.00  0.00     0.034 C 
BRANCH  21  22
HETATM   22  C18 UNL     1       1.015   3.739  -1.306  1.00  0.00     0.022 C 
BRANCH  22  23
HETATM   23  C19 UNL     1       1.609   3.062  -2.545  1.00  0.00     0.138 C 
BRANCH  23  24
HETATM   24  N4  UNL     1       0.515   2.658  -3.422  1.00  0.00    -0.227 N 
HETATM   25  C20 UNL     1       0.720   2.148  -4.653  1.00  0.00     0.665 C 
HETATM   26  N5  UNL     1       1.837   2.119  -5.277  1.00  0.00    -0.235 N 
HETATM   27  N6  UNL     1      -0.408   1.700  -5.244  1.00  0.00    -0.235 N 
ATOM     28  H52 UNL     1       2.689   2.458  -4.830  1.00  0.00     0.174 HD
ATOM     29  H51 UNL     1       1.992   1.733  -6.208  1.00  0.00     0.174 HD
ATOM     30  H62 UNL     1      -1.298   1.723  -4.747  1.00  0.00     0.174 HD
ATOM     31  H61 UNL     1      -0.253   1.314  -6.175  1.00  0.00     0.174 HD
ATOM     32  H4  UNL     1      -0.444   2.766  -3.090  1.00  0.00     0.177 HD
ENDBRANCH  23  24
ENDBRANCH  22  23
ENDBRANCH  21  22
ENDBRANCH  18  21
ENDBRANCH  16  18
ENDBRANCH  11  14
BRANCH  10  33
HETATM   33  C12 UNL     1       2.782  -0.450  -0.836  1.00  0.00     0.245 C 
HETATM   34  N2  UNL     1       1.838  -0.757  -1.781  1.00  0.00    -0.368 N 
ATOM     35  H22 UNL     1       1.104  -1.421  -1.534  1.00  0.00     0.159 HD
ATOM     36  H21 UNL     1       1.930  -0.311  -2.694  1.00  0.00     0.159 HD
HETATM   37  O2  UNL     1       3.666   0.350  -1.134  1.00  0.00    -0.271 OA
ENDBRANCH  10  33
BRANCH  12  38
HETATM   38  C22 UNL     1      -1.264  -0.612   2.202  1.00  0.00     0.229 C 
HETATM   39  O5  UNL     1      -1.283   0.506   2.716  1.00  0.00    -0.273 OA
HETATM   40  N7  UNL     1      -2.450  -1.290   2.015  1.00  0.00    -0.351 N 
ATOM     41  H7  UNL     1      -2.712  -2.018   2.680  1.00  0.00     0.163 HD
BRANCH  40  42
HETATM   42  C23 UNL     1      -3.350  -0.999   0.890  1.00  0.00     0.034 C 
HETATM   43  C24 UNL     1      -3.960  -2.352   0.452  1.00  0.00     0.035 C 
HETATM   44  C25 UNL     1      -4.947  -2.158  -0.706  1.00  0.00    -0.012 C 
HETATM   45  C26 UNL     1      -6.082  -1.236  -0.234  1.00  0.00     0.009 C 
HETATM   46  C30 UNL     1      -4.213  -1.519  -1.895  1.00  0.00     0.009 C 
HETATM   47  C27 UNL     1      -5.509   0.131   0.183  1.00  0.00    -0.012 C 
HETATM   48  C28 UNL     1      -4.796   0.759  -1.025  1.00  0.00     0.009 C 
HETATM   49  C32 UNL     1      -4.503  -0.061   1.334  1.00  0.00     0.035 C 
HETATM   50  C29 UNL     1      -3.646  -0.152  -1.486  1.00  0.00    -0.012 C 
HETATM   51  C31 UNL     1      -2.651  -0.347  -0.327  1.00  0.00     0.035 C 
ENDBRANCH  40  42
ENDBRANCH  12  38
BRANCH   1  52
HETATM   52  C3  UNL     1       5.138  -0.825   1.190  1.00  0.00     0.153 C 
BRANCH  52  53
HETATM   53  C2  UNL     1       5.799   0.494   1.445  1.00  0.00    -0.017 C 
HETATM   54  C1  UNL     1       6.264   1.311   0.490  1.00  0.00     0.008 C 
ENDBRANCH  52  53
ENDBRANCH   1  52
TORSDOF 13
