REMARK  12 active torsions:
REMARK  status: ('A' for Active; 'I' for Inactive)
REMARK    1  A    between atoms: C2_2  and  C4_4 
REMARK    2  A    between atoms: C4_4  and  C5_5 
REMARK    3  A    between atoms: C11_19  and  C12_20 
REMARK    4  A    between atoms: C12_20  and  C13_21 
REMARK    5  A    between atoms: C13_21  and  C14_22 
REMARK    6  A    between atoms: C14_22  and  C15_23 
REMARK    7  A    between atoms: C15_23  and  N4_24 
REMARK    8  A    between atoms: N6_31  and  C17_32 
REMARK    9  A    between atoms: C17_32  and  C18_33 
REMARK   10  A    between atoms: C19_34  and  C20_35 
REMARK   11  A    between atoms: C28_44  and  C29_45 
REMARK   12  A    between atoms: C29_45  and  C30_46 
ROOT
HETATM    1  C5  UNL     1       3.062  -0.832  -0.377  1.00  0.00     0.178 C 
HETATM    2  N1  UNL     1       3.373  -0.062   0.838  1.00  0.00    -0.330 N 
ATOM      3  H1  UNL     1       4.307  -0.055   1.248  1.00  0.00     0.165 HD
HETATM    4  C6  UNL     1       2.335   0.646   1.388  1.00  0.00     0.316 C 
HETATM    5  O1  UNL     1       1.807   0.315   2.435  1.00  0.00    -0.247 OA
HETATM    6  N2  UNL     1       1.912   1.669   0.579  1.00  0.00    -0.343 N 
ATOM      7  H2  UNL     1       2.554   2.414   0.308  1.00  0.00     0.164 HD
HETATM    8  C7  UNL     1       0.550   1.676   0.119  1.00  0.00     0.125 C 
HETATM    9  C8  UNL     1      -0.173   3.000   0.241  1.00  0.00     0.029 C 
HETATM   10  C9  UNL     1      -1.446   2.978  -0.603  1.00  0.00     0.104 C 
HETATM   11  C10 UNL     1      -2.521   2.067  -0.040  1.00  0.00     0.218 C 
HETATM   12  O2  UNL     1      -2.927   2.149   1.114  1.00  0.00    -0.274 OA
HETATM   13  N3  UNL     1      -3.069   1.130  -0.885  1.00  0.00    -0.348 N 
ATOM     14  H3  UNL     1      -4.037   1.228  -1.192  1.00  0.00     0.163 HD
HETATM   15  C11 UNL     1      -2.270  -0.009  -1.347  1.00  0.00     0.177 C 
HETATM   16  C16 UNL     1      -2.421  -1.075  -0.237  1.00  0.00     0.249 C 
HETATM   17  O3  UNL     1      -3.540  -1.508   0.036  1.00  0.00    -0.271 OA
HETATM   18  N6  UNL     1      -1.269  -1.386   0.472  1.00  0.00    -0.281 N 
HETATM   19  C27 UNL     1      -0.691  -2.599   0.128  1.00  0.00     0.250 C 
HETATM   20  O4  UNL     1      -0.892  -3.651   0.735  1.00  0.00    -0.271 OA
HETATM   21  C28 UNL     1       0.394  -2.540  -0.978  1.00  0.00     0.187 C 
HETATM   22  N7  UNL     1       1.668  -2.966  -0.356  1.00  0.00    -0.345 N 
ATOM     23  H7  UNL     1       1.763  -3.977  -0.262  1.00  0.00     0.163 HD
HETATM   24  C31 UNL     1       2.737  -2.267   0.115  1.00  0.00     0.241 C 
HETATM   25  O7  UNL     1       3.480  -2.830   0.926  1.00  0.00    -0.271 OA
ENDROOT
BRANCH  18  26
HETATM   26  C17 UNL     1      -1.294  -1.122   1.929  1.00  0.00     0.162 C 
BRANCH  26  27
HETATM   27  C18 UNL     1      -2.447  -1.705   2.688  1.00  0.00    -0.010 C 
HETATM   28  C19 UNL     1      -2.877  -1.379   3.925  1.00  0.00    -0.019 C 
BRANCH  28  29
HETATM   29  C20 UNL     1      -2.245  -0.422   4.842  1.00  0.00    -0.018 C 
HETATM   30  C21 UNL     1      -2.416  -0.713   6.360  1.00  0.00     0.019 C 
HETATM   31  C22 UNL     1      -0.926  -0.404   6.567  1.00  0.00    -0.008 C 
HETATM   32  C23 UNL     1      -0.653   1.105   6.616  1.00  0.00     0.010 C 
HETATM   33  C26 UNL     1      -0.732  -0.369   5.053  1.00  0.00     0.006 C 
HETATM   34  C24 UNL     1      -0.779   1.163   5.084  1.00  0.00    -0.008 C 
HETATM   35  C25 UNL     1      -2.231   1.097   4.560  1.00  0.00     0.019 C 
ENDBRANCH  28  29
ENDBRANCH  26  27
ENDBRANCH  18  26
BRANCH  15  36
HETATM   36  C12 UNL     1      -2.820  -0.618  -2.650  1.00  0.00     0.035 C 
BRANCH  36  37
HETATM   37  C13 UNL     1      -2.180  -0.021  -3.903  1.00  0.00     0.004 C 
BRANCH  37  38
HETATM   38  C14 UNL     1      -2.828   1.295  -4.318  1.00  0.00     0.021 C 
BRANCH  38  39
HETATM   39  C15 UNL     1      -1.796   2.313  -4.795  1.00  0.00     0.139 C 
BRANCH  39  40
HETATM   40  N4  UNL     1      -2.425   3.643  -4.823  1.00  0.00    -0.343 N 
HETATM   41  N5  UNL     1      -2.119   4.519  -3.974  1.00  0.00    -0.349 N 
ATOM     42  H52 UNL     1      -1.424   4.288  -3.264  1.00  0.00     0.176 HD
ATOM     43  H51 UNL     1      -2.555   5.441  -3.993  1.00  0.00     0.176 HD
ATOM     44  H4  UNL     1      -3.118   3.857  -5.540  1.00  0.00     0.179 HD
ENDBRANCH  39  40
ENDBRANCH  38  39
ENDBRANCH  37  38
ENDBRANCH  36  37
ENDBRANCH  15  36
BRANCH  21  45
HETATM   45  C29 UNL     1       0.029  -3.532  -2.079  1.00  0.00     0.148 C 
BRANCH  45  46
HETATM   46  C30 UNL     1       0.724  -3.136  -3.344  1.00  0.00     0.175 C 
HETATM   47  O5  UNL     1       0.440  -2.171  -4.034  1.00  0.00    -0.648 OA
HETATM   48  O6  UNL     1       1.765  -3.927  -3.662  1.00  0.00    -0.648 OA
ENDBRANCH  45  46
ENDBRANCH  21  45
BRANCH   1  49
HETATM   49  C4  UNL     1       4.244  -0.909  -1.358  1.00  0.00     0.038 C 
BRANCH  49  50
HETATM   50  C2  UNL     1       4.640   0.437  -2.003  1.00  0.00    -0.020 C 
HETATM   51  C1  UNL     1       5.747   1.133  -1.201  1.00  0.00     0.009 C 
HETATM   52  C3  UNL     1       5.140   0.207  -3.435  1.00  0.00     0.009 C 
ENDBRANCH  49  50
ENDBRANCH   1  49
TORSDOF 12
