REMARK  2 active torsions:
REMARK  status: ('A' for Active; 'I' for Inactive)
REMARK    1  A    between atoms: C2_4  and  C3_5 
REMARK    2  A    between atoms: C2_4  and  C7_9 
ROOT
HETATM    1  C7  UNL     1       0.858   0.819   0.241  1.00  0.00     0.049 C 
HETATM    2  C8  UNL     1       1.660   0.459  -1.034  1.00  0.00     0.019 C 
HETATM    3  C9  UNL     1       2.000  -0.910  -0.432  1.00  0.00     0.043 A 
HETATM    4  C10 UNL     1       3.127  -0.908   0.599  1.00  0.00     0.239 A 
HETATM    5  N1  UNL     1       2.146  -0.728   1.680  1.00  0.00    -0.069 N 
ATOM      6  H11 UNL     1       2.281   0.025   2.355  1.00  0.00     0.277 HD
ATOM      7  H12 UNL     1       2.102  -1.416   2.432  1.00  0.00     0.277 HD
HETATM    8  C11 UNL     1       1.037  -0.641   0.722  1.00  0.00     0.199 A 
ENDROOT
BRANCH   1   9
HETATM    9  C2  UNL     1      -0.507   1.414  -0.016  1.00  0.00    -0.036 C 
HETATM   10  C1  UNL     1      -0.648   2.760   0.083  1.00  0.00     0.106 C 
HETATM   11 CL1  UNL     1      -2.172   3.588  -0.097  1.00  0.00    -0.071 Cl
HETATM   12 CL2  UNL     1       0.675   3.853   0.392  1.00  0.00    -0.071 Cl
BRANCH   9  13
HETATM   13  C3  UNL     1      -1.714   0.594  -0.387  1.00  0.00     0.017 C 
HETATM   14  C4  UNL     1      -1.599  -0.742  -1.153  1.00  0.00     0.009 C 
HETATM   15  C5  UNL     1      -2.763  -1.265  -0.282  1.00  0.00     0.001 C 
HETATM   16  C6  UNL     1      -2.400  -0.187   0.759  1.00  0.00     0.009 C 
ENDBRANCH   9  13
ENDBRANCH   1   9
TORSDOF 2
