REMARK  15 active torsions:
REMARK  status: ('A' for Active; 'I' for Inactive)
REMARK    1  A    between atoms: C2_2  and  C3_3 
REMARK    2  A    between atoms: C4_4  and  C5_5 
REMARK    3  A    between atoms: C5_5  and  O1_6 
REMARK    4  A    between atoms: C5_5  and  C22_31 
REMARK    5  A    between atoms: O1_6  and  C6_7 
REMARK    6  A    between atoms: C6_7  and  C7_8 
REMARK    7  A    between atoms: C7_8  and  O3_10 
REMARK    8  A    between atoms: O3_10  and  C8_11 
REMARK    9  A    between atoms: C16_20  and  O5_21 
REMARK   10  A    between atoms: C25_34  and  C26_35 
REMARK   11  A    between atoms: C26_35  and  O7_36 
REMARK   12  A    between atoms: O7_36  and  C27_37 
REMARK   13  A    between atoms: C27_37  and  C28_39 
REMARK   14  A    between atoms: C28_39  and  C29_40 
REMARK   15  A    between atoms: C29_40  and  C30_41 
ROOT
HETATM    1  C7  UNL     1      -3.873  -1.168   0.374  1.00  0.00     0.283 C 
HETATM    2  O2  UNL     1      -4.569  -2.181   0.373  1.00  0.00    -0.263 OA
ENDROOT
BRANCH   1   3
HETATM    3  C6  UNL     1      -4.436   0.251   0.383  1.00  0.00     0.279 C 
BRANCH   3   4
HETATM    4  O1  UNL     1      -3.913   1.192   1.297  1.00  0.00    -0.372 OA
BRANCH   4   5
HETATM    5  C5  UNL     1      -2.925   2.104   0.791  1.00  0.00     0.148 C 
BRANCH   5   6
HETATM    6  C4  UNL     1      -3.535   3.024  -0.233  1.00  0.00     0.006 C 
HETATM    7  C3  UNL     1      -2.967   3.688  -1.256  1.00  0.00     0.005 C 
BRANCH   7   8
HETATM    8  C2  UNL     1      -1.578   3.839  -1.711  1.00  0.00    -0.064 C 
HETATM    9  C1  UNL     1      -1.456   4.569  -3.029  1.00  0.00     0.048 C 
HETATM   10  C25 UNL     1      -0.478   3.474  -1.025  1.00  0.00     0.006 C 
BRANCH  10  11
HETATM   11  C26 UNL     1       0.953   3.789  -1.401  1.00  0.00     0.206 C 
BRANCH  11  12
HETATM   12  O7  UNL     1       1.797   3.317  -0.342  1.00  0.00    -0.318 OA
BRANCH  12  13
HETATM   13  C27 UNL     1       2.320   4.225   0.519  1.00  0.00     0.259 C 
HETATM   14  O8  UNL     1       2.216   5.444   0.440  1.00  0.00    -0.265 OA
BRANCH  13  15
HETATM   15  C28 UNL     1       3.012   3.508   1.662  1.00  0.00     0.112 C 
BRANCH  15  16
HETATM   16  C29 UNL     1       4.391   2.937   1.299  1.00  0.00     0.018 C 
BRANCH  16  17
HETATM   17  C30 UNL     1       4.502   1.384   1.216  1.00  0.00    -0.051 C 
HETATM   18  C31 UNL     1       3.543   0.811   0.167  1.00  0.00     0.014 C 
HETATM   19  C32 UNL     1       5.943   1.010   0.803  1.00  0.00     0.014 C 
HETATM   20  C33 UNL     1       4.223   0.737   2.582  1.00  0.00     0.014 C 
ENDBRANCH  16  17
ENDBRANCH  15  16
ENDBRANCH  13  15
ENDBRANCH  12  13
ENDBRANCH  11  12
ENDBRANCH  10  11
ENDBRANCH   7   8
ENDBRANCH   5   6
BRANCH   5  21
HETATM   21  C22 UNL     1      -2.374   2.909   1.998  1.00  0.00     0.010 C 
HETATM   22  C23 UNL     1      -3.467   3.532   2.871  1.00  0.00     0.012 C 
HETATM   23  C24 UNL     1      -1.500   2.006   2.872  1.00  0.00     0.012 C 
ENDBRANCH   5  21
ENDBRANCH   4   5
ENDBRANCH   3   4
ENDBRANCH   1   3
BRANCH   1  24
HETATM   24  O3  UNL     1      -2.523  -1.176   0.180  1.00  0.00    -0.313 OA
BRANCH  24  25
HETATM   25  C8  UNL     1      -2.067  -2.170  -0.766  1.00  0.00     0.148 C 
HETATM   26  C9  UNL     1      -1.204  -1.381  -1.751  1.00  0.00     0.112 C 
HETATM   27  C10 UNL     1       0.189  -1.634  -1.261  1.00  0.00     0.139 C 
HETATM   28  O4  UNL     1       1.149  -0.966  -1.626  1.00  0.00    -0.297 OA
HETATM   29  C11 UNL     1       0.297  -2.815  -0.315  1.00  0.00     0.033 C 
HETATM   30  C12 UNL     1       0.987  -2.345   0.970  1.00  0.00     0.025 C 
HETATM   31  C13 UNL     1       1.072  -4.002  -0.937  1.00  0.00     0.038 C 
HETATM   32  C20 UNL     1      -1.182  -3.303  -0.152  1.00  0.00     0.006 C 
HETATM   33  C14 UNL     1       1.067  -4.247  -2.449  1.00  0.00     0.087 C 
HETATM   34  C18 UNL     1       0.248  -5.241  -0.573  1.00  0.00     0.098 C 
HETATM   35  C15 UNL     1      -0.075  -4.165  -3.175  1.00  0.00     0.046 C 
HETATM   36  C19 UNL     1       1.425  -5.715  -2.522  1.00  0.00     0.222 C 
HETATM   37  C16 UNL     1      -1.356  -4.555  -2.470  1.00  0.00     0.126 C 
HETATM   38  C17 UNL     1      -1.185  -4.688  -0.925  1.00  0.00     0.049 C 
HETATM   39  N1  UNL     1       0.773  -6.279  -1.431  1.00  0.00    -0.355 N 
HETATM   40  O6  UNL     1       2.096  -6.264  -3.363  1.00  0.00    -0.273 OA
ATOM     41  H1  UNL     1       0.679  -7.280  -1.261  1.00  0.00     0.162 HD
HETATM   42  C21 UNL     1      -1.596  -3.592   1.310  1.00  0.00     0.020 C 
BRANCH  37  43
HETATM   43  O5  UNL     1      -1.782  -5.806  -2.999  1.00  0.00    -0.395 OA
ATOM     44  H5  UNL     1      -2.586  -6.051  -2.556  1.00  0.00     0.210 HD
ENDBRANCH  37  43
ENDBRANCH  24  25
ENDBRANCH   1  24
TORSDOF 15
