REMARK  3 active torsions:
REMARK  status: ('A' for Active; 'I' for Inactive)
REMARK    1  A    between atoms: O1_1  and  C1_3 
REMARK    2  A    between atoms: C5_7  and  C14_20 
REMARK    3  A    between atoms: C10_13  and  O2_14 
ROOT
HETATM    1  C1  UNL     1      -1.688   1.394  -0.662  1.00  0.00     0.163 C 
HETATM    2  C2  UNL     1      -2.983   0.678  -0.354  1.00  0.00     0.039 C 
HETATM    3  C3  UNL     1      -2.664  -0.582   0.442  1.00  0.00    -0.009 C 
HETATM    4  C4  UNL     1      -1.621  -0.153   1.614  1.00  0.00     0.012 C 
HETATM    5  C5  UNL     1      -0.095  -0.528   1.339  1.00  0.00     0.033 C 
HETATM    6  C6  UNL     1      -0.269  -1.948   1.012  1.00  0.00     0.052 C 
HETATM    7  C7  UNL     1      -0.631  -1.417  -0.380  1.00  0.00     0.202 C 
HETATM    8  C8  UNL     1      -2.081  -1.641  -0.597  1.00  0.00     0.049 C 
HETATM    9  N1  UNL     1       0.600  -1.507  -1.148  1.00  0.00     0.119 N 
HETATM   10  C9  UNL     1       2.121  -1.581  -0.782  1.00  0.00     0.314 C 
HETATM   11  C10 UNL     1       2.734  -0.125  -0.220  1.00  0.00     0.119 C 
HETATM   12  C11 UNL     1       3.031   1.400  -0.169  1.00  0.00     0.072 C 
HETATM   13  C12 UNL     1       1.632   2.116   0.111  1.00  0.00     0.277 C 
HETATM   14  N2  UNL     1       0.821   1.580  -0.985  1.00  0.00     0.117 N 
HETATM   15  C13 UNL     1       1.546   0.364  -1.057  1.00  0.00     0.302 C 
HETATM   16  C14 UNL     1       0.525  -0.203  -0.091  1.00  0.00     0.239 C 
HETATM   17  C15 UNL     1      -0.533   0.428  -0.910  1.00  0.00     0.259 C 
ENDROOT
BRANCH   1  18
HETATM   18  O1  UNL     1      -1.868   2.203  -1.829  1.00  0.00    -0.393 OA
ATOM     19  H1  UNL     1      -1.054   2.653  -2.023  1.00  0.00     0.210 HD
ENDBRANCH   1  18
BRANCH  11  20
HETATM   20  O2  UNL     1       2.636  -0.342   1.219  1.00  0.00    -0.386 OA
ATOM     21  H2  UNL     1       2.983   0.483   1.537  1.00  0.00     0.210 HD
ENDBRANCH  11  20
TORSDOF 3
