REMARK  2 active torsions:
REMARK  status: ('A' for Active; 'I' for Inactive)
REMARK    1  A    between atoms: C4_4  and  C5_5 
REMARK    2  A    between atoms: C7_8  and  O2_9 
ROOT
HETATM    1  C1  UNL     1      -2.684   1.599  -1.117  1.00  0.00     0.038 C 
HETATM    2  C2  UNL     1      -1.849   1.016  -0.245  1.00  0.00     0.002 C 
HETATM    3  C3  UNL     1      -0.550   1.759   0.085  1.00  0.00     0.046 C 
HETATM    4  C4  UNL     1       0.754   1.823  -0.835  1.00  0.00     0.030 C 
HETATM    5  C5  UNL     1       0.906   0.618  -1.790  1.00  0.00     0.135 C 
HETATM    6  O1  UNL     1      -0.212  -0.239  -1.670  1.00  0.00    -0.370 OA
HETATM    7  C6  UNL     1       0.443  -0.987  -0.526  1.00  0.00     0.099 C 
HETATM    8  C7  UNL     1      -0.551  -2.155  -0.486  1.00  0.00     0.171 C 
HETATM    9  C8  UNL     1      -2.018  -1.549  -0.297  1.00  0.00     0.157 C 
HETATM   10  N1  UNL     1      -2.123  -0.208   0.428  1.00  0.00    -0.386 N 
HETATM   11  C9  UNL     1      -3.183  -0.204   1.442  1.00  0.00     0.149 C 
HETATM   12  C10 UNL     1       1.778  -0.588  -1.344  1.00  0.00     0.053 C 
HETATM   13  C11 UNL     1       3.055  -0.081  -0.708  1.00  0.00     0.015 C 
HETATM   14  C12 UNL     1       2.694   0.542   0.626  1.00  0.00    -0.009 C 
HETATM   15  C13 UNL     1       2.024  -0.549   1.466  1.00  0.00     0.013 C 
HETATM   16  C14 UNL     1       0.584  -0.466   0.972  1.00  0.00     0.029 C 
HETATM   17  C15 UNL     1       0.342   1.021   1.076  1.00  0.00     0.008 C 
HETATM   18  C16 UNL     1       1.614   1.638   0.462  1.00  0.00     0.002 C 
ENDROOT
BRANCH   8  19
HETATM   19  O2  UNL     1      -0.227  -3.111   0.533  1.00  0.00    -0.391 OA
ATOM     20  H2  UNL     1      -0.842  -3.834   0.558  1.00  0.00     0.210 HD
ENDBRANCH   8  19
TORSDOF 2
