REMARK  10 active torsions:
REMARK  status: ('A' for Active; 'I' for Inactive)
REMARK    1  A    between atoms: C3_3  and  C4_4 
REMARK    2  A    between atoms: C4_4  and  N1_5 
REMARK    3  A    between atoms: C8_9  and  C9_10 
REMARK    4  A    between atoms: C10_11  and  C11_12 
REMARK    5  A    between atoms: C12_13  and  C13_14 
REMARK    6  A    between atoms: C16_17  and  C17_18 
REMARK    7  A    between atoms: C17_18  and  N2_19 
REMARK    8  A    between atoms: C18_24  and  C19_26 
REMARK    9  A    between atoms: C19_26  and  O1_27 
REMARK   10  A    between atoms: C19_26  and  C20_29 
ROOT
HETATM    1  C1  UNL     1      -2.200  -4.180   2.818  1.00  0.00     0.112 C 
HETATM    2  C2  UNL     1      -2.877  -3.214   1.946  1.00  0.00    -0.109 C 
HETATM    3  C3  UNL     1      -3.446  -2.447   1.220  1.00  0.00    -0.079 C 
ENDROOT
BRANCH   3   4
HETATM    4  C4  UNL     1      -4.118  -1.549   0.270  1.00  0.00     0.333 C 
BRANCH   4   5
HETATM    5  N1  UNL     1      -3.094  -1.030  -0.728  1.00  0.00    -0.033 N 
HETATM    6  C5  UNL     1      -2.661  -2.131  -1.635  1.00  0.00     0.276 C 
HETATM    7  C6  UNL     1      -3.511   0.205  -1.458  1.00  0.00     0.221 C 
HETATM    8  C7  UNL     1      -3.259   0.962  -0.041  1.00  0.00     0.090 C 
HETATM    9  C18 UNL     1      -1.946   0.651  -1.690  1.00  0.00     0.118 C 
HETATM   10  C8  UNL     1      -2.087  -0.031  -0.221  1.00  0.00     0.217 C 
HETATM   11 BR1  UNL     1      -0.647  -0.324  -2.890  1.00  0.00    -0.077 Br
BRANCH  10  12
HETATM   12  C9  UNL     1      -1.022  -0.347   0.639  1.00  0.00    -0.051 C 
HETATM   13  C10 UNL     1      -0.029  -0.501   1.296  1.00  0.00    -0.012 C 
BRANCH  13  14
HETATM   14  C11 UNL     1       1.185  -0.501   1.935  1.00  0.00    -0.009 C 
HETATM   15  C12 UNL     1       2.278  -0.387   2.419  1.00  0.00    -0.052 C 
BRANCH  15  16
HETATM   16  C13 UNL     1       3.573  -0.156   2.928  1.00  0.00     0.026 A 
HETATM   17  C14 UNL     1       4.224  -0.007   4.088  1.00  0.00     0.022 A 
HETATM   18  C15 UNL     1       5.440   0.216   3.357  1.00  0.00     0.012 A 
HETATM   19  C16 UNL     1       4.779   0.041   2.191  1.00  0.00    -0.018 A 
BRANCH  19  20
HETATM   20  C17 UNL     1       5.136   0.059   0.727  1.00  0.00     0.208 C 
BRANCH  20  21
HETATM   21  N2  UNL     1       4.872  -1.233   0.104  1.00  0.00    -0.203 N 
HETATM   22  N3  UNL     1       5.700  -2.284   0.036  1.00  0.00     0.012 NA
HETATM   23  N4  UNL     1       4.890  -2.766  -0.911  1.00  0.00     0.010 NA
HETATM   24  N5  UNL     1       4.310  -1.514  -1.000  1.00  0.00    -0.213 N 
ATOM     25  H5  UNL     1       3.701  -1.030  -1.660  1.00  0.00     0.206 HD
ENDBRANCH  20  21
ENDBRANCH  19  20
ENDBRANCH  15  16
ENDBRANCH  13  14
ENDBRANCH  10  12
BRANCH   9  26
HETATM   26  C19 UNL     1      -1.841   2.148  -2.170  1.00  0.00     0.146 C 
BRANCH  26  27
HETATM   27  O1  UNL     1      -3.169   2.683  -2.289  1.00  0.00    -0.393 OA
ATOM     28  H1  UNL     1      -3.106   3.586  -2.578  1.00  0.00     0.210 HD
ENDBRANCH  26  27
BRANCH  26  29
HETATM   29  C20 UNL     1      -0.964   3.135  -1.351  1.00  0.00     0.008 C 
HETATM   30  C21 UNL     1       0.296   2.556  -0.718  1.00  0.00     0.012 C 
HETATM   31  C22 UNL     1      -0.553   4.324  -2.249  1.00  0.00     0.012 C 
ENDBRANCH  26  29
ENDBRANCH   9  26
ENDBRANCH   4   5
ENDBRANCH   3   4
TORSDOF 10
