REMARK  8 active torsions:
REMARK  status: ('A' for Active; 'I' for Inactive)
REMARK    1  A    between atoms: C4_4  and  O1_5 
REMARK    2  A    between atoms: N2_12  and  C9_13 
REMARK    3  A    between atoms: C9_13  and  C10_14 
REMARK    4  A    between atoms: C10_14  and  C11_15 
REMARK    5  A    between atoms: C11_15  and  C12_16 
REMARK    6  A    between atoms: C17_23  and  C19_25 
REMARK    7  A    between atoms: C19_25  and  C20_26 
REMARK    8  A    between atoms: C20_26  and  O4_27 
ROOT
HETATM    1  C1  UNL     1      -1.726   0.525   2.642  1.00  0.00     0.046 C 
HETATM    2  C2  UNL     1      -0.709  -0.055   1.651  1.00  0.00    -0.048 C 
HETATM    3  C3  UNL     1      -0.822  -1.601   1.713  1.00  0.00     0.076 C 
HETATM    4  C4  UNL     1      -0.424  -2.426   0.458  1.00  0.00     0.090 C 
HETATM    5  C5  UNL     1      -1.662  -2.660  -0.557  1.00  0.00     0.275 C 
HETATM    6  N1  UNL     1      -2.676  -1.541  -1.120  1.00  0.00    -0.065 N 
HETATM    7  C6  UNL     1      -3.851  -2.486  -1.715  1.00  0.00     0.272 C 
HETATM    8  C7  UNL     1      -2.261  -0.707  -2.346  1.00  0.00     0.265 C 
HETATM    9  C8  UNL     1      -1.524   0.650  -2.084  1.00  0.00     0.271 C 
HETATM   10  N2  UNL     1      -1.452   1.158  -0.576  1.00  0.00    -0.035 N 
HETATM   11  C13 UNL     1      -2.947   0.865  -0.107  1.00  0.00     0.271 C 
HETATM   12  C14 UNL     1      -3.388  -0.638  -0.090  1.00  0.00     0.265 C 
HETATM   13  C15 UNL     1      -0.352   0.379   0.201  1.00  0.00     0.148 C 
HETATM   14  C16 UNL     1       1.390   0.406   0.053  1.00  0.00     0.256 C 
HETATM   15  C17 UNL     1       1.989  -1.084   0.577  1.00  0.00    -0.001 C 
HETATM   16  C18 UNL     1       3.443  -1.511   0.127  1.00  0.00     0.018 C 
HETATM   17  C21 UNL     1       1.057  -2.117  -0.159  1.00  0.00     0.034 C 
HETATM   18  C22 UNL     1       1.105  -1.804  -1.709  1.00  0.00     0.036 C 
HETATM   19  C23 UNL     1       1.892  -0.590  -2.302  1.00  0.00     0.238 C 
HETATM   20  N3  UNL     1       2.027   0.654  -1.384  1.00  0.00    -0.064 N 
HETATM   21  C24 UNL     1       3.615   0.993  -1.156  1.00  0.00     0.273 C 
HETATM   22  C25 UNL     1       1.675   1.946  -2.138  1.00  0.00     0.273 C 
ENDROOT
BRANCH  10  23
HETATM   23  C9  UNL     1      -1.260   2.716  -0.556  1.00  0.00     0.244 C 
BRANCH  23  24
HETATM   24  C10 UNL     1      -1.296   3.347   0.831  1.00  0.00     0.039 C 
BRANCH  24  25
HETATM   25  C11 UNL     1      -0.980   4.844   0.791  1.00  0.00     0.115 C 
BRANCH  25  26
HETATM   26  C12 UNL     1       0.452   5.104   1.153  1.00  0.00     0.172 C 
HETATM   27  O2  UNL     1       0.857   5.791   2.074  1.00  0.00    -0.648 OA
HETATM   28  O3  UNL     1       1.330   4.481   0.342  1.00  0.00    -0.648 OA
ENDBRANCH  25  26
ENDBRANCH  24  25
ENDBRANCH  23  24
ENDBRANCH  10  23
BRANCH  15  29
HETATM   29  C19 UNL     1       2.198  -1.154   2.154  1.00  0.00     0.038 C 
BRANCH  29  30
HETATM   30  C20 UNL     1       2.666  -2.482   2.781  1.00  0.00     0.165 C 
BRANCH  30  31
HETATM   31  O4  UNL     1       4.080  -2.530   2.741  1.00  0.00    -0.401 OA
ATOM     32  H4  UNL     1       4.368  -3.349   3.127  1.00  0.00     0.209 HD
ENDBRANCH  30  31
ENDBRANCH  29  30
ENDBRANCH  15  29
BRANCH   4  33
HETATM   33  O1  UNL     1      -0.214  -3.760   0.997  1.00  0.00    -0.387 OA
ATOM     34  H1  UNL     1       0.029  -4.264   0.230  1.00  0.00     0.210 HD
ENDBRANCH   4  33
TORSDOF 8
