REMARK  4 active torsions:
REMARK  status: ('A' for Active; 'I' for Inactive)
REMARK       I    between atoms: N1_1  and  C1_4 
REMARK       I    between atoms: C1_4  and  N2_5 
REMARK    1  A    between atoms: N3_8  and  N4_10 
REMARK    2  A    between atoms: N4_10  and  C2_12 
REMARK    3  A    between atoms: C2_12  and  N5_13 
REMARK    4  A    between atoms: C2_12  and  C3_17 
ROOT
HETATM    1  C2  UNL     1      -0.386   0.710  -0.600  1.00  0.00     0.305 C 
ENDROOT
BRANCH   1   2
HETATM    2  N4  UNL     1      -1.302  -0.051   0.212  1.00  0.00    -0.291 N 
ATOM      3  H4  UNL     1      -1.163  -0.078   1.222  1.00  0.00     0.183 HD
BRANCH   2   4
HETATM    4  N3  UNL     1      -2.339  -0.730  -0.325  1.00  0.00    -0.135 N 
HETATM    5  C1  UNL     1      -3.488  -0.550   0.245  1.00  0.00     0.683 C 
HETATM    6  N1  UNL     1      -3.820   0.387   1.172  1.00  0.00    -0.234 N 
HETATM    7  N2  UNL     1      -4.543  -1.339  -0.054  1.00  0.00    -0.234 N 
ATOM      8  H12 UNL     1      -4.725   0.529   1.621  1.00  0.00     0.174 HD
ATOM      9  H11 UNL     1      -3.023   0.983   1.398  1.00  0.00     0.174 HD
ATOM     10  H22 UNL     1      -5.448  -1.197   0.395  1.00  0.00     0.174 HD
ATOM     11  H21 UNL     1      -4.294  -2.042  -0.750  1.00  0.00     0.174 HD
ATOM     12  H3  UNL     1      -2.224  -1.346  -1.130  1.00  0.00     0.205 HD
ENDBRANCH   2   4
ENDBRANCH   1   2
BRANCH   1  13
HETATM   13  N5  UNL     1      -0.659   2.102  -0.269  1.00  0.00    -0.056 N 
ATOM     14  H53 UNL     1      -1.636   2.371  -0.385  1.00  0.00     0.276 HD
ATOM     15  H52 UNL     1      -0.599   2.310   0.728  1.00  0.00     0.276 HD
ATOM     16  H51 UNL     1      -0.011   2.641  -0.844  1.00  0.00     0.276 HD
ENDBRANCH   1  13
BRANCH   1  17
HETATM   17  C3  UNL     1       1.052   0.361  -0.270  1.00  0.00     0.012 C 
HETATM   18  C4  UNL     1       2.178   0.749  -1.280  1.00  0.00     0.019 C 
HETATM   19  C5  UNL     1       2.797  -0.654  -1.109  1.00  0.00    -0.008 C 
HETATM   20  C6  UNL     1       3.602  -0.833   0.194  1.00  0.00     0.010 C 
HETATM   21  C9  UNL     1       1.547  -1.089  -0.356  1.00  0.00     0.006 C 
HETATM   22  C7  UNL     1       2.281  -0.934   0.976  1.00  0.00    -0.008 C 
HETATM   23  C8  UNL     1       1.586   0.421   1.194  1.00  0.00     0.019 C 
ENDBRANCH   1  17
TORSDOF 4
