REMARK  6 active torsions:
REMARK  status: ('A' for Active; 'I' for Inactive)
REMARK    1  A    between atoms: C2_2  and  C3_3 
REMARK       I    between atoms: C3_3  and  N1_5 
REMARK    2  A    between atoms: N1_5  and  C4_7 
REMARK    3  A    between atoms: C7_10  and  C8_11 
REMARK    4  A    between atoms: C10_13  and  O2_14 
REMARK    5  A    between atoms: C11_16  and  C16_22 
REMARK    6  A    between atoms: C16_22  and  C17_23 
ROOT
HETATM    1  C4  UNL     1      -0.194  -0.756   0.816  1.00  0.00     0.081 C 
HETATM    2  C5  UNL     1       0.538   0.475   2.087  1.00  0.00     0.034 A 
HETATM    3  C6  UNL     1       2.281   0.767   1.452  1.00  0.00     0.010 A 
HETATM    4  C7  UNL     1       3.038   0.349  -0.308  1.00  0.00     0.014 C 
HETATM    5  C8  UNL     1       2.730  -0.826  -1.703  1.00  0.00     0.011 C 
HETATM    6  C9  UNL     1       0.962  -1.314  -2.327  1.00  0.00     0.042 A 
HETATM    7  C10 UNL     1      -0.135  -0.704  -1.019  1.00  0.00     0.099 A 
HETATM    8  C11 UNL     1       1.136  -0.066  -1.234  1.00  0.00     0.027 A 
HETATM    9  C12 UNL     1       2.032  -1.655  -0.842  1.00  0.00     0.074 C 
HETATM   10  C13 UNL     1       2.166  -1.865   0.564  1.00  0.00     0.140 C 
HETATM   11  O3  UNL     1       3.000  -2.554   1.110  1.00  0.00    -0.297 OA
HETATM   12  C14 UNL     1       1.147  -1.075   1.198  1.00  0.00     0.098 C 
HETATM   13  C15 UNL     1       1.187   0.596   0.616  1.00  0.00    -0.001 A 
HETATM   14  C16 UNL     1       1.811   1.052  -0.591  1.00  0.00     0.045 C 
ENDROOT
BRANCH   1  15
HETATM   15  N1  UNL     1      -1.393  -1.322   1.352  1.00  0.00    -0.348 N 
HETATM   16  C3  UNL     1      -2.479  -0.453   1.354  1.00  0.00     0.217 C 
HETATM   17  O1  UNL     1      -2.337   0.758   1.173  1.00  0.00    -0.274 OA
ATOM     18  H1  UNL     1      -1.447  -2.279   1.702  1.00  0.00     0.163 HD
BRANCH  16  19
HETATM   19  C2  UNL     1      -3.845  -1.058   1.597  1.00  0.00     0.098 C 
HETATM   20  C1  UNL     1      -4.920  -0.149   1.011  1.00  0.00     0.014 C 
ENDBRANCH  16  19
ENDBRANCH   1  15
BRANCH   7  21
HETATM   21  O2  UNL     1      -1.210  -0.004  -1.598  1.00  0.00    -0.386 OA
ATOM     22  H2  UNL     1      -1.179   0.023  -2.547  1.00  0.00     0.210 HD
ENDBRANCH   7  21
BRANCH  14  23
HETATM   23  C17 UNL     1       1.724   2.445  -1.234  1.00  0.00     0.134 C 
HETATM   24  C18 UNL     1       0.349   3.072  -1.427  1.00  0.00     0.091 C 
HETATM   25  O4  UNL     1       2.728   3.029  -1.639  1.00  0.00    -0.297 OA
ENDBRANCH  14  23
TORSDOF 6
