REMARK  5 active torsions:
REMARK  status: ('A' for Active; 'I' for Inactive)
REMARK    1  A    between atoms: C3_3  and  C4_4 
REMARK    2  A    between atoms: C4_4  and  C5_12 
REMARK    3  A    between atoms: N1_5  and  N2_7 
REMARK    4  A    between atoms: C8_16  and  C9_17 
REMARK    5  A    between atoms: C9_17  and  O2_19 
ROOT
HETATM    1  C1  UNL     1      -5.347  -0.013   0.129  1.00  0.00     0.112 C 
HETATM    2  C2  UNL     1      -4.151  -0.166  -0.687  1.00  0.00    -0.104 C 
HETATM    3  C3  UNL     1      -3.143  -0.300  -1.328  1.00  0.00    -0.051 C 
ENDROOT
BRANCH   3   4
HETATM    4  C4  UNL     1      -1.906  -0.477  -2.026  1.00  0.00     0.091 C 
HETATM    5  N1  UNL     1      -1.896   0.011  -3.222  1.00  0.00    -0.282 N 
ATOM      6  H1  UNL     1      -1.187  -0.302  -3.885  1.00  0.00     0.189 HD
BRANCH   5   7
HETATM    7  N2  UNL     1      -2.854   0.975  -3.628  1.00  0.00    -0.249 N 
HETATM    8  N3  UNL     1      -2.481   2.166  -3.751  1.00  0.00    -0.331 N 
ATOM      9  H32 UNL     1      -1.511   2.418  -3.560  1.00  0.00     0.178 HD
ATOM     10  H31 UNL     1      -3.170   2.859  -4.043  1.00  0.00     0.178 HD
ATOM     11  H2  UNL     1      -3.820   0.707  -3.815  1.00  0.00     0.207 HD
ENDBRANCH   5   7
BRANCH   4  12
HETATM   12  C5  UNL     1      -0.697  -1.069  -1.390  1.00  0.00     0.121 C 
HETATM   13  C6  UNL     1      -0.900  -1.808  -0.078  1.00  0.00     0.143 C 
HETATM   14  O1  UNL     1      -1.685  -2.713   0.168  1.00  0.00    -0.297 OA
HETATM   15  C7  UNL     1       0.112  -1.264   0.911  1.00  0.00     0.074 C 
HETATM   16  C8  UNL     1       1.513  -1.651   0.305  1.00  0.00     0.033 C 
HETATM   17  C13 UNL     1       0.135   0.220   0.578  1.00  0.00     0.009 C 
HETATM   18  C11 UNL     1       1.759  -0.323  -0.463  1.00  0.00     0.033 C 
HETATM   19  C12 UNL     1       0.314   0.033  -0.978  1.00  0.00     0.021 C 
HETATM   20  C17 UNL     1       1.559   0.774   0.638  1.00  0.00     0.237 C 
HETATM   21  N4  UNL     1       1.311   2.154   0.216  1.00  0.00     0.090 N 
HETATM   22  C15 UNL     1       0.073   2.561   0.917  1.00  0.00     0.273 C 
HETATM   23  C16 UNL     1       2.428   3.034   0.499  1.00  0.00     0.310 C 
HETATM   24  C14 UNL     1      -0.762   1.282   1.122  1.00  0.00     0.043 C 
BRANCH  16  25
HETATM   25  C9  UNL     1       2.619  -1.989   1.310  1.00  0.00     0.119 C 
HETATM   26  C10 UNL     1       3.965  -2.171   0.616  1.00  0.00     0.040 C 
BRANCH  25  27
HETATM   27  O2  UNL     1       2.316  -3.212   1.980  1.00  0.00    -0.396 OA
ATOM     28  H2  UNL     1       3.002  -3.422   2.603  1.00  0.00     0.210 HD
ENDBRANCH  25  27
ENDBRANCH  16  25
ENDBRANCH   4  12
ENDBRANCH   3   4
TORSDOF 5
