REMARK  9 active torsions:
REMARK  status: ('A' for Active; 'I' for Inactive)
REMARK    1  A    between atoms: O1_2  and  C2_3 
REMARK    2  A    between atoms: C2_3  and  O2_4 
REMARK    3  A    between atoms: O2_4  and  C3_5 
REMARK    4  A    between atoms: C3_5  and  C4_6 
REMARK    5  A    between atoms: C4_6  and  C17_25 
REMARK    6  A    between atoms: C8_11  and  N2_12 
REMARK    7  A    between atoms: N2_12  and  C9_14 
REMARK    8  A    between atoms: C13_19  and  O4_20 
REMARK    9  A    between atoms: C18_26  and  O5_27 
ROOT
HETATM    1  C4  UNL     1      -1.196   1.045  -0.135  1.00  0.00     0.013 C 
HETATM    2  C5  UNL     1      -1.427   0.224   1.237  1.00  0.00     0.029 C 
HETATM    3  C6  UNL     1      -0.017   0.875   1.719  1.00  0.00     0.020 C 
HETATM    4  C7  UNL     1       1.120   0.199   2.721  1.00  0.00     0.288 C 
HETATM    5  N1  UNL     1       2.005  -0.962   1.764  1.00  0.00     0.120 N 
HETATM    6  C8  UNL     1       3.036  -0.636   0.629  1.00  0.00     0.328 C 
HETATM    7  C10 UNL     1       2.495   0.099  -0.857  1.00  0.00     0.044 C 
HETATM    8  C11 UNL     1       1.881  -0.786  -1.952  1.00  0.00     0.016 C 
HETATM    9  C12 UNL     1       0.379  -0.899  -1.543  1.00  0.00     0.022 C 
HETATM   10  C13 UNL     1       0.397  -1.819  -0.331  1.00  0.00     0.156 C 
HETATM   11  C14 UNL     1       0.867  -1.053   0.911  1.00  0.00     0.259 C 
HETATM   12  C15 UNL     1       0.996   0.543   0.734  1.00  0.00     0.039 C 
HETATM   13  C16 UNL     1       1.258   0.998  -0.613  1.00  0.00     0.006 C 
HETATM   14  C17 UNL     1      -0.040   0.587  -1.234  1.00  0.00     0.010 C 
HETATM   15  C18 UNL     1      -0.688   2.172   1.062  1.00  0.00     0.139 C 
ENDROOT
BRANCH   1  16
HETATM   16  C3  UNL     1      -2.512   1.364  -0.834  1.00  0.00     0.183 C 
BRANCH  16  17
HETATM   17  O2  UNL     1      -2.922   0.201  -1.550  1.00  0.00    -0.366 OA
BRANCH  17  18
HETATM   18  C2  UNL     1      -4.334   0.136  -1.707  1.00  0.00     0.337 C 
BRANCH  18  19
HETATM   19  O1  UNL     1      -4.975  -0.253  -0.498  1.00  0.00    -0.372 OA
HETATM   20  C1  UNL     1      -4.729  -1.620  -0.194  1.00  0.00     0.204 C 
ENDBRANCH  18  19
ENDBRANCH  17  18
ENDBRANCH  16  17
ENDBRANCH   1  16
BRANCH  15  21
HETATM   21  O5  UNL     1       0.148   3.263   0.644  1.00  0.00    -0.394 OA
ATOM     22  H5  UNL     1       0.428   3.885   1.305  1.00  0.00     0.210 HD
ENDBRANCH  15  21
BRANCH   6  23
HETATM   23  N2  UNL     1       4.070   0.094   1.306  1.00  0.00    -0.338 N 
ATOM     24  H2  UNL     1       3.872   0.487   2.226  1.00  0.00     0.164 HD
BRANCH  23  25
HETATM   25  C9  UNL     1       5.310   0.281   0.762  1.00  0.00     0.350 C 
HETATM   26  O3  UNL     1       5.651  -0.003  -0.376  1.00  0.00    -0.284 OA
ENDBRANCH  23  25
ENDBRANCH   6  23
BRANCH  10  27
HETATM   27  O4  UNL     1       1.141  -3.017  -0.509  1.00  0.00    -0.393 OA
ATOM     28  H4  UNL     1       1.152  -3.591   0.248  1.00  0.00     0.210 HD
ENDBRANCH  10  27
TORSDOF 9
