REMARK  6 active torsions:
REMARK  status: ('A' for Active; 'I' for Inactive)
REMARK    1  A    between atoms: C9_11  and  S1_12 
REMARK    2  A    between atoms: S1_12  and  C10_13 
REMARK    3  A    between atoms: C10_13  and  C11_14 
REMARK    4  A    between atoms: C11_14  and  C12_15 
REMARK    5  A    between atoms: C12_15  and  C13_16 
REMARK    6  A    between atoms: C13_16  and  C14_17 
ROOT
HETATM    1  C1  UNL     1       1.752   0.530   2.290  1.00  0.00     0.023 C 
HETATM    2  C2  UNL     1       1.431   0.483   0.988  1.00  0.00    -0.011 C 
HETATM    3  C3  UNL     1      -0.043   0.391   0.754  1.00  0.00     0.185 C 
HETATM    4  O1  UNL     1      -0.667  -0.646   0.950  1.00  0.00    -0.287 OA
HETATM    5  C4  UNL     1      -0.710   1.650   0.272  1.00  0.00     0.010 C 
HETATM    6  C5  UNL     1       0.118   2.668  -0.032  1.00  0.00    -0.009 C 
HETATM    7  C6  UNL     1       0.779   2.467  -1.383  1.00  0.00     0.020 C 
HETATM    8  C7  UNL     1      -0.349   2.617  -2.423  1.00  0.00     0.088 C 
HETATM    9  C8  UNL     1      -1.677   1.934  -2.053  1.00  0.00     0.145 C 
HETATM   10  O2  UNL     1      -2.546   1.809  -2.924  1.00  0.00    -0.296 OA
HETATM   11  C9  UNL     1      -1.917   1.429  -0.606  1.00  0.00     0.153 C 
HETATM   12  C15 UNL     1       1.654   1.167  -1.502  1.00  0.00     0.003 C 
HETATM   13  C16 UNL     1       0.977  -0.053  -2.178  1.00  0.00     0.006 C 
HETATM   14  C17 UNL     1       1.525  -1.408  -1.740  1.00  0.00     0.006 C 
HETATM   15  C18 UNL     1       3.033  -1.360  -1.542  1.00  0.00     0.002 C 
HETATM   16  C19 UNL     1       3.586  -2.707  -1.056  1.00  0.00     0.013 C 
HETATM   17  C20 UNL     1       3.544  -2.643   0.460  1.00  0.00     0.079 C 
HETATM   18  C21 UNL     1       3.874  -1.198   0.697  1.00  0.00     0.136 C 
HETATM   19  O5  UNL     1       4.424  -0.795   1.715  1.00  0.00    -0.297 OA
HETATM   20  C22 UNL     1       3.481  -0.310  -0.484  1.00  0.00     0.029 C 
HETATM   21  C23 UNL     1       4.787   0.356  -0.964  1.00  0.00     0.024 C 
HETATM   22  C24 UNL     1       2.394   0.781  -0.166  1.00  0.00     0.042 C 
ENDROOT
BRANCH  11  23
HETATM   23  S1  UNL     1      -3.350   2.283   0.136  1.00  0.00    -0.152 SA
BRANCH  23  24
HETATM   24  C10 UNL     1      -4.611   0.970  -0.042  1.00  0.00     0.075 C 
BRANCH  24  25
HETATM   25  C11 UNL     1      -4.392  -0.222   0.896  1.00  0.00     0.011 C 
BRANCH  25  26
HETATM   26  C12 UNL     1      -4.570   0.114   2.383  1.00  0.00     0.011 C 
BRANCH  26  27
HETATM   27  C13 UNL     1      -3.999  -0.958   3.308  1.00  0.00     0.113 C 
BRANCH  27  28
HETATM   28  C14 UNL     1      -4.635  -2.308   3.089  1.00  0.00     0.172 C 
HETATM   29  O3  UNL     1      -5.746  -2.610   3.499  1.00  0.00    -0.648 OA
HETATM   30  O4  UNL     1      -3.873  -3.154   2.362  1.00  0.00    -0.648 OA
ENDBRANCH  27  28
ENDBRANCH  26  27
ENDBRANCH  25  26
ENDBRANCH  24  25
ENDBRANCH  23  24
ENDBRANCH  11  23
TORSDOF 6
