REMARK  16 active torsions:
REMARK  status: ('A' for Active; 'I' for Inactive)
REMARK    1  A    between atoms: C2_2  and  C3_3 
REMARK    2  A    between atoms: C4_6  and  C5_7 
REMARK    3  A    between atoms: C9_11  and  C10_12 
REMARK    4  A    between atoms: C15_21  and  C16_22 
REMARK    5  A    between atoms: C17_23  and  C18_24 
REMARK    6  A    between atoms: C18_24  and  N4_25 
REMARK    7  A    between atoms: N4_25  and  C20_27 
REMARK    8  A    between atoms: C20_27  and  C21_28 
REMARK    9  A    between atoms: C27_34  and  C28_35 
REMARK       I    between atoms: C28_35  and  N5_37 
REMARK   10  A    between atoms: C29_39  and  C30_40 
REMARK   11  A    between atoms: C30_40  and  C31_41 
REMARK   12  A    between atoms: C35_45  and  C36_46 
REMARK   13  A    between atoms: C36_46  and  N6_47 
REMARK   14  A    between atoms: N6_47  and  N7_49 
REMARK   15  A    between atoms: C38_53  and  C39_54 
REMARK   16  A    between atoms: C39_54  and  C40_55 
ROOT
HETATM    1  C3  UNL     1       0.148  -0.093  -1.106  1.00  0.00     0.080 C 
HETATM    2  N1  UNL     1      -0.654  -0.793  -0.254  1.00  0.00    -0.347 N 
ATOM      3  H1  UNL     1      -1.598  -1.112  -0.470  1.00  0.00     0.167 HD
HETATM    4  C4  UNL     1      -0.001  -1.008   0.946  1.00  0.00     0.061 C 
HETATM    5  C13 UNL     1       0.737   0.321   1.224  1.00  0.00     0.069 C 
HETATM    6  C14 UNL     1       1.999   0.242   2.095  1.00  0.00     0.040 C 
HETATM    7  C15 UNL     1      -0.061   1.718   1.536  1.00  0.00     0.052 C 
HETATM    8  C27 UNL     1      -0.152   2.461   0.168  1.00  0.00     0.111 C 
HETATM    9  C35 UNL     1       1.202   2.048  -0.406  1.00  0.00     0.119 C 
HETATM   10  N9  UNL     1       1.163   0.580  -0.332  1.00  0.00    -0.244 NA
ENDROOT
BRANCH   9  11
HETATM   11  C36 UNL     1       1.716   2.555  -1.727  1.00  0.00     0.101 C 
BRANCH  11  12
HETATM   12  N6  UNL     1       2.989   2.607  -1.946  1.00  0.00    -0.307 N 
ATOM     13  H6  UNL     1       3.319   2.933  -2.854  1.00  0.00     0.186 HD
BRANCH  12  14
HETATM   14  N7  UNL     1       3.943   2.226  -0.967  1.00  0.00    -0.255 N 
HETATM   15  C37 UNL     1       4.357   3.038   0.022  1.00  0.00     0.207 A 
HETATM   16  N8  UNL     1       5.088   2.284   0.839  1.00  0.00    -0.353 N 
HETATM   17  C38 UNL     1       5.238   0.984   0.363  1.00  0.00     0.034 A 
ATOM     18  H8  UNL     1       5.492   2.620   1.713  1.00  0.00     0.166 HD
HETATM   19  C42 UNL     1       4.517   0.947  -0.832  1.00  0.00     0.053 A 
HETATM   20  C43 UNL     1       4.290  -0.166  -1.784  1.00  0.00     0.072 C 
BRANCH  17  21
HETATM   21  C39 UNL     1       6.040   0.004   1.163  1.00  0.00     0.059 C 
BRANCH  21  22
HETATM   22  C40 UNL     1       5.723  -1.477   0.953  1.00  0.00     0.002 C 
HETATM   23  C41 UNL     1       6.836  -2.209   0.214  1.00  0.00     0.005 C 
ENDBRANCH  21  22
ENDBRANCH  17  21
ENDBRANCH  12  14
ENDBRANCH  11  12
ENDBRANCH   9  11
BRANCH   8  24
HETATM   24  C28 UNL     1      -0.150   3.975   0.100  1.00  0.00     0.228 C 
HETATM   25  O1  UNL     1       0.911   4.597   0.223  1.00  0.00    -0.273 OA
HETATM   26  N5  UNL     1      -1.322   4.483  -0.400  1.00  0.00    -0.340 N 
HETATM   27  C29 UNL     1      -1.242   5.049  -1.558  1.00  0.00     0.064 C 
ATOM     28  H5  UNL     1      -2.202   4.418   0.111  1.00  0.00     0.167 HD
BRANCH  27  29
HETATM   29  C30 UNL     1      -2.464   5.407  -2.371  1.00  0.00     0.053 C 
BRANCH  29  30
HETATM   30  C31 UNL     1      -2.989   4.209  -3.203  1.00  0.00    -0.047 C 
HETATM   31  C32 UNL     1      -1.856   3.393  -3.849  1.00  0.00     0.015 C 
HETATM   32  C33 UNL     1      -3.827   3.268  -2.319  1.00  0.00     0.015 C 
HETATM   33  C34 UNL     1      -3.885   4.746  -4.338  1.00  0.00     0.015 C 
ENDBRANCH  29  30
ENDBRANCH  27  29
ENDBRANCH   8  24
BRANCH   7  34
HETATM   34  C16 UNL     1      -1.312   1.755   2.365  1.00  0.00    -0.021 C 
HETATM   35  C17 UNL     1      -1.834   0.812   3.168  1.00  0.00    -0.001 C 
BRANCH  35  36
HETATM   36  C18 UNL     1      -2.950   1.121   4.141  1.00  0.00     0.299 C 
BRANCH  36  37
HETATM   37  N4  UNL     1      -4.205   0.431   3.864  1.00  0.00     0.091 N 
HETATM   38  C19 UNL     1      -5.310   1.194   4.451  1.00  0.00     0.310 C 
BRANCH  37  39
HETATM   39  C20 UNL     1      -4.236  -0.936   4.411  1.00  0.00     0.310 C 
BRANCH  39  40
HETATM   40  C21 UNL     1      -3.891  -1.974   3.372  1.00  0.00    -0.030 A 
HETATM   41  C22 UNL     1      -4.616  -2.028   2.171  1.00  0.00     0.009 A 
HETATM   42  C23 UNL     1      -4.365  -3.022   1.225  1.00  0.00     0.001 A 
HETATM   43  C24 UNL     1      -3.386  -3.978   1.481  1.00  0.00     0.000 A 
HETATM   44  C25 UNL     1      -2.667  -3.946   2.677  1.00  0.00     0.001 A 
HETATM   45  C26 UNL     1      -2.921  -2.949   3.623  1.00  0.00     0.009 A 
ENDBRANCH  39  40
ENDBRANCH  37  39
ENDBRANCH  36  37
ENDBRANCH  35  36
ENDBRANCH   7  34
BRANCH   1  46
HETATM   46  C2  UNL     1      -0.080  -0.044  -2.422  1.00  0.00     0.011 C 
HETATM   47  C1  UNL     1      -1.225  -0.704  -3.149  1.00  0.00     0.039 C 
ENDBRANCH   1  46
BRANCH   4  48
HETATM   48  C5  UNL     1       0.308  -2.285   1.267  1.00  0.00     0.057 C 
HETATM   49  C6  UNL     1       1.123  -2.879   2.297  1.00  0.00     0.034 C 
HETATM   50  C7  UNL     1       1.598  -4.070   1.868  1.00  0.00     0.032 C 
HETATM   51  C8  UNL     1       1.089  -4.310   0.527  1.00  0.00     0.034 C 
HETATM   52  C9  UNL     1       1.514  -5.264  -0.315  1.00  0.00     0.054 C 
HETATM   53  N3  UNL     1       0.179  -3.290   0.280  1.00  0.00    -0.355 N 
ATOM     54  H3  UNL     1      -0.483  -3.269  -0.496  1.00  0.00     0.166 HD
BRANCH  52  55
HETATM   55  C10 UNL     1       0.957  -5.342  -1.661  1.00  0.00     0.008 A 
HETATM   56  N2  UNL     1      -0.215  -5.136  -2.134  1.00  0.00    -0.393 N 
HETATM   57  C11 UNL     1       0.144  -5.482  -3.482  1.00  0.00     0.125 A 
ATOM     58  H2  UNL     1      -1.091  -4.834  -1.707  1.00  0.00     0.159 HD
HETATM   59  C12 UNL     1       1.595  -5.617  -2.999  1.00  0.00     0.076 A 
ENDBRANCH  52  55
ENDBRANCH   4  48
TORSDOF 16
