REMARK  12 active torsions:
REMARK  status: ('A' for Active; 'I' for Inactive)
REMARK    1  A    between atoms: C2_2  and  C27_37 
REMARK    2  A    between atoms: C3_3  and  C4_4 
REMARK       I    between atoms: C4_4  and  N1_6 
REMARK    3  A    between atoms: C8_10  and  N2_11 
REMARK       I    between atoms: N2_11  and  C9_13 
REMARK    4  A    between atoms: C9_13  and  C10_15 
REMARK    5  A    between atoms: C10_15  and  C11_16 
REMARK       I    between atoms: N4_26  and  C19_27 
REMARK    6  A    between atoms: C19_27  and  C20_29 
REMARK    7  A    between atoms: C20_29  and  C21_30 
REMARK    8  A    between atoms: C21_30  and  C22_31 
REMARK    9  A    between atoms: C22_31  and  N5_32 
REMARK   10  A    between atoms: C27_37  and  C28_38 
REMARK   11  A    between atoms: C28_38  and  C29_39 
REMARK   12  A    between atoms: C29_39  and  C30_40 
ROOT
HETATM    1  C4  UNL     1       1.694  -0.489  -2.771  1.00  0.00     0.224 C 
HETATM    2  O1  UNL     1       0.973   0.175  -3.519  1.00  0.00    -0.275 OA
HETATM    3  N1  UNL     1       1.458  -1.810  -2.531  1.00  0.00    -0.235 NA
HETATM    4  C5  UNL     1       0.157  -2.175  -2.163  1.00  0.00     0.127 A 
HETATM    5  C6  UNL     1       1.410  -2.700  -1.415  1.00  0.00     0.052 A 
HETATM    6  C7  UNL     1       1.542  -4.207  -1.566  1.00  0.00     0.063 C 
HETATM    7  C8  UNL     1       0.661  -4.858  -0.455  1.00  0.00     0.179 C 
HETATM    8  C18 UNL     1       1.326  -4.503   0.882  1.00  0.00     0.249 C 
HETATM    9  O3  UNL     1       1.091  -5.146   1.909  1.00  0.00    -0.271 OA
HETATM   10  N4  UNL     1       2.050  -3.320   0.891  1.00  0.00    -0.285 N 
HETATM   11  C19 UNL     1       3.226  -3.357   1.619  1.00  0.00     0.226 C 
HETATM   12  O4  UNL     1       3.922  -4.365   1.726  1.00  0.00    -0.273 OA
HETATM   13  C26 UNL     1       1.707  -2.216  -0.012  1.00  0.00     0.162 C 
ENDROOT
BRANCH   1  14
HETATM   14  C3  UNL     1       2.781   0.232  -2.078  1.00  0.00     0.070 C 
HETATM   15  C2  UNL     1       2.460   1.312  -1.315  1.00  0.00    -0.079 C 
HETATM   16  C1  UNL     1       1.096   1.556  -0.736  1.00  0.00     0.043 C 
BRANCH  15  17
HETATM   17  C27 UNL     1       3.486   2.395  -1.052  1.00  0.00     0.034 C 
BRANCH  17  18
HETATM   18  C28 UNL     1       3.786   3.257  -2.297  1.00  0.00     0.010 C 
BRANCH  18  19
HETATM   19  C29 UNL     1       2.979   4.555  -2.454  1.00  0.00     0.053 C 
BRANCH  19  20
HETATM   20  C30 UNL     1       1.550   4.437  -3.023  1.00  0.00    -0.008 C 
HETATM   21  N6  UNL     1       0.567   4.932  -2.303  1.00  0.00    -0.377 N 
HETATM   22  C31 UNL     1       0.622   5.531  -0.947  1.00  0.00     0.150 C 
HETATM   23  C32 UNL     1      -0.792   4.983  -2.800  1.00  0.00     0.178 C 
HETATM   24  C33 UNL     1      -1.697   3.878  -2.664  1.00  0.00     0.067 C 
HETATM   25  C35 UNL     1      -1.162   5.272  -4.119  1.00  0.00     0.211 C 
HETATM   26  C34 UNL     1      -2.925   4.337  -3.120  1.00  0.00     0.113 C 
HETATM   27  N10 UNL     1      -1.295   2.587  -2.919  1.00  0.00    -0.300 N 
HETATM   28  N7  UNL     1      -2.549   5.328  -4.057  1.00  0.00    -0.374 N 
ATOM     29  H7  UNL     1      -3.166   5.952  -4.577  1.00  0.00     0.161 HD
HETATM   30  N9  UNL     1      -0.361   2.451  -4.010  1.00  0.00    -0.289 N 
ATOM     31  H10 UNL     1      -1.631   1.789  -2.379  1.00  0.00     0.186 HD
HETATM   32  C36 UNL     1       0.218   3.513  -4.785  1.00  0.00     0.098 C 
ATOM     33  H9  UNL     1      -0.083   1.501  -4.257  1.00  0.00     0.188 HD
HETATM   34  N8  UNL     1      -0.590   4.625  -5.199  1.00  0.00    -0.355 N 
HETATM   35  C37 UNL     1       1.475   3.876  -4.455  1.00  0.00     0.129 C 
ATOM     36  H8  UNL     1      -0.726   4.904  -6.171  1.00  0.00     0.163 HD
ENDBRANCH  19  20
ENDBRANCH  18  19
ENDBRANCH  17  18
ENDBRANCH  15  17
ENDBRANCH   1  14
BRANCH   7  37
HETATM   37  N2  UNL     1      -0.741  -4.424  -0.668  1.00  0.00    -0.348 N 
HETATM   38  C9  UNL     1      -1.848  -4.540   0.113  1.00  0.00     0.218 C 
HETATM   39  O2  UNL     1      -2.903  -4.823  -0.453  1.00  0.00    -0.274 OA
ATOM     40  H2  UNL     1      -0.904  -3.955  -1.559  1.00  0.00     0.163 HD
BRANCH  38  41
HETATM   41  C10 UNL     1      -1.830  -4.113   1.565  1.00  0.00     0.107 C 
BRANCH  41  42
HETATM   42  C11 UNL     1      -2.863  -3.000   1.896  1.00  0.00    -0.003 C 
HETATM   43  C12 UNL     1      -4.339  -3.371   1.654  1.00  0.00     0.033 C 
HETATM   44  C13 UNL     1      -4.934  -2.714   0.407  1.00  0.00     0.237 C 
HETATM   45  N3  UNL     1      -4.857  -1.165   0.499  1.00  0.00    -0.075 N 
HETATM   46  C14 UNL     1      -4.779  -0.607  -0.925  1.00  0.00     0.272 C 
HETATM   47  C15 UNL     1      -6.153  -0.635   1.129  1.00  0.00     0.272 C 
HETATM   48  C16 UNL     1      -3.666  -0.683   1.323  1.00  0.00     0.237 C 
HETATM   49  C17 UNL     1      -2.502  -1.663   1.232  1.00  0.00     0.033 C 
ENDBRANCH  41  42
ENDBRANCH  38  41
ENDBRANCH   7  37
BRANCH  11  50
HETATM   50  C20 UNL     1       3.618  -2.097   2.355  1.00  0.00     0.105 C 
BRANCH  50  51
HETATM   51  C21 UNL     1       2.853  -2.036   3.676  1.00  0.00     0.037 C 
BRANCH  51  52
HETATM   52  C22 UNL     1       3.172  -0.760   4.462  1.00  0.00     0.236 C 
BRANCH  52  53
HETATM   53  N5  UNL     1       2.013   0.251   4.504  1.00  0.00    -0.079 N 
HETATM   54  C23 UNL     1       2.531   1.498   5.243  1.00  0.00     0.271 C 
HETATM   55  C24 UNL     1       1.562   0.664   3.129  1.00  0.00     0.271 C 
HETATM   56  C25 UNL     1       0.837  -0.297   5.308  1.00  0.00     0.271 C 
ENDBRANCH  52  53
ENDBRANCH  51  52
ENDBRANCH  50  51
ENDBRANCH  11  50
TORSDOF 12
