REMARK  10 active torsions:
REMARK  status: ('A' for Active; 'I' for Inactive)
REMARK    1  A    between atoms: C2_2  and  N1_3 
REMARK    2  A    between atoms: C2_2  and  C3_9 
REMARK    3  A    between atoms: N1_3  and  N2_5 
REMARK    4  A    between atoms: N2_5  and  N3_6 
REMARK    5  A    between atoms: C3_9  and  N4_11 
REMARK    6  A    between atoms: N4_11  and  C5_13 
REMARK    7  A    between atoms: C8_16  and  N5_17 
REMARK    8  A    between atoms: N5_17  and  C9_19 
REMARK    9  A    between atoms: C9_19  and  S1_23 
REMARK   10  A    between atoms: S1_23  and  C10_24 
ROOT
HETATM    1  C5  UNL     1       1.299  -0.562   0.533  1.00  0.00     0.105 C 
HETATM    2  C6  UNL     1       1.767   0.560  -0.453  1.00  0.00     0.021 C 
HETATM    3  C7  UNL     1       1.906   1.971   0.124  1.00  0.00     0.038 C 
HETATM    4  C8  UNL     1       0.391   2.098   0.127  1.00  0.00     0.040 C 
HETATM    5  C13 UNL     1      -0.333   1.336   1.231  1.00  0.00     0.060 C 
HETATM    6  C14 UNL     1      -0.174   0.017   0.429  1.00  0.00     0.066 C 
HETATM    7 CL1  UNL     1      -1.663  -0.924   0.371  1.00  0.00    -0.116 Cl
HETATM    8  C15 UNL     1       0.299   0.856  -0.761  1.00  0.00     0.045 C 
ENDROOT
BRANCH   1   9
HETATM    9  N4  UNL     1       1.575  -1.770  -0.270  1.00  0.00    -0.409 N 
ATOM     10  H4  UNL     1       2.259  -1.754  -1.026  1.00  0.00     0.154 HD
BRANCH   9  11
HETATM   11  C3  UNL     1       0.835  -2.994   0.053  1.00  0.00     0.097 C 
HETATM   12  C4  UNL     1       0.037  -3.310  -1.225  1.00  0.00     0.034 C 
BRANCH  11  13
HETATM   13  C2  UNL     1       1.751  -4.204   0.402  1.00  0.00     0.132 C 
HETATM   14  C1  UNL     1       2.570  -3.991   1.677  1.00  0.00     0.037 C 
BRANCH  13  15
HETATM   15  N1  UNL     1       0.912  -5.389   0.628  1.00  0.00    -0.246 N 
ATOM     16  H1  UNL     1       0.136  -5.381   1.290  1.00  0.00     0.197 HD
BRANCH  15  17
HETATM   17  N2  UNL     1       1.203  -6.407  -0.036  1.00  0.00    -0.248 NA
BRANCH  17  18
HETATM   18  N3  UNL     1       1.481  -7.324  -0.640  1.00  0.00    -0.261 N 
ATOM     19  H32 UNL     1       1.814  -6.431  -0.276  1.00  0.00     0.193 HD
ATOM     20  H31 UNL     1       1.719  -8.155  -1.182  1.00  0.00     0.193 HD
ENDBRANCH  17  18
ENDBRANCH  15  17
ENDBRANCH  13  15
ENDBRANCH  11  13
ENDBRANCH   9  11
ENDBRANCH   1   9
BRANCH   4  21
HETATM   21  N5  UNL     1      -0.259   3.170  -0.551  1.00  0.00    -0.361 N 
ATOM     22  H5  UNL     1      -0.280   3.184  -1.571  1.00  0.00     0.162 HD
BRANCH  21  23
HETATM   23  C9  UNL     1      -0.818   4.118   0.110  1.00  0.00     0.134 C 
HETATM   24  N6  UNL     1      -0.728   4.459   1.424  1.00  0.00    -0.380 N 
ATOM     25  H62 UNL     1      -0.095   3.879   1.975  1.00  0.00     0.158 HD
ATOM     26  H61 UNL     1      -1.172   5.212   1.949  1.00  0.00     0.158 HD
BRANCH  23  27
HETATM   27  S1  UNL     1      -1.903   5.112  -0.835  1.00  0.00    -0.090 SA
BRANCH  27  28
HETATM   28  C10 UNL     1      -3.366   4.166  -0.684  1.00  0.00     0.055 A 
HETATM   29  C11 UNL     1      -3.400   2.672  -0.880  1.00  0.00     0.017 A 
HETATM   30  C12 UNL     1      -3.988   3.568  -1.924  1.00  0.00     0.017 A 
ENDBRANCH  27  28
ENDBRANCH  23  27
ENDBRANCH  21  23
ENDBRANCH   4  21
TORSDOF 10
