REMARK  9 active torsions:
REMARK  status: ('A' for Active; 'I' for Inactive)
REMARK    1  A    between atoms: C2_2  and  C3_3 
REMARK    2  A    between atoms: C3_3  and  N1_4 
REMARK    3  A    between atoms: N1_4  and  C4_5 
REMARK    4  A    between atoms: N1_4  and  C7_8 
REMARK    5  A    between atoms: C4_5  and  C5_6 
REMARK    6  A    between atoms: C7_8  and  C8_9 
REMARK    7  A    between atoms: C8_9  and  C9_10 
REMARK    8  A    between atoms: C9_10  and  N2_11 
REMARK    9  A    between atoms: C13_19  and  C14_20 
ROOT
HETATM    1  N2  UNL     1       2.482  -1.293   0.555  1.00  0.00    -0.322 N 
HETATM    2  C10 UNL     1       3.035  -1.557   1.824  1.00  0.00     0.251 C 
HETATM    3  O1  UNL     1       2.889  -2.466   2.598  1.00  0.00    -0.271 OA
HETATM    4  C11 UNL     1       3.852  -0.274   2.040  1.00  0.00     0.250 C 
HETATM    5  N3  UNL     1       3.154   0.778   2.404  1.00  0.00    -0.339 N 
ATOM      6  H3  UNL     1       3.093   1.225   3.319  1.00  0.00     0.163 HD
HETATM    7  C12 UNL     1       2.506   1.129   1.190  1.00  0.00     0.259 C 
HETATM    8  O2  UNL     1       1.764   2.084   1.020  1.00  0.00    -0.270 OA
HETATM    9  C13 UNL     1       2.954   0.065   0.074  1.00  0.00     0.197 C 
HETATM   10  C16 UNL     1       4.344  -0.073   0.650  1.00  0.00     0.200 C 
HETATM   11  O3  UNL     1       5.475   0.098   0.276  1.00  0.00    -0.291 OA
ENDROOT
BRANCH   1  12
HETATM   12  C9  UNL     1       1.279  -1.982   0.110  1.00  0.00     0.130 C 
BRANCH  12  13
HETATM   13  C8  UNL     1      -0.031  -1.412   0.667  1.00  0.00     0.050 C 
BRANCH  13  14
HETATM   14  C7  UNL     1      -0.663  -0.366  -0.265  1.00  0.00     0.275 C 
BRANCH  14  15
HETATM   15  N1  UNL     1      -1.916   0.176   0.276  1.00  0.00     0.095 N 
BRANCH  15  16
HETATM   16  C3  UNL     1      -2.161   1.546  -0.203  1.00  0.00     0.299 C 
BRANCH  16  17
HETATM   17  C2  UNL     1      -2.344   1.696  -1.691  1.00  0.00    -0.007 C 
HETATM   18  C1  UNL     1      -1.512   2.380  -2.489  1.00  0.00     0.008 C 
ENDBRANCH  16  17
ENDBRANCH  15  16
BRANCH  15  19
HETATM   19  C4  UNL     1      -3.055  -0.733   0.100  1.00  0.00     0.299 C 
BRANCH  19  20
HETATM   20  C5  UNL     1      -4.213  -0.377   0.994  1.00  0.00    -0.007 C 
HETATM   21  C6  UNL     1      -4.635  -1.117   2.029  1.00  0.00     0.008 C 
ENDBRANCH  19  20
ENDBRANCH  15  19
ENDBRANCH  14  15
ENDBRANCH  13  14
ENDBRANCH  12  13
ENDBRANCH   1  12
BRANCH   9  22
HETATM   22  C14 UNL     1       2.779   0.337  -1.373  1.00  0.00     0.012 C 
HETATM   23  C15 UNL     1       3.539   1.164  -2.106  1.00  0.00     0.010 C 
ENDBRANCH   9  22
TORSDOF 9
