REMARK  15 active torsions:
REMARK  status: ('A' for Active; 'I' for Inactive)
REMARK    1  A    between atoms: C4_4  and  O1_5 
REMARK    2  A    between atoms: C4_4  and  C5_7 
REMARK       I    between atoms: C5_7  and  N1_8 
REMARK    3  A    between atoms: C6_12  and  C7_13 
REMARK    4  A    between atoms: C8_15  and  O4_16 
REMARK    5  A    between atoms: O4_16  and  C9_17 
REMARK    6  A    between atoms: C9_17  and  C10_19 
REMARK    7  A    between atoms: C10_19  and  C11_20 
REMARK    8  A    between atoms: C11_20  and  C12_21 
REMARK    9  A    between atoms: C12_21  and  C13_22 
REMARK   10  A    between atoms: C13_22  and  C14_23 
REMARK   11  A    between atoms: C14_23  and  C15_24 
REMARK   12  A    between atoms: C15_24  and  C16_25 
REMARK   13  A    between atoms: C16_25  and  C17_26 
REMARK   14  A    between atoms: N2_27  and  N3_29 
REMARK   15  A    between atoms: C27_41  and  O8_42 
ROOT
HETATM    1  C1  UNL     1      -4.218  -0.285  -2.450  1.00  0.00     0.016 C 
HETATM    2  C2  UNL     1      -2.973   0.070  -1.558  1.00  0.00    -0.030 C 
HETATM    3  C3  UNL     1      -2.224  -1.277  -1.334  1.00  0.00     0.059 C 
HETATM    4  C4  UNL     1      -2.563  -2.200  -0.129  1.00  0.00     0.150 C 
HETATM    5  C6  UNL     1      -1.458  -2.403   0.976  1.00  0.00     0.120 C 
HETATM    6  C8  UNL     1      -0.764  -1.185   1.651  1.00  0.00     0.146 C 
HETATM    7  C18 UNL     1      -0.215  -0.173   0.650  1.00  0.00     0.039 C 
HETATM    8  C19 UNL     1       0.279   1.119   1.167  1.00  0.00     0.008 A 
HETATM    9  C20 UNL     1       0.438   2.300   0.214  1.00  0.00     0.006 A 
HETATM   10  C21 UNL     1      -0.065   2.548  -1.192  1.00  0.00     0.006 C 
HETATM   11  C22 UNL     1      -0.550   1.423  -2.110  1.00  0.00     0.006 C 
HETATM   12  C23 UNL     1      -2.076   1.194  -2.291  1.00  0.00    -0.005 C 
HETATM   13  C24 UNL     1      -3.061   2.252  -1.730  1.00  0.00     0.014 C 
HETATM   14  C25 UNL     1      -3.398   1.276  -0.566  1.00  0.00     0.019 C 
HETATM   15  C26 UNL     1      -2.957   1.515   0.886  1.00  0.00     0.011 C 
HETATM   16  C27 UNL     1      -2.004   2.635   1.290  1.00  0.00     0.049 C 
HETATM   17  C28 UNL     1      -0.490   2.419   1.430  1.00  0.00     0.013 A 
HETATM   18  C29 UNL     1       0.067   3.231   2.604  1.00  0.00     0.023 C 
ENDROOT
BRANCH   6  19
HETATM   19  O4  UNL     1       0.310  -1.490   2.599  1.00  0.00    -0.315 OA
BRANCH  19  20
HETATM   20  C9  UNL     1       0.904  -2.686   2.799  1.00  0.00     0.259 C 
HETATM   21  O5  UNL     1       0.885  -3.208   3.908  1.00  0.00    -0.265 OA
BRANCH  20  22
HETATM   22  C10 UNL     1       1.687  -3.244   1.638  1.00  0.00     0.111 C 
BRANCH  22  23
HETATM   23  C11 UNL     1       3.166  -3.439   1.992  1.00  0.00     0.010 C 
BRANCH  23  24
HETATM   24  C12 UNL     1       4.017  -2.166   1.893  1.00  0.00     0.000 C 
BRANCH  24  25
HETATM   25  C13 UNL     1       4.218  -1.702   0.447  1.00  0.00     0.000 C 
BRANCH  25  26
HETATM   26  C14 UNL     1       5.189  -0.521   0.354  1.00  0.00     0.000 C 
BRANCH  26  27
HETATM   27  C15 UNL     1       5.139   0.160  -1.018  1.00  0.00     0.005 C 
BRANCH  27  28
HETATM   28  C16 UNL     1       3.933   1.091  -1.145  1.00  0.00     0.046 C 
BRANCH  28  29
HETATM   29  C17 UNL     1       3.699   1.470  -2.584  1.00  0.00     0.086 C 
HETATM   30  N2  UNL     1       3.714   2.710  -2.932  1.00  0.00    -0.256 N 
ATOM     31  H2  UNL     1       3.897   3.471  -2.277  1.00  0.00     0.192 HD
BRANCH  30  32
HETATM   32  N3  UNL     1       3.465   2.909  -4.242  1.00  0.00    -0.040 N 
HETATM   33  O6  UNL     1       4.152   2.315  -5.086  1.00  0.00    -0.516 OA
HETATM   34  O7  UNL     1       2.552   3.687  -4.540  1.00  0.00    -0.516 OA
ENDBRANCH  30  32
ENDBRANCH  28  29
ENDBRANCH  27  28
ENDBRANCH  26  27
ENDBRANCH  25  26
ENDBRANCH  24  25
ENDBRANCH  23  24
ENDBRANCH  22  23
ENDBRANCH  20  22
ENDBRANCH  19  20
ENDBRANCH   6  19
BRANCH   5  35
HETATM   35  C7  UNL     1      -2.040  -3.270   2.084  1.00  0.00     0.241 C 
HETATM   36  O3  UNL     1      -1.951  -4.494   2.104  1.00  0.00    -0.306 OA
ENDBRANCH   5  35
BRANCH   4  37
HETATM   37  O1  UNL     1      -2.552  -3.526  -0.786  1.00  0.00    -0.379 OA
ATOM     38  H1  UNL     1      -2.759  -4.090  -0.050  1.00  0.00     0.211 HD
ENDBRANCH   4  37
BRANCH   4  39
HETATM   39  C5  UNL     1      -4.037  -2.140   0.347  1.00  0.00     0.251 C 
HETATM   40  N1  UNL     1      -4.396  -1.336   1.376  1.00  0.00    -0.368 N 
ATOM     41  H12 UNL     1      -3.671  -0.788   1.840  1.00  0.00     0.159 HD
ATOM     42  H11 UNL     1      -5.366  -1.297   1.689  1.00  0.00     0.159 HD
HETATM   43  O2  UNL     1      -4.912  -2.802  -0.213  1.00  0.00    -0.270 OA
ENDBRANCH   4  39
BRANCH  16  44
HETATM   44  O8  UNL     1      -2.290   3.849   0.615  1.00  0.00    -0.364 OA
ATOM     45  H8  UNL     1      -1.696   4.547   0.867  1.00  0.00     0.217 HD
ENDBRANCH  16  44
TORSDOF 15
