REMARK  14 active torsions:
REMARK  status: ('A' for Active; 'I' for Inactive)
REMARK    1  A    between atoms: C2_2  and  O1_3 
REMARK    2  A    between atoms: C8_12  and  O4_13 
REMARK    3  A    between atoms: N2_22  and  C15_23 
REMARK    4  A    between atoms: C15_23  and  C16_24 
REMARK    5  A    between atoms: C16_24  and  C17_25 
REMARK    6  A    between atoms: C17_25  and  C18_26 
REMARK    7  A    between atoms: C18_26  and  C19_27 
REMARK    8  A    between atoms: C19_27  and  C20_28 
REMARK    9  A    between atoms: C20_28  and  C21_29 
REMARK   10  A    between atoms: C21_29  and  C22_30 
REMARK   11  A    between atoms: C22_30  and  C23_31 
REMARK   12  A    between atoms: C23_31  and  C24_32 
REMARK   13  A    between atoms: C24_32  and  N3_33 
REMARK   14  A    between atoms: C32_41  and  O5_42 
ROOT
HETATM    1  C1  UNL     1       2.450   4.312  -0.619  1.00  0.00     0.082 C 
HETATM    2  C2  UNL     1       2.932   3.112   0.179  1.00  0.00     0.186 C 
HETATM    3  O2  UNL     1       1.857   2.655   1.021  1.00  0.00    -0.341 OA
HETATM    4  C3  UNL     1       1.992   1.218   1.169  1.00  0.00     0.080 A 
HETATM    5  C4  UNL     1       2.162   0.817   2.597  1.00  0.00     0.047 C 
HETATM    6  C5  UNL     1       1.322   0.443   0.057  1.00  0.00     0.068 A 
HETATM    7  C6  UNL     1       0.722  -0.958   0.028  1.00  0.00     0.170 C 
HETATM    8  O3  UNL     1       1.165  -1.656   1.235  1.00  0.00    -0.338 OA
HETATM    9  C7  UNL     1       2.126  -2.659   1.100  1.00  0.00     0.125 C 
HETATM   10  C8  UNL     1       1.799  -3.851   1.762  1.00  0.00     0.100 C 
HETATM   11  C9  UNL     1       1.979  -5.057   1.106  1.00  0.00     0.036 C 
HETATM   12  C10 UNL     1       2.222  -4.984  -0.264  1.00  0.00    -0.013 C 
HETATM   13  C11 UNL     1       2.404  -3.709  -0.827  1.00  0.00     0.063 C 
HETATM   14  C12 UNL     1       2.941  -2.719  -0.014  1.00  0.00     0.051 C 
HETATM   15  N1  UNL     1       3.700  -1.650  -0.512  1.00  0.00    -0.379 N 
HETATM   16  C13 UNL     1       4.030  -1.535  -1.980  1.00  0.00     0.153 C 
HETATM   17  C14 UNL     1       2.842  -1.267  -3.060  1.00  0.00     0.292 C 
HETATM   18  N2  UNL     1       1.447  -0.799  -2.651  1.00  0.00     0.097 N 
HETATM   19  C28 UNL     1       1.004  -1.591  -1.457  1.00  0.00     0.253 C 
HETATM   20  C29 UNL     1       1.129  -3.159  -1.593  1.00  0.00     0.053 C 
HETATM   21  C30 UNL     1       3.884  -0.438   0.319  1.00  0.00     0.139 C 
HETATM   22  C31 UNL     1       2.865   0.680   0.049  1.00  0.00     0.047 A 
HETATM   23  C32 UNL     1       3.321   1.901  -0.741  1.00  0.00     0.193 C 
ENDROOT
BRANCH  18  24
HETATM   24  C15 UNL     1       0.512  -0.760  -3.774  1.00  0.00     0.273 C 
BRANCH  24  25
HETATM   25  C16 UNL     1      -0.691   0.148  -3.464  1.00  0.00     0.030 C 
BRANCH  25  26
HETATM   26  C17 UNL     1      -1.954  -0.611  -3.050  1.00  0.00     0.002 C 
BRANCH  26  27
HETATM   27  C18 UNL     1      -2.962   0.237  -2.262  1.00  0.00     0.000 C 
BRANCH  27  28
HETATM   28  C19 UNL     1      -3.297   1.605  -2.864  1.00  0.00     0.000 C 
BRANCH  28  29
HETATM   29  C20 UNL     1      -4.329   2.404  -2.049  1.00  0.00     0.000 C 
BRANCH  29  30
HETATM   30  C21 UNL     1      -3.923   2.617  -0.582  1.00  0.00     0.000 C 
BRANCH  30  31
HETATM   31  C22 UNL     1      -4.608   1.619   0.363  1.00  0.00     0.002 C 
BRANCH  31  32
HETATM   32  C23 UNL     1      -3.946   1.561   1.750  1.00  0.00     0.028 C 
BRANCH  32  33
HETATM   33  C24 UNL     1      -3.620   0.113   2.131  1.00  0.00     0.236 C 
BRANCH  33  34
HETATM   34  N3  UNL     1      -2.846  -0.036   3.451  1.00  0.00    -0.079 N 
HETATM   35  C25 UNL     1      -2.676  -1.537   3.726  1.00  0.00     0.271 C 
HETATM   36  C26 UNL     1      -3.602   0.585   4.622  1.00  0.00     0.271 C 
HETATM   37  C27 UNL     1      -1.456   0.587   3.349  1.00  0.00     0.271 C 
ENDBRANCH  33  34
ENDBRANCH  32  33
ENDBRANCH  31  32
ENDBRANCH  30  31
ENDBRANCH  29  30
ENDBRANCH  28  29
ENDBRANCH  27  28
ENDBRANCH  26  27
ENDBRANCH  25  26
ENDBRANCH  24  25
ENDBRANCH  18  24
BRANCH  23  38
HETATM   38  O5  UNL     1       4.720   1.903  -1.012  1.00  0.00    -0.389 OA
ATOM     39  H5  UNL     1       4.955   1.170  -1.569  1.00  0.00     0.210 HD
ENDBRANCH  23  38
BRANCH  10  40
HETATM   40  O4  UNL     1       1.141  -3.833   2.957  1.00  0.00    -0.358 OA
ATOM     41  H4  UNL     1       0.919  -4.641   3.406  1.00  0.00     0.217 HD
ENDBRANCH  10  40
BRANCH   2  42
HETATM   42  O1  UNL     1       4.032   3.520   0.991  1.00  0.00    -0.363 OA
ATOM     43  H1  UNL     1       4.333   2.770   1.490  1.00  0.00     0.213 HD
ENDBRANCH   2  42
TORSDOF 14
