REMARK  0 active torsions:
REMARK  status: ('A' for Active; 'I' for Inactive)
ROOT
HETATM    1  C1  UNL     1       1.450   0.032   0.655  1.00  0.00     0.204 A 
HETATM    2  O1  UNL     1       0.613  -1.020   1.207  1.00  0.00    -0.380 OA
HETATM    3  C2  UNL     1      -0.289  -0.912   0.079  1.00  0.00     0.179 A 
HETATM    4  C3  UNL     1      -1.422   0.118   0.100  1.00  0.00     0.266 C 
HETATM    5  N1  UNL     1      -0.503   1.151  -0.416  1.00  0.00    -0.064 N 
ATOM      6  H11 UNL     1      -0.325   1.989   0.138  1.00  0.00     0.277 HD
ATOM      7  H12 UNL     1      -0.786   1.726  -1.210  1.00  0.00     0.277 HD
HETATM    8  C4  UNL     1       0.563   0.154  -0.586  1.00  0.00     0.240 A 
ENDROOT
TORSDOF 0
