REMARK  6 active torsions:
REMARK  status: ('A' for Active; 'I' for Inactive)
REMARK    1  A    between atoms: C1_2  and  C2_4 
REMARK    2  A    between atoms: C2_4  and  C3_5 
REMARK    3  A    between atoms: C6_9  and  O3_10 
REMARK    4  A    between atoms: C13_18  and  C14_19 
REMARK    5  A    between atoms: C14_19  and  C15_20 
REMARK    6  A    between atoms: C15_20  and  C16_22 
REMARK       I    between atoms: C16_22  and  N1_24 
ROOT
HETATM    1  C3  UNL     1      -0.008  -1.647  -0.033  1.00  0.00     0.050 C 
HETATM    2  C4  UNL     1      -0.144  -1.250   1.684  1.00  0.00     0.068 C 
HETATM    3 BR1  UNL     1       0.161  -2.847   2.834  1.00  0.00    -0.091 Br
HETATM    4  C5  UNL     1       0.608   0.046   2.488  1.00  0.00     0.056 C 
HETATM    5  C6  UNL     1       2.126   0.391   2.114  1.00  0.00     0.096 C 
HETATM    6  C7  UNL     1       2.750   1.220   0.836  1.00  0.00     0.047 A 
HETATM    7  C8  UNL     1       3.659   0.263   0.251  1.00  0.00     0.023 A 
HETATM    8  C9  UNL     1       2.969   1.102  -1.447  1.00  0.00     0.020 A 
HETATM    9  C10 UNL     1       1.492   1.355  -0.829  1.00  0.00     0.245 A 
HETATM   10  C11 UNL     1       2.456   0.048  -0.734  1.00  0.00     0.017 A 
HETATM   11  C12 UNL     1       1.787  -0.017  -1.995  1.00  0.00     0.050 A 
HETATM   12  C13 UNL     1       0.400  -0.486  -1.077  1.00  0.00     0.178 C 
HETATM   13  N2  UNL     1       0.761   0.371   0.021  1.00  0.00     0.114 N 
HETATM   14  C20 UNL     1       2.059  -0.531   1.026  1.00  0.00     0.269 C 
ENDROOT
BRANCH  12  15
HETATM   15  C14 UNL     1      -0.774  -0.272  -2.068  1.00  0.00     0.131 C 
BRANCH  15  16
HETATM   16  C15 UNL     1      -1.117   1.146  -2.437  1.00  0.00     0.213 C 
HETATM   17  O4  UNL     1      -1.118   1.551  -3.594  1.00  0.00    -0.288 OA
BRANCH  16  18
HETATM   18  C16 UNL     1      -1.556   2.062  -1.302  1.00  0.00     0.269 C 
HETATM   19  O5  UNL     1      -1.071   3.181  -1.193  1.00  0.00    -0.271 OA
HETATM   20  N1  UNL     1      -2.486   1.480  -0.447  1.00  0.00    -0.247 NA
HETATM   21  C17 UNL     1      -3.937   1.690  -0.681  1.00  0.00     0.100 C 
HETATM   22  C19 UNL     1      -2.619   1.972   0.939  1.00  0.00     0.100 C 
HETATM   23  C18 UNL     1      -3.934   2.620   0.529  1.00  0.00     0.030 C 
ENDBRANCH  16  18
ENDBRANCH  15  16
ENDBRANCH  12  15
BRANCH   1  24
HETATM   24  C2  UNL     1       0.500  -3.036  -0.459  1.00  0.00     0.121 C 
BRANCH  24  25
HETATM   25  C1  UNL     1      -0.649  -3.987  -0.717  1.00  0.00     0.173 C 
HETATM   26  O1  UNL     1      -0.966  -4.452  -1.801  1.00  0.00    -0.648 OA
HETATM   27  O2  UNL     1      -1.359  -4.267   0.388  1.00  0.00    -0.648 OA
ENDBRANCH  24  25
ENDBRANCH   1  24
BRANCH   5  28
HETATM   28  O3  UNL     1       3.025   0.092   3.192  1.00  0.00    -0.387 OA
ATOM     29  H3  UNL     1       3.926   0.297   2.970  1.00  0.00     0.210 HD
ENDBRANCH   5  28
TORSDOF 6
