REMARK  6 active torsions:
REMARK  status: ('A' for Active; 'I' for Inactive)
REMARK    1  A    between atoms: C2_2  and  C3_3 
REMARK    2  A    between atoms: C3_3  and  C4_4 
REMARK    3  A    between atoms: C4_4  and  C5_5 
REMARK    4  A    between atoms: C7_7  and  C8_8 
REMARK    5  A    between atoms: C12_13  and  O2_14 
REMARK    6  A    between atoms: C23_28  and  O5_29 
REMARK       I    between atoms: N1_31  and  C25_32 
ROOT
HETATM    1  C5  UNL     1      -1.958  -0.123  -0.901  1.00  0.00     0.099 C 
HETATM    2  C6  UNL     1      -0.792  -0.222   0.243  1.00  0.00     0.028 C 
HETATM    3  C7  UNL     1       0.421  -1.265   0.095  1.00  0.00     0.051 C 
HETATM    4  C12 UNL     1       2.021  -0.919   0.564  1.00  0.00     0.134 C 
HETATM    5  C13 UNL     1       2.855   0.526   0.195  1.00  0.00     0.083 C 
HETATM    6  C14 UNL     1       3.049   1.439   1.393  1.00  0.00     0.142 C 
HETATM    7  O3  UNL     1       4.200   2.224   1.647  1.00  0.00    -0.384 OA
HETATM    8  C15 UNL     1       3.705   3.168   2.656  1.00  0.00     0.169 C 
HETATM    9  C16 UNL     1       2.159   3.172   2.518  1.00  0.00     0.041 C 
HETATM   10  C17 UNL     1       2.013   2.497   1.164  1.00  0.00     0.017 C 
HETATM   11  C18 UNL     1       2.299   3.552   0.029  1.00  0.00     0.181 C 
HETATM   12  O4  UNL     1       1.186   3.543  -0.890  1.00  0.00    -0.376 OA
HETATM   13  C19 UNL     1       1.067   2.272  -1.524  1.00  0.00     0.203 C 
HETATM   14  C20 UNL     1      -0.290   1.474  -1.342  1.00  0.00     0.030 C 
HETATM   15  C21 UNL     1      -0.381   1.211   0.140  1.00  0.00     0.049 C 
HETATM   16  C22 UNL     1       0.940   1.516   0.701  1.00  0.00     0.047 C 
HETATM   17  C23 UNL     1       1.857   1.170  -0.745  1.00  0.00     0.105 C 
HETATM   18  N1  UNL     1      -1.606   1.151  -1.722  1.00  0.00    -0.304 N 
HETATM   19  C25 UNL     1      -2.088   1.542  -2.962  1.00  0.00     0.321 C 
HETATM   20  O6  UNL     1      -1.591   2.506  -3.540  1.00  0.00    -0.254 OA
HETATM   21 CL1  UNL     1      -3.375   0.590  -3.631  1.00  0.00    -0.019 Cl
ENDROOT
BRANCH   3  22
HETATM   22  C8  UNL     1      -0.012  -2.579   0.802  1.00  0.00     0.128 C 
HETATM   23  C9  UNL     1       0.774  -3.814   0.395  1.00  0.00     0.034 C 
HETATM   24  C10 UNL     1      -0.150  -4.925   0.841  1.00  0.00     0.029 C 
HETATM   25  C11 UNL     1      -1.529  -4.331   0.632  1.00  0.00     0.168 C 
HETATM   26  O1  UNL     1      -1.375  -2.914   0.482  1.00  0.00    -0.385 OA
ENDBRANCH   3  22
BRANCH   4  27
HETATM   27  O2  UNL     1       2.208  -1.256   1.938  1.00  0.00    -0.395 OA
ATOM     28  H2  UNL     1       3.101  -1.063   2.200  1.00  0.00     0.210 HD
ENDBRANCH   4  27
BRANCH   1  29
HETATM   29  C4  UNL     1      -3.347   0.089  -0.263  1.00  0.00     0.030 C 
BRANCH  29  30
HETATM   30  C3  UNL     1      -4.311  -1.064  -0.537  1.00  0.00     0.028 C 
BRANCH  30  31
HETATM   31  C2  UNL     1      -5.631  -0.850   0.159  1.00  0.00    -0.037 C 
HETATM   32  C1  UNL     1      -6.728  -0.360  -0.425  1.00  0.00     0.007 C 
ENDBRANCH  30  31
ENDBRANCH  29  30
ENDBRANCH   1  29
BRANCH  17  33
HETATM   33  O5  UNL     1       1.861   0.068  -1.692  1.00  0.00    -0.381 OA
HETATM   34  C24 UNL     1       2.825   0.190  -2.744  1.00  0.00     0.202 C 
ENDBRANCH  17  33
TORSDOF 6
