REMARK  7 active torsions:
REMARK  status: ('A' for Active; 'I' for Inactive)
REMARK    1  A    between atoms: C2_2  and  O1_3 
REMARK    2  A    between atoms: O1_3  and  C3_4 
REMARK    3  A    between atoms: C3_4  and  C4_5 
REMARK    4  A    between atoms: C4_5  and  N1_6 
REMARK       I    between atoms: N1_6  and  C5_8 
REMARK    5  A    between atoms: C5_8  and  C6_10 
REMARK    6  A    between atoms: C6_10  and  N2_11 
REMARK    7  A    between atoms: N3_16  and  C10_17 
ROOT
HETATM    1  N2  UNL     1      -0.291   2.371  -1.485  1.00  0.00    -0.271 N 
HETATM    2  C7  UNL     1      -0.173   1.661  -0.286  1.00  0.00     0.260 C 
HETATM    3  O3  UNL     1      -0.825   1.912   0.729  1.00  0.00    -0.267 OA
HETATM    4  C8  UNL     1       0.838   0.585  -0.296  1.00  0.00     0.049 C 
HETATM    5  C9  UNL     1       1.157  -0.132   0.824  1.00  0.00     0.151 C 
HETATM    6  N3  UNL     1       2.383  -0.845   0.719  1.00  0.00    -0.356 N 
HETATM    7  C16 UNL     1       2.291  -1.794  -0.325  1.00  0.00     0.145 C 
HETATM    8  C17 UNL     1       2.226  -1.054  -1.627  1.00  0.00    -0.019 A 
HETATM    9  C18 UNL     1       2.770  -1.493  -2.830  1.00  0.00     0.010 A 
HETATM   10  C19 UNL     1       2.578  -0.722  -3.981  1.00  0.00     0.002 A 
HETATM   11  C20 UNL     1       1.827   0.464  -3.933  1.00  0.00     0.018 A 
HETATM   12  C21 UNL     1       1.265   0.902  -2.725  1.00  0.00     0.044 A 
HETATM   13  C22 UNL     1       1.483   0.171  -1.571  1.00  0.00     0.002 A 
HETATM   14  C23 UNL     1       0.405   2.108  -2.677  1.00  0.00     0.262 C 
HETATM   15  O4  UNL     1       0.348   2.824  -3.674  1.00  0.00    -0.267 OA
HETATM   16  C24 UNL     1       1.276  -2.702  -0.212  1.00  0.00     0.045 C 
HETATM   17  C25 UNL     1       0.223  -2.375   0.775  1.00  0.00     0.113 C 
HETATM   18  F1  UNL     1      -0.701  -3.314   1.051  1.00  0.00    -0.207 F 
HETATM   19  C26 UNL     1       0.103  -1.109   1.248  1.00  0.00     0.045 C 
ENDROOT
BRANCH   1  20
HETATM   20  C6  UNL     1      -1.194   3.522  -1.479  1.00  0.00     0.238 C 
BRANCH  20  21
HETATM   21  C5  UNL     1      -2.643   3.043  -1.608  1.00  0.00     0.236 C 
HETATM   22  N1  UNL     1      -3.184   2.594  -0.419  1.00  0.00    -0.358 N 
ATOM     23  H1  UNL     1      -2.691   2.781   0.454  1.00  0.00     0.162 HD
HETATM   24  O2  UNL     1      -3.240   2.998  -2.679  1.00  0.00    -0.272 OA
BRANCH  22  25
HETATM   25  C4  UNL     1      -4.437   1.863  -0.384  1.00  0.00     0.148 C 
BRANCH  25  26
HETATM   26  C3  UNL     1      -4.635   1.093   0.931  1.00  0.00     0.187 C 
BRANCH  26  27
HETATM   27  O1  UNL     1      -5.332  -0.135   0.709  1.00  0.00    -0.390 OA
BRANCH  27  28
HETATM   28  C2  UNL     1      -4.492  -1.184   0.222  1.00  0.00     0.163 C 
HETATM   29  C1  UNL     1      -4.087  -2.092   1.368  1.00  0.00     0.033 C 
ENDBRANCH  27  28
ENDBRANCH  26  27
ENDBRANCH  25  26
ENDBRANCH  22  25
ENDBRANCH  20  21
ENDBRANCH   1  20
BRANCH   6  30
HETATM   30  C10 UNL     1       3.357  -0.899   1.760  1.00  0.00     0.031 A 
HETATM   31  C11 UNL     1       3.170  -0.228   2.983  1.00  0.00     0.029 A 
HETATM   32  C12 UNL     1       4.144  -0.264   3.990  1.00  0.00     0.002 A 
HETATM   33  C13 UNL     1       5.331  -0.963   3.791  1.00  0.00     0.000 A 
HETATM   34  C14 UNL     1       5.546  -1.617   2.582  1.00  0.00     0.002 A 
HETATM   35  C15 UNL     1       4.569  -1.587   1.579  1.00  0.00     0.029 A 
ENDBRANCH   6  30
TORSDOF 7
