REMARK  9 active torsions:
REMARK  status: ('A' for Active; 'I' for Inactive)
REMARK    1  A    between atoms: C2_2  and  C3_3 
REMARK    2  A    between atoms: C3_3  and  N1_4 
REMARK    3  A    between atoms: C7_8  and  C21_29 
REMARK    4  A    between atoms: C14_18  and  C15_19 
REMARK    5  A    between atoms: N3_21  and  C17_22 
REMARK    6  A    between atoms: C17_22  and  C18_23 
REMARK    7  A    between atoms: C18_23  and  C19_24 
REMARK    8  A    between atoms: C19_24  and  O2_25 
REMARK    9  A    between atoms: C21_29  and  O4_30 
ROOT
HETATM    1  N1  UNL     1      -0.133  -2.113  -0.214  1.00  0.00    -0.383 N 
HETATM    2  C4  UNL     1       0.348  -2.335   1.155  1.00  0.00     0.139 C 
HETATM    3  C5  UNL     1       0.584  -0.979   1.927  1.00  0.00     0.064 C 
HETATM    4  C6  UNL     1       2.035  -0.946   1.331  1.00  0.00     0.029 C 
HETATM    5  C7  UNL     1       2.408   0.460   1.687  1.00  0.00     0.031 C 
HETATM    6  C8  UNL     1       0.997   0.685   2.137  1.00  0.00     0.045 C 
HETATM    7  C9  UNL     1       0.269   1.784   1.337  1.00  0.00     0.175 C 
HETATM    8  O1  UNL     1       0.730   3.106   1.788  1.00  0.00    -0.296 OA
HETATM    9  N2  UNL     1       1.984   3.651   1.223  1.00  0.00    -0.193 NA
HETATM   10  C10 UNL     1       1.989   3.551  -0.231  1.00  0.00     0.130 C 
HETATM   11  C11 UNL     1       1.914   2.040  -0.432  1.00  0.00     0.063 C 
HETATM   12  C12 UNL     1       0.442   1.586  -0.175  1.00  0.00     0.077 C 
HETATM   13 CL1  UNL     1      -0.794   2.675  -0.982  1.00  0.00    -0.116 Cl
HETATM   14  C13 UNL     1       0.236   0.219  -0.895  1.00  0.00     0.082 C 
HETATM   15  C14 UNL     1      -0.859  -0.866  -0.536  1.00  0.00     0.108 C 
HETATM   16  N3  UNL     1      -1.613  -0.579   0.701  1.00  0.00    -0.325 N 
HETATM   17  C20 UNL     1      -0.948  -0.628   1.937  1.00  0.00     0.232 C 
HETATM   18  O3  UNL     1      -1.552  -0.444   3.001  1.00  0.00    -0.272 OA
HETATM   19  C21 UNL     1       2.925   1.522   0.700  1.00  0.00     0.085 C 
HETATM   20  C23 UNL     1       3.097   2.788   1.610  1.00  0.00     0.159 C 
ENDROOT
BRANCH  16  21
HETATM   21  C17 UNL     1      -3.061  -0.819   0.817  1.00  0.00     0.130 C 
BRANCH  21  22
HETATM   22  C18 UNL     1      -3.861   0.447   1.122  1.00  0.00     0.046 C 
BRANCH  22  23
HETATM   23  C19 UNL     1      -5.356   0.146   1.080  1.00  0.00     0.165 C 
BRANCH  23  24
HETATM   24  O2  UNL     1      -6.106   1.321   1.350  1.00  0.00    -0.401 OA
ATOM     25  H2  UNL     1      -7.037   1.134   1.324  1.00  0.00     0.209 HD
ENDBRANCH  23  24
ENDBRANCH  22  23
ENDBRANCH  21  22
ENDBRANCH  16  21
BRANCH  15  26
HETATM   26  C15 UNL     1      -1.760  -1.076  -1.818  1.00  0.00     0.049 C 
HETATM   27  C16 UNL     1      -2.621   0.082  -2.321  1.00  0.00     0.009 C 
ENDBRANCH  15  26
BRANCH   1  28
HETATM   28  C3  UNL     1       0.064  -3.205  -1.149  1.00  0.00     0.146 C 
BRANCH  28  29
HETATM   29  C2  UNL     1       1.189  -2.964  -2.118  1.00  0.00    -0.018 C 
HETATM   30  C1  UNL     1       1.087  -3.077  -3.451  1.00  0.00     0.008 C 
ENDBRANCH  28  29
ENDBRANCH   1  28
BRANCH  19  31
HETATM   31  O4  UNL     1       4.241   1.172   0.254  1.00  0.00    -0.383 OA
HETATM   32  C22 UNL     1       4.371   0.358  -0.895  1.00  0.00     0.202 C 
ENDBRANCH  19  31
TORSDOF 9
