REMARK  1 active torsions:
REMARK  status: ('A' for Active; 'I' for Inactive)
REMARK    1  A    between atoms: C5_5  and  C6_6 
ROOT
HETATM    1  C6  UNL     1       1.810  -0.389  -0.353  1.00  0.00     0.116 A 
HETATM    2  N1  UNL     1       1.885  -1.286   0.675  1.00  0.00    -0.343 N 
ATOM      3  H1  UNL     1       2.746  -1.442   1.199  1.00  0.00     0.167 HD
HETATM    4  C7  UNL     1       0.754  -1.945   0.947  1.00  0.00     0.043 A 
HETATM    5  C8  UNL     1      -0.378  -1.749   0.239  1.00  0.00     0.046 A 
HETATM    6  C9  UNL     1      -0.369  -0.928  -0.839  1.00  0.00     0.076 A 
HETATM    7  N2  UNL     1       0.728  -0.221  -1.168  1.00  0.00    -0.339 N 
ATOM      8  H2  UNL     1       0.749   0.401  -1.976  1.00  0.00     0.167 HD
HETATM    9  C10 UNL     1      -1.698  -0.566  -1.410  1.00  0.00     0.072 C 
HETATM   10  N3  UNL     1      -2.308   0.560  -1.153  1.00  0.00    -0.352 N 
ATOM     11  H3  UNL     1      -2.895   1.037  -1.837  1.00  0.00     0.166 HD
HETATM   12  C11 UNL     1      -2.088   1.069   0.162  1.00  0.00     0.059 A 
HETATM   13  C12 UNL     1      -1.271   2.178   0.366  1.00  0.00     0.032 A 
HETATM   14  C13 UNL     1      -1.025   2.620   1.665  1.00  0.00     0.002 A 
HETATM   15  C14 UNL     1      -1.610   1.971   2.759  1.00  0.00     0.002 A 
HETATM   16  C15 UNL     1      -2.441   0.861   2.571  1.00  0.00     0.032 A 
HETATM   17  C16 UNL     1      -2.674   0.386   1.285  1.00  0.00     0.059 A 
HETATM   18  N4  UNL     1      -3.486  -0.767   1.063  1.00  0.00    -0.352 N 
ATOM     19  H4  UNL     1      -4.491  -0.760   1.235  1.00  0.00     0.166 HD
HETATM   20  C17 UNL     1      -2.869  -1.830   0.628  1.00  0.00     0.071 C 
HETATM   21  C18 UNL     1      -1.471  -2.200   1.049  1.00  0.00     0.071 C 
HETATM   22  N5  UNL     1      -1.146  -2.837   2.140  1.00  0.00    -0.382 N 
ATOM     23  H5  UNL     1      -1.763  -3.280   2.821  1.00  0.00     0.160 HD
HETATM   24  C19 UNL     1       0.374  -2.762   2.155  1.00  0.00     0.178 C 
HETATM   25  C20 UNL     1      -3.248  -2.347  -0.706  1.00  0.00     0.005 A 
HETATM   26  C21 UNL     1      -4.175  -3.357  -0.906  1.00  0.00     0.014 A 
HETATM   27  C22 UNL     1      -4.438  -3.746  -2.221  1.00  0.00     0.001 A 
HETATM   28  C23 UNL     1      -3.782  -3.127  -3.301  1.00  0.00     0.001 A 
HETATM   29  C24 UNL     1      -2.853  -2.098  -3.096  1.00  0.00     0.014 A 
HETATM   30  C25 UNL     1      -2.593  -1.707  -1.793  1.00  0.00     0.005 A 
ENDROOT
BRANCH   1  31
HETATM   31  C5  UNL     1       2.863   0.654  -0.407  1.00  0.00     0.008 A 
HETATM   32  C4  UNL     1       3.883   0.709   0.562  1.00  0.00     0.016 A 
HETATM   33  C3  UNL     1       4.765   1.796   0.644  1.00  0.00     0.007 A 
HETATM   34  C2  UNL     1       4.673   2.854  -0.262  1.00  0.00    -0.062 A 
HETATM   35  C1  UNL     1       5.540   4.069  -0.114  1.00  0.00     0.048 C 
HETATM   36  C27 UNL     1       3.700   2.796  -1.261  1.00  0.00     0.007 A 
HETATM   37  C26 UNL     1       2.813   1.712  -1.334  1.00  0.00     0.016 A 
ENDBRANCH   1  31
TORSDOF 1
