REMARK  5 active torsions:
REMARK  status: ('A' for Active; 'I' for Inactive)
REMARK    1  A    between atoms: O1_2  and  C2_3 
REMARK    2  A    between atoms: C2_3  and  C3_5 
REMARK    3  A    between atoms: C13_16  and  C14_17 
REMARK    4  A    between atoms: C14_17  and  C15_18 
REMARK    5  A    between atoms: C15_18  and  N1_19 
REMARK       I    between atoms: N1_19  and  C16_21 
ROOT
HETATM    1  C3  UNL     1       1.954  -0.829  -0.649  1.00  0.00     0.180 A 
HETATM    2  C4  UNL     1       1.136   0.291  -1.240  1.00  0.00     0.058 C 
HETATM    3  C5  UNL     1      -0.337  -0.050  -1.447  1.00  0.00     0.003 C 
HETATM    4  C6  UNL     1      -0.732  -1.505  -1.819  1.00  0.00     0.003 C 
HETATM    5  C7  UNL     1      -2.138  -1.151  -1.222  1.00  0.00     0.000 C 
HETATM    6  C8  UNL     1      -2.439  -2.097  -0.046  1.00  0.00     0.011 C 
HETATM    7  C9  UNL     1      -0.968  -1.782   0.331  1.00  0.00     0.003 C 
HETATM    8  C10 UNL     1      -0.113  -2.410  -0.758  1.00  0.00     0.033 C 
HETATM    9  C11 UNL     1       1.345  -2.220  -0.478  1.00  0.00     0.104 A 
HETATM   10  C12 UNL     1       1.983  -3.243   0.421  1.00  0.00     0.050 C 
HETATM   11  O3  UNL     1       2.137  -1.900  -1.613  1.00  0.00    -0.352 OA
HETATM   12  C13 UNL     1      -1.255  -0.336  -0.206  1.00  0.00    -0.027 C 
ENDROOT
BRANCH  12  13
HETATM   13  C14 UNL     1      -1.718   0.746   0.730  1.00  0.00     0.030 C 
BRANCH  13  14
HETATM   14  C15 UNL     1      -2.623   1.743   0.005  1.00  0.00     0.123 C 
BRANCH  14  15
HETATM   15  N1  UNL     1      -2.736   3.022   0.682  1.00  0.00    -0.361 N 
HETATM   16  C16 UNL     1      -1.883   4.080   0.620  1.00  0.00     0.213 C 
HETATM   17  C17 UNL     1      -0.635   3.957  -0.201  1.00  0.00     0.117 C 
HETATM   18  O4  UNL     1      -2.182   5.133   1.181  1.00  0.00    -0.274 OA
ATOM     19  H1  UNL     1      -3.556   3.142   1.277  1.00  0.00     0.162 HD
ENDBRANCH  14  15
ENDBRANCH  13  14
ENDBRANCH  12  13
BRANCH   1  20
HETATM   20  C2  UNL     1       3.190  -0.488   0.113  1.00  0.00     0.296 C 
HETATM   21  O2  UNL     1       4.312  -0.626  -0.333  1.00  0.00    -0.262 OA
BRANCH  20  22
HETATM   22  O1  UNL     1       2.854  -0.042   1.352  1.00  0.00    -0.324 OA
HETATM   23  C1  UNL     1       3.935   0.113   2.274  1.00  0.00     0.213 C 
ENDBRANCH  20  22
ENDBRANCH   1  20
TORSDOF 5
