REMARK  5 active torsions:
REMARK  status: ('A' for Active; 'I' for Inactive)
REMARK    1  A    between atoms: N1_1  and  C1_5 
REMARK    2  A    between atoms: C5_9  and  C6_10 
REMARK    3  A    between atoms: C6_10  and  C7_11 
REMARK    4  A    between atoms: C7_11  and  N2_12 
REMARK    5  A    between atoms: C17_22  and  O1_23 
ROOT
HETATM    1  C1  UNL     1       2.846  -2.077  -0.349  1.00  0.00     0.184 C 
HETATM    2  C2  UNL     1       2.345  -1.230  -1.600  1.00  0.00     0.037 C 
HETATM    3  C3  UNL     1       2.623   0.311  -1.553  1.00  0.00    -0.011 C 
HETATM    4  C4  UNL     1       1.397   1.270  -1.343  1.00  0.00     0.017 C 
HETATM    5  C5  UNL     1       0.939   1.375   0.171  1.00  0.00    -0.011 C 
HETATM    6  C13 UNL     1       2.055   1.477   1.353  1.00  0.00     0.024 C 
HETATM    7  C14 UNL     1       2.514   0.084   0.791  1.00  0.00    -0.011 C 
HETATM    8  C15 UNL     1       2.885  -1.354   1.054  1.00  0.00     0.045 C 
HETATM    9  C16 UNL     1       3.478   0.550  -0.348  1.00  0.00     0.017 C 
HETATM   10  C17 UNL     1       0.854  -0.072   0.657  1.00  0.00     0.135 C 
ENDROOT
BRANCH   5  11
HETATM   11  C6  UNL     1      -0.222   2.347   0.418  1.00  0.00     0.042 C 
BRANCH  11  12
HETATM   12  C7  UNL     1      -1.485   2.055  -0.402  1.00  0.00     0.273 C 
BRANCH  12  13
HETATM   13  N2  UNL     1      -2.156   0.800  -0.023  1.00  0.00     0.088 N 
HETATM   14  C8  UNL     1      -2.860   0.239  -1.194  1.00  0.00     0.272 C 
HETATM   15  C9  UNL     1      -3.959  -0.775  -0.844  1.00  0.00     0.030 C 
HETATM   16  C10 UNL     1      -3.715  -1.425   0.511  1.00  0.00     0.003 C 
HETATM   17  C11 UNL     1      -3.597  -0.364   1.608  1.00  0.00     0.030 C 
HETATM   18  C12 UNL     1      -3.103   0.994   1.084  1.00  0.00     0.272 C 
ENDBRANCH  12  13
ENDBRANCH  11  12
ENDBRANCH   5  11
BRANCH  10  19
HETATM   19  O1  UNL     1       0.135  -0.317   1.891  1.00  0.00    -0.394 OA
ATOM     20  H1  UNL     1       0.082  -1.216   2.193  1.00  0.00     0.210 HD
ENDBRANCH  10  19
BRANCH   1  21
HETATM   21  N1  UNL     1       2.078  -3.318  -0.267  1.00  0.00    -0.075 N 
ATOM     22  H13 UNL     1       1.072  -3.149  -0.242  1.00  0.00     0.274 HD
ATOM     23  H12 UNL     1       2.113  -3.853  -1.135  1.00  0.00     0.274 HD
ATOM     24  H11 UNL     1       2.399  -3.861   0.535  1.00  0.00     0.274 HD
ENDBRANCH   1  21
TORSDOF 5
