REMARK  15 active torsions:
REMARK  status: ('A' for Active; 'I' for Inactive)
REMARK    1  A    between atoms: C2_2  and  C3_3 
REMARK    2  A    between atoms: N2_10  and  O3_11 
REMARK    3  A    between atoms: C6_13  and  O4_14 
REMARK    4  A    between atoms: O4_14  and  C7_15 
REMARK    5  A    between atoms: C8_17  and  C9_18 
REMARK    6  A    between atoms: C8_17  and  C19_46 
REMARK    7  A    between atoms: C9_18  and  N3_19 
REMARK    8  A    between atoms: N3_19  and  C10_20 
REMARK       I    between atoms: N3_19  and  C12_24 
REMARK    9  A    between atoms: C10_20  and  C11_21 
REMARK   10  A    between atoms: C12_24  and  C13_26 
REMARK   11  A    between atoms: C15_30  and  N5_31 
REMARK   12  A    between atoms: N5_31  and  C16_33 
REMARK   13  A    between atoms: C19_46  and  O12_48 
REMARK   14  A    between atoms: C22_51  and  O13_52 
REMARK   15  A    between atoms: C23_54  and  O14_55 
ROOT
HETATM    1  C7  UNL     1       2.617  -2.894   0.010  1.00  0.00     0.298 C 
HETATM    2  O5  UNL     1       1.407  -2.124  -0.006  1.00  0.00    -0.335 OA
HETATM    3  C8  UNL     1       0.343  -2.966  -0.509  1.00  0.00     0.170 C 
HETATM    4  C21 UNL     1       0.986  -4.349  -0.762  1.00  0.00     0.087 C 
HETATM    5  C22 UNL     1       2.423  -3.978  -1.047  1.00  0.00     0.177 C 
ENDROOT
BRANCH   3   6
HETATM    6  C9  UNL     1      -0.753  -3.067   0.581  1.00  0.00     0.175 C 
BRANCH   6   7
HETATM    7  N3  UNL     1      -1.348  -1.771   0.950  1.00  0.00    -0.333 N 
HETATM    8  C12 UNL     1      -2.707  -1.572   0.664  1.00  0.00     0.284 C 
HETATM    9  O8  UNL     1      -3.503  -2.486   0.459  1.00  0.00    -0.265 OA
BRANCH   7  10
HETATM   10  C10 UNL     1      -0.671  -1.017   2.020  1.00  0.00     0.239 C 
BRANCH  10  11
HETATM   11  C11 UNL     1      -1.020  -1.598   3.385  1.00  0.00     0.191 C 
HETATM   12  O6  UNL     1      -2.132  -1.904   3.785  1.00  0.00    -0.647 OA
HETATM   13  O7  UNL     1       0.079  -1.794   4.156  1.00  0.00    -0.647 OA
ENDBRANCH  10  11
ENDBRANCH   7  10
BRANCH   8  14
HETATM   14  C13 UNL     1      -3.168  -0.152   0.392  1.00  0.00     0.176 C 
HETATM   15  N4  UNL     1      -2.537   0.905   0.820  1.00  0.00    -0.348 N 
HETATM   16  C14 UNL     1      -3.128   2.045   0.296  1.00  0.00     0.256 C 
ATOM     17  H4  UNL     1      -1.731   0.895   1.445  1.00  0.00     0.163 HD
HETATM   18  C15 UNL     1      -3.109   2.034  -1.070  1.00  0.00     0.119 C 
HETATM   19  N9  UNL     1      -4.347   2.368   0.896  1.00  0.00    -0.199 N 
HETATM   20  C17 UNL     1      -4.026   0.897  -1.518  1.00  0.00     0.274 C 
HETATM   21  O10 UNL     1      -4.681   0.907  -2.555  1.00  0.00    -0.270 OA
HETATM   22  N6  UNL     1      -4.238  -0.041  -0.494  1.00  0.00    -0.086 NA
HETATM   23  N7  UNL     1      -5.470   0.370   0.230  1.00  0.00    -0.139 N 
HETATM   24  C18 UNL     1      -5.522   1.666   0.737  1.00  0.00     0.684 C 
ATOM     25  H7  UNL     1      -6.251  -0.275   0.351  1.00  0.00     0.200 HD
HETATM   26  N8  UNL     1      -6.626   2.249   1.073  1.00  0.00    -0.234 N 
ATOM     27  H82 UNL     1      -7.496   1.729   0.955  1.00  0.00     0.174 HD
ATOM     28  H81 UNL     1      -6.664   3.198   1.444  1.00  0.00     0.174 HD
ATOM     29  H9  UNL     1      -4.369   3.189   1.500  1.00  0.00     0.180 HD
BRANCH  18  30
HETATM   30  N5  UNL     1      -2.882   3.154  -1.834  1.00  0.00    -0.330 N 
ATOM     31  H5  UNL     1      -2.842   4.055  -1.357  1.00  0.00     0.168 HD
BRANCH  30  32
HETATM   32  C16 UNL     1      -2.705   3.142  -3.202  1.00  0.00     0.353 C 
HETATM   33  O9  UNL     1      -2.593   2.172  -3.934  1.00  0.00    -0.283 OA
ENDBRANCH  30  32
ENDBRANCH  18  30
ENDBRANCH   8  14
ENDBRANCH   6   7
ENDBRANCH   3   6
BRANCH   3  34
HETATM   34  C19 UNL     1      -0.315  -2.456  -1.820  1.00  0.00     0.295 C 
HETATM   35  O11 UNL     1      -1.176  -3.083  -2.433  1.00  0.00    -0.262 OA
BRANCH  34  36
HETATM   36  O12 UNL     1       0.149  -1.221  -2.178  1.00  0.00    -0.324 OA
HETATM   37  C20 UNL     1      -0.296  -0.770  -3.462  1.00  0.00     0.213 C 
ENDBRANCH  34  36
ENDBRANCH   3  34
BRANCH   1  38
HETATM   38  O4  UNL     1       3.847  -2.203  -0.185  1.00  0.00    -0.296 OA
BRANCH  38  39
HETATM   39  C6  UNL     1       3.646  -0.853  -0.381  1.00  0.00     0.225 A 
HETATM   40  N2  UNL     1       3.579  -0.312  -1.655  1.00  0.00    -0.134 N 
HETATM   41  N1  UNL     1       3.561   1.005  -1.880  1.00  0.00    -0.251 N 
HETATM   42  C5  UNL     1       3.584   1.810  -0.811  1.00  0.00     0.173 A 
ATOM     43  H1  UNL     1       3.531   1.381  -2.828  1.00  0.00     0.191 HD
HETATM   44  O2  UNL     1       3.692   3.135  -1.121  1.00  0.00    -0.308 OA
HETATM   45  C24 UNL     1       3.560   1.377   0.509  1.00  0.00     0.061 A 
HETATM   46  C4  UNL     1       4.336   3.837  -0.064  1.00  0.00     0.347 C 
HETATM   47  O1  UNL     1       3.602   3.744   1.145  1.00  0.00    -0.356 OA
HETATM   48  C3  UNL     1       3.494   2.402   1.612  1.00  0.00     0.164 C 
HETATM   49  C23 UNL     1       3.640   0.008   0.717  1.00  0.00     0.134 A 
BRANCH  40  50
HETATM   50  O3  UNL     1       3.618  -1.066  -2.678  1.00  0.00    -0.266 OA
ATOM     51  H3  UNL     1       3.631  -2.002  -2.518  1.00  0.00     0.247 HD
ENDBRANCH  40  50
BRANCH  48  52
HETATM   52  C2  UNL     1       2.195   2.317   2.442  1.00  0.00     0.033 C 
HETATM   53  C1  UNL     1       0.940   2.726   1.669  1.00  0.00     0.008 C 
ENDBRANCH  48  52
BRANCH  49  54
HETATM   54  O14 UNL     1       3.736  -0.565   1.959  1.00  0.00    -0.356 OA
ATOM     55  H14 UNL     1       3.732   0.021   2.707  1.00  0.00     0.218 HD
ENDBRANCH  49  54
ENDBRANCH  38  39
ENDBRANCH   1  38
BRANCH   5  56
HETATM   56  O13 UNL     1       2.470  -3.506  -2.390  1.00  0.00    -0.391 OA
ATOM     57  H13 UNL     1       2.349  -4.181  -3.048  1.00  0.00     0.210 HD
ENDBRANCH   5  56
TORSDOF 15
