REMARK  2 active torsions:
REMARK  status: ('A' for Active; 'I' for Inactive)
REMARK    1  A    between atoms: C10_14  and  O1_15 
REMARK    2  A    between atoms: C10_14  and  C11_17 
ROOT
HETATM    1  C1  UNL     1      -3.805   0.355  -0.897  1.00  0.00     0.020 C 
HETATM    2  C2  UNL     1      -2.527  -0.179  -0.211  1.00  0.00     0.010 A 
HETATM    3  C3  UNL     1      -2.769  -1.371   0.693  1.00  0.00     0.058 A 
HETATM    4  C4  UNL     1      -2.227  -1.635  -0.683  1.00  0.00     0.113 A 
HETATM    5  F1  UNL     1      -3.195  -2.133  -1.567  1.00  0.00    -0.242 F 
HETATM    6  C5  UNL     1      -0.991  -2.471  -0.785  1.00  0.00     0.051 C 
HETATM    7  C6  UNL     1       0.366  -1.976  -0.351  1.00  0.00     0.027 C 
HETATM    8  C7  UNL     1       0.452  -1.687   1.142  1.00  0.00     0.200 C 
HETATM    9  N1  UNL     1       1.918  -1.673   1.506  1.00  0.00    -0.063 N 
ATOM     10  H11 UNL     1       2.577  -2.347   1.116  1.00  0.00     0.278 HD
ATOM     11  H12 UNL     1       2.247  -1.948   2.431  1.00  0.00     0.278 HD
HETATM   12  C8  UNL     1       1.895  -0.225   1.062  1.00  0.00     0.231 C 
HETATM   13  C9  UNL     1       0.432  -0.222   1.645  1.00  0.00     0.091 C 
HETATM   14  C10 UNL     1      -0.624   0.877   1.490  1.00  0.00     0.136 C 
HETATM   15  C12 UNL     1      -1.436   0.979   0.105  1.00  0.00     0.034 C 
HETATM   16  C13 UNL     1      -2.278   2.336   0.262  1.00  0.00     0.025 C 
HETATM   17  C14 UNL     1      -0.612   1.217  -1.214  1.00  0.00    -0.021 C 
HETATM   18 BR1  UNL     1       0.574   2.793  -1.179  1.00  0.00    -0.059 Br
HETATM   19  C15 UNL     1       0.097   0.083  -1.943  1.00  0.00     0.050 C 
HETATM   20  C16 UNL     1       1.027  -0.879  -1.209  1.00  0.00     0.034 C 
HETATM   21  C17 UNL     1       2.161  -0.173  -0.449  1.00  0.00     0.158 C 
HETATM   22  C18 UNL     1       3.559  -0.761  -0.781  1.00  0.00     0.043 C 
HETATM   23  C19 UNL     1       4.509   0.426  -0.658  1.00  0.00     0.030 C 
HETATM   24  C20 UNL     1       3.684   1.596  -1.165  1.00  0.00     0.233 C 
HETATM   25  N2  UNL     1       2.302   1.216  -0.870  1.00  0.00    -0.064 N 
ATOM     26  H21 UNL     1       1.893   1.846  -0.180  1.00  0.00     0.278 HD
ATOM     27  H22 UNL     1       1.694   1.417  -1.664  1.00  0.00     0.278 HD
ENDROOT
BRANCH  14  28
HETATM   28  O1  UNL     1       0.130   2.099   1.715  1.00  0.00    -0.383 OA
ATOM     29  H1  UNL     1      -0.525   2.781   1.619  1.00  0.00     0.210 HD
ENDBRANCH  14  28
BRANCH  14  30
HETATM   30  C11 UNL     1      -1.581   0.797   2.756  1.00  0.00     0.388 C 
HETATM   31  F2  UNL     1      -2.368   1.896   2.877  1.00  0.00    -0.211 F 
HETATM   32  F3  UNL     1      -0.857   0.760   3.913  1.00  0.00    -0.211 F 
ENDBRANCH  14  30
TORSDOF 2
