REMARK  2 active torsions:
REMARK  status: ('A' for Active; 'I' for Inactive)
REMARK    1  A    between atoms: C3_7  and  C5_9 
REMARK    2  A    between atoms: C24_31  and  C25_32 
ROOT
HETATM    1  C1  UNL     1       0.033  -3.847   2.528  1.00  0.00     0.155 C 
HETATM    2  N1  UNL     1      -0.288  -3.030   1.367  1.00  0.00    -0.333 N 
HETATM    3  C2  UNL     1      -1.567  -3.170   0.844  1.00  0.00     0.319 C 
HETATM    4  O1  UNL     1      -2.370  -4.025   1.213  1.00  0.00    -0.247 OA
HETATM    5  N2  UNL     1      -1.936  -2.320  -0.153  1.00  0.00    -0.329 N 
ATOM      6  H2  UNL     1      -2.801  -2.552  -0.642  1.00  0.00     0.165 HD
HETATM    7  C3  UNL     1      -1.236  -1.102  -0.614  1.00  0.00     0.067 C 
HETATM    8  C4  UNL     1      -1.448  -1.065  -2.139  1.00  0.00     0.044 C 
HETATM    9  C13 UNL     1       0.260  -1.358  -0.336  1.00  0.00     0.051 C 
HETATM   10  C14 UNL     1       0.476  -1.795   1.129  1.00  0.00     0.096 C 
HETATM   11  C15 UNL     1       1.979  -1.839   1.549  1.00  0.00     0.027 C 
HETATM   12  C16 UNL     1       2.833  -0.585   1.182  1.00  0.00     0.013 C 
HETATM   13  C17 UNL     1       1.983   0.441   0.410  1.00  0.00    -0.019 C 
HETATM   14  C18 UNL     1       1.165   1.225   1.470  1.00  0.00     0.017 C 
HETATM   15  C19 UNL     1       1.380  -0.406  -0.814  1.00  0.00    -0.023 C 
HETATM   16  C20 UNL     1       2.377  -1.368  -1.606  1.00  0.00     0.017 C 
HETATM   17  C21 UNL     1       1.521   0.844  -1.735  1.00  0.00     0.013 C 
HETATM   18  C22 UNL     1       0.675   2.065  -1.545  1.00  0.00     0.007 C 
HETATM   19  C23 UNL     1       1.613   2.722  -0.843  1.00  0.00     0.020 C 
HETATM   20  C24 UNL     1       2.511   1.476  -0.693  1.00  0.00     0.070 C 
ENDROOT
BRANCH   7  21
HETATM   21  C5  UNL     1      -1.943   0.051   0.126  1.00  0.00    -0.002 A 
HETATM   22  C6  UNL     1      -2.239   0.058   1.487  1.00  0.00     0.099 A 
HETATM   23  N3  UNL     1      -2.867   1.216   1.826  1.00  0.00    -0.365 N 
HETATM   24  C7  UNL     1      -3.095   1.970   0.707  1.00  0.00     0.043 A 
ATOM     25  H3  UNL     1      -3.129   1.483   2.775  1.00  0.00     0.165 HD
HETATM   26  C8  UNL     1      -3.741   3.211   0.602  1.00  0.00     0.033 A 
HETATM   27  C12 UNL     1      -2.573   1.262  -0.385  1.00  0.00     0.004 A 
HETATM   28  C9  UNL     1      -3.880   3.765  -0.668  1.00  0.00     0.044 A 
HETATM   29  C10 UNL     1      -3.404   3.085  -1.774  1.00  0.00     0.117 A 
HETATM   30  F1  UNL     1      -3.543   3.634  -2.989  1.00  0.00    -0.206 F 
HETATM   31  C11 UNL     1      -2.769   1.844  -1.661  1.00  0.00     0.056 A 
ENDBRANCH   7  21
BRANCH  20  32
HETATM   32  C25 UNL     1       3.974   1.702  -0.963  1.00  0.00     0.396 C 
HETATM   33  F2  UNL     1       4.691   0.558  -0.927  1.00  0.00    -0.170 F 
HETATM   34  F3  UNL     1       4.170   2.267  -2.177  1.00  0.00    -0.170 F 
HETATM   35  F4  UNL     1       4.500   2.534  -0.031  1.00  0.00    -0.170 F 
ENDBRANCH  20  32
TORSDOF 2
