REMARK  5 active torsions:
REMARK  status: ('A' for Active; 'I' for Inactive)
REMARK    1  A    between atoms: C3_5  and  C4_6 
REMARK    2  A    between atoms: N2_8  and  C5_9 
REMARK    3  A    between atoms: C6_10  and  C10_26 
REMARK    4  A    between atoms: C9_19  and  N6_20 
REMARK    5  A    between atoms: N10_39  and  O4_40 
ROOT
HETATM    1  C5  UNL     1      -1.679  -1.659   0.394  1.00  0.00     0.180 A 
HETATM    2  C6  UNL     1      -1.016  -0.449   0.206  1.00  0.00     0.123 A 
HETATM    3  N3  UNL     1      -1.908   0.596   0.304  1.00  0.00    -0.185 N 
ATOM      4  H3  UNL     1      -1.697   1.593   0.269  1.00  0.00     0.184 HD
HETATM    5  C7  UNL     1      -3.084   0.038   0.451  1.00  0.00     0.694 A 
HETATM    6  N4  UNL     1      -3.016  -1.331   0.576  1.00  0.00    -0.077 N 
HETATM    7  C8  UNL     1      -4.156  -2.138   0.747  1.00  0.00     0.345 C 
HETATM    8  O2  UNL     1      -4.083  -3.355   0.832  1.00  0.00    -0.246 OA
HETATM    9  N5  UNL     1      -5.329  -1.414   0.747  1.00  0.00    -0.298 N 
ATOM     10  H5  UNL     1      -6.198  -1.892   0.509  1.00  0.00     0.168 HD
HETATM   11  C9  UNL     1      -5.380  -0.029   1.065  1.00  0.00     0.404 C 
HETATM   12  N7  UNL     1      -4.292   0.632   0.425  1.00  0.00    -0.179 N 
ATOM     13  H7  UNL     1      -4.425   1.530  -0.040  1.00  0.00     0.181 HD
ENDROOT
BRANCH  11  14
HETATM   14  N6  UNL     1      -6.693   0.343   0.641  1.00  0.00    -0.040 N 
ATOM     15  H63 UNL     1      -6.908   0.119  -0.331  1.00  0.00     0.279 HD
ATOM     16  H62 UNL     1      -7.446  -0.216   1.042  1.00  0.00     0.279 HD
ATOM     17  H61 UNL     1      -6.730   1.336   0.869  1.00  0.00     0.279 HD
ENDBRANCH  11  14
BRANCH   1  18
HETATM   18  N2  UNL     1      -1.268  -2.968   0.218  1.00  0.00    -0.217 N 
HETATM   19  S1  UNL     1      -1.012  -3.412  -1.405  1.00  0.00    -0.022 SA
HETATM   20  C4  UNL     1       0.716  -3.469  -1.318  1.00  0.00     0.201 C 
HETATM   21  C20 UNL     1       1.202  -4.379  -0.213  1.00  0.00     0.245 C 
HETATM   22  N12 UNL     1       0.331  -4.572   0.842  1.00  0.00    -0.277 N 
HETATM   23  O6  UNL     1       2.344  -4.825  -0.160  1.00  0.00    -0.271 OA
HETATM   24  C19 UNL     1      -0.533  -3.571   1.244  1.00  0.00     0.341 C 
ATOM     25  H12 UNL     1       0.326  -5.467   1.332  1.00  0.00     0.173 HD
HETATM   26  O5  UNL     1      -0.575  -3.235   2.428  1.00  0.00    -0.245 OA
BRANCH  20  27
HETATM   27  C3  UNL     1       1.478  -2.369  -1.311  1.00  0.00     0.050 A 
HETATM   28  C2  UNL     1       2.797  -2.376  -2.087  1.00  0.00     0.256 A 
HETATM   29  N1  UNL     1       3.272  -1.050  -2.047  1.00  0.00    -0.314 N 
HETATM   30  O1  UNL     1       3.264  -3.324  -2.692  1.00  0.00    -0.267 OA
HETATM   31  C1  UNL     1       4.391  -0.564  -2.811  1.00  0.00     0.160 C 
HETATM   32  C12 UNL     1       2.382  -0.287  -1.319  1.00  0.00     0.095 A 
HETATM   33  C11 UNL     1       1.272  -1.025  -0.901  1.00  0.00     0.038 A 
HETATM   34  C13 UNL     1       2.287   1.005  -0.886  1.00  0.00     0.141 A 
HETATM   35  C10 UNL     1       0.401  -0.195  -0.237  1.00  0.00     0.085 C 
HETATM   36  N11 UNL     1       1.101   1.026  -0.092  1.00  0.00    -0.301 N 
HETATM   37  C18 UNL     1       0.823   2.134   0.725  1.00  0.00     0.133 A 
HETATM   38  C17 UNL     1       1.664   3.172   0.692  1.00  0.00     0.111 A 
HETATM   39  C14 UNL     1       2.812   3.093  -0.256  1.00  0.00     0.097 A 
HETATM   40  N10 UNL     1       1.726   4.355   1.367  1.00  0.00    -0.182 N 
HETATM   41  N8  UNL     1       3.128   2.094  -1.015  1.00  0.00    -0.336 N 
HETATM   42  C15 UNL     1       3.520   4.421  -0.066  1.00  0.00     0.126 A 
ATOM     43  H8  UNL     1       3.925   2.109  -1.651  1.00  0.00     0.168 HD
HETATM   44  N9  UNL     1       4.554   4.867  -0.715  1.00  0.00    -0.393 N 
HETATM   45  C16 UNL     1       2.792   5.168   1.059  1.00  0.00     0.300 A 
ATOM     46  H92 UNL     1       5.038   4.370  -1.463  1.00  0.00     0.156 HD
ATOM     47  H91 UNL     1       5.030   5.760  -0.587  1.00  0.00     0.156 HD
HETATM   48  O3  UNL     1       3.156   6.216   1.547  1.00  0.00    -0.263 OA
BRANCH  40  49
HETATM   49  O4  UNL     1       0.880   4.566   2.459  1.00  0.00    -0.279 OA
ATOM     50  H4  UNL     1       0.144   4.005   2.672  1.00  0.00     0.245 HD
ENDBRANCH  40  49
ENDBRANCH  20  27
ENDBRANCH   1  18
TORSDOF 5
