REMARK  4 active torsions:
REMARK  status: ('A' for Active; 'I' for Inactive)
REMARK    1  A    between atoms: O1_2  and  C2_3 
REMARK    2  A    between atoms: C2_3  and  C3_5 
REMARK    3  A    between atoms: C17_32  and  O8_33 
REMARK    4  A    between atoms: C22_45  and  O11_46 
ROOT
HETATM    1  C3  UNL     1       1.905  -1.152   0.759  1.00  0.00     0.260 C 
HETATM    2  O3  UNL     1       0.636  -1.825   1.057  1.00  0.00    -0.355 OA
HETATM    3  C4  UNL     1       0.720  -3.207   1.444  1.00  0.00     0.197 C 
HETATM    4  C5  UNL     1      -0.275  -3.476   2.576  1.00  0.00     0.193 C 
HETATM    5  O4  UNL     1      -1.601  -3.646   2.069  1.00  0.00    -0.387 OA
HETATM    6  C6  UNL     1      -2.597  -2.986   2.863  1.00  0.00     0.195 C 
HETATM    7  C7  UNL     1      -2.752  -1.512   2.439  1.00  0.00     0.258 C 
HETATM    8  N1  UNL     1      -3.317  -1.407   1.088  1.00  0.00    -0.071 N 
ATOM      9  H11 UNL     1      -3.274  -2.305   0.605  1.00  0.00     0.277 HD
ATOM     10  H12 UNL     1      -2.706  -0.861   0.480  1.00  0.00     0.277 HD
HETATM   11  C8  UNL     1      -4.682  -0.871   1.075  1.00  0.00     0.258 C 
HETATM   12  C9  UNL     1      -5.308  -0.974  -0.331  1.00  0.00     0.195 C 
HETATM   13  O5  UNL     1      -5.772   0.296  -0.786  1.00  0.00    -0.387 OA
HETATM   14  C10 UNL     1      -4.985   0.882  -1.826  1.00  0.00     0.193 C 
HETATM   15  C11 UNL     1      -3.561   1.275  -1.413  1.00  0.00     0.193 C 
HETATM   16  O6  UNL     1      -3.609   2.091  -0.240  1.00  0.00    -0.387 OA
HETATM   17  C12 UNL     1      -2.348   2.655   0.128  1.00  0.00     0.193 C 
HETATM   18  C13 UNL     1      -1.984   3.848  -0.756  1.00  0.00     0.193 C 
HETATM   19  O7  UNL     1      -1.167   3.390  -1.845  1.00  0.00    -0.387 OA
HETATM   20  C14 UNL     1       0.163   3.912  -1.785  1.00  0.00     0.195 C 
HETATM   21  C15 UNL     1       1.050   3.227  -2.850  1.00  0.00     0.261 C 
HETATM   22  N2  UNL     1       1.558   1.881  -2.484  1.00  0.00    -0.043 N 
ATOM     23  H21 UNL     1       1.832   1.355  -3.314  1.00  0.00     0.280 HD
ATOM     24  H22 UNL     1       0.802   1.282  -2.151  1.00  0.00     0.280 HD
HETATM   25  C16 UNL     1       2.651   1.937  -1.513  1.00  0.00     0.378 C 
HETATM   26  N3  UNL     1       2.281   1.399  -0.203  1.00  0.00    -0.336 N 
ATOM     27  H3  UNL     1       2.682   1.876   0.604  1.00  0.00     0.164 HD
HETATM   28  C17 UNL     1       1.404   0.258   0.096  1.00  0.00     0.166 C 
HETATM   29  C18 UNL     1       3.960   1.241  -2.028  1.00  0.00     0.268 C 
HETATM   30  O9  UNL     1       5.045   1.369  -1.454  1.00  0.00    -0.269 OA
HETATM   31  N4  UNL     1       3.812   0.337  -3.072  1.00  0.00    -0.351 N 
ATOM     32  H4  UNL     1       3.141   0.511  -3.820  1.00  0.00     0.162 HD
HETATM   33  C19 UNL     1       4.641  -0.872  -3.076  1.00  0.00     0.193 C 
HETATM   34  C20 UNL     1       4.067  -1.707  -1.997  1.00  0.00     0.129 C 
HETATM   35  O10 UNL     1       3.012  -2.497  -2.333  1.00  0.00    -0.237 OA
HETATM   36  N5  UNL     1       2.186  -2.614  -1.221  1.00  0.00    -0.258 N 
ATOM     37  H5  UNL     1       1.327  -3.158  -1.142  1.00  0.00     0.194 HD
HETATM   38  C21 UNL     1       2.766  -1.852  -0.268  1.00  0.00     0.121 C 
HETATM   39  C22 UNL     1       4.099  -1.558  -0.629  1.00  0.00     0.128 C 
ENDROOT
BRANCH   1  40
HETATM   40  C2  UNL     1       2.677  -0.747   2.044  1.00  0.00     0.308 C 
HETATM   41  O2  UNL     1       3.479   0.188   2.119  1.00  0.00    -0.261 OA
BRANCH  40  42
HETATM   42  O1  UNL     1       2.319  -1.493   3.132  1.00  0.00    -0.323 OA
HETATM   43  C1  UNL     1       2.930  -1.097   4.365  1.00  0.00     0.213 C 
ENDBRANCH  40  42
ENDBRANCH   1  40
BRANCH  28  44
HETATM   44  O8  UNL     1       0.455   0.020  -0.952  1.00  0.00    -0.346 OA
ATOM     45  H8  UNL     1       0.164   0.838  -1.337  1.00  0.00     0.219 HD
ENDBRANCH  28  44
BRANCH  39  46
HETATM   46  O11 UNL     1       4.988  -0.836   0.070  1.00  0.00    -0.356 OA
ATOM     47  H11 UNL     1       5.010  -0.733   1.014  1.00  0.00     0.218 HD
ENDBRANCH  39  46
TORSDOF 4
