REMARK  6 active torsions:
REMARK  status: ('A' for Active; 'I' for Inactive)
REMARK    1  A    between atoms: C2_2  and  O1_3 
REMARK    2  A    between atoms: C2_2  and  C3_5 
REMARK    3  A    between atoms: C5_7  and  O2_8 
REMARK    4  A    between atoms: C6_10  and  O3_11 
REMARK    5  A    between atoms: C6_10  and  O4_13 
REMARK    6  A    between atoms: C7_15  and  C8_17 
ROOT
HETATM    1  C3  UNL     1      -0.482   0.321  -0.199  1.00  0.00     0.078 A 
HETATM    2  C4  UNL     1       0.482   0.589  -1.289  1.00  0.00     0.075 A 
HETATM    3  C5  UNL     1       1.316  -0.523  -0.840  1.00  0.00     0.159 C 
HETATM    4  C6  UNL     1      -0.060  -1.124  -0.220  1.00  0.00     0.208 C 
HETATM    5  C7  UNL     1       2.022   0.564   0.105  1.00  0.00     0.171 C 
HETATM    6  F1  UNL     1       2.998   1.296  -0.498  1.00  0.00    -0.236 F 
HETATM    7  C9  UNL     1       0.689   1.260   0.012  1.00  0.00     0.100 A 
HETATM    8 CL1  UNL     1       0.535   2.965   0.169  1.00  0.00    -0.114 Cl
ENDROOT
BRANCH   1   9
HETATM    9  C2  UNL     1      -1.901   0.748  -0.286  1.00  0.00     0.130 C 
HETATM   10  C1  UNL     1      -2.606   0.590   1.052  1.00  0.00     0.040 C 
BRANCH   9  11
HETATM   11  O1  UNL     1      -2.560  -0.058  -1.264  1.00  0.00    -0.395 OA
ATOM     12  H1  UNL     1      -2.120   0.041  -2.100  1.00  0.00     0.210 HD
ENDBRANCH   9  11
ENDBRANCH   1   9
BRANCH   4  13
HETATM   13  O3  UNL     1      -0.764  -2.031  -1.085  1.00  0.00    -0.362 OA
ATOM     14  H3  UNL     1      -0.498  -2.943  -1.098  1.00  0.00     0.213 HD
ENDBRANCH   4  13
BRANCH   4  15
HETATM   15  O4  UNL     1       0.084  -1.757   1.055  1.00  0.00    -0.362 OA
ATOM     16  H4  UNL     1       0.350  -2.669   1.042  1.00  0.00     0.213 HD
ENDBRANCH   4  15
BRANCH   3  17
HETATM   17  O2  UNL     1       2.076  -1.270  -1.801  1.00  0.00    -0.380 OA
ATOM     18  H2  UNL     1       2.618  -1.993  -1.509  1.00  0.00     0.211 HD
ENDBRANCH   3  17
BRANCH   5  19
HETATM   19  C8  UNL     1       2.457   0.193   1.503  1.00  0.00     0.134 C 
HETATM   20 BR1  UNL     1       3.866  -1.147   1.417  1.00  0.00    -0.093 Br
ENDBRANCH   5  19
TORSDOF 6
