REMARK  2 active torsions:
REMARK  status: ('A' for Active; 'I' for Inactive)
REMARK    1  A    between atoms: C2_2  and  N1_3 
REMARK       I    between atoms: N1_3  and  C3_5 
REMARK    2  A    between atoms: C3_5  and  C4_7 
ROOT
HETATM    1  C4  UNL     1       0.803  -0.991   0.041  1.00  0.00     0.087 C 
HETATM    2  C5  UNL     1       1.857  -0.080   0.848  1.00  0.00     0.004 C 
HETATM    3  C6  UNL     1       3.347  -0.264   0.324  1.00  0.00     0.011 C 
HETATM    4  C7  UNL     1       2.775   0.123  -0.996  1.00  0.00    -0.004 A 
HETATM    5  C8  UNL     1       1.711   0.857  -0.263  1.00  0.00     0.000 A 
HETATM    6  C9  UNL     1       1.326  -0.250  -1.154  1.00  0.00     0.008 A 
ENDROOT
BRANCH   1   7
HETATM    7  C3  UNL     1      -0.694  -0.861   0.454  1.00  0.00     0.222 C 
HETATM    8  N1  UNL     1      -1.558  -0.311  -0.476  1.00  0.00    -0.361 N 
ATOM      9  H1  UNL     1      -1.174   0.043  -1.352  1.00  0.00     0.162 HD
HETATM   10  O1  UNL     1      -1.120  -1.264   1.544  1.00  0.00    -0.273 OA
BRANCH   8  11
HETATM   11  C2  UNL     1      -2.987  -0.218  -0.255  1.00  0.00     0.118 C 
HETATM   12  C1  UNL     1      -3.358   0.952   0.639  1.00  0.00     0.026 C 
ENDBRANCH   8  11
ENDBRANCH   1   7
TORSDOF 2
