REMARK  11 active torsions:
REMARK  status: ('A' for Active; 'I' for Inactive)
REMARK    1  A    between atoms: O1_2  and  C2_3 
REMARK    2  A    between atoms: C2_3  and  O2_4 
REMARK    3  A    between atoms: O2_4  and  C3_5 
REMARK    4  A    between atoms: C3_5  and  C4_6 
REMARK    5  A    between atoms: C4_6  and  N1_7 
REMARK    6  A    between atoms: N1_7  and  C7_10 
REMARK    7  A    between atoms: C7_10  and  C8_11 
REMARK    8  A    between atoms: C8_11  and  C9_12 
REMARK    9  A    between atoms: C9_12  and  N2_13 
REMARK       I    between atoms: N2_13  and  C10_15 
REMARK   10  A    between atoms: C10_15  and  C11_17 
REMARK   11  A    between atoms: C11_17  and  N3_18 
ROOT
HETATM    1  N2  UNL     1       0.584  -2.160  -1.938  1.00  0.00    -0.360 N 
ATOM      2  H2  UNL     1       1.452  -1.673  -2.163  1.00  0.00     0.162 HD
HETATM    3  C10 UNL     1      -0.555  -1.472  -2.251  1.00  0.00     0.243 C 
HETATM    4  O3  UNL     1      -0.402  -0.292  -2.562  1.00  0.00    -0.272 OA
ENDROOT
BRANCH   1   5
HETATM    5  C9  UNL     1       0.761  -3.472  -1.337  1.00  0.00     0.124 C 
BRANCH   5   6
HETATM    6  C8  UNL     1       0.977  -3.364   0.180  1.00  0.00     0.047 C 
BRANCH   6   7
HETATM    7  C7  UNL     1       2.421  -2.971   0.532  1.00  0.00     0.238 C 
BRANCH   7   8
HETATM    8  N1  UNL     1       2.655  -2.718   2.037  1.00  0.00    -0.073 N 
HETATM    9  C5  UNL     1       2.104  -3.895   2.877  1.00  0.00     0.272 C 
HETATM   10  C6  UNL     1       4.169  -2.700   2.309  1.00  0.00     0.272 C 
BRANCH   8  11
HETATM   11  C4  UNL     1       2.004  -1.402   2.557  1.00  0.00     0.262 C 
BRANCH  11  12
HETATM   12  C3  UNL     1       2.678  -0.080   2.102  1.00  0.00     0.199 C 
BRANCH  12  13
HETATM   13  O2  UNL     1       2.392   0.235   0.731  1.00  0.00    -0.352 OA
BRANCH  13  14
HETATM   14  C2  UNL     1       2.902   1.527   0.283  1.00  0.00     0.187 C 
HETATM   15  C27 UNL     1       2.192   1.847  -1.057  1.00  0.00     0.072 C 
HETATM   16  C28 UNL     1       3.046   1.490  -2.267  1.00  0.00     0.033 C 
HETATM   17  C29 UNL     1       4.293   2.370  -2.338  1.00  0.00     0.237 C 
HETATM   18  N4  UNL     1       5.013   2.449  -0.979  1.00  0.00    -0.070 N 
HETATM   19  C30 UNL     1       6.510   2.170  -1.196  1.00  0.00     0.272 C 
HETATM   20  C31 UNL     1       4.915   3.879  -0.410  1.00  0.00     0.272 C 
HETATM   21  C32 UNL     1       4.458   1.428   0.045  1.00  0.00     0.304 C 
BRANCH  14  22
HETATM   22  O1  UNL     1       2.691   2.559   1.253  1.00  0.00    -0.358 OA
HETATM   23  C1  UNL     1       1.344   2.982   1.448  1.00  0.00     0.205 C 
ENDBRANCH  14  22
ENDBRANCH  13  14
ENDBRANCH  12  13
ENDBRANCH  11  12
ENDBRANCH   8  11
ENDBRANCH   7   8
ENDBRANCH   6   7
ENDBRANCH   5   6
ENDBRANCH   1   5
BRANCH   3  24
HETATM   24  C11 UNL     1      -1.952  -2.134  -2.175  1.00  0.00     0.342 C 
BRANCH  24  25
HETATM   25  N3  UNL     1      -3.133  -1.211  -1.570  1.00  0.00    -0.032 N 
HETATM   26  C12 UNL     1      -4.387  -2.106  -1.421  1.00  0.00     0.243 C 
HETATM   27  C13 UNL     1      -4.242  -3.212  -0.392  1.00  0.00     0.054 C 
HETATM   28  C14 UNL     1      -3.353  -2.845   0.772  1.00  0.00     0.172 C 
HETATM   29  O4  UNL     1      -3.296  -1.446   0.929  1.00  0.00    -0.358 OA
HETATM   30  C15 UNL     1      -2.661  -0.749  -0.129  1.00  0.00     0.330 C 
HETATM   31  C16 UNL     1      -2.459   0.784   0.272  1.00  0.00     0.051 C 
HETATM   32  C17 UNL     1      -2.629   1.674  -0.922  1.00  0.00     0.019 C 
HETATM   33  C24 UNL     1      -3.303   1.514   1.442  1.00  0.00    -0.036 C 
HETATM   34  C18 UNL     1      -4.149   1.637  -1.166  1.00  0.00    -0.038 C 
HETATM   35  C19 UNL     1      -4.447   0.962  -2.475  1.00  0.00     0.037 C 
HETATM   36  C21 UNL     1      -5.204   1.019  -0.100  1.00  0.00     0.015 C 
HETATM   37  C23 UNL     1      -4.647   2.968  -0.485  1.00  0.00     0.015 C 
HETATM   38  C20 UNL     1      -3.490  -0.214  -2.743  1.00  0.00     0.242 C 
HETATM   39  C22 UNL     1      -4.643   2.078   0.846  1.00  0.00    -0.005 C 
HETATM   40  C25 UNL     1      -3.618   0.636   2.664  1.00  0.00     0.015 C 
HETATM   41  C26 UNL     1      -2.513   2.729   1.993  1.00  0.00     0.015 C 
ENDBRANCH  24  25
ENDBRANCH   3  24
TORSDOF 11
