REMARK  12 active torsions:
REMARK  status: ('A' for Active; 'I' for Inactive)
REMARK    1  A    between atoms: C2_2  and  C3_3 
REMARK    2  A    between atoms: C3_3  and  C4_4 
REMARK    3  A    between atoms: C4_4  and  C5_5 
REMARK    4  A    between atoms: C5_5  and  C6_6 
REMARK    5  A    between atoms: C6_6  and  N1_7 
REMARK       I    between atoms: N1_7  and  C7_9 
REMARK    6  A    between atoms: C7_9  and  C8_11 
REMARK       I    between atoms: N2_15  and  C12_16 
REMARK    7  A    between atoms: C12_16  and  C13_18 
REMARK    8  A    between atoms: C13_18  and  C14_19 
REMARK    9  A    between atoms: C19_24  and  C20_25 
REMARK       I    between atoms: C20_25  and  N3_27 
REMARK   10  A    between atoms: C24_31  and  C25_32 
REMARK       I    between atoms: C25_32  and  N4_34 
REMARK       I    between atoms: N5_37  and  C27_38 
REMARK   11  A    between atoms: C27_38  and  C28_40 
REMARK       I    between atoms: C28_40  and  N6_42 
REMARK       I    between atoms: N6_42  and  C29_44 
REMARK   12  A    between atoms: C29_44  and  C30_46 
ROOT
HETATM    1  C8  UNL     1      -1.065  -0.915   0.055  1.00  0.00     0.204 C 
HETATM    2  C9  UNL     1      -2.325  -0.170  -0.361  1.00  0.00     0.127 C 
HETATM    3  C10 UNL     1      -2.315   1.134   0.467  1.00  0.00     0.061 C 
HETATM    4  C11 UNL     1      -3.405   0.509   1.360  1.00  0.00     0.135 C 
HETATM    5  N2  UNL     1      -3.573  -0.480   0.299  1.00  0.00    -0.344 N 
HETATM    6  C12 UNL     1      -4.736  -1.107  -0.059  1.00  0.00     0.220 C 
HETATM    7  O2  UNL     1      -5.771  -0.963   0.598  1.00  0.00    -0.273 OA
HETATM    8  C19 UNL     1      -0.873   1.393   0.898  1.00  0.00     0.188 C 
HETATM    9  N5  UNL     1      -0.182   0.214   0.387  1.00  0.00    -0.314 N 
HETATM   10  C27 UNL     1       1.166   0.273   0.111  1.00  0.00     0.313 C 
HETATM   11  O5  UNL     1       2.019   0.629   0.911  1.00  0.00    -0.262 OA
ENDROOT
BRANCH   1  12
HETATM   12  C7  UNL     1      -1.120  -1.876   1.277  1.00  0.00     0.242 C 
HETATM   13  N1  UNL     1       0.034  -1.860   2.034  1.00  0.00    -0.359 N 
ATOM     14  H1  UNL     1       0.725  -1.137   1.833  1.00  0.00     0.162 HD
HETATM   15  O1  UNL     1      -2.010  -2.694   1.462  1.00  0.00    -0.271 OA
BRANCH  13  16
HETATM   16  C6  UNL     1       0.331  -2.805   3.098  1.00  0.00     0.122 C 
BRANCH  16  17
HETATM   17  C5  UNL     1       1.841  -3.042   3.114  1.00  0.00     0.020 C 
BRANCH  17  18
HETATM   18  C4  UNL     1       2.247  -4.043   2.021  1.00  0.00     0.002 C 
BRANCH  18  19
HETATM   19  C3  UNL     1       3.765  -4.173   1.863  1.00  0.00    -0.000 C 
BRANCH  19  20
HETATM   20  C2  UNL     1       4.422  -2.985   1.151  1.00  0.00    -0.005 C 
HETATM   21  C1  UNL     1       4.260  -3.020  -0.359  1.00  0.00     0.005 C 
ENDBRANCH  19  20
ENDBRANCH  18  19
ENDBRANCH  17  18
ENDBRANCH  16  17
ENDBRANCH  13  16
ENDBRANCH   1  12
BRANCH   8  22
HETATM   22  C20 UNL     1      -0.594   1.611   2.396  1.00  0.00     0.244 C 
HETATM   23  O3  UNL     1      -0.990   0.797   3.231  1.00  0.00    -0.271 OA
HETATM   24  N3  UNL     1       0.213   2.675   2.739  1.00  0.00    -0.337 N 
HETATM   25  C21 UNL     1       0.669   2.873   4.101  1.00  0.00     0.127 C 
HETATM   26  C24 UNL     1       0.885   3.611   1.834  1.00  0.00     0.179 C 
HETATM   27  C22 UNL     1       2.073   3.420   3.930  1.00  0.00     0.022 C 
HETATM   28  C23 UNL     1       1.990   4.271   2.668  1.00  0.00     0.037 C 
BRANCH  26  29
HETATM   29  C25 UNL     1      -0.086   4.682   1.294  1.00  0.00     0.240 C 
HETATM   30  O4  UNL     1      -1.093   5.046   1.892  1.00  0.00    -0.271 OA
HETATM   31  N4  UNL     1       0.276   5.209   0.067  1.00  0.00    -0.364 N 
HETATM   32  C26 UNL     1      -0.512   6.241  -0.564  1.00  0.00     0.149 C 
ATOM     33  H4  UNL     1       1.114   4.862  -0.400  1.00  0.00     0.161 HD
ENDBRANCH  26  29
ENDBRANCH   8  22
BRANCH  10  34
HETATM   34  C28 UNL     1       1.564   0.166  -1.374  1.00  0.00     0.316 C 
HETATM   35  O6  UNL     1       0.828  -0.344  -2.202  1.00  0.00    -0.262 OA
HETATM   36  N6  UNL     1       2.751   0.817  -1.633  1.00  0.00    -0.289 N 
HETATM   37  C29 UNL     1       2.563   2.128  -1.977  1.00  0.00     0.229 C 
ATOM     38  H6  UNL     1       3.667   0.372  -1.575  1.00  0.00     0.172 HD
HETATM   39  O7  UNL     1       2.902   3.004  -1.181  1.00  0.00    -0.273 OA
BRANCH  37  40
HETATM   40  C30 UNL     1       1.861   2.406  -3.301  1.00  0.00     0.085 C 
HETATM   41  C31 UNL     1       1.610   3.907  -3.528  1.00  0.00     0.041 C 
HETATM   42  C32 UNL     1       2.564   4.269  -4.618  1.00  0.00    -0.030 C 
HETATM   43  C33 UNL     1       3.161   3.199  -5.140  1.00  0.00    -0.030 C 
HETATM   44  C34 UNL     1       2.713   1.929  -4.488  1.00  0.00     0.041 C 
ENDBRANCH  37  40
ENDBRANCH  10  34
BRANCH   6  45
HETATM   45  C13 UNL     1      -4.726  -2.004  -1.283  1.00  0.00     0.107 C 
BRANCH  45  46
HETATM   46  C14 UNL     1      -4.696  -3.488  -0.866  1.00  0.00    -0.006 C 
HETATM   47  C15 UNL     1      -3.291  -4.091  -0.971  1.00  0.00     0.005 C 
HETATM   48  C16 UNL     1      -3.136  -4.560  -2.414  1.00  0.00     0.000 C 
HETATM   49  C17 UNL     1      -4.543  -4.615  -2.997  1.00  0.00     0.000 C 
HETATM   50  C18 UNL     1      -5.479  -4.397  -1.818  1.00  0.00     0.005 C 
ENDBRANCH  45  46
ENDBRANCH   6  45
TORSDOF 12
