REMARK  2 active torsions:
REMARK  status: ('A' for Active; 'I' for Inactive)
REMARK    1  A    between atoms: C5_5  and  C6_6 
REMARK    2  A    between atoms: C9_9  and  C10_10 
ROOT
HETATM    1  C1  UNL     1      -2.806   0.837   0.838  1.00  0.00     0.044 C 
HETATM    2  C2  UNL     1      -1.497   1.264   0.202  1.00  0.00    -0.076 C 
HETATM    3  C3  UNL     1      -1.430   2.759  -0.031  1.00  0.00     0.044 C 
HETATM    4  C4  UNL     1      -0.443   0.434  -0.018  1.00  0.00    -0.010 C 
HETATM    5  C5  UNL     1      -0.460  -0.989   0.350  1.00  0.00    -0.013 C 
HETATM    6  C9  UNL     1       0.332  -1.296   1.409  1.00  0.00     0.082 C 
HETATM    7  N1  UNL     1       1.259  -0.363   1.922  1.00  0.00    -0.315 N 
HETATM    8  C11 UNL     1       1.928  -0.622   3.184  1.00  0.00     0.160 C 
HETATM    9  C12 UNL     1       1.607   0.824   1.234  1.00  0.00     0.259 C 
HETATM   10  O2  UNL     1       2.386   1.668   1.663  1.00  0.00    -0.267 OA
HETATM   11  C13 UNL     1       0.914   0.984  -0.108  1.00  0.00     0.045 C 
HETATM   12  C14 UNL     1       1.506   1.514  -1.204  1.00  0.00    -0.071 C 
HETATM   13  C15 UNL     1       0.842   1.613  -2.557  1.00  0.00     0.044 C 
HETATM   14  C16 UNL     1       2.919   2.052  -1.208  1.00  0.00     0.044 C 
ENDROOT
BRANCH   5  15
HETATM   15  C6  UNL     1      -1.230  -1.996  -0.517  1.00  0.00     0.014 C 
HETATM   16  C7  UNL     1      -0.280  -3.053  -1.117  1.00  0.00     0.015 C 
HETATM   17  C8  UNL     1      -2.016  -1.406  -1.703  1.00  0.00     0.015 C 
ENDBRANCH   5  15
BRANCH   6  18
HETATM   18  C10 UNL     1       0.268  -2.664   2.027  1.00  0.00     0.288 C 
HETATM   19  O1  UNL     1      -0.770  -3.297   2.183  1.00  0.00    -0.300 OA
ENDBRANCH   6  18
TORSDOF 2
