REMARK  15 active torsions:
REMARK  status: ('A' for Active; 'I' for Inactive)
REMARK    1  A    between atoms: C2_2  and  C3_3 
REMARK    2  A    between atoms: C3_3  and  C4_4 
REMARK    3  A    between atoms: C4_4  and  C5_5 
REMARK       I    between atoms: C5_5  and  N1_7 
REMARK    4  A    between atoms: N1_7  and  C6_8 
REMARK    5  A    between atoms: N1_7  and  C8_10 
REMARK    6  A    between atoms: C8_10  and  C9_11 
REMARK    7  A    between atoms: C9_11  and  C10_12 
REMARK    8  A    between atoms: C9_11  and  C15_20 
REMARK    9  A    between atoms: C10_12  and  C11_13 
REMARK   10  A    between atoms: C11_13  and  C12_14 
REMARK   11  A    between atoms: C12_14  and  N2_15 
REMARK       I    between atoms: N2_15  and  C13_17 
REMARK   12  A    between atoms: C15_20  and  O3_21 
REMARK   13  A    between atoms: C15_20  and  N3_23 
REMARK       I    between atoms: N3_23  and  C16_25 
REMARK   14  A    between atoms: C16_25  and  C17_27 
REMARK   15  A    between atoms: C27_38  and  C29_40 
REMARK       I    between atoms: C29_40  and  N4_41 
ROOT
HETATM    1  C17 UNL     1      -1.054   0.318  -2.836  1.00  0.00     0.340 C 
HETATM    2  C18 UNL     1      -0.894   1.768  -2.332  1.00  0.00     0.216 C 
HETATM    3  O5  UNL     1       0.518   1.986  -2.050  1.00  0.00    -0.354 OA
HETATM    4  C19 UNL     1       1.152   0.942  -2.752  1.00  0.00     0.364 C 
HETATM    5  C20 UNL     1       2.563   0.547  -2.342  1.00  0.00     0.055 C 
HETATM    6  C21 UNL     1       3.762   1.473  -1.924  1.00  0.00     0.003 C 
HETATM    7  C22 UNL     1       3.619   2.591  -0.838  1.00  0.00     0.007 C 
HETATM    8  C23 UNL     1       4.163   2.436   0.659  1.00  0.00     0.010 C 
HETATM    9  C24 UNL     1       3.940   1.092   1.436  1.00  0.00    -0.042 C 
HETATM   10  C25 UNL     1       3.414   1.415   2.846  1.00  0.00     0.015 C 
HETATM   11  C26 UNL     1       5.018  -0.054   1.529  1.00  0.00     0.028 C 
HETATM   12  C27 UNL     1       4.572  -1.257   0.558  1.00  0.00     0.046 C 
HETATM   13  C28 UNL     1       3.740  -2.310   1.340  1.00  0.00     0.026 C 
HETATM   14  C30 UNL     1       3.766  -0.445  -0.489  1.00  0.00    -0.012 C 
HETATM   15  C31 UNL     1       2.923   0.398   0.616  1.00  0.00     0.021 C 
HETATM   16  C32 UNL     1       2.529  -0.715  -1.387  1.00  0.00     0.006 C 
HETATM   17  C33 UNL     1       2.053  -1.918  -2.223  1.00  0.00     0.036 C 
HETATM   18  C34 UNL     1       0.800  -1.471  -3.094  1.00  0.00     0.277 C 
HETATM   19  N5  UNL     1       0.281  -0.215  -2.560  1.00  0.00     0.133 N 
HETATM   20  C35 UNL     1       4.764   0.378  -1.503  1.00  0.00    -0.034 C 
HETATM   21  C36 UNL     1       5.193  -0.482  -2.755  1.00  0.00     0.016 C 
HETATM   22  C37 UNL     1       6.146   0.947  -1.118  1.00  0.00     0.016 C 
ENDROOT
BRANCH   1  23
HETATM   23  C16 UNL     1      -2.150  -0.398  -2.030  1.00  0.00     0.255 C 
HETATM   24  N3  UNL     1      -1.660  -1.202  -1.032  1.00  0.00    -0.332 N 
ATOM     25  H3  UNL     1      -0.689  -1.050  -0.761  1.00  0.00     0.165 HD
HETATM   26  O4  UNL     1      -3.339  -0.210  -2.268  1.00  0.00    -0.271 OA
BRANCH  24  27
HETATM   27  C15 UNL     1      -2.367  -2.234  -0.329  1.00  0.00     0.226 C 
BRANCH  27  28
HETATM   28  C9  UNL     1      -3.335  -1.774   0.799  1.00  0.00     0.052 C 
BRANCH  28  29
HETATM   29  C8  UNL     1      -4.849  -1.989   0.494  1.00  0.00     0.134 C 
BRANCH  29  30
HETATM   30  N1  UNL     1      -5.503  -0.865  -0.180  1.00  0.00    -0.352 N 
HETATM   31  C5  UNL     1      -5.547   0.327   0.541  1.00  0.00     0.219 C 
HETATM   32  O1  UNL     1      -5.372   0.365   1.762  1.00  0.00    -0.273 OA
BRANCH  31  33
HETATM   33  C4  UNL     1      -5.725   1.606  -0.251  1.00  0.00     0.103 C 
BRANCH  33  34
HETATM   34  C3  UNL     1      -4.548   2.538   0.063  1.00  0.00     0.009 C 
BRANCH  34  35
HETATM   35  C2  UNL     1      -4.733   3.942  -0.507  1.00  0.00    -0.004 C 
HETATM   36  C1  UNL     1      -3.514   4.807  -0.220  1.00  0.00     0.005 C 
ENDBRANCH  34  35
ENDBRANCH  33  34
ENDBRANCH  31  33
BRANCH  30  37
HETATM   37  C6  UNL     1      -6.611  -1.174  -1.087  1.00  0.00     0.121 C 
HETATM   38  C7  UNL     1      -6.200  -1.944  -2.334  1.00  0.00     0.026 C 
ENDBRANCH  30  37
ENDBRANCH  29  30
ENDBRANCH  28  29
BRANCH  28  39
HETATM   39  C10 UNL     1      -2.961  -2.573   2.087  1.00  0.00     0.012 C 
BRANCH  39  40
HETATM   40  C11 UNL     1      -3.478  -1.974   3.405  1.00  0.00     0.020 C 
BRANCH  40  41
HETATM   41  C12 UNL     1      -2.351  -1.770   4.424  1.00  0.00     0.122 C 
BRANCH  41  42
HETATM   42  N2  UNL     1      -1.427  -0.732   3.999  1.00  0.00    -0.361 N 
HETATM   43  C13 UNL     1      -1.494   0.557   4.476  1.00  0.00     0.213 C 
HETATM   44  C14 UNL     1      -0.553   1.515   3.796  1.00  0.00     0.117 C 
HETATM   45  O2  UNL     1      -2.243   0.917   5.377  1.00  0.00    -0.274 OA
ATOM     46  H2  UNL     1      -0.702  -0.968   3.322  1.00  0.00     0.162 HD
ENDBRANCH  41  42
ENDBRANCH  40  41
ENDBRANCH  39  40
ENDBRANCH  28  39
ENDBRANCH  27  28
BRANCH  27  47
HETATM   47  O3  UNL     1      -2.897  -3.130  -1.279  1.00  0.00    -0.376 OA
ATOM     48  H3  UNL     1      -2.306  -3.411  -1.968  1.00  0.00     0.212 HD
ENDBRANCH  27  47
ENDBRANCH  24  27
ENDBRANCH   1  23
BRANCH  12  49
HETATM   49  C29 UNL     1       5.739  -2.086   0.006  1.00  0.00     0.224 C 
HETATM   50  N4  UNL     1       6.856  -2.211   0.783  1.00  0.00    -0.369 N 
ATOM     51  H42 UNL     1       6.925  -1.654   1.635  1.00  0.00     0.159 HD
ATOM     52  H41 UNL     1       7.632  -2.762   0.416  1.00  0.00     0.159 HD
HETATM   53  O6  UNL     1       5.656  -2.757  -1.020  1.00  0.00    -0.273 OA
ENDBRANCH  12  49
TORSDOF 15
