REMARK  11 active torsions:
REMARK  status: ('A' for Active; 'I' for Inactive)
REMARK    1  A    between atoms: N1_1  and  C1_4 
REMARK    2  A    between atoms: C1_4  and  C2_8 
REMARK    3  A    between atoms: C6_12  and  C7_13 
REMARK    4  A    between atoms: C7_13  and  C8_14 
REMARK    5  A    between atoms: C8_14  and  N3_15 
REMARK       I    between atoms: N3_15  and  C9_17 
REMARK    6  A    between atoms: C9_17  and  C10_19 
REMARK    7  A    between atoms: C10_19  and  C11_20 
REMARK    8  A    between atoms: N4_28  and  C19_29 
REMARK    9  A    between atoms: C19_29  and  C20_30 
REMARK   10  A    between atoms: C28_38  and  C29_39 
REMARK   11  A    between atoms: C29_39  and  N5_40 
ROOT
HETATM    1  C11 UNL     1       3.230  -1.609   2.197  1.00  0.00    -0.006 C 
HETATM    2  C12 UNL     1       3.011  -3.072   1.774  1.00  0.00     0.006 C 
HETATM    3  C13 UNL     1       1.530  -3.478   1.736  1.00  0.00     0.010 C 
HETATM    4  C14 UNL     1       0.556  -2.304   1.481  1.00  0.00    -0.031 C 
HETATM    5  C15 UNL     1       0.760  -1.216   2.577  1.00  0.00     0.010 C 
HETATM    6  C16 UNL     1       2.161  -1.201   3.208  1.00  0.00     0.006 C 
HETATM    7  C17 UNL     1      -0.892  -2.835   1.501  1.00  0.00     0.030 C 
HETATM    8  C18 UNL     1      -1.907  -1.779   1.084  1.00  0.00     0.126 C 
HETATM    9  N4  UNL     1      -1.547  -1.041  -0.120  1.00  0.00    -0.351 N 
HETATM   10  C30 UNL     1      -0.227  -0.715  -0.375  1.00  0.00     0.220 C 
HETATM   11  O2  UNL     1       0.140   0.263  -1.022  1.00  0.00    -0.273 OA
HETATM   12  C31 UNL     1       0.780  -1.759   0.055  1.00  0.00     0.112 C 
ENDROOT
BRANCH   1  13
HETATM   13  C10 UNL     1       4.663  -1.342   2.694  1.00  0.00     0.107 C 
BRANCH  13  14
HETATM   14  C9  UNL     1       5.402  -0.415   1.741  1.00  0.00     0.217 C 
HETATM   15  N3  UNL     1       4.799   0.814   1.589  1.00  0.00    -0.361 N 
ATOM     16  H3  UNL     1       4.008   1.047   2.189  1.00  0.00     0.162 HD
HETATM   17  O1  UNL     1       6.424  -0.747   1.153  1.00  0.00    -0.274 OA
BRANCH  15  18
HETATM   18  C8  UNL     1       5.241   1.789   0.614  1.00  0.00     0.128 C 
BRANCH  18  19
HETATM   19  C7  UNL     1       4.077   2.620   0.062  1.00  0.00     0.079 C 
BRANCH  19  20
HETATM   20  C6  UNL     1       3.297   3.367   1.101  1.00  0.00     0.040 A 
HETATM   21  C5  UNL     1       1.961   3.642   1.251  1.00  0.00     0.016 A 
HETATM   22  C4  UNL     1       0.931   3.243   0.409  1.00  0.00     0.017 A 
HETATM   23  C32 UNL     1       1.829   4.465   2.429  1.00  0.00     0.061 A 
HETATM   24  C3  UNL     1      -0.312   3.753   0.845  1.00  0.00     0.016 A 
HETATM   25  C2  UNL     1      -0.500   4.571   2.014  1.00  0.00     0.009 A 
HETATM   26  C33 UNL     1       0.578   4.956   2.845  1.00  0.00     0.047 A 
HETATM   27  N7  UNL     1       3.038   4.638   2.985  1.00  0.00    -0.300 N 
HETATM   28  N6  UNL     1       3.890   4.008   2.158  1.00  0.00    -0.303 N 
ATOM     29  H7  UNL     1       3.261   5.138   3.846  1.00  0.00     0.187 HD
ATOM     30  H6  UNL     1       4.899   4.007   2.305  1.00  0.00     0.186 HD
BRANCH  25  31
HETATM   31  C1  UNL     1      -1.893   5.022   2.338  1.00  0.00     0.102 C 
HETATM   32  N2  UNL     1      -2.162   5.895   3.346  1.00  0.00    -0.385 N 
ATOM     33  H22 UNL     1      -3.109   6.202   3.566  1.00  0.00     0.157 HD
ATOM     34  H21 UNL     1      -1.382   6.268   3.887  1.00  0.00     0.157 HD
BRANCH  31  35
HETATM   35  N1  UNL     1      -2.884   4.548   1.650  1.00  0.00    -0.385 N 
ATOM     36  H12 UNL     1      -3.831   4.855   1.870  1.00  0.00     0.157 HD
ATOM     37  H11 UNL     1      -2.682   3.893   0.894  1.00  0.00     0.157 HD
ENDBRANCH  31  35
ENDBRANCH  25  31
ENDBRANCH  19  20
ENDBRANCH  18  19
ENDBRANCH  15  18
ENDBRANCH  13  14
ENDBRANCH   1  13
BRANCH   9  38
HETATM   38  C19 UNL     1      -2.624  -0.353  -0.842  1.00  0.00     0.135 C 
BRANCH  38  39
HETATM   39  C20 UNL     1      -3.105  -1.107  -2.116  1.00  0.00    -0.018 C 
HETATM   40  C21 UNL     1      -4.678  -0.927  -2.254  1.00  0.00     0.012 C 
HETATM   41  C22 UNL     1      -4.986  -0.938  -3.794  1.00  0.00     0.011 C 
HETATM   42  C23 UNL     1      -3.650  -1.455  -4.386  1.00  0.00    -0.034 C 
HETATM   43  C24 UNL     1      -2.539  -2.558  -4.881  1.00  0.00     0.014 C 
HETATM   44  C26 UNL     1      -4.272  -3.026  -3.992  1.00  0.00     0.014 C 
HETATM   45  C28 UNL     1      -2.729  -0.489  -3.473  1.00  0.00     0.029 C 
HETATM   46  C25 UNL     1      -2.857  -3.300  -3.552  1.00  0.00    -0.012 C 
HETATM   47  C27 UNL     1      -2.626  -2.619  -2.175  1.00  0.00     0.016 C 
BRANCH  45  48
HETATM   48  C29 UNL     1      -1.270  -0.266  -3.897  1.00  0.00     0.235 C 
BRANCH  48  49
HETATM   49  N5  UNL     1      -0.763   1.031  -3.454  1.00  0.00    -0.079 N 
ATOM     50  H53 UNL     1      -1.362   1.792  -3.775  1.00  0.00     0.274 HD
ATOM     51  H52 UNL     1      -0.878   1.149  -2.447  1.00  0.00     0.274 HD
ATOM     52  H51 UNL     1       0.206   1.179  -3.736  1.00  0.00     0.274 HD
ENDBRANCH  48  49
ENDBRANCH  45  48
ENDBRANCH  38  39
ENDBRANCH   9  38
TORSDOF 11
