REMARK  11 active torsions:
REMARK  status: ('A' for Active; 'I' for Inactive)
REMARK    1  A    between atoms: C9_11  and  N2_12 
REMARK    2  A    between atoms: N2_12  and  C10_14 
REMARK    3  A    between atoms: C10_14  and  C11_15 
REMARK    4  A    between atoms: C11_15  and  C12_16 
REMARK    5  A    between atoms: C12_16  and  C13_17 
REMARK    6  A    between atoms: C13_17  and  C14_18 
REMARK    7  A    between atoms: C14_18  and  N3_19 
REMARK    8  A    between atoms: N3_19  and  C15_22 
REMARK    9  A    between atoms: C15_22  and  C16_23 
REMARK   10  A    between atoms: C16_23  and  N4_24 
REMARK       I    between atoms: N4_24  and  C17_26 
REMARK       I    between atoms: C17_26  and  N5_27 
REMARK   11  A    between atoms: C26_43  and  O1_44 
ROOT
HETATM    1  C1  UNL     1       2.082  -4.126   2.332  1.00  0.00     0.046 C 
HETATM    2  C2  UNL     1       2.624  -2.724   2.139  1.00  0.00    -0.053 C 
HETATM    3  C3  UNL     1       2.204  -1.709   2.984  1.00  0.00    -0.021 C 
HETATM    4  C4  UNL     1       2.487  -0.139   2.963  1.00  0.00     0.038 C 
HETATM    5  C5  UNL     1       2.104   0.557   1.606  1.00  0.00    -0.024 C 
HETATM    6  C6  UNL     1       0.611   0.994   1.781  1.00  0.00     0.040 C 
HETATM    7  C7  UNL     1       0.232   2.528   1.545  1.00  0.00     0.005 C 
HETATM    8  C8  UNL     1       0.665   3.424   0.334  1.00  0.00     0.053 C 
HETATM    9  N1  UNL     1      -0.128   4.561   0.151  1.00  0.00    -0.192 N 
ATOM     10  H1  UNL     1      -0.274   5.275   0.865  1.00  0.00     0.184 HD
HETATM   11  C9  UNL     1      -0.687   4.604  -1.101  1.00  0.00     0.678 C 
HETATM   12  N7  UNL     1       0.136   4.487  -2.194  1.00  0.00    -0.201 N 
ATOM     13  H7  UNL     1      -0.087   4.883  -3.107  1.00  0.00     0.183 HD
HETATM   14  C18 UNL     1       1.231   3.820  -1.950  1.00  0.00     0.116 C 
HETATM   15  C19 UNL     1       1.506   3.067  -0.678  1.00  0.00    -0.006 C 
HETATM   16  C20 UNL     1       2.151   1.714  -0.628  1.00  0.00    -0.004 C 
HETATM   17  C21 UNL     1       2.757   1.738   0.934  1.00  0.00     0.026 C 
HETATM   18  C22 UNL     1       3.308   0.867  -1.423  1.00  0.00     0.026 C 
HETATM   19  C23 UNL     1       3.549  -0.522  -0.635  1.00  0.00    -0.023 C 
HETATM   20  C24 UNL     1       4.854  -0.502   0.091  1.00  0.00     0.019 C 
HETATM   21  C25 UNL     1       4.066  -1.174   1.174  1.00  0.00     0.036 C 
HETATM   22  C26 UNL     1       3.641  -2.566   0.924  1.00  0.00     0.089 C 
HETATM   23  C27 UNL     1       3.207  -2.184  -0.544  1.00  0.00     0.034 C 
HETATM   24  C28 UNL     1       2.671  -2.894  -1.774  1.00  0.00     0.009 C 
HETATM   25  C29 UNL     1       1.069  -2.880  -1.736  1.00  0.00     0.001 C 
HETATM   26  C30 UNL     1       0.411  -1.792  -0.763  1.00  0.00     0.006 C 
HETATM   27  C31 UNL     1       1.317  -0.562  -0.694  1.00  0.00     0.001 C 
HETATM   28  C32 UNL     1       0.847   0.828  -1.002  1.00  0.00    -0.000 C 
HETATM   29  C33 UNL     1       0.349   0.959  -2.476  1.00  0.00     0.011 C 
HETATM   30  C34 UNL     1       2.540  -0.453   0.532  1.00  0.00    -0.013 C 
ENDROOT
BRANCH  11  31
HETATM   31  N2  UNL     1      -1.968   4.577  -1.084  1.00  0.00    -0.226 N 
ATOM     32  H2  UNL     1      -2.442   4.937  -0.256  1.00  0.00     0.177 HD
BRANCH  31  33
HETATM   33  C10 UNL     1      -2.783   4.070  -2.162  1.00  0.00     0.138 C 
BRANCH  33  34
HETATM   34  C11 UNL     1      -3.495   2.806  -1.604  1.00  0.00     0.020 C 
BRANCH  34  35
HETATM   35  C12 UNL     1      -4.059   3.007  -0.179  1.00  0.00     0.003 C 
BRANCH  35  36
HETATM   36  C13 UNL     1      -5.167   2.036   0.250  1.00  0.00     0.027 C 
BRANCH  36  37
HETATM   37  C14 UNL     1      -4.766   0.569   0.463  1.00  0.00     0.232 C 
BRANCH  37  38
HETATM   38  N3  UNL     1      -3.834   0.393   1.587  1.00  0.00    -0.074 N 
ATOM     39  H32 UNL     1      -2.960   0.895   1.433  1.00  0.00     0.277 HD
ATOM     40  H31 UNL     1      -4.152   0.888   2.420  1.00  0.00     0.277 HD
BRANCH  38  41
HETATM   41  C15 UNL     1      -3.599  -1.039   1.861  1.00  0.00     0.252 C 
BRANCH  41  42
HETATM   42  C16 UNL     1      -2.453  -1.625   1.022  1.00  0.00     0.165 C 
BRANCH  42  43
HETATM   43  N4  UNL     1      -2.828  -2.952   0.530  1.00  0.00    -0.225 N 
HETATM   44  C17 UNL     1      -3.076  -3.138  -0.710  1.00  0.00     0.665 C 
HETATM   45  N5  UNL     1      -3.408  -4.377  -1.151  1.00  0.00    -0.235 N 
HETATM   46  N6  UNL     1      -3.074  -2.276  -1.750  1.00  0.00    -0.235 N 
ATOM     47  H52 UNL     1      -3.410  -5.028  -0.366  1.00  0.00     0.174 HD
ATOM     48  H51 UNL     1      -3.606  -4.525  -2.141  1.00  0.00     0.174 HD
ATOM     49  H62 UNL     1      -2.824  -1.344  -1.418  1.00  0.00     0.174 HD
ATOM     50  H61 UNL     1      -3.272  -2.424  -2.740  1.00  0.00     0.174 HD
ATOM     51  H4  UNL     1      -2.892  -3.734   1.182  1.00  0.00     0.177 HD
ENDBRANCH  42  43
ENDBRANCH  41  42
ENDBRANCH  38  41
ENDBRANCH  37  38
ENDBRANCH  36  37
ENDBRANCH  35  36
ENDBRANCH  34  35
ENDBRANCH  33  34
ENDBRANCH  31  33
ENDBRANCH  11  31
BRANCH  22  52
HETATM   52  O1  UNL     1       4.701  -3.480   0.975  1.00  0.00    -0.384 OA
ATOM     53  H1  UNL     1       5.308  -3.386   0.250  1.00  0.00     0.211 HD
ENDBRANCH  22  52
TORSDOF 11
