REMARK  7 active torsions:
REMARK  status: ('A' for Active; 'I' for Inactive)
REMARK    1  A    between atoms: N1_1  and  C1_5 
REMARK    2  A    between atoms: C1_5  and  O1_8 
REMARK    3  A    between atoms: O1_8  and  C2_9 
REMARK    4  A    between atoms: C2_9  and  C3_10 
REMARK    5  A    between atoms: C10_17  and  O2_18 
REMARK    6  A    between atoms: N2_30  and  C18_31 
REMARK    7  A    between atoms: C18_31  and  C19_32 
ROOT
HETATM    1  C3  UNL     1       2.176   0.138  -1.706  1.00  0.00     0.019 C 
HETATM    2  C4  UNL     1       0.592   0.115  -1.631  1.00  0.00     0.023 C 
HETATM    3  C5  UNL     1       0.787   0.383  -0.105  1.00  0.00     0.010 C 
HETATM    4  C6  UNL     1       0.736   2.117   0.346  1.00  0.00    -0.005 C 
HETATM    5  C7  UNL     1      -0.499   2.725   0.193  1.00  0.00    -0.046 C 
HETATM    6  C8  UNL     1      -0.726   4.073   0.513  1.00  0.00     0.011 C 
HETATM    7  C9  UNL     1       0.208   4.733   1.314  1.00  0.00     0.040 C 
HETATM    8  C10 UNL     1       1.197   3.974   1.923  1.00  0.00     0.099 C 
HETATM    9  C11 UNL     1       1.357   2.648   1.519  1.00  0.00     0.110 C 
HETATM   10  O3  UNL     1       1.850   1.708   2.480  1.00  0.00    -0.338 OA
HETATM   11  C12 UNL     1       1.841   0.399   1.864  1.00  0.00     0.180 C 
HETATM   12  C13 UNL     1       2.900  -0.469   1.064  1.00  0.00     0.145 C 
HETATM   13 CL1  UNL     1       3.205  -2.071   1.779  1.00  0.00    -0.098 Cl
HETATM   14 CL2  UNL     1       4.530   0.272   0.804  1.00  0.00    -0.098 Cl
HETATM   15  C14 UNL     1       2.130  -0.540  -0.293  1.00  0.00     0.047 C 
HETATM   16  C15 UNL     1       0.330  -0.068   1.262  1.00  0.00     0.035 C 
HETATM   17  C16 UNL     1       0.043  -1.562   1.482  1.00  0.00     0.045 C 
HETATM   18  C17 UNL     1      -1.382  -1.655   1.993  1.00  0.00     0.274 C 
HETATM   19  N2  UNL     1      -2.009  -0.545   1.317  1.00  0.00     0.094 N 
HETATM   20  C22 UNL     1      -1.111   0.615   1.454  1.00  0.00     0.239 C 
HETATM   21  C23 UNL     1      -1.581   1.677   0.340  1.00  0.00     0.076 C 
ENDROOT
BRANCH   1  22
HETATM   22  C2  UNL     1       2.809  -0.646  -2.848  1.00  0.00     0.181 C 
BRANCH  22  23
HETATM   23  O1  UNL     1       2.421  -2.010  -2.741  1.00  0.00    -0.303 OA
BRANCH  23  24
HETATM   24  C1  UNL     1       2.767  -2.739  -3.892  1.00  0.00     0.531 C 
HETATM   25  F1  UNL     1       2.026  -2.295  -4.923  1.00  0.00    -0.150 F 
HETATM   26  F2  UNL     1       4.071  -2.557  -4.170  1.00  0.00    -0.150 F 
BRANCH  24  27
HETATM   27  N1  UNL     1       2.512  -4.124  -3.669  1.00  0.00     0.014 N 
ATOM     28  H13 UNL     1       1.519  -4.313  -3.535  1.00  0.00     0.284 HD
ATOM     29  H12 UNL     1       2.657  -4.680  -4.512  1.00  0.00     0.284 HD
ATOM     30  H11 UNL     1       3.074  -4.461  -2.887  1.00  0.00     0.284 HD
ENDBRANCH  24  27
ENDBRANCH  23  24
ENDBRANCH  22  23
ENDBRANCH   1  22
BRANCH   8  31
HETATM   31  O2  UNL     1       1.924   4.460   2.965  1.00  0.00    -0.358 OA
ATOM     32  H2  UNL     1       2.601   3.940   3.382  1.00  0.00     0.217 HD
ENDBRANCH   8  31
BRANCH  19  33
HETATM   33  C18 UNL     1      -3.408  -0.347   1.673  1.00  0.00     0.277 C 
BRANCH  33  34
HETATM   34  C19 UNL     1      -4.301  -0.618   0.488  1.00  0.00     0.014 A 
HETATM   35  C20 UNL     1      -4.629  -2.040   0.090  1.00  0.00     0.007 A 
HETATM   36  C21 UNL     1      -3.811  -1.187  -0.833  1.00  0.00     0.007 A 
ENDBRANCH  33  34
ENDBRANCH  19  33
TORSDOF 7
