REMARK  15 active torsions:
REMARK  status: ('A' for Active; 'I' for Inactive)
REMARK    1  A    between atoms: C2_2  and  C3_3 
REMARK    2  A    between atoms: C3_3  and  O1_4 
REMARK    3  A    between atoms: C8_10  and  C9_11 
REMARK    4  A    between atoms: C14_17  and  C15_18 
REMARK    5  A    between atoms: C15_18  and  O3_19 
REMARK    6  A    between atoms: O3_19  and  C16_20 
REMARK    7  A    between atoms: C16_20  and  C17_22 
REMARK    8  A    between atoms: C17_22  and  C18_23 
REMARK    9  A    between atoms: C18_23  and  C19_24 
REMARK   10  A    between atoms: C19_24  and  N1_25 
REMARK   11  A    between atoms: C23_29  and  O5_30 
REMARK   12  A    between atoms: C24_32  and  O6_33 
REMARK   13  A    between atoms: O6_33  and  C25_34 
REMARK   14  A    between atoms: C25_34  and  C26_36 
REMARK   15  A    between atoms: C26_36  and  N2_37 
ROOT
HETATM    1  C3  UNL     1       2.905  -1.204   1.703  1.00  0.00     0.072 C 
HETATM    2  C4  UNL     1       3.229  -0.841   0.230  1.00  0.00     0.080 C 
HETATM    3  C5  UNL     1       2.853  -1.693  -1.033  1.00  0.00    -0.061 C 
HETATM    4  C6  UNL     1       2.848  -3.200  -0.897  1.00  0.00     0.001 C 
HETATM    5  C7  UNL     1       1.992  -3.922   0.117  1.00  0.00    -0.014 C 
HETATM    6  C8  UNL     1       0.625  -3.476   0.630  1.00  0.00     0.079 C 
HETATM    7  C10 UNL     1       0.336  -2.038   1.202  1.00  0.00    -0.014 C 
HETATM    8  C11 UNL     1      -0.918  -2.291   2.171  1.00  0.00     0.018 C 
HETATM    9  C12 UNL     1       1.393  -1.226   2.042  1.00  0.00     0.032 C 
HETATM   10  C13 UNL     1       0.528   0.069   1.742  1.00  0.00     0.022 C 
HETATM   11  C14 UNL     1       0.168  -0.534   0.326  1.00  0.00     0.004 C 
HETATM   12  C22 UNL     1       1.202   0.077  -0.775  1.00  0.00     0.035 C 
HETATM   13  C23 UNL     1       2.598   0.486  -0.111  1.00  0.00     0.142 C 
HETATM   14  C24 UNL     1       0.822   1.354  -1.620  1.00  0.00     0.148 C 
HETATM   15  C29 UNL     1       1.183   1.056  -3.093  1.00  0.00     0.013 C 
HETATM   16  C30 UNL     1      -0.012   0.943  -4.038  1.00  0.00     0.012 C 
HETATM   17  C31 UNL     1       2.096  -0.183  -3.043  1.00  0.00     0.021 C 
HETATM   18  C32 UNL     1       1.654  -1.009  -1.790  1.00  0.00    -0.006 C 
HETATM   19  C33 UNL     1       0.631  -1.986  -2.370  1.00  0.00     0.021 C 
ENDROOT
BRANCH  11  20
HETATM   20  C15 UNL     1      -1.345  -0.281   0.026  1.00  0.00     0.190 C 
BRANCH  20  21
HETATM   21  O3  UNL     1      -1.726  -0.903  -1.208  1.00  0.00    -0.321 OA
BRANCH  21  22
HETATM   22  C16 UNL     1      -2.798  -1.699  -1.425  1.00  0.00     0.258 C 
HETATM   23  O4  UNL     1      -2.886  -2.321  -2.484  1.00  0.00    -0.265 OA
BRANCH  22  24
HETATM   24  C17 UNL     1      -3.897  -1.805  -0.400  1.00  0.00     0.113 C 
BRANCH  24  25
HETATM   25  C18 UNL     1      -5.157  -1.071  -0.859  1.00  0.00     0.040 C 
BRANCH  25  26
HETATM   26  C19 UNL     1      -5.548   0.069   0.090  1.00  0.00     0.271 C 
BRANCH  26  27
HETATM   27  N1  UNL     1      -4.534   1.131   0.201  1.00  0.00     0.080 N 
HETATM   28  C20 UNL     1      -4.835   1.982   1.358  1.00  0.00     0.309 C 
HETATM   29  C21 UNL     1      -4.502   1.951  -1.016  1.00  0.00     0.309 C 
ENDBRANCH  26  27
ENDBRANCH  25  26
ENDBRANCH  24  25
ENDBRANCH  22  24
ENDBRANCH  21  22
ENDBRANCH  20  21
ENDBRANCH  11  20
BRANCH   6  30
HETATM   30  C9  UNL     1       0.373  -4.576   1.680  1.00  0.00     0.240 C 
HETATM   31  O2  UNL     1      -0.536  -5.397   1.602  1.00  0.00    -0.306 OA
ENDBRANCH   6  30
BRANCH  13  32
HETATM   32  O5  UNL     1       3.503   1.168  -0.989  1.00  0.00    -0.394 OA
ATOM     33  H5  UNL     1       3.106   2.004  -1.204  1.00  0.00     0.210 HD
ENDBRANCH  13  32
BRANCH  14  34
HETATM   34  O6  UNL     1      -0.482   1.883  -1.433  1.00  0.00    -0.313 OA
BRANCH  34  35
HETATM   35  C25 UNL     1      -0.518   3.250  -1.463  1.00  0.00     0.287 C 
HETATM   36  O7  UNL     1      -0.103   3.940  -2.387  1.00  0.00    -0.263 OA
BRANCH  35  37
HETATM   37  C26 UNL     1      -1.012   3.801  -0.131  1.00  0.00     0.381 C 
BRANCH  37  38
HETATM   38  N2  UNL     1       0.094   3.859   0.858  1.00  0.00     0.089 N 
HETATM   39  C27 UNL     1       1.057   4.907   0.494  1.00  0.00     0.310 C 
HETATM   40  C28 UNL     1      -0.438   4.120   2.196  1.00  0.00     0.310 C 
ENDBRANCH  37  38
ENDBRANCH  35  37
ENDBRANCH  34  35
ENDBRANCH  14  34
BRANCH   1  41
HETATM   41  C2  UNL     1       3.566  -0.220   2.740  1.00  0.00     0.034 C 
HETATM   42  C1  UNL     1       5.070  -0.011   2.598  1.00  0.00     0.008 C 
ENDBRANCH   1  41
BRANCH   1  43
HETATM   43  O1  UNL     1       3.447  -2.479   2.037  1.00  0.00    -0.389 OA
ATOM     44  H1  UNL     1       3.048  -3.073   1.411  1.00  0.00     0.210 HD
ENDBRANCH   1  43
TORSDOF 15
