REMARK  11 active torsions:
REMARK  status: ('A' for Active; 'I' for Inactive)
REMARK    1  A    between atoms: C2_2  and  C3_3 
REMARK    2  A    between atoms: C3_3  and  C4_4 
REMARK    3  A    between atoms: C4_4  and  O1_5 
REMARK    4  A    between atoms: O1_5  and  C5_6 
REMARK    5  A    between atoms: C9_11  and  O2_12 
REMARK    6  A    between atoms: O2_12  and  C10_13 
REMARK    7  A    between atoms: C10_13  and  C11_14 
REMARK    8  A    between atoms: C11_14  and  O3_15 
REMARK    9  A    between atoms: O3_15  and  C12_16 
REMARK   10  A    between atoms: C12_16  and  N2_17 
REMARK   11  A    between atoms: C14_21  and  C15_22 
REMARK       I    between atoms: C15_22  and  N4_23 
ROOT
HETATM    1  C5  UNL     1      -1.333   1.166   0.898  1.00  0.00     0.147 C 
HETATM    2  C6  UNL     1      -1.042  -0.231   0.771  1.00  0.00     0.079 C 
HETATM    3  C7  UNL     1      -1.045  -1.036   1.955  1.00  0.00    -0.005 C 
HETATM    4  C8  UNL     1      -0.983  -0.354   3.145  1.00  0.00     0.024 A 
HETATM    5  N1  UNL     1      -1.062   0.955   3.200  1.00  0.00    -0.328 N 
HETATM    6  C9  UNL     1      -1.262   1.764   2.172  1.00  0.00     0.181 C 
HETATM    7  C17 UNL     1      -1.077   1.036   4.609  1.00  0.00     0.137 A 
HETATM    8  C18 UNL     1      -0.908  -0.504   4.629  1.00  0.00     0.078 A 
HETATM    9  C19 UNL     1      -1.196  -2.539   2.078  1.00  0.00     0.047 C 
HETATM   10  C20 UNL     1       0.094  -3.384   2.213  1.00  0.00     0.040 C 
HETATM   11  C21 UNL     1       0.900  -3.396   0.932  1.00  0.00    -0.059 C 
HETATM   12  C22 UNL     1       1.688  -2.268   0.683  1.00  0.00     0.005 C 
HETATM   13  C23 UNL     1       1.441  -1.773  -0.588  1.00  0.00     0.196 C 
HETATM   14  C24 UNL     1       0.057  -1.831  -0.883  1.00  0.00     0.031 C 
HETATM   15  C25 UNL     1      -0.484  -3.112  -0.860  1.00  0.00     0.025 C 
HETATM   16  C26 UNL     1       0.359  -4.008  -0.225  1.00  0.00     0.127 C 
HETATM   17  N5  UNL     1       1.438  -4.456  -1.134  1.00  0.00    -0.202 NA
HETATM   18  C27 UNL     1       1.009  -5.397  -2.194  1.00  0.00     0.130 C 
HETATM   19  S1  UNL     1       2.277  -3.042  -1.767  1.00  0.00     0.225 S 
HETATM   20  O5  UNL     1       1.804  -2.746  -3.099  1.00  0.00    -0.210 OA
HETATM   21  O6  UNL     1       3.671  -3.090  -1.382  1.00  0.00    -0.210 OA
HETATM   22  N6  UNL     1      -0.799  -0.731  -0.556  1.00  0.00    -0.355 N 
ATOM     23  H6  UNL     1      -1.276  -0.263  -1.327  1.00  0.00     0.166 HD
ENDROOT
BRANCH   6  24
HETATM   24  O2  UNL     1      -1.530   3.095   2.340  1.00  0.00    -0.331 OA
BRANCH  24  25
HETATM   25  C10 UNL     1      -0.342   3.849   2.640  1.00  0.00     0.203 C 
BRANCH  25  26
HETATM   26  C11 UNL     1       0.300   4.404   1.367  1.00  0.00     0.196 C 
BRANCH  26  27
HETATM   27  O3  UNL     1       1.242   3.466   0.842  1.00  0.00    -0.370 OA
BRANCH  27  28
HETATM   28  C12 UNL     1       1.888   3.999  -0.323  1.00  0.00     0.298 C 
BRANCH  28  29
HETATM   29  N2  UNL     1       2.333   2.889  -1.139  1.00  0.00    -0.329 N 
HETATM   30  C13 UNL     1       1.722   2.456  -2.277  1.00  0.00     0.185 A 
HETATM   31  N3  UNL     1       2.375   1.456  -2.816  1.00  0.00    -0.347 N 
HETATM   32  C14 UNL     1       3.506   1.269  -2.036  1.00  0.00     0.117 A 
ATOM     33  H3  UNL     1       2.106   0.923  -3.643  1.00  0.00     0.167 HD
HETATM   34  C16 UNL     1       3.470   2.147  -0.964  1.00  0.00     0.129 A 
BRANCH  32  35
HETATM   35  C15 UNL     1       4.550   0.291  -2.359  1.00  0.00     0.267 C 
HETATM   36  N4  UNL     1       5.328  -0.109  -1.305  1.00  0.00    -0.365 N 
ATOM     37  H42 UNL     1       5.177   0.290  -0.379  1.00  0.00     0.159 HD
ATOM     38  H41 UNL     1       6.054  -0.789  -1.530  1.00  0.00     0.159 HD
HETATM   39  O4  UNL     1       4.731  -0.189  -3.473  1.00  0.00    -0.266 OA
ENDBRANCH  32  35
ENDBRANCH  28  29
ENDBRANCH  27  28
ENDBRANCH  26  27
ENDBRANCH  25  26
ENDBRANCH  24  25
ENDBRANCH   6  24
BRANCH   1  40
HETATM   40  O1  UNL     1      -1.654   2.029  -0.124  1.00  0.00    -0.345 OA
BRANCH  40  41
HETATM   41  C4  UNL     1      -2.313   1.600  -1.327  1.00  0.00     0.176 C 
BRANCH  41  42
HETATM   42  C3  UNL     1      -3.655   0.885  -1.131  1.00  0.00     0.026 C 
BRANCH  42  43
HETATM   43  C2  UNL     1      -4.073   0.030  -2.336  1.00  0.00    -0.002 C 
HETATM   44  C1  UNL     1      -4.104   0.761  -3.669  1.00  0.00     0.005 C 
ENDBRANCH  42  43
ENDBRANCH  41  42
ENDBRANCH  40  41
ENDBRANCH   1  40
TORSDOF 11
