REMARK  14 active torsions:
REMARK  status: ('A' for Active; 'I' for Inactive)
REMARK    1  A    between atoms: C4_4  and  C5_5 
REMARK    2  A    between atoms: C6_6  and  C7_7 
REMARK    3  A    between atoms: C10_11  and  C11_12 
REMARK    4  A    between atoms: C11_12  and  C14_15 
REMARK       I    between atoms: C14_15  and  N1_17 
REMARK    5  A    between atoms: N1_17  and  C15_19 
REMARK    6  A    between atoms: C18_22  and  O3_23 
REMARK    7  A    between atoms: O3_23  and  C19_24 
REMARK    8  A    between atoms: C19_24  and  C20_26 
REMARK    9  A    between atoms: C20_26  and  C21_27 
REMARK   10  A    between atoms: C21_27  and  N2_28 
REMARK   11  A    between atoms: C22_31  and  O7_32 
REMARK   12  A    between atoms: C23_34  and  O8_35 
REMARK   13  A    between atoms: O8_35  and  C24_36 
REMARK   14  A    between atoms: C24_36  and  C25_38 
ROOT
HETATM    1  C1  UNL     1       5.671   4.942   0.524  1.00  0.00     0.017 C 
HETATM    2  C2  UNL     1       5.625   4.091   1.363  1.00  0.00    -0.089 C 
HETATM    3  C3  UNL     1       5.429   3.077   2.354  1.00  0.00     0.063 C 
HETATM    4  C4  UNL     1       4.440   2.167   2.280  1.00  0.00     0.009 C 
ENDROOT
BRANCH   4   5
HETATM    5  C5  UNL     1       3.556   2.024   1.147  1.00  0.00    -0.002 C 
HETATM    6  C6  UNL     1       2.271   1.676   1.228  1.00  0.00    -0.013 C 
BRANCH   6   7
HETATM    7  C7  UNL     1       1.399   1.655   0.034  1.00  0.00     0.026 C 
HETATM    8  C8  UNL     1       1.589   0.596  -1.082  1.00  0.00     0.062 C 
HETATM    9  C9  UNL     1       0.072   0.944  -1.282  1.00  0.00     0.125 C 
HETATM   10  O1  UNL     1      -0.806  -0.032  -1.856  1.00  0.00    -0.361 OA
HETATM   11  C22 UNL     1      -0.020   0.908   0.264  1.00  0.00     0.133 C 
HETATM   12  C23 UNL     1      -0.017   2.410  -1.735  1.00  0.00     0.178 C 
HETATM   13  C10 UNL     1      -0.759  -1.204  -0.997  1.00  0.00     0.193 C 
HETATM   14  C18 UNL     1      -0.503  -0.570   0.419  1.00  0.00     0.204 C 
HETATM   15  C28 UNL     1       1.073   2.989  -0.748  1.00  0.00    -0.004 C 
HETATM   16  C29 UNL     1       0.609   4.130   0.165  1.00  0.00     0.019 C 
HETATM   17  C30 UNL     1       2.295   3.518  -1.531  1.00  0.00     0.019 C 
BRANCH  13  18
HETATM   18  C11 UNL     1       0.076  -2.249  -1.699  1.00  0.00     0.037 C 
HETATM   19  C12 UNL     1       0.163  -2.471  -3.030  1.00  0.00    -0.016 C 
HETATM   20  C13 UNL     1      -0.859  -1.996  -4.011  1.00  0.00     0.037 C 
BRANCH  18  21
HETATM   21  C14 UNL     1       0.449  -3.408  -0.843  1.00  0.00     0.250 C 
HETATM   22  O2  UNL     1       1.159  -3.269   0.134  1.00  0.00    -0.268 OA
HETATM   23  N1  UNL     1      -0.263  -4.561  -1.166  1.00  0.00    -0.353 N 
ATOM     24  H1  UNL     1      -0.451  -4.781  -2.144  1.00  0.00     0.163 HD
BRANCH  23  25
HETATM   25  C15 UNL     1      -0.745  -5.462  -0.115  1.00  0.00     0.076 C 
HETATM   26  C16 UNL     1       0.338  -6.027   0.813  1.00  0.00     0.032 C 
HETATM   27  C17 UNL     1      -1.576  -6.613  -0.701  1.00  0.00     0.032 C 
ENDBRANCH  23  25
ENDBRANCH  18  21
ENDBRANCH  13  18
BRANCH  14  28
HETATM   28  O3  UNL     1       0.262  -1.188   1.450  1.00  0.00    -0.310 OA
BRANCH  28  29
HETATM   29  C19 UNL     1      -0.447  -1.978   2.302  1.00  0.00     0.261 C 
HETATM   30  O4  UNL     1      -1.486  -2.565   2.030  1.00  0.00    -0.265 OA
BRANCH  29  31
HETATM   31  C20 UNL     1       0.134  -1.914   3.687  1.00  0.00     0.137 C 
BRANCH  31  32
HETATM   32  C21 UNL     1      -1.030  -1.643   4.635  1.00  0.00     0.211 C 
BRANCH  32  33
HETATM   33  N2  UNL     1      -0.533  -0.851   5.800  1.00  0.00    -0.155 N 
HETATM   34  O5  UNL     1       0.039  -1.477   6.704  1.00  0.00    -0.537 OA
HETATM   35  O6  UNL     1      -0.728   0.373   5.777  1.00  0.00    -0.537 OA
ENDBRANCH  32  33
ENDBRANCH  31  32
ENDBRANCH  29  31
ENDBRANCH  28  29
ENDBRANCH  14  28
BRANCH  11  36
HETATM   36  O7  UNL     1      -1.003   1.717   0.974  1.00  0.00    -0.383 OA
ATOM     37  H7  UNL     1      -1.835   1.279   1.109  1.00  0.00     0.210 HD
ENDBRANCH  11  36
BRANCH  12  38
HETATM   38  O8  UNL     1      -1.350   2.879  -1.464  1.00  0.00    -0.312 OA
BRANCH  38  39
HETATM   39  C24 UNL     1      -2.216   2.803  -2.518  1.00  0.00     0.262 C 
HETATM   40  O9  UNL     1      -1.894   2.544  -3.673  1.00  0.00    -0.265 OA
BRANCH  39  41
HETATM   41  C25 UNL     1      -3.671   2.942  -2.084  1.00  0.00     0.077 C 
HETATM   42  C26 UNL     1      -4.201   1.547  -1.747  1.00  0.00     0.020 C 
HETATM   43  C27 UNL     1      -3.886   3.913  -0.923  1.00  0.00     0.020 C 
ENDBRANCH  39  41
ENDBRANCH  38  39
ENDBRANCH  12  38
ENDBRANCH   6   7
ENDBRANCH   4   5
TORSDOF 14
