REMARK  10 active torsions:
REMARK  status: ('A' for Active; 'I' for Inactive)
REMARK    1  A    between atoms: O1_2  and  C2_3 
REMARK    2  A    between atoms: C2_3  and  C3_5 
REMARK    3  A    between atoms: C3_5  and  C4_6 
REMARK    4  A    between atoms: C4_6  and  C5_7 
REMARK    5  A    between atoms: C5_7  and  C6_8 
REMARK    6  A    between atoms: C6_8  and  C8_10 
REMARK    7  A    between atoms: C9_11  and  C10_12 
REMARK    8  A    between atoms: C11_13  and  C12_14 
REMARK    9  A    between atoms: C19_24  and  O6_25 
REMARK   10  A    between atoms: C20_27  and  O7_28 
ROOT
HETATM    1  C12 UNL     1       2.513   1.108  -1.066  1.00  0.00     0.127 C 
HETATM    2  O3  UNL     1       3.151   0.729  -2.352  1.00  0.00    -0.300 OA
HETATM    3  C13 UNL     1       3.893  -0.392  -2.072  1.00  0.00     0.298 C 
HETATM    4  O4  UNL     1       4.555  -1.007  -2.882  1.00  0.00    -0.262 OA
HETATM    5  C14 UNL     1       3.700  -0.500  -0.538  1.00  0.00     0.187 C 
HETATM    6  O5  UNL     1       3.671  -1.677   0.273  1.00  0.00    -0.356 OA
HETATM    7  C15 UNL     1       2.329  -1.342   0.736  1.00  0.00     0.066 C 
HETATM    8  C16 UNL     1       1.452  -2.597   0.574  1.00  0.00     0.046 C 
HETATM    9  C17 UNL     1       2.291  -0.887   2.191  1.00  0.00     0.046 C 
HETATM   10  C18 UNL     1       2.161  -0.254  -0.415  1.00  0.00     0.109 C 
HETATM   11  C19 UNL     1       4.543   0.642   0.052  1.00  0.00     0.195 C 
HETATM   12  C20 UNL     1       3.570   1.800  -0.165  1.00  0.00     0.190 C 
ENDROOT
BRANCH   1  13
HETATM   13  C11 UNL     1       1.368   2.001  -1.450  1.00  0.00     0.015 C 
HETATM   14  C10 UNL     1       0.114   2.172  -1.014  1.00  0.00    -0.001 C 
BRANCH  14  15
HETATM   15  C9  UNL     1      -0.584   1.566   0.100  1.00  0.00    -0.004 C 
HETATM   16  C8  UNL     1      -1.918   1.752   0.202  1.00  0.00    -0.023 C 
BRANCH  16  17
HETATM   17  C6  UNL     1      -2.841   1.345   1.325  1.00  0.00     0.004 C 
HETATM   18  C7  UNL     1      -3.629   2.588   1.749  1.00  0.00     0.014 C 
BRANCH  17  19
HETATM   19  C5  UNL     1      -3.796   0.240   0.843  1.00  0.00     0.009 C 
BRANCH  19  20
HETATM   20  C4  UNL     1      -3.225  -1.162   1.097  1.00  0.00     0.010 C 
BRANCH  20  21
HETATM   21  C3  UNL     1      -3.733  -2.219   0.118  1.00  0.00     0.111 C 
BRANCH  21  22
HETATM   22  C2  UNL     1      -2.962  -2.110  -1.176  1.00  0.00     0.258 C 
HETATM   23  O2  UNL     1      -1.796  -2.448  -1.283  1.00  0.00    -0.265 OA
BRANCH  22  24
HETATM   24  O1  UNL     1      -3.707  -1.531  -2.159  1.00  0.00    -0.326 OA
HETATM   25  C1  UNL     1      -2.992  -1.327  -3.382  1.00  0.00     0.213 C 
ENDBRANCH  22  24
ENDBRANCH  21  22
ENDBRANCH  20  21
ENDBRANCH  19  20
ENDBRANCH  17  19
ENDBRANCH  16  17
ENDBRANCH  14  15
ENDBRANCH   1  13
BRANCH  12  26
HETATM   26  O7  UNL     1       2.992   2.242   1.059  1.00  0.00    -0.389 OA
ATOM     27  H7  UNL     1       3.639   2.666   1.611  1.00  0.00     0.210 HD
ENDBRANCH  12  26
BRANCH  11  28
HETATM   28  O6  UNL     1       4.892   0.472   1.428  1.00  0.00    -0.389 OA
ATOM     29  H6  UNL     1       5.413   1.178   1.793  1.00  0.00     0.210 HD
ENDBRANCH  11  28
TORSDOF 10
