REMARK  3 active torsions:
REMARK  status: ('A' for Active; 'I' for Inactive)
REMARK    1  A    between atoms: C8_10  and  C9_11 
REMARK    2  A    between atoms: C9_11  and  O3_12 
REMARK    3  A    between atoms: O3_12  and  C10_13 
ROOT
HETATM    1  C1  UNL     1       0.878  -4.052  -0.561  1.00  0.00     0.049 C 
HETATM    2  C2  UNL     1       0.588  -2.743  -0.469  1.00  0.00     0.077 C 
HETATM    3  O1  UNL     1       0.165  -2.257   0.846  1.00  0.00    -0.344 OA
HETATM    4  C3  UNL     1       1.049  -1.260   1.443  1.00  0.00     0.166 C 
HETATM    5  C4  UNL     1       0.705   0.299   2.028  1.00  0.00     0.038 C 
HETATM    6  C5  UNL     1       1.155   1.649   0.891  1.00  0.00     0.043 C 
HETATM    7  C6  UNL     1       1.062   1.327  -0.850  1.00  0.00     0.088 C 
HETATM    8  C7  UNL     1       1.517   2.493  -1.707  1.00  0.00     0.049 C 
HETATM    9  O2  UNL     1      -0.326   1.369  -0.703  1.00  0.00    -0.361 OA
HETATM   10  C8  UNL     1      -0.390   0.009  -0.285  1.00  0.00     0.119 C 
HETATM   11  C12 UNL     1      -1.110  -0.320  -1.771  1.00  0.00     0.079 C 
HETATM   12  C13 UNL     1      -0.827  -1.673  -2.183  1.00  0.00     0.170 A 
HETATM   13  O5  UNL     1       0.196  -2.048  -3.089  1.00  0.00    -0.359 OA
HETATM   14  C14 UNL     1       0.577  -1.762  -1.741  1.00  0.00     0.163 A 
HETATM   15  C15 UNL     1       1.510  -0.300  -1.711  1.00  0.00     0.201 C 
HETATM   16  O6  UNL     1       2.308  -0.929  -0.810  1.00  0.00    -0.363 OA
HETATM   17  C16 UNL     1       1.466  -0.560   0.261  1.00  0.00     0.117 C 
HETATM   18  C17 UNL     1       2.946  -0.011   0.879  1.00  0.00     0.052 C 
ENDROOT
BRANCH  10  19
HETATM   19  C9  UNL     1      -1.681  -0.274   0.678  1.00  0.00     0.220 C 
BRANCH  19  20
HETATM   20  O3  UNL     1      -2.317   0.918   1.227  1.00  0.00    -0.319 OA
BRANCH  20  21
HETATM   21  C10 UNL     1      -3.641   1.113   0.963  1.00  0.00     0.254 C 
HETATM   22  C11 UNL     1      -4.240   2.187   1.846  1.00  0.00     0.126 C 
HETATM   23  O4  UNL     1      -4.305   0.458   0.162  1.00  0.00    -0.266 OA
ENDBRANCH  20  21
ENDBRANCH  19  20
ENDBRANCH  10  19
TORSDOF 3
