REMARK  3 active torsions:
REMARK  status: ('A' for Active; 'I' for Inactive)
REMARK    1  A    between atoms: C4_4  and  C5_5 
REMARK    2  A    between atoms: C5_5  and  C6_6 
REMARK    3  A    between atoms: C17_22  and  O6_23 
ROOT
HETATM    1  C6  UNL     1      -0.230  -1.118   0.202  1.00  0.00     0.073 C 
HETATM    2  C7  UNL     1      -0.249  -2.582  -0.297  1.00  0.00     0.046 C 
HETATM    3  C8  UNL     1       1.106  -3.127   0.058  1.00  0.00     0.172 C 
HETATM    4  O1  UNL     1       1.491  -2.479   1.262  1.00  0.00    -0.352 OA
HETATM    5  C9  UNL     1       0.693  -1.282   1.452  1.00  0.00     0.206 C 
HETATM    6  C10 UNL     1      -0.004  -1.524   2.795  1.00  0.00     0.083 C 
HETATM    7  O2  UNL     1       1.599  -0.196   1.643  1.00  0.00    -0.199 OA
HETATM    8  O3  UNL     1       0.831   1.005   1.526  1.00  0.00    -0.222 OA
HETATM    9  C11 UNL     1       1.465   1.983   0.639  1.00  0.00     0.144 C 
HETATM   10  C12 UNL     1       0.212   2.283  -0.171  1.00  0.00     0.215 C 
HETATM   11  O4  UNL     1      -0.158   1.178  -1.046  1.00  0.00    -0.357 OA
HETATM   12  C13 UNL     1       0.375  -0.176  -0.915  1.00  0.00     0.274 C 
HETATM   13  O5  UNL     1       1.720  -0.407  -1.388  1.00  0.00    -0.360 OA
HETATM   14  C14 UNL     1       2.939  -0.242  -0.636  1.00  0.00     0.178 C 
HETATM   15  C15 UNL     1       3.328   1.198  -0.267  1.00  0.00     0.044 C 
HETATM   16  C16 UNL     1       2.263   2.103  -0.786  1.00  0.00     0.055 C 
HETATM   17  C17 UNL     1       3.055   1.983   1.068  1.00  0.00     0.164 C 
ENDROOT
BRANCH   1  18
HETATM   18  C5  UNL     1      -1.689  -0.674   0.555  1.00  0.00     0.047 C 
BRANCH  18  19
HETATM   19  C4  UNL     1      -2.726  -0.861  -0.533  1.00  0.00    -0.024 C 
HETATM   20  C2  UNL     1      -3.570   0.070  -1.026  1.00  0.00    -0.091 C 
HETATM   21  C1  UNL     1      -4.576  -0.284  -2.089  1.00  0.00     0.042 C 
HETATM   22  C3  UNL     1      -3.595   1.503  -0.578  1.00  0.00     0.042 C 
ENDBRANCH  18  19
ENDBRANCH   1  18
BRANCH  17  23
HETATM   23  O6  UNL     1       3.681   3.284   1.205  1.00  0.00    -0.392 OA
ATOM     24  H6  UNL     1       4.598   3.284   1.452  1.00  0.00     0.210 HD
ENDBRANCH  17  23
TORSDOF 3
