REMARK  16 active torsions:
REMARK  status: ('A' for Active; 'I' for Inactive)
REMARK    1  A    between atoms: C8_8  and  N1_9 
REMARK       I    between atoms: N1_9  and  C9_11 
REMARK    2  A    between atoms: C9_11  and  C10_13 
REMARK    3  A    between atoms: C10_13  and  C11_14 
REMARK    4  A    between atoms: C11_14  and  C12_15 
REMARK    5  A    between atoms: C12_15  and  C13_16 
REMARK    6  A    between atoms: C13_16  and  C14_17 
REMARK    7  A    between atoms: C14_17  and  C15_18 
REMARK    8  A    between atoms: C15_18  and  C16_19 
REMARK    9  A    between atoms: C16_19  and  C17_20 
REMARK   10  A    between atoms: C17_20  and  O2_21 
REMARK   11  A    between atoms: N2_23  and  O3_25 
REMARK   12  A    between atoms: O3_25  and  C18_26 
REMARK   13  A    between atoms: C18_26  and  C19_27 
REMARK   14  A    between atoms: C19_27  and  C20_29 
REMARK   15  A    between atoms: C30_41  and  O7_42 
REMARK   16  A    between atoms: C31_44  and  O8_45 
ROOT
HETATM    1  C14 UNL     1       0.083  -4.373  -1.464  1.00  0.00     0.000 C 
ENDROOT
BRANCH   1   2
HETATM    2  C13 UNL     1       1.261  -4.530  -2.440  1.00  0.00     0.000 C 
BRANCH   2   3
HETATM    3  C12 UNL     1       2.597  -3.991  -1.902  1.00  0.00     0.000 C 
BRANCH   3   4
HETATM    4  C11 UNL     1       2.953  -2.601  -2.456  1.00  0.00     0.009 C 
BRANCH   4   5
HETATM    5  C10 UNL     1       4.317  -2.109  -1.952  1.00  0.00     0.103 C 
BRANCH   5   6
HETATM    6  C9  UNL     1       4.179  -1.455  -0.597  1.00  0.00     0.217 C 
HETATM    7  N1  UNL     1       3.921  -0.109  -0.655  1.00  0.00    -0.354 N 
ATOM      8  H1  UNL     1       4.142   0.399  -1.511  1.00  0.00     0.163 HD
HETATM    9  O1  UNL     1       4.197  -2.095   0.447  1.00  0.00    -0.274 OA
BRANCH   7  10
HETATM   10  C8  UNL     1       3.344   0.615   0.463  1.00  0.00     0.119 C 
HETATM   11  C6  UNL     1       4.381   1.173   1.462  1.00  0.00     0.012 C 
HETATM   12  C5  UNL     1       3.682   1.843   2.700  1.00  0.00     0.005 C 
HETATM   13  C7  UNL     1       5.388   2.133   0.812  1.00  0.00     0.012 C 
HETATM   14  C4  UNL     1       3.555   0.863   3.882  1.00  0.00     0.033 C 
HETATM   15  C32 UNL     1       2.211   2.299   2.439  1.00  0.00     0.050 C 
HETATM   16  C3  UNL     1       2.168   0.338   3.741  1.00  0.00    -0.023 C 
HETATM   17  C2  UNL     1       1.416   1.111   2.947  1.00  0.00    -0.080 C 
HETATM   18  C1  UNL     1      -0.029   0.892   2.677  1.00  0.00     0.043 C 
HETATM   19  C31 UNL     1       2.038   2.755   0.986  1.00  0.00     0.157 C 
HETATM   20  C30 UNL     1       2.343   1.667  -0.051  1.00  0.00     0.170 C 
BRANCH  19  21
HETATM   21  O8  UNL     1       0.750   3.328   0.728  1.00  0.00    -0.392 OA
ATOM     22  H8  UNL     1       0.561   4.002   1.370  1.00  0.00     0.210 HD
ENDBRANCH  19  21
BRANCH  20  23
HETATM   23  O7  UNL     1       2.853   2.290  -1.250  1.00  0.00    -0.391 OA
ATOM     24  H7  UNL     1       2.236   2.939  -1.567  1.00  0.00     0.210 HD
ENDBRANCH  20  23
ENDBRANCH   7  10
ENDBRANCH   5   6
ENDBRANCH   4   5
ENDBRANCH   3   4
ENDBRANCH   2   3
ENDBRANCH   1   2
BRANCH   1  25
HETATM   25  C15 UNL     1       0.081  -5.464  -0.382  1.00  0.00     0.008 C 
BRANCH  25  26
HETATM   26  C16 UNL     1      -1.129  -5.381   0.554  1.00  0.00     0.086 C 
BRANCH  26  27
HETATM   27  C17 UNL     1      -0.994  -4.221   1.505  1.00  0.00     0.135 C 
HETATM   28  N2  UNL     1      -1.582  -3.073   1.493  1.00  0.00    -0.248 N 
ATOM     29  H2  UNL     1      -1.359  -2.306   2.128  1.00  0.00     0.196 HD
BRANCH  27  30
HETATM   30  O2  UNL     1      -0.079  -4.418   2.463  1.00  0.00    -0.348 OA
ATOM     31  H2  UNL     1       0.006  -3.686   3.063  1.00  0.00     0.219 HD
ENDBRANCH  27  30
BRANCH  28  32
HETATM   32  O3  UNL     1      -2.564  -3.014   0.499  1.00  0.00    -0.271 OA
BRANCH  32  33
HETATM   33  C18 UNL     1      -2.763  -1.672   0.097  1.00  0.00     0.282 C 
BRANCH  33  34
HETATM   34  C19 UNL     1      -3.823  -0.879   0.865  1.00  0.00     0.184 C 
HETATM   35  O4  UNL     1      -4.166  -1.199   2.012  1.00  0.00    -0.293 OA
BRANCH  34  36
HETATM   36  C20 UNL     1      -4.446   0.321   0.084  1.00  0.00     0.232 A 
HETATM   37  O5  UNL     1      -4.887   1.442   0.917  1.00  0.00    -0.358 OA
HETATM   38  C21 UNL     1      -4.125   2.376   0.121  1.00  0.00     0.121 A 
HETATM   39  C22 UNL     1      -2.685   2.682   0.544  1.00  0.00     0.210 A 
HETATM   40  C23 UNL     1      -3.522   1.265  -0.724  1.00  0.00     0.130 A 
HETATM   41  C28 UNL     1      -5.002   3.361  -0.625  1.00  0.00     0.022 C 
HETATM   42  O6  UNL     1      -2.181   1.565  -0.240  1.00  0.00    -0.370 OA
HETATM   43  C24 UNL     1      -3.695   1.441  -2.229  1.00  0.00     0.022 C 
HETATM   44  C25 UNL     1      -2.770   0.497  -2.988  1.00  0.00     0.013 C 
HETATM   45  C26 UNL     1      -3.430   2.897  -2.631  1.00  0.00     0.008 C 
HETATM   46  C27 UNL     1      -4.297   3.914  -1.876  1.00  0.00     0.008 C 
HETATM   47  C29 UNL     1      -5.413   4.494   0.310  1.00  0.00     0.013 C 
ENDBRANCH  34  36
ENDBRANCH  33  34
ENDBRANCH  32  33
ENDBRANCH  28  32
ENDBRANCH  26  27
ENDBRANCH  25  26
ENDBRANCH   1  25
TORSDOF 16
