REMARK  7 active torsions:
REMARK  status: ('A' for Active; 'I' for Inactive)
REMARK    1  A    between atoms: C2_2  and  N1_3 
REMARK       I    between atoms: N1_3  and  C3_5 
REMARK    2  A    between atoms: C3_5  and  O2_7 
REMARK    3  A    between atoms: O2_7  and  C4_8 
REMARK    4  A    between atoms: C11_16  and  C12_17 
REMARK    5  A    between atoms: C12_17  and  C13_18 
REMARK    6  A    between atoms: C13_18  and  C14_19 
REMARK    7  A    between atoms: C19_25  and  O5_26 
ROOT
HETATM    1  C4  UNL     1      -0.466   0.620  -0.424  1.00  0.00     0.309 C 
HETATM    2  O3  UNL     1      -0.502   1.951  -0.952  1.00  0.00    -0.341 OA
HETATM    3  C5  UNL     1       0.730   2.753  -1.000  1.00  0.00     0.116 C 
HETATM    4  C6  UNL     1       0.162   4.190  -1.142  1.00  0.00     0.052 C 
HETATM    5  C7  UNL     1       1.392   2.384  -2.385  1.00  0.00     0.044 C 
HETATM    6  C8  UNL     1       2.490   1.302  -2.521  1.00  0.00     0.008 C 
HETATM    7  C9  UNL     1       2.188  -0.185  -2.158  1.00  0.00    -0.012 C 
HETATM    8  C10 UNL     1       3.170  -1.070  -2.966  1.00  0.00     0.010 C 
HETATM    9  C11 UNL     1       2.307  -0.575  -0.640  1.00  0.00     0.022 C 
HETATM   10  C18 UNL     1       1.911   0.485   0.439  1.00  0.00     0.169 C 
HETATM   11  O4  UNL     1       2.632   1.655   0.125  1.00  0.00    -0.343 OA
HETATM   12  C19 UNL     1       1.853   2.814   0.202  1.00  0.00     0.196 C 
HETATM   13  C20 UNL     1       1.639   3.010   1.747  1.00  0.00     0.109 C 
HETATM   14  C21 UNL     1       0.670   2.011   2.418  1.00  0.00     0.067 C 
HETATM   15  C22 UNL     1       0.150   2.575   3.742  1.00  0.00     0.046 C 
HETATM   16  C23 UNL     1       0.454   0.403   2.403  1.00  0.00     0.083 C 
HETATM   17  C24 UNL     1       0.368   0.653   0.832  1.00  0.00     0.141 C 
HETATM   18  O6  UNL     1      -0.319   1.971   1.411  1.00  0.00    -0.361 OA
ENDROOT
BRANCH   1  19
HETATM   19  O2  UNL     1      -1.714  -0.060  -0.158  1.00  0.00    -0.269 OA
BRANCH  19  20
HETATM   20  C3  UNL     1      -2.893   0.570  -0.002  1.00  0.00     0.362 C 
HETATM   21  N1  UNL     1      -3.813  -0.385   0.334  1.00  0.00    -0.337 N 
ATOM     22  H1  UNL     1      -3.566  -1.365   0.195  1.00  0.00     0.164 HD
HETATM   23  O1  UNL     1      -3.131   1.758  -0.098  1.00  0.00    -0.238 OA
BRANCH  21  24
HETATM   24  C2  UNL     1      -5.119  -0.076   0.876  1.00  0.00     0.120 C 
HETATM   25  C1  UNL     1      -5.046   0.124   2.380  1.00  0.00     0.026 C 
ENDBRANCH  21  24
ENDBRANCH  19  20
ENDBRANCH   1  19
BRANCH  12  26
HETATM   26  O5  UNL     1       2.794   3.844  -0.163  1.00  0.00    -0.363 OA
ATOM     27  H5  UNL     1       3.442   3.879   0.531  1.00  0.00     0.213 HD
ENDBRANCH  12  26
BRANCH   9  28
HETATM   28  C12 UNL     1       1.869  -2.002  -0.193  1.00  0.00     0.011 C 
BRANCH  28  29
HETATM   29  C13 UNL     1       0.761  -2.758  -0.947  1.00  0.00     0.028 C 
BRANCH  29  30
HETATM   30  C14 UNL     1       0.017  -3.685  -0.013  1.00  0.00    -0.025 C 
HETATM   31  C15 UNL     1      -1.001  -4.522  -0.325  1.00  0.00    -0.091 C 
HETATM   32  C16 UNL     1      -1.567  -4.707  -1.703  1.00  0.00     0.042 C 
HETATM   33  C17 UNL     1      -1.663  -5.346   0.752  1.00  0.00     0.042 C 
ENDBRANCH  29  30
ENDBRANCH  28  29
ENDBRANCH   9  28
TORSDOF 7
