REMARK  7 active torsions:
REMARK  status: ('A' for Active; 'I' for Inactive)
REMARK    1  A    between atoms: C7_7  and  N1_8 
REMARK    2  A    between atoms: C8_10  and  C10_12 
REMARK    3  A    between atoms: C10_12  and  O1_13 
REMARK    4  A    between atoms: C10_12  and  C11_15 
REMARK    5  A    between atoms: C11_15  and  C13_17 
REMARK    6  A    between atoms: C16_20  and  O2_21 
REMARK    7  A    between atoms: C19_25  and  O3_27 
ROOT
HETATM    1  C11 UNL     1       0.643  -1.278   0.435  1.00  0.00     0.021 C 
HETATM    2  C12 UNL     1       1.391  -2.376   1.204  1.00  0.00     0.013 C 
ENDROOT
BRANCH   1   3
HETATM    3  C10 UNL     1       0.002  -1.882  -0.853  1.00  0.00     0.167 C 
BRANCH   3   4
HETATM    4  C8  UNL     1      -1.413  -2.431  -0.587  1.00  0.00     0.008 C 
HETATM    5  N1  UNL     1      -2.499  -1.756  -0.428  1.00  0.00    -0.386 N 
ATOM      6  H1  UNL     1      -3.375  -2.266  -0.313  1.00  0.00     0.160 HD
HETATM    7  C9  UNL     1      -1.540  -3.938  -0.527  1.00  0.00     0.066 C 
BRANCH   5   8
HETATM    8  C7  UNL     1      -2.538  -0.297  -0.405  1.00  0.00     0.110 C 
HETATM    9  C2  UNL     1      -3.463   0.123   0.731  1.00  0.00    -0.065 C 
HETATM   10  C1  UNL     1      -3.267  -0.561   2.057  1.00  0.00     0.045 C 
HETATM   11  C3  UNL     1      -4.415   1.063   0.573  1.00  0.00    -0.022 C 
HETATM   12  C4  UNL     1      -4.647   1.808  -0.708  1.00  0.00     0.027 C 
HETATM   13  C5  UNL     1      -3.507   1.649  -1.711  1.00  0.00     0.006 C 
HETATM   14  C6  UNL     1      -3.022   0.206  -1.775  1.00  0.00     0.030 C 
ENDBRANCH   5   8
ENDBRANCH   3   4
BRANCH   3  15
HETATM   15  O1  UNL     1      -0.034  -0.962  -1.936  1.00  0.00    -0.389 OA
ATOM     16  H1  UNL     1       0.838  -0.624  -2.100  1.00  0.00     0.210 HD
ENDBRANCH   3  15
ENDBRANCH   1   3
BRANCH   1  17
HETATM   17  C13 UNL     1       1.454  -0.025   0.157  1.00  0.00     0.003 C 
HETATM   18  C14 UNL     1       1.226   1.209   0.649  1.00  0.00    -0.004 C 
HETATM   19  C15 UNL     1       1.745   1.324   2.080  1.00  0.00     0.037 C 
HETATM   20  C21 UNL     1       1.880   2.235  -0.279  1.00  0.00     0.043 C 
HETATM   21  C16 UNL     1       3.275   1.005   2.105  1.00  0.00     0.119 C 
HETATM   22  C17 UNL     1       3.731  -0.041   1.039  1.00  0.00     0.039 C 
HETATM   23  C18 UNL     1       2.895   0.009  -0.280  1.00  0.00     0.027 C 
HETATM   24  C19 UNL     1       2.972   1.400  -0.986  1.00  0.00     0.059 C 
HETATM   25  C20 UNL     1       2.705   1.306  -2.486  1.00  0.00     0.046 C 
BRANCH  21  26
HETATM   26  O2  UNL     1       4.029   2.206   1.872  1.00  0.00    -0.396 OA
ATOM     27  H2  UNL     1       4.959   2.012   1.887  1.00  0.00     0.210 HD
ENDBRANCH  21  26
BRANCH  24  28
HETATM   28  O3  UNL     1       4.258   2.007  -0.837  1.00  0.00    -0.390 OA
ATOM     29  H3  UNL     1       4.305   2.853  -1.266  1.00  0.00     0.210 HD
ENDBRANCH  24  28
ENDBRANCH   1  17
TORSDOF 7
