REMARK  6 active torsions:
REMARK  status: ('A' for Active; 'I' for Inactive)
REMARK       I    between atoms: C2_2  and  N1_4 
REMARK    1  A    between atoms: N1_4  and  C3_6 
REMARK    2  A    between atoms: C3_6  and  C4_7 
REMARK    3  A    between atoms: C4_7  and  O2_8 
REMARK    4  A    between atoms: C4_7  and  C5_10 
REMARK    5  A    between atoms: N3_23  and  C17_24 
REMARK    6  A    between atoms: C17_24  and  C18_25 
ROOT
HETATM    1  C5  UNL     1      -0.478  -0.464   0.990  1.00  0.00     0.258 C 
HETATM    2  C6  UNL     1       0.080   0.943   0.618  1.00  0.00     0.040 C 
HETATM    3  C7  UNL     1      -0.375   1.995   1.846  1.00  0.00    -0.029 C 
HETATM    4  C8  UNL     1       1.033   2.181   2.427  1.00  0.00     0.012 C 
HETATM    5  C9  UNL     1       1.853   2.835   1.585  1.00  0.00     0.026 C 
HETATM    6  C10 UNL     1       1.215   3.073   0.209  1.00  0.00     0.060 C 
HETATM    7  C11 UNL     1       1.994   4.022  -0.601  1.00  0.00     0.070 C 
HETATM    8  N2  UNL     1       2.608   4.766  -1.248  1.00  0.00    -0.196 NA
HETATM    9  C12 UNL     1      -0.300   3.631   0.464  1.00  0.00     0.014 C 
HETATM   10  C13 UNL     1      -0.446   3.855   1.991  1.00  0.00     0.017 C 
HETATM   11  C14 UNL     1      -1.498   2.599   0.875  1.00  0.00     0.002 C 
HETATM   12  C15 UNL     1      -2.456   1.839  -0.094  1.00  0.00     0.036 C 
HETATM   13  C16 UNL     1      -2.767   0.391   0.397  1.00  0.00     0.273 C 
HETATM   14  N3  UNL     1      -1.725  -0.673   0.158  1.00  0.00     0.096 N 
HETATM   15  C21 UNL     1       1.179   1.594  -0.337  1.00  0.00    -0.020 C 
HETATM   16  C22 UNL     1       0.750   1.599  -1.848  1.00  0.00     0.017 C 
HETATM   17  C23 UNL     1       2.563   0.915  -0.306  1.00  0.00     0.017 C 
ENDROOT
BRANCH   1  18
HETATM   18  C4  UNL     1       0.592  -1.590   1.070  1.00  0.00     0.169 C 
BRANCH  18  19
HETATM   19  C3  UNL     1       1.061  -2.150  -0.281  1.00  0.00     0.156 C 
BRANCH  19  20
HETATM   20  N1  UNL     1       2.393  -2.750  -0.190  1.00  0.00    -0.359 N 
HETATM   21  C2  UNL     1       3.169  -2.879  -1.323  1.00  0.00     0.213 C 
HETATM   22  C1  UNL     1       4.466  -3.623  -1.126  1.00  0.00     0.117 C 
HETATM   23  O1  UNL     1       2.841  -2.427  -2.419  1.00  0.00    -0.274 OA
ATOM     24  H1  UNL     1       2.747  -3.072   0.711  1.00  0.00     0.162 HD
ENDBRANCH  19  20
ENDBRANCH  18  19
BRANCH  18  25
HETATM   25  O2  UNL     1       1.688  -1.141   1.884  1.00  0.00    -0.392 OA
ATOM     26  H2  UNL     1       1.398  -0.795   2.720  1.00  0.00     0.210 HD
ENDBRANCH  18  25
ENDBRANCH   1  18
BRANCH  14  27
HETATM   27  C17 UNL     1      -2.342  -1.996   0.290  1.00  0.00     0.277 C 
BRANCH  27  28
HETATM   28  C18 UNL     1      -2.897  -2.388  -1.053  1.00  0.00     0.014 A 
HETATM   29  C19 UNL     1      -4.342  -2.173  -1.442  1.00  0.00     0.007 A 
HETATM   30  C20 UNL     1      -3.841  -3.560  -1.155  1.00  0.00     0.007 A 
ENDBRANCH  27  28
ENDBRANCH  14  27
TORSDOF 6
