REMARK  13 active torsions:
REMARK  status: ('A' for Active; 'I' for Inactive)
REMARK    1  A    between atoms: O1_2  and  C2_3 
REMARK    2  A    between atoms: C2_3  and  C3_5 
REMARK    3  A    between atoms: C4_6  and  C5_7 
REMARK    4  A    between atoms: C5_7  and  O3_8 
REMARK    5  A    between atoms: O3_8  and  C6_9 
REMARK    6  A    between atoms: C6_9  and  C7_10 
REMARK    7  A    between atoms: C10_13  and  O4_14 
REMARK    8  A    between atoms: C11_16  and  O5_17 
REMARK    9  A    between atoms: C12_19  and  O6_20 
REMARK   10  A    between atoms: C15_24  and  C16_25 
REMARK   11  A    between atoms: C16_25  and  O7_27 
REMARK   12  A    between atoms: C18_29  and  O8_30 
REMARK   13  A    between atoms: C19_32  and  O9_33 
ROOT
HETATM    1  C3  UNL     1       0.138   0.820   0.451  1.00  0.00     0.132 C 
HETATM    2  C4  UNL     1       0.100  -0.560  -0.756  1.00  0.00     0.064 C 
HETATM    3  C10 UNL     1       1.450  -1.545  -0.669  1.00  0.00     0.106 C 
HETATM    4  C11 UNL     1       1.893  -2.473   0.604  1.00  0.00     0.192 C 
HETATM    5  C12 UNL     1       2.308  -1.439   1.838  1.00  0.00     0.128 C 
HETATM    6  C13 UNL     1       3.062  -0.077   1.765  1.00  0.00     0.065 C 
HETATM    7  C14 UNL     1       3.648  -0.392   0.433  1.00  0.00     0.029 C 
HETATM    8  C15 UNL     1       2.260  -0.410  -0.232  1.00  0.00     0.057 C 
HETATM    9  C18 UNL     1       1.273  -0.604   1.284  1.00  0.00     0.137 C 
HETATM   10  C19 UNL     1       1.489   0.755   1.599  1.00  0.00     0.112 C 
ENDROOT
BRANCH   2  11
HETATM   11  C5  UNL     1      -1.216  -1.345  -0.820  1.00  0.00     0.176 C 
BRANCH  11  12
HETATM   12  O3  UNL     1      -2.302  -0.428  -0.756  1.00  0.00    -0.390 OA
BRANCH  12  13
HETATM   13  C6  UNL     1      -3.560  -1.071  -0.931  1.00  0.00     0.171 C 
BRANCH  13  14
HETATM   14  C7  UNL     1      -4.681  -0.098  -0.560  1.00  0.00     0.001 C 
HETATM   15  C8  UNL     1      -4.556   0.362   0.894  1.00  0.00     0.011 C 
HETATM   16  C9  UNL     1      -6.045  -0.742  -0.801  1.00  0.00     0.011 C 
ENDBRANCH  13  14
ENDBRANCH  12  13
ENDBRANCH  11  12
ENDBRANCH   2  11
BRANCH   1  17
HETATM   17  C2  UNL     1      -0.097   2.209  -0.108  1.00  0.00     0.266 C 
HETATM   18  O2  UNL     1      -0.676   2.463  -1.152  1.00  0.00    -0.265 OA
BRANCH  17  19
HETATM   19  O1  UNL     1       0.367   3.145   0.775  1.00  0.00    -0.326 OA
HETATM   20  C1  UNL     1       0.070   4.494   0.423  1.00  0.00     0.213 C 
ENDBRANCH  17  19
ENDBRANCH   1  17
BRANCH   3  21
HETATM   21  O4  UNL     1       1.828  -2.116  -1.898  1.00  0.00    -0.386 OA
ATOM     22  H4  UNL     1       2.594  -2.675  -1.849  1.00  0.00     0.210 HD
ENDBRANCH   3  21
BRANCH  10  23
HETATM   23  O9  UNL     1       1.022   1.285   2.860  1.00  0.00    -0.385 OA
ATOM     24  H9  UNL     1       1.745   1.250   3.475  1.00  0.00     0.210 HD
ENDBRANCH  10  23
BRANCH   4  25
HETATM   25  O5  UNL     1       3.029  -3.303   0.307  1.00  0.00    -0.389 OA
ATOM     26  H5  UNL     1       3.286  -3.842   1.046  1.00  0.00     0.210 HD
ENDBRANCH   4  25
BRANCH   8  27
HETATM   27  C16 UNL     1       2.365   0.835  -1.214  1.00  0.00     0.129 C 
HETATM   28  C17 UNL     1       3.302   0.541  -2.402  1.00  0.00     0.040 C 
BRANCH  27  29
HETATM   29  O7  UNL     1       2.860   1.982  -0.505  1.00  0.00    -0.395 OA
ATOM     30  H7  UNL     1       2.923   2.726  -1.092  1.00  0.00     0.210 HD
ENDBRANCH  27  29
ENDBRANCH   8  27
BRANCH   9  31
HETATM   31  O8  UNL     1      -0.018  -1.237   1.574  1.00  0.00    -0.382 OA
ATOM     32  H8  UNL     1      -0.701  -0.686   1.209  1.00  0.00     0.210 HD
ENDBRANCH   9  31
BRANCH   5  33
HETATM   33  O6  UNL     1       2.128  -2.050   3.124  1.00  0.00    -0.383 OA
ATOM     34  H6  UNL     1       2.365  -1.459   3.829  1.00  0.00     0.210 HD
ENDBRANCH   5  33
TORSDOF 13
