REMARK  11 active torsions:
REMARK  status: ('A' for Active; 'I' for Inactive)
REMARK    1  A    between atoms: C2_2  and  C3_3 
REMARK    2  A    between atoms: C3_3  and  O1_4 
REMARK    3  A    between atoms: C3_3  and  C4_6 
REMARK    4  A    between atoms: C7_9  and  C8_10 
REMARK    5  A    between atoms: C8_10  and  O2_11 
REMARK    6  A    between atoms: C9_13  and  N1_14 
REMARK    7  A    between atoms: C11_18  and  O3_19 
REMARK    8  A    between atoms: C13_22  and  O4_23 
REMARK    9  A    between atoms: C15_26  and  O5_27 
REMARK   10  A    between atoms: N2_29  and  C16_30 
REMARK   11  A    between atoms: C20_34  and  O6_35 
ROOT
HETATM    1  C4  UNL     1      -1.680   1.435   0.633  1.00  0.00     0.067 C 
HETATM    2  C5  UNL     1      -0.421   0.835   1.347  1.00  0.00     0.083 C 
HETATM    3  C6  UNL     1       0.281   1.503   0.166  1.00  0.00    -0.029 C 
HETATM    4  C7  UNL     1       1.543   1.810  -0.182  1.00  0.00    -0.018 C 
HETATM    5  C9  UNL     1       1.823   1.393  -1.620  1.00  0.00     0.251 C 
HETATM    6  C11 UNL     1       1.084  -0.033  -1.845  1.00  0.00     0.101 C 
HETATM    7  C12 UNL     1       1.836  -1.241  -1.206  1.00  0.00     0.072 C 
HETATM    8  C13 UNL     1       2.215  -1.343   0.277  1.00  0.00     0.125 C 
HETATM    9  C14 UNL     1       1.331  -1.022   1.500  1.00  0.00     0.093 C 
HETATM   10  C15 UNL     1      -0.187  -0.719   1.433  1.00  0.00     0.140 C 
HETATM   11  N2  UNL     1      -0.940  -1.565   0.502  1.00  0.00    -0.382 N 
HETATM   12  C18 UNL     1      -1.030  -1.304  -0.931  1.00  0.00     0.131 C 
HETATM   13  C19 UNL     1      -0.487  -0.023  -1.554  1.00  0.00     0.079 C 
HETATM   14  C20 UNL     1      -0.906   1.218  -0.765  1.00  0.00     0.097 C 
ENDROOT
BRANCH   1  15
HETATM   15  C3  UNL     1      -3.169   1.310   0.973  1.00  0.00     0.126 C 
BRANCH  15  16
HETATM   16  C2  UNL     1      -3.946   0.079   0.531  1.00  0.00     0.028 C 
HETATM   17  C1  UNL     1      -4.098  -1.029   1.562  1.00  0.00     0.007 C 
ENDBRANCH  15  16
BRANCH  15  18
HETATM   18  O1  UNL     1      -3.322   1.557   2.373  1.00  0.00    -0.395 OA
ATOM     19  H1  UNL     1      -2.837   2.326   2.649  1.00  0.00     0.210 HD
ENDBRANCH  15  18
ENDBRANCH   1  15
BRANCH  14  20
HETATM   20  O6  UNL     1      -1.164   2.289  -1.702  1.00  0.00    -0.384 OA
ATOM     21  H6  UNL     1      -0.708   2.161  -2.526  1.00  0.00     0.211 HD
ENDBRANCH  14  20
BRANCH  10  22
HETATM   22  O5  UNL     1      -0.684  -1.044   2.748  1.00  0.00    -0.370 OA
ATOM     23  H5  UNL     1      -0.543  -1.982   2.800  1.00  0.00     0.212 HD
ENDBRANCH  10  22
BRANCH   4  24
HETATM   24  C8  UNL     1       2.618   2.246   0.762  1.00  0.00     0.201 C 
BRANCH  24  25
HETATM   25  O2  UNL     1       2.773   3.656   0.641  1.00  0.00    -0.397 OA
ATOM     26  H2  UNL     1       3.456   3.933   1.241  1.00  0.00     0.209 HD
ENDBRANCH  24  25
ENDBRANCH   4  24
BRANCH  11  27
HETATM   27  C16 UNL     1      -0.870  -3.009   0.811  1.00  0.00     0.115 C 
HETATM   28  C17 UNL     1      -1.982  -3.857   0.189  1.00  0.00     0.026 C 
ENDBRANCH  11  27
BRANCH   6  29
HETATM   29  O3  UNL     1       1.196  -0.294  -3.280  1.00  0.00    -0.387 OA
ATOM     30  H3  UNL     1       0.763  -1.129  -3.412  1.00  0.00     0.210 HD
ENDBRANCH   6  29
BRANCH   5  31
HETATM   31  N1  UNL     1       3.219   1.242  -2.055  1.00  0.00    -0.068 N 
HETATM   32  C10 UNL     1       3.814   2.502  -2.474  1.00  0.00     0.267 C 
ATOM     33  H12 UNL     1       3.782   0.794  -1.332  1.00  0.00     0.277 HD
ATOM     34  H11 UNL     1       3.300   0.537  -2.788  1.00  0.00     0.277 HD
ENDBRANCH   5  31
BRANCH   8  35
HETATM   35  O4  UNL     1       3.478  -0.678   0.472  1.00  0.00    -0.395 OA
ATOM     36  H4  UNL     1       3.713  -0.741   1.390  1.00  0.00     0.210 HD
ENDBRANCH   8  35
TORSDOF 11
