REMARK  5 active torsions:
REMARK  status: ('A' for Active; 'I' for Inactive)
REMARK    1  A    between atoms: C2_2  and  C3_3 
REMARK    2  A    between atoms: C2_2  and  C4_6 
REMARK    3  A    between atoms: C3_3  and  O1_4 
REMARK    4  A    between atoms: C4_6  and  C5_7 
REMARK    5  A    between atoms: C11_13  and  O2_14 
ROOT
HETATM    1  C5  UNL     1      -0.530  -0.995  -0.940  1.00  0.00     0.129 C 
HETATM    2  C6  UNL     1       0.710  -1.887  -0.846  1.00  0.00     0.036 C 
HETATM    3  C7  UNL     1       1.625  -1.732   0.358  1.00  0.00     0.049 C 
HETATM    4  C8  UNL     1       2.435  -0.428   0.445  1.00  0.00     0.150 C 
HETATM    5  C9  UNL     1       1.685   0.712   1.171  1.00  0.00     0.063 C 
HETATM    6  C10 UNL     1       1.043   1.579   0.087  1.00  0.00     0.106 C 
HETATM    7  C11 UNL     1       1.658   2.764  -0.313  1.00  0.00     0.276 C 
HETATM    8  O3  UNL     1       2.291   2.504  -1.512  1.00  0.00    -0.296 OA
HETATM    9  C12 UNL     1       1.842   1.244  -1.880  1.00  0.00     0.216 C 
HETATM   10  C13 UNL     1       0.648   1.080  -1.189  1.00  0.00     0.114 C 
HETATM   11  O4  UNL     1      -0.300   0.232  -1.615  1.00  0.00    -0.345 OA
HETATM   12  O5  UNL     1       2.825   0.329  -2.053  1.00  0.00    -0.291 OA
HETATM   13  C14 UNL     1       3.381   0.168  -0.710  1.00  0.00     0.343 C 
HETATM   14  O6  UNL     1       4.256  -0.945  -0.371  1.00  0.00    -0.203 OA
HETATM   15  O7  UNL     1       3.735  -0.811   1.038  1.00  0.00    -0.222 OA
ENDROOT
BRANCH   1  16
HETATM   16  C4  UNL     1      -1.412  -0.891   0.315  1.00  0.00     0.038 C 
BRANCH  16  17
HETATM   17  C2  UNL     1      -2.564   0.136   0.221  1.00  0.00     0.007 C 
HETATM   18  C1  UNL     1      -3.522  -0.158  -0.936  1.00  0.00     0.012 C 
BRANCH  17  19
HETATM   19  C3  UNL     1      -3.324   0.200   1.554  1.00  0.00     0.168 C 
BRANCH  19  20
HETATM   20  O1  UNL     1      -3.935  -1.043   1.868  1.00  0.00    -0.400 OA
ATOM     21  H1  UNL     1      -4.405  -1.003   2.693  1.00  0.00     0.209 HD
ENDBRANCH  19  20
ENDBRANCH  17  19
ENDBRANCH  16  17
ENDBRANCH   1  16
BRANCH   7  22
HETATM   22  O2  UNL     1       2.121   3.833   0.312  1.00  0.00    -0.370 OA
ATOM     23  H2  UNL     1       2.540   4.641   0.039  1.00  0.00     0.212 HD
ENDBRANCH   7  22
TORSDOF 5
