REMARK  15 active torsions:
REMARK  status: ('A' for Active; 'I' for Inactive)
REMARK    1  A    between atoms: C2_2  and  C3_3 
REMARK    2  A    between atoms: C3_3  and  C4_4 
REMARK    3  A    between atoms: C4_4  and  N1_5 
REMARK    4  A    between atoms: C4_4  and  C21_24 
REMARK       I    between atoms: N1_5  and  C5_7 
REMARK    5  A    between atoms: C5_7  and  C6_9 
REMARK    6  A    between atoms: C8_11  and  C9_12 
REMARK    7  A    between atoms: C21_24  and  C22_26 
REMARK       I    between atoms: C22_26  and  N2_28 
REMARK    8  A    between atoms: N2_28  and  C23_30 
REMARK    9  A    between atoms: C25_32  and  O4_33 
REMARK   10  A    between atoms: O4_33  and  C26_34 
REMARK   11  A    between atoms: C26_34  and  C27_35 
REMARK   12  A    between atoms: C31_42  and  C32_43 
REMARK   13  A    between atoms: C33_44  and  C34_45 
REMARK   14  A    between atoms: C34_45  and  C35_46 
REMARK       I    between atoms: C35_46  and  N4_48 
REMARK   15  A    between atoms: N4_48  and  C36_50 
ROOT
HETATM    1  C22 UNL     1       0.974   1.212   1.484  1.00  0.00     0.289 C 
HETATM    2  O3  UNL     1       1.900   1.909   1.092  1.00  0.00    -0.264 OA
HETATM    3  N2  UNL     1       0.853  -0.154   1.317  1.00  0.00    -0.347 N 
ATOM      4  H2  UNL     1       0.073  -0.640   1.760  1.00  0.00     0.163 HD
ENDROOT
BRANCH   1   5
HETATM    5  C21 UNL     1      -0.209   1.846   2.191  1.00  0.00     0.238 C 
HETATM    6  O2  UNL     1      -0.408   1.571   3.368  1.00  0.00    -0.285 OA
BRANCH   5   7
HETATM    7  C4  UNL     1      -1.087   2.736   1.306  1.00  0.00     0.164 C 
BRANCH   7   8
HETATM    8  C3  UNL     1      -0.499   4.157   1.208  1.00  0.00     0.033 C 
BRANCH   8   9
HETATM    9  C2  UNL     1      -0.295   4.641  -0.232  1.00  0.00    -0.002 C 
HETATM   10  C1  UNL     1       0.976   4.098  -0.862  1.00  0.00     0.005 C 
ENDBRANCH   8   9
ENDBRANCH   7   8
BRANCH   7  11
HETATM   11  N1  UNL     1      -2.419   2.811   1.920  1.00  0.00    -0.349 N 
HETATM   12  C5  UNL     1      -3.473   1.933   1.877  1.00  0.00     0.223 C 
HETATM   13  O1  UNL     1      -4.399   2.193   2.659  1.00  0.00    -0.273 OA
ATOM     14  H1  UNL     1      -2.589   3.654   2.468  1.00  0.00     0.163 HD
BRANCH  12  15
HETATM   15  C6  UNL     1      -3.467   0.677   0.919  1.00  0.00     0.092 C 
HETATM   16  C7  UNL     1      -4.164  -0.532   1.571  1.00  0.00     0.010 C 
HETATM   17  C8  UNL     1      -4.021  -1.978   1.037  1.00  0.00    -0.001 C 
HETATM   18  C14 UNL     1      -5.403  -0.323   0.671  1.00  0.00     0.009 C 
HETATM   19  C11 UNL     1      -5.491  -1.858   0.468  1.00  0.00    -0.039 C 
HETATM   20  C12 UNL     1      -6.488  -2.441   1.515  1.00  0.00     0.015 C 
HETATM   21  C13 UNL     1      -5.918  -2.408  -0.884  1.00  0.00     0.015 C 
HETATM   22  C15 UNL     1      -4.537   0.617  -0.228  1.00  0.00    -0.019 C 
HETATM   23  C16 UNL     1      -4.026   0.441  -1.659  1.00  0.00     0.015 C 
HETATM   24  C19 UNL     1      -5.315   1.966  -0.390  1.00  0.00    -0.004 C 
HETATM   25  C17 UNL     1      -4.714   1.657  -2.273  1.00  0.00    -0.013 C 
HETATM   26  C18 UNL     1      -6.147   1.722  -1.688  1.00  0.00     0.010 C 
HETATM   27  C20 UNL     1      -4.407   2.835  -1.315  1.00  0.00     0.010 C 
BRANCH  17  28
HETATM   28  C9  UNL     1      -2.791  -2.653   0.429  1.00  0.00     0.001 C 
HETATM   29  C10 UNL     1      -2.530  -2.449  -1.041  1.00  0.00     0.005 C 
ENDBRANCH  17  28
ENDBRANCH  12  15
ENDBRANCH   7  11
ENDBRANCH   5   7
ENDBRANCH   1   5
BRANCH   3  30
HETATM   30  C23 UNL     1       1.792  -0.907   0.539  1.00  0.00     0.116 A 
HETATM   31  C24 UNL     1       1.306  -1.763  -0.594  1.00  0.00     0.061 A 
HETATM   32  C25 UNL     1       1.904  -2.405   0.626  1.00  0.00     0.146 A 
BRANCH  32  33
HETATM   33  O4  UNL     1       3.229  -2.943   0.433  1.00  0.00    -0.383 OA
BRANCH  33  34
HETATM   34  C26 UNL     1       3.905  -3.254   1.651  1.00  0.00     0.175 C 
BRANCH  34  35
HETATM   35  C27 UNL     1       5.410  -2.975   1.493  1.00  0.00     0.036 C 
HETATM   36  C28 UNL     1       6.187  -3.563   2.686  1.00  0.00     0.018 C 
HETATM   37  C29 UNL     1       6.222  -2.615   3.878  1.00  0.00     0.103 C 
HETATM   38  C30 UNL     1       6.837  -1.295   3.493  1.00  0.00     0.218 C 
HETATM   39  O5  UNL     1       7.386  -0.547   4.295  1.00  0.00    -0.274 OA
HETATM   40  N3  UNL     1       6.723  -0.948   2.179  1.00  0.00    -0.353 N 
HETATM   41  C31 UNL     1       5.653  -1.449   1.343  1.00  0.00     0.113 C 
ATOM     42  H3  UNL     1       7.413  -0.316   1.773  1.00  0.00     0.163 HD
BRANCH  41  43
HETATM   43  C32 UNL     1       6.024  -1.021  -0.048  1.00  0.00    -0.005 C 
HETATM   44  C33 UNL     1       5.450   0.022  -0.673  1.00  0.00    -0.019 C 
BRANCH  44  45
HETATM   45  C34 UNL     1       5.845   0.541  -2.017  1.00  0.00     0.129 C 
BRANCH  45  46
HETATM   46  C35 UNL     1       4.794   0.139  -3.036  1.00  0.00     0.221 C 
HETATM   47  O6  UNL     1       4.974  -0.784  -3.825  1.00  0.00    -0.273 OA
HETATM   48  N4  UNL     1       3.631   0.886  -2.972  1.00  0.00    -0.356 N 
ATOM     49  H4  UNL     1       3.528   1.586  -2.237  1.00  0.00     0.162 HD
BRANCH  48  50
HETATM   50  C36 UNL     1       2.572   0.700  -3.910  1.00  0.00     0.084 A 
HETATM   51  C37 UNL     1       2.321   1.741  -4.958  1.00  0.00     0.027 A 
HETATM   52  C38 UNL     1       1.323   1.529  -3.859  1.00  0.00     0.027 A 
ENDBRANCH  48  50
ENDBRANCH  45  46
ENDBRANCH  44  45
ENDBRANCH  41  43
ENDBRANCH  34  35
ENDBRANCH  33  34
ENDBRANCH  32  33
ENDBRANCH   3  30
TORSDOF 15
