REMARK  5 active torsions:
REMARK  status: ('A' for Active; 'I' for Inactive)
REMARK    1  A    between atoms: N1_2  and  C4_5 
REMARK    2  A    between atoms: C4_5  and  C5_6 
REMARK    3  A    between atoms: C5_6  and  N2_7 
REMARK    4  A    between atoms: C13_23  and  C14_24 
REMARK       I    between atoms: C14_24  and  N6_25 
REMARK    5  A    between atoms: N7_29  and  O2_30 
ROOT
HETATM    1  N2  UNL     1      -1.123  -0.129  -1.604  1.00  0.00    -0.375 N 
ATOM      2  H2  UNL     1      -0.785   0.706  -2.082  1.00  0.00     0.160 HD
HETATM    3  C6  UNL     1      -0.300  -0.809  -0.907  1.00  0.00     0.119 C 
HETATM    4  N3  UNL     1      -0.440  -2.018  -0.232  1.00  0.00    -0.291 N 
ATOM      5  H3  UNL     1      -1.317  -2.538  -0.257  1.00  0.00     0.188 HD
HETATM    6  N4  UNL     1       0.688  -2.505   0.497  1.00  0.00    -0.319 N 
ATOM      7  H4  UNL     1       0.722  -3.454   0.870  1.00  0.00     0.181 HD
HETATM    8  C7  UNL     1       1.745  -1.600   0.668  1.00  0.00     0.200 C 
HETATM    9  C8  UNL     1       2.767  -1.495  -0.287  1.00  0.00     0.136 C 
HETATM   10  N5  UNL     1       2.120  -0.766  -1.305  1.00  0.00    -0.360 N 
ATOM     11  H5  UNL     1       2.397  -0.685  -2.283  1.00  0.00     0.162 HD
HETATM   12  C9  UNL     1       0.999  -0.169  -0.673  1.00  0.00     0.183 C 
HETATM   13  C10 UNL     1       1.486  -0.200   0.654  1.00  0.00    -0.017 C 
HETATM   14  C11 UNL     1       2.315   0.805   1.256  1.00  0.00     0.029 C 
HETATM   15  C12 UNL     1       3.657   0.790   1.342  1.00  0.00     0.046 C 
HETATM   16 BR1  UNL     1       4.498   2.208   2.260  1.00  0.00    -0.048 Br
HETATM   17  C13 UNL     1       4.527  -0.265   0.713  1.00  0.00     0.149 C 
HETATM   18  N7  UNL     1       4.130  -1.291  -0.003  1.00  0.00    -0.203 N 
ENDROOT
BRANCH   1  19
HETATM   19  C5  UNL     1      -2.523  -0.493  -1.746  1.00  0.00     0.149 C 
BRANCH  19  20
HETATM   20  C4  UNL     1      -3.335   0.774  -1.400  1.00  0.00     0.255 C 
BRANCH  20  21
HETATM   21  N1  UNL     1      -3.740   0.912   0.093  1.00  0.00    -0.077 N 
HETATM   22  C1  UNL     1      -2.704   0.360   1.063  1.00  0.00     0.271 C 
HETATM   23  C2  UNL     1      -3.911   2.400   0.400  1.00  0.00     0.271 C 
HETATM   24  C3  UNL     1      -5.052   0.190   0.317  1.00  0.00     0.271 C 
ENDBRANCH  20  21
ENDBRANCH  19  20
ENDBRANCH   1  19
BRANCH  18  25
HETATM   25  O2  UNL     1       4.919  -2.092  -0.592  1.00  0.00    -0.281 OA
ATOM     26  H2  UNL     1       5.839  -1.954  -0.400  1.00  0.00     0.245 HD
ENDBRANCH  18  25
BRANCH  17  27
HETATM   27  C14 UNL     1       5.998  -0.144   0.867  1.00  0.00     0.269 C 
HETATM   28  N6  UNL     1       6.630   0.540  -0.128  1.00  0.00    -0.365 N 
ATOM     29  H62 UNL     1       6.179   0.931  -0.955  1.00  0.00     0.159 HD
ATOM     30  H61 UNL     1       7.641   0.623  -0.022  1.00  0.00     0.159 HD
HETATM   31  O1  UNL     1       6.535  -0.610   1.852  1.00  0.00    -0.266 OA
ENDBRANCH  17  27
TORSDOF 5
