REMARK  2 active torsions:
REMARK  status: ('A' for Active; 'I' for Inactive)
REMARK    1  A    between atoms: N5_21  and  C12_22 
REMARK    2  A    between atoms: C15_25  and  C16_26 
ROOT
HETATM    1  N1  UNL     1       0.109   0.054  -1.777  1.00  0.00    -0.389 N 
ATOM      2  H11 UNL     1      -0.408  -0.669  -2.276  1.00  0.00     0.157 HD
ATOM      3  H12 UNL     1      -0.375   0.931  -1.586  1.00  0.00     0.157 HD
HETATM    4  C1  UNL     1       1.322  -0.154  -1.354  1.00  0.00     0.088 C 
HETATM    5  C2  UNL     1       2.075   0.899  -0.627  1.00  0.00    -0.003 C 
HETATM    6  C3  UNL     1       1.386   1.959   0.013  1.00  0.00    -0.045 C 
HETATM    7  C4  UNL     1       2.016   3.259  -0.218  1.00  0.00     0.135 C 
HETATM    8  N2  UNL     1       2.775   3.656   1.066  1.00  0.00    -0.383 N 
ATOM      9  H2  UNL     1       2.584   4.362   1.777  1.00  0.00     0.160 HD
HETATM   10  C5  UNL     1       3.819   2.720   0.929  1.00  0.00     0.009 C 
HETATM   11  C6  UNL     1       3.882   2.401  -0.580  1.00  0.00     0.076 C 
HETATM   12  C7  UNL     1       3.372   1.232  -1.120  1.00  0.00     0.101 C 
HETATM   13  C8  UNL     1       3.151   1.617  -2.543  1.00  0.00     0.083 C 
HETATM   14  N3  UNL     1       2.843   2.880  -2.567  1.00  0.00    -0.372 N 
ATOM     15  H3  UNL     1       2.548   3.455  -3.356  1.00  0.00     0.161 HD
HETATM   16  C9  UNL     1       3.026   3.252  -1.196  1.00  0.00     0.120 C 
HETATM   17  N4  UNL     1       3.174   0.747  -3.591  1.00  0.00    -0.378 N 
ATOM     18  H4  UNL     1       2.975   1.134  -4.514  1.00  0.00     0.160 HD
HETATM   19  C10 UNL     1       3.455  -0.683  -3.525  1.00  0.00     0.136 C 
HETATM   20  C11 UNL     1       2.277  -1.574  -3.056  1.00  0.00     0.122 C 
HETATM   21  N5  UNL     1       1.988  -1.362  -1.617  1.00  0.00    -0.234 NA
HETATM   22  C28 UNL     1       3.991   1.724   1.820  1.00  0.00    -0.002 C 
HETATM   23  C29 UNL     1       2.946   1.541   2.904  1.00  0.00     0.029 C 
HETATM   24  C30 UNL     1       1.634   0.876   2.397  1.00  0.00     0.008 C 
HETATM   25  C31 UNL     1       0.738   1.635   1.364  1.00  0.00     0.037 C 
ENDROOT
BRANCH  21  26
HETATM   26  C12 UNL     1       1.295  -2.451  -0.983  1.00  0.00     0.016 C 
HETATM   27  C13 UNL     1       0.301  -3.200  -1.621  1.00  0.00     0.025 C 
HETATM   28  C14 UNL     1      -0.770  -3.704  -0.875  1.00  0.00     0.017 C 
HETATM   29  C15 UNL     1      -0.856  -3.406   0.492  1.00  0.00     0.008 C 
HETATM   30  C26 UNL     1       0.293  -2.978   1.157  1.00  0.00     0.017 C 
HETATM   31  C27 UNL     1       1.371  -2.506   0.417  1.00  0.00     0.025 C 
BRANCH  29  32
HETATM   32  C16 UNL     1      -2.151  -2.987   1.050  1.00  0.00     0.116 C 
HETATM   33  N6  UNL     1      -2.285  -1.886   1.771  1.00  0.00    -0.338 N 
HETATM   34  C17 UNL     1      -3.468  -1.318   1.339  1.00  0.00     0.088 A 
ATOM     35  H6  UNL     1      -1.653  -1.533   2.489  1.00  0.00     0.167 HD
HETATM   36  C18 UNL     1      -4.197  -2.255   0.612  1.00  0.00     0.063 A 
HETATM   37  C25 UNL     1      -3.958   0.007   1.452  1.00  0.00     0.071 A 
HETATM   38  C19 UNL     1      -5.427  -1.978   0.010  1.00  0.00     0.033 A 
HETATM   39  N8  UNL     1      -3.389  -3.374   0.589  1.00  0.00    -0.340 N 
HETATM   40  C20 UNL     1      -5.907  -0.668   0.137  1.00  0.00     0.016 A 
HETATM   41  C21 UNL     1      -5.187   0.318   0.833  1.00  0.00    -0.007 A 
HETATM   42  C22 UNL     1      -5.620   1.647   0.913  1.00  0.00     0.015 A 
HETATM   43  C23 UNL     1      -4.821   2.599   1.547  1.00  0.00     0.018 A 
HETATM   44  C24 UNL     1      -3.615   2.194   2.099  1.00  0.00     0.088 A 
HETATM   45  N7  UNL     1      -3.172   0.919   2.081  1.00  0.00    -0.363 N 
ATOM     46  H7  UNL     1      -2.290   0.653   2.519  1.00  0.00     0.165 HD
ATOM     47  H8  UNL     1      -3.658  -4.310   0.287  1.00  0.00     0.167 HD
ENDBRANCH  29  32
ENDBRANCH  21  26
TORSDOF 2
