REMARK  9 active torsions:
REMARK  status: ('A' for Active; 'I' for Inactive)
REMARK    1  A    between atoms: C4_4  and  C5_5 
REMARK    2  A    between atoms: C6_6  and  C7_7 
REMARK    3  A    between atoms: C8_8  and  C9_9 
REMARK    4  A    between atoms: C10_10  and  C11_11 
REMARK    5  A    between atoms: C13_14  and  C14_15 
REMARK    6  A    between atoms: C14_15  and  O2_16 
REMARK    7  A    between atoms: C17_20  and  O3_21 
REMARK    8  A    between atoms: C21_27  and  O4_28 
REMARK    9  A    between atoms: C31_40  and  O6_41 
ROOT
HETATM    1  C11 UNL     1       1.954   2.268  -1.255  1.00  0.00     0.113 C 
HETATM    2  C12 UNL     1       3.488   2.263  -1.265  1.00  0.00     0.142 C 
HETATM    3  O1  UNL     1       4.101   2.788  -2.199  1.00  0.00    -0.297 OA
HETATM    4  C13 UNL     1       4.253   1.727  -0.043  1.00  0.00     0.081 C 
HETATM    5  C15 UNL     1       3.386   1.308   1.164  1.00  0.00     0.033 C 
HETATM    6  C16 UNL     1       2.125   0.542   0.796  1.00  0.00     0.079 C 
HETATM    7  C17 UNL     1       2.055  -0.490  -0.391  1.00  0.00     0.371 C 
HETATM    8  N1  UNL     1       0.692  -0.007  -0.542  1.00  0.00     0.130 N 
HETATM    9  C18 UNL     1      -0.303  -0.419   0.463  1.00  0.00     0.244 C 
HETATM   10  C19 UNL     1      -0.213   0.371   1.565  1.00  0.00     0.052 C 
HETATM   11  C20 UNL     1      -1.218   1.294   2.147  1.00  0.00     0.015 C 
HETATM   12  C21 UNL     1       1.186   0.116   2.047  1.00  0.00     0.085 C 
HETATM   13  C22 UNL     1       0.951  -1.436   2.322  1.00  0.00    -0.004 C 
HETATM   14  C23 UNL     1       0.353  -1.615   3.757  1.00  0.00     0.019 C 
HETATM   15  C24 UNL     1       2.272  -2.229   2.417  1.00  0.00     0.019 C 
HETATM   16  C25 UNL     1      -0.144  -1.850   1.131  1.00  0.00     0.018 C 
HETATM   17  C26 UNL     1      -1.599  -2.254   1.654  1.00  0.00     0.016 C 
HETATM   18  C27 UNL     1      -2.769  -1.991   0.680  1.00  0.00     0.015 C 
HETATM   19  C28 UNL     1      -1.702  -3.691   2.099  1.00  0.00    -0.023 C 
HETATM   20  C29 UNL     1      -1.065  -4.692   1.481  1.00  0.00     0.002 C 
HETATM   21  C30 UNL     1      -0.207  -4.410   0.318  1.00  0.00     0.157 C 
HETATM   22  O5  UNL     1      -0.874  -4.264  -0.959  1.00  0.00    -0.351 OA
HETATM   23  C31 UNL     1      -0.090  -3.080  -1.252  1.00  0.00     0.267 C 
HETATM   24  C33 UNL     1       0.377  -2.983   0.218  1.00  0.00     0.086 C 
HETATM   25  C34 UNL     1       1.264   1.369  -0.227  1.00  0.00     0.257 C 
ENDROOT
BRANCH   1  26
HETATM   26  C10 UNL     1       1.354   2.100  -2.632  1.00  0.00    -0.012 C 
HETATM   27  C9  UNL     1       0.300   2.767  -3.127  1.00  0.00    -0.003 C 
BRANCH  27  28
HETATM   28  C8  UNL     1      -0.505   3.694  -2.369  1.00  0.00    -0.000 C 
HETATM   29  C7  UNL     1      -1.605   3.309  -1.705  1.00  0.00    -0.000 C 
BRANCH  29  30
HETATM   30  C6  UNL     1      -2.398   4.223  -0.919  1.00  0.00    -0.004 C 
HETATM   31  C5  UNL     1      -3.631   3.973  -0.439  1.00  0.00    -0.022 C 
BRANCH  31  32
HETATM   32  C4  UNL     1      -4.468   2.784  -0.641  1.00  0.00     0.012 A 
HETATM   33  C2  UNL     1      -5.527   2.912  -1.671  1.00  0.00    -0.010 A 
HETATM   34  C1  UNL     1      -5.859   1.976  -2.569  1.00  0.00     0.010 C 
HETATM   35  C3  UNL     1      -5.878   2.808  -0.242  1.00  0.00     0.013 A 
ENDBRANCH  31  32
ENDBRANCH  29  30
ENDBRANCH  27  28
ENDBRANCH   1  26
BRANCH   4  36
HETATM   36  C14 UNL     1       5.323   0.655  -0.349  1.00  0.00     0.176 C 
BRANCH  36  37
HETATM   37  O2  UNL     1       5.499   0.333  -1.718  1.00  0.00    -0.400 OA
ATOM     38  H2  UNL     1       6.157  -0.326  -1.906  1.00  0.00     0.209 HD
ENDBRANCH  36  37
ENDBRANCH   4  36
BRANCH   7  39
HETATM   39  O3  UNL     1       2.850  -0.350  -1.575  1.00  0.00    -0.367 OA
ATOM     40  H3  UNL     1       2.808  -0.973  -2.291  1.00  0.00     0.212 HD
ENDBRANCH   7  39
BRANCH  12  41
HETATM   41  O4  UNL     1       1.533   0.839   3.208  1.00  0.00    -0.388 OA
ATOM     42  H4  UNL     1       0.983   0.589   3.941  1.00  0.00     0.210 HD
ENDBRANCH  12  41
BRANCH  23  43
HETATM   43  O6  UNL     1       0.984  -3.309  -2.191  1.00  0.00    -0.366 OA
HETATM   44  C32 UNL     1       0.584  -3.607  -3.518  1.00  0.00     0.204 C 
ENDBRANCH  23  43
TORSDOF 9
