REMARK  2 active torsions:
REMARK  status: ('A' for Active; 'I' for Inactive)
REMARK    1  A    between atoms: O1_1  and  C1_3 
REMARK    2  A    between atoms: C1_3  and  C2_4 
ROOT
HETATM    1  C2  UNL     1       1.493  -0.388   0.338  1.00  0.00     0.015 C 
HETATM    2  C3  UNL     1       0.815  -1.503  -0.522  1.00  0.00     0.018 C 
HETATM    3  C4  UNL     1      -0.542  -0.817  -0.280  1.00  0.00    -0.011 C 
HETATM    4  C5  UNL     1      -1.641  -0.465  -1.269  1.00  0.00     0.242 C 
HETATM    5  N1  UNL     1      -2.653   0.370  -0.597  1.00  0.00    -0.074 N 
ATOM      6  H11 UNL     1      -3.384  -0.211  -0.185  1.00  0.00     0.277 HD
ATOM      7  H12 UNL     1      -3.209   0.883  -1.281  1.00  0.00     0.277 HD
HETATM    8  C6  UNL     1      -2.086   1.291   0.413  1.00  0.00     0.237 C 
HETATM    9  C7  UNL     1      -0.861   0.671   1.128  1.00  0.00     0.017 C 
HETATM   10  C8  UNL     1      -0.996  -0.872   1.217  1.00  0.00     0.018 C 
HETATM   11  C9  UNL     1       0.246   0.481   0.069  1.00  0.00     0.007 C 
ENDROOT
BRANCH   1  12
HETATM   12  C1  UNL     1       2.806   0.139  -0.218  1.00  0.00     0.169 C 
BRANCH  12  13
HETATM   13  O1  UNL     1       3.191   1.282   0.535  1.00  0.00    -0.400 OA
ATOM     14  H1  UNL     1       4.012   1.611   0.188  1.00  0.00     0.209 HD
ENDBRANCH  12  13
ENDBRANCH   1  12
TORSDOF 2
