REMARK  7 active torsions:
REMARK  status: ('A' for Active; 'I' for Inactive)
REMARK    1  A    between atoms: C7_14  and  S1_15 
REMARK    2  A    between atoms: C14_25  and  O4_26 
REMARK    3  A    between atoms: C15_28  and  N4_29 
REMARK    4  A    between atoms: N5_31  and  C16_33 
REMARK    5  A    between atoms: C19_36  and  S2_37 
REMARK    6  A    between atoms: S2_37  and  N6_38 
REMARK    7  A    between atoms: C22_45  and  O7_46 
ROOT
HETATM    1  N1  UNL     1       3.646  -3.701  -1.618  1.00  0.00    -0.371 N 
ATOM      2  H11 UNL     1       4.298  -3.863  -2.386  1.00  0.00     0.159 HD
ATOM      3  H12 UNL     1       3.373  -4.609  -1.242  1.00  0.00     0.159 HD
HETATM    4  C1  UNL     1       3.262  -2.584  -1.127  1.00  0.00     0.177 A 
HETATM    5  N2  UNL     1       2.374  -2.363  -0.081  1.00  0.00    -0.329 N 
ATOM      6  H2  UNL     1       1.972  -3.080   0.523  1.00  0.00     0.169 HD
HETATM    7  C2  UNL     1       2.122  -0.962   0.003  1.00  0.00     0.049 A 
HETATM    8  C3  UNL     1       0.972  -0.317   0.401  1.00  0.00     0.112 C 
HETATM    9  C4  UNL     1       0.981   0.716   1.465  1.00  0.00     0.077 C 
HETATM   10  N3  UNL     1       1.758   1.738   1.651  1.00  0.00    -0.368 N 
ATOM     11  H3  UNL     1       1.419   2.442   2.306  1.00  0.00     0.165 HD
HETATM   12  C5  UNL     1       3.008   1.997   1.063  1.00  0.00     0.040 C 
HETATM   13  C6  UNL     1       3.947   2.369   2.048  1.00  0.00     0.056 C 
HETATM   14  C7  UNL     1       5.317   2.304   1.805  1.00  0.00     0.082 C 
HETATM   15  C8  UNL     1       5.781   2.107   0.510  1.00  0.00     0.027 C 
HETATM   16  C9  UNL     1       4.850   1.900  -0.520  1.00  0.00     0.012 C 
HETATM   17  C10 UNL     1       3.452   1.770  -0.272  1.00  0.00    -0.017 C 
HETATM   18  C11 UNL     1       2.690   0.942  -1.289  1.00  0.00     0.106 C 
HETATM   19  C12 UNL     1       1.297   1.068  -1.530  1.00  0.00    -0.031 C 
HETATM   20  C13 UNL     1       0.736   1.612  -2.699  1.00  0.00     0.048 C 
HETATM   21  C14 UNL     1      -0.635   1.434  -2.981  1.00  0.00     0.097 C 
HETATM   22  C15 UNL     1      -1.508   0.819  -2.066  1.00  0.00     0.115 C 
HETATM   23  C22 UNL     1      -0.966   0.382  -0.853  1.00  0.00     0.104 C 
HETATM   24  C23 UNL     1       0.413   0.389  -0.655  1.00  0.00    -0.000 C 
HETATM   25  C24 UNL     1       2.967  -0.358  -0.938  1.00  0.00     0.049 A 
HETATM   26  N7  UNL     1       3.631  -1.359  -1.634  1.00  0.00    -0.329 N 
ATOM     27  H7  UNL     1       4.288  -1.210  -2.400  1.00  0.00     0.169 HD
ENDROOT
BRANCH  22  28
HETATM   28  N4  UNL     1      -2.893   0.659  -2.304  1.00  0.00    -0.295 N 
HETATM   29  N5  UNL     1      -3.194  -0.560  -2.421  1.00  0.00    -0.300 N 
ATOM     30  H5  UNL     1      -2.732  -1.218  -3.049  1.00  0.00     0.187 HD
ATOM     31  H4  UNL     1      -3.560   1.428  -2.372  1.00  0.00     0.187 HD
BRANCH  29  32
HETATM   32  C16 UNL     1      -4.268  -0.885  -1.554  1.00  0.00     0.048 A 
HETATM   33  C17 UNL     1      -4.099  -1.951  -0.652  1.00  0.00     0.032 A 
HETATM   34  C18 UNL     1      -4.971  -2.121   0.432  1.00  0.00     0.027 A 
HETATM   35  C19 UNL     1      -6.016  -1.211   0.615  1.00  0.00     0.079 A 
HETATM   36  C20 UNL     1      -6.260  -0.214  -0.335  1.00  0.00     0.027 A 
HETATM   37  C21 UNL     1      -5.387  -0.060  -1.414  1.00  0.00     0.032 A 
BRANCH  35  38
HETATM   38  S2  UNL     1      -6.987  -1.246   2.110  1.00  0.00     0.256 S 
HETATM   39  O5  UNL     1      -7.732  -0.017   2.202  1.00  0.00    -0.201 OA
HETATM   40  O6  UNL     1      -6.178  -1.733   3.202  1.00  0.00    -0.201 OA
BRANCH  38  41
HETATM   41  N6  UNL     1      -8.004  -2.539   1.817  1.00  0.00    -0.324 N 
ATOM     42  H62 UNL     1      -8.046  -3.141   0.994  1.00  0.00     0.169 HD
ATOM     43  H61 UNL     1      -8.559  -2.559   2.672  1.00  0.00     0.169 HD
ENDBRANCH  38  41
ENDBRANCH  35  38
ENDBRANCH  29  32
ENDBRANCH  22  28
BRANCH  21  44
HETATM   44  O4  UNL     1      -1.133   1.845  -4.189  1.00  0.00    -0.358 OA
ATOM     45  H4  UNL     1      -2.056   1.725  -4.379  1.00  0.00     0.217 HD
ENDBRANCH  21  44
BRANCH  23  46
HETATM   46  O7  UNL     1      -1.746  -0.093   0.177  1.00  0.00    -0.358 OA
ATOM     47  H7  UNL     1      -1.378  -0.390   1.001  1.00  0.00     0.217 HD
ENDBRANCH  23  46
BRANCH  14  48
HETATM   48  S1  UNL     1       6.421   2.080   3.209  1.00  0.00     0.137 S 
HETATM   49  O1  UNL     1       6.492   3.337   3.913  1.00  0.00    -0.591 OA
HETATM   50  O2  UNL     1       7.573   1.343   2.743  1.00  0.00    -0.591 OA
HETATM   51  O3  UNL     1       5.632   1.037   4.162  1.00  0.00    -0.591 OA
ENDBRANCH  14  48
TORSDOF 7
