REMARK  2 active torsions:
REMARK  status: ('A' for Active; 'I' for Inactive)
REMARK    1  A    between atoms: N1_2  and  C2_4 
REMARK    2  A    between atoms: C2_4  and  N2_6 
ROOT
HETATM    1  N2  UNL     1      -0.304   0.560  -0.529  1.00  0.00    -0.281 N 
HETATM    2  C3  UNL     1       0.234  -0.782  -0.300  1.00  0.00     0.118 C 
HETATM    3  C4  UNL     1       0.201  -1.647   0.955  1.00  0.00     0.049 C 
HETATM    4  C5  UNL     1       1.743  -1.863   0.681  1.00  0.00     0.096 C 
HETATM    5 CL1  UNL     1       2.242  -3.206  -0.409  1.00  0.00    -0.124 Cl
HETATM    6  C6  UNL     1       1.721  -0.416   0.108  1.00  0.00     0.013 C 
HETATM    7  C7  UNL     1       1.876   0.706   1.176  1.00  0.00     0.030 C 
HETATM    8  C8  UNL     1       1.337   1.948   0.436  1.00  0.00     0.114 C 
HETATM    9  N3  UNL     1       0.856   1.405  -0.868  1.00  0.00    -0.226 NA
HETATM   10  C9  UNL     1       1.925   0.381  -1.164  1.00  0.00     0.127 C 
ENDROOT
BRANCH   1  11
HETATM   11  C2  UNL     1      -1.620   0.959  -0.768  1.00  0.00     0.184 C 
HETATM   12  S1  UNL     1      -2.064   2.519  -1.205  1.00  0.00    -0.040 SA
BRANCH  11  13
HETATM   13  N1  UNL     1      -2.542  -0.063  -0.569  1.00  0.00    -0.370 N 
HETATM   14  C1  UNL     1      -3.984   0.076  -0.489  1.00  0.00     0.148 C 
ATOM     15  H1  UNL     1      -2.166  -1.006  -0.469  1.00  0.00     0.161 HD
ENDBRANCH  11  13
ENDBRANCH   1  11
TORSDOF 2
