REMARK  5 active torsions:
REMARK  status: ('A' for Active; 'I' for Inactive)
REMARK    1  A    between atoms: O1_2  and  C2_3 
REMARK    2  A    between atoms: C4_5  and  O2_6 
REMARK    3  A    between atoms: C9_11  and  C10_12 
REMARK    4  A    between atoms: C16_26  and  N3_27 
REMARK    5  A    between atoms: N3_27  and  C17_29 
ROOT
HETATM    1  C2  UNL     1       1.962  -1.817  -0.171  1.00  0.00     0.071 A 
HETATM    2  C3  UNL     1       3.275  -1.601   0.252  1.00  0.00     0.076 A 
HETATM    3  C4  UNL     1       3.777  -0.298   0.281  1.00  0.00     0.105 A 
HETATM    4  C6  UNL     1       2.973   0.778  -0.102  1.00  0.00     0.117 A 
HETATM    5  C7  UNL     1       1.694   0.568  -0.624  1.00  0.00    -0.002 A 
HETATM    6  C8  UNL     1       1.187  -0.745  -0.630  1.00  0.00     0.047 A 
HETATM    7  C9  UNL     1       0.846   1.742  -1.111  1.00  0.00     0.162 C 
HETATM    8  C11 UNL     1       0.145   2.503   0.014  1.00  0.00    -0.011 C 
HETATM    9  C12 UNL     1       0.539   2.655   1.317  1.00  0.00     0.106 C 
HETATM   10  N1  UNL     1       1.770   2.288   1.816  1.00  0.00    -0.333 N 
ATOM     11  H1  UNL     1       1.762   1.711   2.657  1.00  0.00     0.168 HD
HETATM   12  C13 UNL     1       3.084   2.630   1.280  1.00  0.00     0.235 C 
HETATM   13  O3  UNL     1       3.415   2.064   0.004  1.00  0.00    -0.302 OA
HETATM   14  N2  UNL     1      -0.390   3.137   2.294  1.00  0.00    -0.368 N 
ATOM     15  H2  UNL     1      -0.133   3.324   3.263  1.00  0.00     0.161 HD
HETATM   16  C14 UNL     1      -1.759   3.339   1.765  1.00  0.00     0.109 C 
HETATM   17  C15 UNL     1      -2.606   2.208   1.810  1.00  0.00     0.027 C 
HETATM   18  C16 UNL     1      -2.887   1.540   0.599  1.00  0.00     0.023 C 
HETATM   19  C23 UNL     1      -2.188   1.997  -0.534  1.00  0.00     0.011 C 
HETATM   20  C24 UNL     1      -1.255   3.016  -0.343  1.00  0.00     0.046 C 
HETATM   21  C25 UNL     1      -1.736   3.956   0.533  1.00  0.00     0.042 C 
ENDROOT
BRANCH  18  22
HETATM   22  N3  UNL     1      -3.705   0.402   0.561  1.00  0.00    -0.386 N 
ATOM     23  H3  UNL     1      -4.656   0.408   0.930  1.00  0.00     0.160 HD
BRANCH  22  24
HETATM   24  C17 UNL     1      -3.112  -0.801  -0.041  1.00  0.00     0.081 C 
HETATM   25  C18 UNL     1      -3.687  -1.042  -1.443  1.00  0.00     0.025 C 
HETATM   26  C19 UNL     1      -3.066  -2.287  -2.075  1.00  0.00     0.002 C 
HETATM   27  C20 UNL     1      -3.250  -3.518  -1.192  1.00  0.00     0.000 C 
HETATM   28  C21 UNL     1      -2.775  -3.283   0.241  1.00  0.00     0.002 C 
HETATM   29  C22 UNL     1      -3.388  -2.022   0.847  1.00  0.00     0.025 C 
ENDBRANCH  22  24
ENDBRANCH  18  22
BRANCH   7  30
HETATM   30  C10 UNL     1       1.522   2.681  -2.125  1.00  0.00     0.399 C 
HETATM   31  F1  UNL     1       2.175   3.726  -1.569  1.00  0.00    -0.170 F 
HETATM   32  F2  UNL     1       0.584   3.212  -2.961  1.00  0.00    -0.170 F 
HETATM   33  F3  UNL     1       2.394   2.022  -2.926  1.00  0.00    -0.170 F 
ENDBRANCH   7  30
BRANCH   3  34
HETATM   34  O2  UNL     1       5.045  -0.072   0.750  1.00  0.00    -0.353 OA
HETATM   35  C5  UNL     1       5.988  -0.310  -0.298  1.00  0.00     0.210 C 
ENDBRANCH   3  34
BRANCH   1  36
HETATM   36  O1  UNL     1       1.349  -3.041  -0.211  1.00  0.00    -0.356 OA
HETATM   37  C1  UNL     1       1.755  -3.948   0.812  1.00  0.00     0.210 C 
ENDBRANCH   1  36
TORSDOF 5
