REMARK  9 active torsions:
REMARK  status: ('A' for Active; 'I' for Inactive)
REMARK    1  A    between atoms: N1_1  and  N2_4 
REMARK    2  A    between atoms: N2_4  and  C1_5 
REMARK    3  A    between atoms: C1_5  and  N3_6 
REMARK    4  A    between atoms: C6_17  and  C7_18 
REMARK       I    between atoms: C7_18  and  N7_20 
REMARK    5  A    between atoms: N7_20  and  C8_22 
REMARK    6  A    between atoms: C8_22  and  C9_23 
REMARK    7  A    between atoms: C9_23  and  O4_25 
REMARK    8  A    between atoms: O4_25  and  C10_26 
REMARK    9  A    between atoms: C10_26  and  O5_27 
ROOT
HETATM    1  N3  UNL     1      -2.994   0.019  -0.163  1.00  0.00    -0.116 N 
HETATM    2  C2  UNL     1      -4.112  -0.542  -0.798  1.00  0.00     0.342 C 
HETATM    3  O1  UNL     1      -5.167   0.059  -0.853  1.00  0.00    -0.246 OA
HETATM    4  N4  UNL     1      -3.919  -1.773  -1.324  1.00  0.00    -0.303 N 
ATOM      5  H4  UNL     1      -4.526  -2.110  -2.072  1.00  0.00     0.171 HD
HETATM    6  C3  UNL     1      -2.881  -2.588  -0.839  1.00  0.00     0.208 C 
HETATM    7  N5  UNL     1      -1.673  -1.837  -0.892  1.00  0.00    -0.148 N 
HETATM    8  C4  UNL     1      -0.450  -2.318  -1.035  1.00  0.00     0.270 C 
HETATM    9  N6  UNL     1       0.477  -1.396  -1.184  1.00  0.00    -0.370 N 
ATOM     10  H6  UNL     1       1.018  -1.144  -2.011  1.00  0.00     0.158 HD
HETATM   11  C5  UNL     1       0.514  -0.857   0.107  1.00  0.00     0.220 C 
HETATM   12  C6  UNL     1       0.841  -1.878   0.971  1.00  0.00     0.185 C 
HETATM   13  S1  UNL     1       0.098  -3.446   0.230  1.00  0.00    -0.104 SA
HETATM   14  N8  UNL     1      -0.648  -0.099   0.302  1.00  0.00    -0.203 N 
ATOM     15  H8  UNL     1      -0.652   0.764   0.845  1.00  0.00     0.180 HD
HETATM   16  C11 UNL     1      -1.726  -0.575  -0.260  1.00  0.00     0.692 C 
ENDROOT
BRANCH  12  17
HETATM   17  C7  UNL     1       2.345  -1.987   1.001  1.00  0.00     0.235 C 
HETATM   18  O2  UNL     1       2.957  -2.588   0.120  1.00  0.00    -0.272 OA
HETATM   19  N7  UNL     1       2.931  -1.195   1.962  1.00  0.00    -0.351 N 
ATOM     20  H7  UNL     1       2.481  -1.046   2.865  1.00  0.00     0.163 HD
BRANCH  19  21
HETATM   21  C8  UNL     1       4.222  -0.571   1.649  1.00  0.00     0.233 C 
BRANCH  21  22
HETATM   22  C9  UNL     1       3.965   0.474   0.566  1.00  0.00     0.278 C 
HETATM   23  O3  UNL     1       3.047   0.403  -0.252  1.00  0.00    -0.263 OA
BRANCH  22  24
HETATM   24  O4  UNL     1       4.825   1.507   0.649  1.00  0.00    -0.294 OA
BRANCH  24  25
HETATM   25  C10 UNL     1       4.517   2.579  -0.243  1.00  0.00     0.344 C 
BRANCH  25  26
HETATM   26  O5  UNL     1       5.015   2.331  -1.542  1.00  0.00    -0.377 OA
ATOM     27  H5  UNL     1       4.810   3.044  -2.135  1.00  0.00     0.212 HD
ENDBRANCH  25  26
ENDBRANCH  24  25
ENDBRANCH  22  24
ENDBRANCH  21  22
ENDBRANCH  19  21
ENDBRANCH  12  17
BRANCH   1  28
HETATM   28  C1  UNL     1      -3.212   1.276   0.552  1.00  0.00     0.287 C 
BRANCH  28  29
HETATM   29  N2  UNL     1      -3.368   2.343  -0.437  1.00  0.00    -0.127 NA
BRANCH  29  30
HETATM   30  N1  UNL     1      -3.208   3.650   0.192  1.00  0.00    -0.347 N 
ATOM     31  H12 UNL     1      -3.015   3.784   1.184  1.00  0.00     0.172 HD
ATOM     32  H11 UNL     1      -3.317   4.394  -0.497  1.00  0.00     0.172 HD
ENDBRANCH  29  30
ENDBRANCH  28  29
ENDBRANCH   1  28
TORSDOF 9
