REMARK  2 active torsions:
REMARK  status: ('A' for Active; 'I' for Inactive)
REMARK    1  A    between atoms: O1_2  and  C2_3 
REMARK       I    between atoms: N1_10  and  C9_11 
REMARK       I    between atoms: C9_11  and  N2_13 
REMARK    2  A    between atoms: C27_34  and  C28_35 
ROOT
HETATM    1  C2  UNL     1      -2.561  -2.428   2.424  1.00  0.00     0.077 C 
HETATM    2  C3  UNL     1      -2.025  -3.578   2.888  1.00  0.00     0.037 C 
HETATM    3  C4  UNL     1      -0.586  -3.826   2.818  1.00  0.00     0.004 C 
HETATM    4  C5  UNL     1       0.286  -2.900   2.379  1.00  0.00     0.012 C 
HETATM    5  C6  UNL     1      -0.209  -1.585   1.960  1.00  0.00    -0.022 C 
HETATM    6  C7  UNL     1      -1.678  -1.416   1.849  1.00  0.00     0.009 C 
HETATM    7  C8  UNL     1      -2.088  -0.576   0.858  1.00  0.00     0.135 C 
HETATM    8  N1  UNL     1      -1.972  -1.021  -0.508  1.00  0.00    -0.260 N 
HETATM    9  C9  UNL     1      -2.625  -0.405  -1.573  1.00  0.00     0.327 C 
HETATM   10  O2  UNL     1      -2.386  -0.697  -2.751  1.00  0.00    -0.247 OA
HETATM   11  N2  UNL     1      -3.527   0.623  -1.306  1.00  0.00    -0.342 N 
HETATM   12  C10 UNL     1      -3.732   1.597  -2.370  1.00  0.00     0.154 C 
HETATM   13  C11 UNL     1      -4.553   0.587  -0.278  1.00  0.00     0.154 C 
HETATM   14  C12 UNL     1      -0.824  -1.758  -0.912  1.00  0.00     0.237 C 
HETATM   15  O3  UNL     1      -0.855  -2.965  -1.188  1.00  0.00    -0.272 OA
HETATM   16  C13 UNL     1       0.556  -1.008  -0.974  1.00  0.00     0.118 C 
HETATM   17  C14 UNL     1       0.410   0.457  -1.319  1.00  0.00    -0.061 C 
HETATM   18  C15 UNL     1       0.439   0.972  -2.567  1.00  0.00     0.004 C 
HETATM   19  C16 UNL     1       1.065   0.279  -3.697  1.00  0.00     0.000 C 
HETATM   20  C17 UNL     1       2.394   0.411  -3.928  1.00  0.00     0.002 C 
HETATM   21  C18 UNL     1       3.189   1.293  -3.062  1.00  0.00     0.025 C 
HETATM   22  C19 UNL     1       3.340   1.001  -1.753  1.00  0.00     0.014 C 
HETATM   23  C20 UNL     1       3.068   2.111  -0.721  1.00  0.00     0.075 C 
HETATM   24  C21 UNL     1       4.197   2.340   0.222  1.00  0.00    -0.025 A 
HETATM   25  C22 UNL     1       5.056   3.411   0.364  1.00  0.00     0.011 A 
HETATM   26  C23 UNL     1       5.885   3.407   1.484  1.00  0.00     0.018 A 
HETATM   27  C24 UNL     1       5.801   2.340   2.392  1.00  0.00     0.088 A 
HETATM   28  N3  UNL     1       4.957   1.285   2.277  1.00  0.00    -0.368 N 
ATOM     29  H3  UNL     1       4.911   0.530   2.961  1.00  0.00     0.165 HD
HETATM   30  C25 UNL     1       4.189   1.328   1.180  1.00  0.00     0.022 A 
HETATM   31  C26 UNL     1       2.917   0.598   0.958  1.00  0.00     0.065 C 
HETATM   32  C27 UNL     1       2.803  -0.506   0.118  1.00  0.00     0.101 C 
HETATM   33  C28 UNL     1       1.389  -1.164   0.142  1.00  0.00     0.056 C 
HETATM   34  C29 UNL     1       0.539  -0.654   1.315  1.00  0.00    -0.057 C 
HETATM   35  C30 UNL     1       0.001   0.779   0.980  1.00  0.00     0.027 C 
HETATM   36  C31 UNL     1       0.624   1.374  -0.104  1.00  0.00     0.029 C 
HETATM   37  C32 UNL     1       2.096   1.699   0.186  1.00  0.00     0.020 C 
HETATM   38  C33 UNL     1      -1.503   0.814   1.085  1.00  0.00     0.040 C 
HETATM   39  N4  UNL     1       3.343  -0.317  -1.197  1.00  0.00    -0.386 N 
ATOM     40  H4  UNL     1       3.721  -1.104  -1.724  1.00  0.00     0.159 HD
ENDROOT
BRANCH   1  41
HETATM   41  O1  UNL     1      -3.826  -1.969   2.715  1.00  0.00    -0.355 OA
HETATM   42  C1  UNL     1      -4.899  -2.764   2.232  1.00  0.00     0.210 C 
ENDBRANCH   1  41
TORSDOF 2
