REMARK  2 active torsions:
REMARK  status: ('A' for Active; 'I' for Inactive)
REMARK    1  A    between atoms: C5_5  and  C6_6 
REMARK    2  A    between atoms: C34_39  and  O2_40 
ROOT
HETATM    1  C6  UNL     1       0.976  -1.492  -1.586  1.00  0.00     0.014 C 
HETATM    2  C7  UNL     1      -0.263  -1.801  -2.471  1.00  0.00    -0.007 C 
HETATM    3  C8  UNL     1      -0.230  -3.024  -3.172  1.00  0.00     0.013 C 
HETATM    4  C9  UNL     1      -1.203  -3.970  -2.887  1.00  0.00     0.003 C 
HETATM    5  C10 UNL     1      -2.038  -3.699  -1.809  1.00  0.00     0.025 C 
HETATM    6  C11 UNL     1      -1.997  -2.417  -1.228  1.00  0.00     0.030 C 
HETATM    7  C12 UNL     1      -1.466  -1.378  -1.949  1.00  0.00     0.048 C 
HETATM    8  C13 UNL     1      -1.704   0.065  -1.651  1.00  0.00     0.198 C 
HETATM    9  O1  UNL     1      -1.562   0.834  -2.603  1.00  0.00    -0.286 OA
HETATM   10  C14 UNL     1      -2.197   0.570  -0.369  1.00  0.00     0.051 C 
HETATM   11  C15 UNL     1      -2.782  -0.155   0.662  1.00  0.00     0.040 C 
HETATM   12  N1  UNL     1      -3.308   0.743   1.561  1.00  0.00    -0.352 N 
HETATM   13  C16 UNL     1      -4.285   0.451   2.589  1.00  0.00     0.156 C 
HETATM   14  C17 UNL     1      -2.857   2.017   1.282  1.00  0.00     0.045 A 
HETATM   15  C18 UNL     1      -3.022   3.235   1.972  1.00  0.00     0.030 A 
HETATM   16  C19 UNL     1      -2.440   4.386   1.430  1.00  0.00     0.002 A 
HETATM   17  C20 UNL     1      -1.745   4.333   0.229  1.00  0.00     0.001 A 
HETATM   18  C21 UNL     1      -1.617   3.125  -0.464  1.00  0.00     0.015 A 
HETATM   19  C22 UNL     1      -2.170   1.940   0.069  1.00  0.00     0.007 A 
HETATM   20  C23 UNL     1      -2.880  -1.642   0.804  1.00  0.00     0.160 C 
HETATM   21  N2  UNL     1      -1.755  -2.390   0.187  1.00  0.00    -0.241 NA
HETATM   22  C24 UNL     1      -0.440  -2.062   0.709  1.00  0.00     0.044 A 
HETATM   23  C25 UNL     1      -0.302  -2.175   2.113  1.00  0.00     0.040 A 
HETATM   24  C26 UNL     1       0.893  -1.892   2.776  1.00  0.00    -0.008 A 
HETATM   25  C27 UNL     1       0.986  -1.896   4.177  1.00  0.00     0.014 A 
HETATM   26  C28 UNL     1       2.190  -1.581   4.803  1.00  0.00     0.001 A 
HETATM   27  C29 UNL     1       3.307  -1.286   4.031  1.00  0.00     0.002 A 
HETATM   28  C30 UNL     1       3.206  -1.298   2.637  1.00  0.00     0.030 A 
HETATM   29  C31 UNL     1       2.006  -1.581   1.995  1.00  0.00     0.043 A 
HETATM   30  N3  UNL     1       1.935  -1.540   0.659  1.00  0.00    -0.353 N 
ATOM     31  H3  UNL     1       2.790  -1.381   0.126  1.00  0.00     0.166 HD
HETATM   32  C32 UNL     1       0.753  -1.704  -0.020  1.00  0.00     0.066 A 
ENDROOT
BRANCH   1  33
HETATM   33  C5  UNL     1       1.756  -0.222  -2.023  1.00  0.00    -0.020 C 
HETATM   34  C4  UNL     1       1.314   0.633  -3.039  1.00  0.00     0.013 C 
HETATM   35  C3  UNL     1       1.994   1.813  -3.370  1.00  0.00     0.010 C 
HETATM   36  C2  UNL     1       3.188   2.152  -2.733  1.00  0.00    -0.029 C 
HETATM   37  C1  UNL     1       3.871   3.437  -3.094  1.00  0.00     0.051 C 
HETATM   38  C34 UNL     1       3.706   1.251  -1.806  1.00  0.00     0.072 C 
HETATM   39  C33 UNL     1       3.015   0.082  -1.474  1.00  0.00     0.049 C 
BRANCH  38  40
HETATM   40  O2  UNL     1       4.901   1.446  -1.173  1.00  0.00    -0.360 OA
ATOM     41  H2  UNL     1       5.254   0.831  -0.541  1.00  0.00     0.217 HD
ENDBRANCH  38  40
ENDBRANCH   1  33
TORSDOF 2
