REMARK  3 active torsions:
REMARK  status: ('A' for Active; 'I' for Inactive)
REMARK    1  A    between atoms: C5_5  and  C6_6 
REMARK    2  A    between atoms: C7_7  and  C8_8 
REMARK    3  A    between atoms: C8_8  and  N1_9 
ROOT
HETATM    1  N1  UNL     1       0.076  -1.491   2.675  1.00  0.00    -0.142 NA
HETATM    2  C9  UNL     1      -0.342  -0.147   2.537  1.00  0.00     0.270 C 
HETATM    3  O1  UNL     1      -0.348   0.696   3.419  1.00  0.00    -0.271 OA
HETATM    4  C10 UNL     1      -0.682   0.033   1.082  1.00  0.00     0.140 C 
HETATM    5  C11 UNL     1      -1.395   1.020   0.509  1.00  0.00     0.080 C 
HETATM    6  C12 UNL     1      -1.850   0.742  -0.895  1.00  0.00     0.013 A 
HETATM    7  C13 UNL     1      -2.788   1.610  -1.502  1.00  0.00    -0.011 A 
HETATM    8  C14 UNL     1      -3.103   1.412  -2.862  1.00  0.00     0.013 A 
HETATM    9  C15 UNL     1      -2.542   0.372  -3.600  1.00  0.00     0.002 A 
HETATM   10  C16 UNL     1      -1.696  -0.531  -2.978  1.00  0.00     0.011 A 
HETATM   11  C17 UNL     1      -1.375  -0.384  -1.616  1.00  0.00    -0.015 A 
HETATM   12  C18 UNL     1      -0.525  -1.447  -0.950  1.00  0.00     0.189 C 
HETATM   13  C19 UNL     1      -1.188  -2.867  -0.927  1.00  0.00     0.039 C 
HETATM   14  C20 UNL     1      -0.675  -3.869  -1.693  1.00  0.00     0.027 C 
HETATM   15  C21 UNL     1      -0.556  -5.240  -1.156  1.00  0.00     0.002 C 
HETATM   16  C22 UNL     1      -0.215  -5.528   0.128  1.00  0.00     0.003 C 
HETATM   17  C23 UNL     1       0.082  -4.505   1.155  1.00  0.00     0.045 C 
HETATM   18  C24 UNL     1      -0.598  -3.325   1.187  1.00  0.00     0.118 C 
HETATM   19  N2  UNL     1      -1.720  -3.212   0.335  1.00  0.00    -0.346 N 
ATOM     20  H2  UNL     1      -2.701  -3.350   0.579  1.00  0.00     0.167 HD
HETATM   21  N3  UNL     1       0.124  -2.115   1.383  1.00  0.00    -0.095 NA
HETATM   22  N4  UNL     1      -0.182  -1.087   0.457  1.00  0.00    -0.268 N 
HETATM   23  C25 UNL     1      -3.441   2.659  -0.680  1.00  0.00     0.002 A 
HETATM   24  C26 UNL     1      -4.596   3.352  -1.101  1.00  0.00     0.014 A 
HETATM   25  C27 UNL     1      -5.217   4.297  -0.284  1.00  0.00     0.001 A 
HETATM   26  C28 UNL     1      -4.703   4.566   0.975  1.00  0.00     0.002 A 
HETATM   27  C29 UNL     1      -3.561   3.900   1.413  1.00  0.00     0.030 A 
HETATM   28  C30 UNL     1      -2.913   2.948   0.601  1.00  0.00     0.045 A 
HETATM   29  N5  UNL     1      -1.781   2.236   1.075  1.00  0.00    -0.348 N 
HETATM   30  C31 UNL     1      -0.857   3.029   1.898  1.00  0.00     0.156 C 
ENDROOT
BRANCH   1  31
HETATM   31  C8  UNL     1       1.192  -1.772   3.561  1.00  0.00     0.214 C 
BRANCH  31  32
HETATM   32  C7  UNL     1       2.448  -1.325   2.934  1.00  0.00    -0.085 C 
HETATM   33  C6  UNL     1       3.286  -0.867   2.209  1.00  0.00    -0.066 C 
BRANCH  33  34
HETATM   34  C5  UNL     1       4.035  -0.252   1.157  1.00  0.00     0.017 A 
HETATM   35  C4  UNL     1       5.021  -0.961   0.473  1.00  0.00     0.021 A 
HETATM   36  C3  UNL     1       5.628  -0.399  -0.656  1.00  0.00     0.008 A 
HETATM   37  C2  UNL     1       5.240   0.867  -1.112  1.00  0.00    -0.062 A 
HETATM   38  C1  UNL     1       5.827   1.453  -2.362  1.00  0.00     0.048 C 
HETATM   39  C33 UNL     1       4.286   1.592  -0.390  1.00  0.00     0.008 A 
HETATM   40  C32 UNL     1       3.682   1.034   0.738  1.00  0.00     0.021 A 
ENDBRANCH  33  34
ENDBRANCH  31  32
ENDBRANCH   1  31
TORSDOF 3
