REMARK  1 active torsions:
REMARK  status: ('A' for Active; 'I' for Inactive)
REMARK    1  A    between atoms: C9_11  and  C10_12 
ROOT
HETATM    1  C1  UNL     1       0.853  -1.794   0.868  1.00  0.00     0.020 C 
HETATM    2  C2  UNL     1       0.705  -0.752  -0.265  1.00  0.00     0.009 C 
HETATM    3  C3  UNL     1       0.558  -1.573  -1.578  1.00  0.00     0.020 C 
HETATM    4  C4  UNL     1       2.108   0.064  -0.385  1.00  0.00    -0.001 C 
HETATM    5  C5  UNL     1       2.674   0.635   0.954  1.00  0.00     0.006 C 
HETATM    6  C6  UNL     1       2.684   2.165   1.104  1.00  0.00     0.011 C 
HETATM    7  C7  UNL     1       1.508   2.823   0.409  1.00  0.00     0.040 C 
HETATM    8  C8  UNL     1       0.176   2.122   0.469  1.00  0.00     0.019 C 
HETATM    9  N1  UNL     1      -0.242   1.101   1.142  1.00  0.00    -0.360 N 
ATOM     10  H1  UNL     1      -0.327   0.946   2.147  1.00  0.00     0.162 HD
HETATM   11  C9  UNL     1      -0.569   0.200  -0.048  1.00  0.00     0.171 C 
HETATM   12  O1  UNL     1      -0.682   0.981  -1.296  1.00  0.00    -0.346 OA
HETATM   13  C14 UNL     1      -0.099   2.252  -1.005  1.00  0.00     0.175 C 
HETATM   14  C15 UNL     1       1.445   2.430  -1.134  1.00  0.00     0.030 C 
HETATM   15  C16 UNL     1       2.190   1.140  -1.500  1.00  0.00     0.013 C 
ENDROOT
BRANCH  11  16
HETATM   16  C10 UNL     1      -2.005  -0.381   0.186  1.00  0.00     0.241 C 
HETATM   17  C11 UNL     1      -2.296  -1.138   1.473  1.00  0.00     0.040 C 
HETATM   18  C12 UNL     1      -3.635  -1.813   1.193  1.00  0.00     0.030 C 
HETATM   19  C13 UNL     1      -3.764  -1.848  -0.325  1.00  0.00     0.233 C 
HETATM   20  N2  UNL     1      -2.508  -1.312  -0.840  1.00  0.00    -0.066 N 
ATOM     21  H22 UNL     1      -2.597  -0.888  -1.763  1.00  0.00     0.277 HD
ATOM     22  H21 UNL     1      -1.835  -2.034  -1.098  1.00  0.00     0.277 HD
ENDBRANCH  11  16
TORSDOF 1
