REMARK  3 active torsions:
REMARK  status: ('A' for Active; 'I' for Inactive)
REMARK    1  A    between atoms: C2_2  and  C3_3 
REMARK    2  A    between atoms: C5_5  and  C6_6 
REMARK    3  A    between atoms: C6_6  and  C9_9 
ROOT
HETATM    1  C3  UNL     1       2.287  -1.294  -0.955  1.00  0.00     0.033 A 
HETATM    2  C4  UNL     1       0.755  -1.083  -1.123  1.00  0.00     0.060 A 
HETATM    3  C5  UNL     1      -0.275  -0.737  -0.085  1.00  0.00     0.138 C 
HETATM    4  O1  UNL     1      -0.782   0.559  -0.442  1.00  0.00    -0.364 OA
HETATM    5  C11 UNL     1       0.119   1.668  -0.205  1.00  0.00     0.141 C 
HETATM    6  C12 UNL     1      -0.517   2.974  -0.729  1.00  0.00     0.091 C 
HETATM    7  C13 UNL     1      -1.795   3.168  -0.297  1.00  0.00     0.092 C 
HETATM    8  N1  UNL     1      -2.160   2.498   0.899  1.00  0.00    -0.315 N 
ATOM      9  H1  UNL     1      -3.104   2.148   1.060  1.00  0.00     0.185 HD
HETATM   10  N2  UNL     1      -1.130   2.348   1.851  1.00  0.00    -0.306 N 
ATOM     11  H2  UNL     1      -1.265   2.345   2.862  1.00  0.00     0.186 HD
HETATM   12  C14 UNL     1       0.031   2.212   1.244  1.00  0.00     0.045 C 
HETATM   13  C15 UNL     1       1.141   3.186   1.636  1.00  0.00     0.084 C 
HETATM   14  C16 UNL     1       1.149   4.238   0.502  1.00  0.00    -0.024 C 
HETATM   15  C17 UNL     1       0.389   4.135  -0.621  1.00  0.00    -0.017 C 
HETATM   16  C18 UNL     1       1.529   1.356  -0.705  1.00  0.00     0.199 A 
HETATM   17  O2  UNL     1       1.688   0.946  -2.153  1.00  0.00    -0.365 OA
HETATM   18  C19 UNL     1       1.726   0.010  -1.134  1.00  0.00     0.101 A 
ENDROOT
BRANCH   3  19
HETATM   19  C6  UNL     1      -1.444  -1.773   0.014  1.00  0.00    -0.021 C 
HETATM   20  C7  UNL     1      -2.218  -1.465   1.317  1.00  0.00     0.017 C 
HETATM   21  C8  UNL     1      -0.858  -3.195   0.134  1.00  0.00     0.017 C 
BRANCH  19  22
HETATM   22  C9  UNL     1      -2.410  -1.666  -1.202  1.00  0.00     0.007 C 
HETATM   23  C10 UNL     1      -3.552  -2.680  -1.243  1.00  0.00     0.006 C 
ENDBRANCH  19  22
ENDBRANCH   3  19
BRANCH   1  24
HETATM   24  C2  UNL     1       2.868  -1.719   0.355  1.00  0.00     0.004 C 
HETATM   25  C1  UNL     1       4.330  -1.315   0.447  1.00  0.00     0.005 C 
ENDBRANCH   1  24
TORSDOF 3
