REMARK  8 active torsions:
REMARK  status: ('A' for Active; 'I' for Inactive)
REMARK    1  A    between atoms: C8_9  and  C9_10 
REMARK    2  A    between atoms: C9_10  and  O1_11 
REMARK    3  A    between atoms: C10_13  and  C11_14 
REMARK    4  A    between atoms: C12_15  and  C13_16 
REMARK    5  A    between atoms: C13_16  and  N2_17 
REMARK    6  A    between atoms: C19_23  and  O2_24 
REMARK    7  A    between atoms: C20_26  and  O3_27 
REMARK    8  A    between atoms: C21_29  and  O4_30 
ROOT
HETATM    1  C11 UNL     1       0.685  -1.219   0.569  1.00  0.00    -0.020 C 
HETATM    2  C12 UNL     1      -0.404  -1.552  -0.151  1.00  0.00    -0.003 C 
ENDROOT
BRANCH   1   3
HETATM    3  C10 UNL     1       1.101   0.140   1.054  1.00  0.00     0.044 C 
HETATM    4  C8  UNL     1       1.893   0.119   2.345  1.00  0.00    -0.052 C 
HETATM    5  C7  UNL     1       2.969   0.926   2.301  1.00  0.00    -0.015 C 
HETATM    6  C6  UNL     1       3.028   1.624   0.996  1.00  0.00     0.024 C 
HETATM    7  C4  UNL     1       4.182   1.297   0.036  1.00  0.00    -0.002 C 
HETATM    8  C22 UNL     1       2.063   0.821   0.049  1.00  0.00     0.012 C 
HETATM    9  C3  UNL     1       5.588   0.792   0.354  1.00  0.00     0.040 C 
HETATM   10  C5  UNL     1       4.396   2.219  -1.158  1.00  0.00     0.247 C 
HETATM   11  C23 UNL     1       3.357   0.097  -0.519  1.00  0.00     0.028 C 
HETATM   12  C2  UNL     1       6.160   0.597  -1.069  1.00  0.00     0.238 C 
HETATM   13  N1  UNL     1       4.993   1.098  -1.977  1.00  0.00    -0.070 N 
HETATM   14  C1  UNL     1       5.470   1.483  -3.350  1.00  0.00     0.272 C 
HETATM   15  C24 UNL     1       3.841   0.071  -1.967  1.00  0.00     0.242 C 
BRANCH   4  16
HETATM   16  C9  UNL     1       1.455  -0.694   3.522  1.00  0.00     0.198 C 
BRANCH  16  17
HETATM   17  O1  UNL     1       0.083  -0.422   3.777  1.00  0.00    -0.397 OA
ATOM     18  H1  UNL     1      -0.195  -0.938   4.524  1.00  0.00     0.209 HD
ENDBRANCH  16  17
ENDBRANCH   4  16
ENDBRANCH   1   3
BRANCH   2  19
HETATM   19  C13 UNL     1      -1.385  -0.649  -0.849  1.00  0.00     0.267 C 
BRANCH  19  20
HETATM   20  N2  UNL     1      -2.933  -0.715  -0.509  1.00  0.00    -0.035 N 
HETATM   21  C14 UNL     1      -3.284  -1.966   0.295  1.00  0.00     0.241 C 
HETATM   22  C15 UNL     1      -4.730  -2.407   0.052  1.00  0.00     0.035 C 
HETATM   23  C16 UNL     1      -5.664  -1.287  -0.410  1.00  0.00     0.020 C 
HETATM   24  C17 UNL     1      -5.157  -0.678  -1.720  1.00  0.00     0.035 C 
HETATM   25  C19 UNL     1      -5.870  -0.247   0.699  1.00  0.00     0.155 C 
HETATM   26  C18 UNL     1      -3.649  -0.770  -1.873  1.00  0.00     0.241 C 
HETATM   27  C20 UNL     1      -4.611   0.510   1.169  1.00  0.00     0.204 C 
HETATM   28  C21 UNL     1      -3.353   0.581   0.228  1.00  0.00     0.355 C 
BRANCH  25  29
HETATM   29  O2  UNL     1      -6.937   0.645   0.339  1.00  0.00    -0.392 OA
ATOM     30  H2  UNL     1      -7.065   1.289   1.026  1.00  0.00     0.210 HD
ENDBRANCH  25  29
BRANCH  27  31
HETATM   31  O3  UNL     1      -4.163  -0.043   2.428  1.00  0.00    -0.389 OA
ATOM     32  H3  UNL     1      -3.388   0.423   2.717  1.00  0.00     0.210 HD
ENDBRANCH  27  31
BRANCH  28  33
HETATM   33  O4  UNL     1      -2.282   1.131   0.979  1.00  0.00    -0.367 OA
ATOM     34  H4  UNL     1      -2.540   1.926   1.431  1.00  0.00     0.212 HD
ENDBRANCH  28  33
ENDBRANCH  19  20
ENDBRANCH   2  19
TORSDOF 8
