REMARK  4 active torsions:
REMARK  status: ('A' for Active; 'I' for Inactive)
REMARK       I    between atoms: N1_1  and  C1_4 
REMARK    1  A    between atoms: C1_4  and  C2_6 
REMARK    2  A    between atoms: C8_12  and  N2_13 
REMARK       I    between atoms: N2_13  and  C9_15 
REMARK       I    between atoms: C9_15  and  N3_17 
REMARK    3  A    between atoms: N3_17  and  C10_19 
REMARK    4  A    between atoms: C14_23  and  N4_24 
ROOT
HETATM    1  N2  UNL     1       0.194  -1.571  -0.670  1.00  0.00    -0.338 N 
ATOM      2  H2  UNL     1       0.203  -2.590  -0.621  1.00  0.00     0.164 HD
HETATM    3  C9  UNL     1      -1.018  -0.901  -0.695  1.00  0.00     0.317 C 
HETATM    4  O2  UNL     1      -1.154   0.269  -1.016  1.00  0.00    -0.247 OA
HETATM    5  N3  UNL     1      -2.037  -1.707  -0.244  1.00  0.00    -0.333 N 
ATOM      6  H3  UNL     1      -1.825  -2.694  -0.095  1.00  0.00     0.165 HD
ENDROOT
BRANCH   1   7
HETATM    7  C8  UNL     1       1.462  -0.842  -0.712  1.00  0.00     0.094 C 
HETATM    8  C6  UNL     1       1.560   0.157   0.460  1.00  0.00     0.010 C 
HETATM    9  C5  UNL     1       1.676  -0.586   1.799  1.00  0.00     0.011 C 
HETATM   10  C7  UNL     1       2.792   1.036   0.246  1.00  0.00     0.026 C 
HETATM   11  C4  UNL     1       2.916  -1.487   1.807  1.00  0.00    -0.013 C 
HETATM   12  C3  UNL     1       4.157  -0.603   1.611  1.00  0.00     0.024 C 
HETATM   13  C20 UNL     1       2.822  -2.503   0.661  1.00  0.00     0.011 C 
HETATM   14  C2  UNL     1       4.079   0.184   0.268  1.00  0.00     0.042 C 
HETATM   15  C21 UNL     1       3.989  -0.878  -0.862  1.00  0.00     0.026 C 
HETATM   16  C19 UNL     1       2.717  -1.760  -0.687  1.00  0.00     0.010 C 
BRANCH  14  17
HETATM   17  C1  UNL     1       5.308   1.099   0.126  1.00  0.00     0.224 C 
HETATM   18  N1  UNL     1       5.452   1.812  -1.037  1.00  0.00    -0.369 N 
ATOM     19  H12 UNL     1       6.267   2.419  -1.131  1.00  0.00     0.159 HD
ATOM     20  H11 UNL     1       4.760   1.704  -1.778  1.00  0.00     0.159 HD
HETATM   21  O1  UNL     1       6.143   1.229   1.020  1.00  0.00    -0.273 OA
ENDBRANCH  14  17
ENDBRANCH   1   7
BRANCH   5  22
HETATM   22  C10 UNL     1      -3.403  -1.260   0.039  1.00  0.00     0.042 C 
HETATM   23  C11 UNL     1      -4.484  -2.337  -0.048  1.00  0.00     0.032 C 
HETATM   24  C12 UNL     1      -5.360  -1.391  -0.879  1.00  0.00     0.011 C 
HETATM   25  C13 UNL     1      -4.181  -0.407  -0.956  1.00  0.00     0.038 C 
HETATM   26  C14 UNL     1      -4.296   0.734   0.096  1.00  0.00     0.106 C 
HETATM   27  C18 UNL     1      -3.628  -0.218   1.133  1.00  0.00     0.058 C 
BRANCH  26  28
HETATM   28  N4  UNL     1      -3.532   1.950  -0.236  1.00  0.00    -0.263 N 
HETATM   29  C15 UNL     1      -3.505   2.560  -1.466  1.00  0.00     0.245 C 
HETATM   30  O3  UNL     1      -4.170   2.276  -2.456  1.00  0.00    -0.271 OA
HETATM   31  C16 UNL     1      -2.497   3.698  -1.422  1.00  0.00     0.227 C 
HETATM   32  N5  UNL     1      -2.217   3.742  -0.021  1.00  0.00    -0.334 N 
HETATM   33  C17 UNL     1      -2.825   2.708   0.656  1.00  0.00     0.325 C 
ATOM     34  H5  UNL     1      -1.637   4.453   0.424  1.00  0.00     0.164 HD
HETATM   35  O4  UNL     1      -2.741   2.567   1.865  1.00  0.00    -0.247 OA
ENDBRANCH  26  28
ENDBRANCH   5  22
TORSDOF 4
