REMARK  5 active torsions:
REMARK  status: ('A' for Active; 'I' for Inactive)
REMARK    1  A    between atoms: C6_6  and  C8_8 
REMARK    2  A    between atoms: C12_12  and  O1_13 
REMARK    3  A    between atoms: C18_20  and  O2_21 
REMARK    4  A    between atoms: O2_21  and  C19_22 
REMARK       I    between atoms: C19_22  and  N1_24 
REMARK    5  A    between atoms: C36_44  and  O5_45 
ROOT
HETATM    1  C8  UNL     1       0.915  -1.796   0.190  1.00  0.00     0.028 C 
HETATM    2  C9  UNL     1       0.525  -0.692  -0.944  1.00  0.00    -0.005 C 
HETATM    3  C10 UNL     1       0.440  -1.313  -2.387  1.00  0.00     0.007 C 
HETATM    4  C11 UNL     1      -0.815  -2.055  -2.875  1.00  0.00     0.033 C 
HETATM    5  C12 UNL     1      -1.972  -1.121  -3.150  1.00  0.00     0.127 C 
HETATM    6  C13 UNL     1      -3.320  -1.474  -2.543  1.00  0.00    -0.006 A 
HETATM    7  C14 UNL     1      -4.264  -2.034  -3.622  1.00  0.00     0.019 C 
HETATM    8  C15 UNL     1      -4.027  -0.523  -1.585  1.00  0.00     0.006 A 
HETATM    9  C16 UNL     1      -3.536   0.835  -1.036  1.00  0.00     0.009 C 
HETATM   10  C17 UNL     1      -2.461   1.727  -1.707  1.00  0.00     0.033 C 
HETATM   11  C18 UNL     1      -0.912   1.487  -1.462  1.00  0.00     0.133 C 
HETATM   12  C26 UNL     1      -0.606   0.272  -0.574  1.00  0.00     0.037 C 
HETATM   13  C27 UNL     1      -3.601  -1.939  -1.037  1.00  0.00    -0.029 A 
HETATM   14  C28 UNL     1      -4.627  -3.086  -0.946  1.00  0.00     0.016 C 
HETATM   15  C29 UNL     1      -2.823  -1.882   0.294  1.00  0.00     0.013 C 
HETATM   16  C30 UNL     1      -1.574  -2.760   0.450  1.00  0.00     0.032 C 
HETATM   17  C31 UNL     1      -0.297  -2.221   1.287  1.00  0.00     0.032 C 
HETATM   18  C32 UNL     1       0.082  -3.490   2.138  1.00  0.00     0.057 C 
HETATM   19  C33 UNL     1      -0.907  -3.852   3.259  1.00  0.00     0.170 C 
HETATM   20  O4  UNL     1      -0.510  -3.246   4.489  1.00  0.00    -0.389 OA
HETATM   21  C34 UNL     1      -0.789  -1.851   4.564  1.00  0.00     0.186 C 
HETATM   22  C35 UNL     1      -0.079  -1.014   3.486  1.00  0.00     0.141 C 
HETATM   23  N2  UNL     1      -0.714  -1.120   2.168  1.00  0.00    -0.410 N 
ATOM     24  H2  UNL     1      -1.424  -0.450   1.871  1.00  0.00     0.154 HD
ENDROOT
BRANCH   1  25
HETATM   25  C6  UNL     1       2.511  -1.559   0.629  1.00  0.00    -0.012 C 
HETATM   26  C5  UNL     1       3.414  -1.852  -0.633  1.00  0.00     0.013 C 
HETATM   27  C4  UNL     1       4.804  -1.226  -0.553  1.00  0.00     0.010 C 
HETATM   28  C2  UNL     1       4.736   0.314  -0.585  1.00  0.00    -0.045 C 
HETATM   29  C1  UNL     1       4.622   0.803  -2.045  1.00  0.00     0.015 C 
HETATM   30  C3  UNL     1       6.051   0.867  -0.006  1.00  0.00     0.015 C 
HETATM   31  C37 UNL     1       3.526   0.853   0.216  1.00  0.00     0.041 C 
HETATM   32  C36 UNL     1       2.912  -0.149   1.211  1.00  0.00     0.127 C 
HETATM   33  C7  UNL     1       3.006  -2.607   1.660  1.00  0.00     0.018 C 
BRANCH  32  34
HETATM   34  O5  UNL     1       1.822   0.488   1.853  1.00  0.00    -0.395 OA
ATOM     35  H5  UNL     1       2.064   1.337   2.204  1.00  0.00     0.210 HD
ENDBRANCH  32  34
ENDBRANCH   1  25
BRANCH  11  36
HETATM   36  O2  UNL     1      -0.272   2.611  -0.803  1.00  0.00    -0.303 OA
BRANCH  36  37
HETATM   37  C19 UNL     1      -0.344   3.838  -1.363  1.00  0.00     0.341 C 
HETATM   38  O3  UNL     1      -0.918   4.109  -2.412  1.00  0.00    -0.245 OA
HETATM   39  N1  UNL     1       0.263   4.792  -0.570  1.00  0.00    -0.223 NA
HETATM   40  C20 UNL     1       1.228   4.552   0.499  1.00  0.00     0.107 A 
HETATM   41  C25 UNL     1      -0.522   5.755   0.220  1.00  0.00     0.073 A 
HETATM   42  C21 UNL     1       0.502   5.601   1.346  1.00  0.00     0.018 A 
HETATM   43  C22 UNL     1      -0.263   5.106   2.570  1.00  0.00     0.007 C 
HETATM   44  C23 UNL     1      -1.470   4.383   1.992  1.00  0.00     0.002 C 
HETATM   45  C24 UNL     1      -1.846   5.250   0.797  1.00  0.00     0.021 C 
ENDBRANCH  36  37
ENDBRANCH  11  36
BRANCH   5  46
HETATM   46  O1  UNL     1      -2.073  -0.979  -4.576  1.00  0.00    -0.395 OA
ATOM     47  H1  UNL     1      -2.800  -0.392  -4.749  1.00  0.00     0.210 HD
ENDBRANCH   5  46
TORSDOF 5
