REMARK  9 active torsions:
REMARK  status: ('A' for Active; 'I' for Inactive)
REMARK    1  A    between atoms: O1_2  and  C2_3 
REMARK    2  A    between atoms: C2_3  and  C3_4 
REMARK    3  A    between atoms: C10_12  and  C25_36 
REMARK    4  A    between atoms: C11_14  and  C12_15 
REMARK    5  A    between atoms: C12_15  and  C13_16 
REMARK    6  A    between atoms: C13_16  and  N1_17 
REMARK    7  A    between atoms: C20_24  and  C21_25 
REMARK    8  A    between atoms: C21_25  and  N2_26 
REMARK       I    between atoms: N2_26  and  C22_28 
REMARK    9  A    between atoms: C22_28  and  C23_30 
ROOT
HETATM    1  C3  UNL     1       1.486   1.101  -1.659  1.00  0.00     0.118 C 
HETATM    2  O2  UNL     1       0.509   2.190  -1.947  1.00  0.00    -0.375 OA
HETATM    3  C4  UNL     1       0.506   3.485  -1.284  1.00  0.00     0.174 C 
HETATM    4  C5  UNL     1      -0.482   3.615  -0.056  1.00  0.00     0.015 C 
HETATM    5  C6  UNL     1      -0.024   4.650   0.967  1.00  0.00     0.013 C 
HETATM    6  C7  UNL     1      -0.713   2.209   0.494  1.00  0.00    -0.024 C 
HETATM    7  C8  UNL     1      -1.712   1.600  -0.530  1.00  0.00     0.014 C 
HETATM    8  C9  UNL     1      -1.313   0.188  -0.792  1.00  0.00     0.040 C 
HETATM    9  C10 UNL     1      -0.251  -0.208   0.221  1.00  0.00     0.073 C 
HETATM   10  O3  UNL     1      -0.842  -1.222   1.003  1.00  0.00    -0.373 OA
HETATM   11  C11 UNL     1      -1.700  -0.350   1.931  1.00  0.00     0.129 C 
HETATM   12  C16 UNL     1      -1.219   1.214   1.820  1.00  0.00     0.031 C 
HETATM   13  C17 UNL     1       0.085   0.606   1.496  1.00  0.00     0.034 C 
HETATM   14  C18 UNL     1       0.788   1.824   1.095  1.00  0.00     0.016 C 
HETATM   15  C19 UNL     1       1.833   1.001   0.380  1.00  0.00     0.035 C 
HETATM   16  C20 UNL     1       3.159   0.597   1.021  1.00  0.00     0.215 C 
HETATM   17  N3  UNL     1       3.700   0.544  -0.387  1.00  0.00    -0.060 N 
ATOM     18  H31 UNL     1       3.778  -0.339  -0.891  1.00  0.00     0.278 HD
ATOM     19  H32 UNL     1       4.687   0.712  -0.581  1.00  0.00     0.278 HD
HETATM   20  C24 UNL     1       2.656   1.553  -0.747  1.00  0.00     0.235 C 
HETATM   21  C25 UNL     1       1.105  -0.046  -0.471  1.00  0.00     0.073 C 
ENDROOT
BRANCH  16  22
HETATM   22  C21 UNL     1       3.425  -0.654   1.867  1.00  0.00     0.156 C 
BRANCH  22  23
HETATM   23  N2  UNL     1       2.620  -1.789   1.465  1.00  0.00    -0.358 N 
HETATM   24  C22 UNL     1       3.050  -2.958   0.903  1.00  0.00     0.227 C 
HETATM   25  O4  UNL     1       2.391  -3.979   1.110  1.00  0.00    -0.273 OA
ATOM     26  H2  UNL     1       1.615  -1.706   1.619  1.00  0.00     0.162 HD
BRANCH  24  27
HETATM   27  C23 UNL     1       4.305  -2.959   0.061  1.00  0.00     0.187 C 
HETATM   28 BR1  UNL     1       3.841  -3.647  -1.702  1.00  0.00    -0.087 Br
ENDBRANCH  24  27
ENDBRANCH  22  23
ENDBRANCH  16  22
BRANCH   1  29
HETATM   29  C2  UNL     1       1.971   0.493  -2.978  1.00  0.00     0.207 C 
BRANCH  29  30
HETATM   30  O1  UNL     1       0.867  -0.070  -3.690  1.00  0.00    -0.393 OA
HETATM   31  C1  UNL     1       1.278  -0.616  -4.936  1.00  0.00     0.201 C 
ENDBRANCH  29  30
ENDBRANCH   1  29
BRANCH  11  32
HETATM   32  C12 UNL     1      -3.198  -0.568   1.713  1.00  0.00     0.062 C 
BRANCH  32  33
HETATM   33  C13 UNL     1      -3.551  -2.065   1.749  1.00  0.00     0.274 C 
BRANCH  33  34
HETATM   34  N1  UNL     1      -4.306  -2.438   0.543  1.00  0.00     0.080 N 
HETATM   35  C14 UNL     1      -3.885  -3.747   0.045  1.00  0.00     0.309 C 
HETATM   36  C15 UNL     1      -5.745  -2.418   0.781  1.00  0.00     0.309 C 
ENDBRANCH  33  34
ENDBRANCH  32  33
ENDBRANCH  11  32
TORSDOF 9
