REMARK  9 active torsions:
REMARK  status: ('A' for Active; 'I' for Inactive)
REMARK    1  A    between atoms: C3_3  and  C4_4 
REMARK    2  A    between atoms: C4_4  and  C5_5 
REMARK    3  A    between atoms: C5_5  and  C6_6 
REMARK    4  A    between atoms: C6_6  and  C7_7 
REMARK    5  A    between atoms: C7_7  and  C8_8 
REMARK    6  A    between atoms: C8_8  and  C9_9 
REMARK    7  A    between atoms: C14_16  and  C15_17 
REMARK    8  A    between atoms: C16_19  and  C17_20 
REMARK    9  A    between atoms: C19_24  and  C20_25 
ROOT
HETATM    1  C8  UNL     1      -0.213  -1.713  -1.442  1.00  0.00     0.071 A 
HETATM    2  C10 UNL     1       0.338  -1.452   0.012  1.00  0.00     0.037 A 
HETATM    3  C11 UNL     1      -0.733  -0.373   0.226  1.00  0.00    -0.008 A 
HETATM    4  C12 UNL     1      -1.327  -0.642  -1.159  1.00  0.00     0.020 A 
HETATM    5  C13 UNL     1      -2.647  -1.090  -0.508  1.00  0.00     0.020 A 
HETATM    6  C14 UNL     1      -2.067  -0.934   0.932  1.00  0.00     0.002 A 
HETATM    7  C16 UNL     1      -2.415   0.306   1.858  1.00  0.00     0.104 C 
HETATM    8  C18 UNL     1      -1.915   1.523   1.010  1.00  0.00     0.047 C 
HETATM    9  C19 UNL     1      -0.468   1.032   0.788  1.00  0.00     0.040 C 
HETATM   10  C23 UNL     1      -0.067   0.825   2.249  1.00  0.00     0.182 C 
HETATM   11  O5  UNL     1       1.038   0.842   2.742  1.00  0.00    -0.290 OA
HETATM   12  C24 UNL     1      -1.339   0.428   2.912  1.00  0.00     0.070 C 
HETATM   13  N1  UNL     1      -1.488   0.202   4.195  1.00  0.00    -0.398 N 
ATOM     14  H11 UNL     1      -0.762   0.284   4.906  1.00  0.00     0.156 HD
ATOM     15  H12 UNL     1      -2.360  -0.070   4.649  1.00  0.00     0.156 HD
ENDROOT
BRANCH   1  16
HETATM   16  C7  UNL     1       0.848  -1.270  -2.447  1.00  0.00    -0.005 C 
BRANCH  16  17
HETATM   17  C6  UNL     1       1.980  -1.997  -2.526  1.00  0.00     0.006 C 
BRANCH  17  18
HETATM   18  C5  UNL     1       3.227  -1.373  -2.801  1.00  0.00     0.065 C 
BRANCH  18  19
HETATM   19  C4  UNL     1       4.271  -0.832  -2.565  1.00  0.00    -0.065 C 
BRANCH  19  20
HETATM   20  C3  UNL     1       5.282  -0.220  -1.868  1.00  0.00    -0.024 C 
HETATM   21  C2  UNL     1       5.969   0.314  -1.035  1.00  0.00    -0.098 C 
HETATM   22  C1  UNL     1       6.594   0.949   0.121  1.00  0.00     0.113 C 
ENDBRANCH  19  20
ENDBRANCH  18  19
ENDBRANCH  17  18
ENDBRANCH  16  17
ENDBRANCH   1  16
BRANCH   1  23
HETATM   23  C9  UNL     1      -0.703  -3.174  -1.798  1.00  0.00     0.186 C 
HETATM   24  O1  UNL     1      -0.343  -4.223  -1.270  1.00  0.00    -0.647 OA
HETATM   25  O2  UNL     1      -1.604  -3.207  -2.824  1.00  0.00    -0.647 OA
ENDBRANCH   1  23
BRANCH   6  26
HETATM   26  C15 UNL     1      -2.092  -2.261   1.704  1.00  0.00     0.097 C 
HETATM   27 BR1  UNL     1      -3.905  -2.964   1.933  1.00  0.00    -0.096 Br
ENDBRANCH   6  26
BRANCH   9  28
HETATM   28  C20 UNL     1       0.469   1.967  -0.002  1.00  0.00    -0.006 C 
HETATM   29  C21 UNL     1       0.813   3.263   0.758  1.00  0.00     0.011 C 
HETATM   30  C22 UNL     1      -0.064   2.415  -1.370  1.00  0.00     0.011 C 
ENDBRANCH   9  28
BRANCH   7  31
HETATM   31  C17 UNL     1      -3.869   0.481   2.257  1.00  0.00     0.189 C 
HETATM   32  O3  UNL     1      -4.488   0.049   3.214  1.00  0.00    -0.647 OA
HETATM   33  O4  UNL     1      -4.586   1.183   1.345  1.00  0.00    -0.647 OA
ENDBRANCH   7  31
TORSDOF 9
