REMARK  6 active torsions:
REMARK  status: ('A' for Active; 'I' for Inactive)
REMARK    1  A    between atoms: C9_9  and  C10_10 
REMARK    2  A    between atoms: C10_10  and  N1_11 
REMARK       I    between atoms: N1_11  and  C11_13 
REMARK    3  A    between atoms: C11_13  and  C12_15 
REMARK    4  A    between atoms: C14_17  and  C15_18 
REMARK    5  A    between atoms: C15_18  and  S1_19 
REMARK    6  A    between atoms: S1_19  and  N2_20 
ROOT
HETATM    1  N1  UNL     1       0.697  -2.323  -0.578  1.00  0.00    -0.360 N 
ATOM      2  H1  UNL     1       1.308  -3.057  -0.220  1.00  0.00     0.162 HD
HETATM    3  C11 UNL     1      -0.640  -2.511  -0.309  1.00  0.00     0.223 C 
HETATM    4  O1  UNL     1      -0.949  -3.646   0.081  1.00  0.00    -0.273 OA
ENDROOT
BRANCH   3   5
HETATM    5  C12 UNL     1      -1.667  -1.357  -0.541  1.00  0.00     0.099 C 
HETATM    6  C13 UNL     1      -3.099  -1.819  -0.905  1.00  0.00     0.029 C 
HETATM    7  C14 UNL     1      -3.541  -0.540  -0.272  1.00  0.00     0.003 A 
HETATM    8  C16 UNL     1      -3.817  -0.341   1.138  1.00  0.00    -0.018 A 
HETATM    9  C19 UNL     1      -2.304  -0.628   0.669  1.00  0.00     0.047 A 
HETATM   10  C17 UNL     1      -4.075   1.033   1.718  1.00  0.00     0.017 C 
HETATM   11  C18 UNL     1      -4.729  -1.396   1.750  1.00  0.00     0.017 C 
HETATM   12 BR1  UNL     1      -1.625  -1.321   2.339  1.00  0.00    -0.083 Br
BRANCH   7  13
HETATM   13  C15 UNL     1      -3.752   0.606  -1.247  1.00  0.00     0.174 C 
BRANCH  13  14
HETATM   14  S1  UNL     1      -5.467   0.494  -1.788  1.00  0.00     0.225 S 
HETATM   15  O2  UNL     1      -6.337   1.183  -0.861  1.00  0.00    -0.206 OA
HETATM   16  O3  UNL     1      -5.761  -0.821  -2.301  1.00  0.00    -0.206 OA
BRANCH  14  17
HETATM   17  N2  UNL     1      -5.430   1.476  -3.155  1.00  0.00    -0.328 N 
ATOM     18  H22 UNL     1      -4.644   1.988  -3.555  1.00  0.00     0.168 HD
ATOM     19  H21 UNL     1      -6.401   1.413  -3.461  1.00  0.00     0.168 HD
ENDBRANCH  14  17
ENDBRANCH  13  14
ENDBRANCH   7  13
ENDBRANCH   3   5
BRANCH   1  20
HETATM   20  C10 UNL     1       1.386  -1.259  -1.284  1.00  0.00     0.133 C 
BRANCH  20  21
HETATM   21  C9  UNL     1       2.528  -0.828  -0.387  1.00  0.00    -0.008 A 
HETATM   22  C6  UNL     1       3.816  -0.344  -0.878  1.00  0.00     0.006 A 
HETATM   23  C5  UNL     1       4.928  -1.256  -0.475  1.00  0.00     0.001 A 
HETATM   24  C7  UNL     1       3.822  -0.931   1.029  1.00  0.00     0.001 C 
HETATM   25  C4  UNL     1       5.013  -0.161   0.740  1.00  0.00     0.004 C 
HETATM   26  C8  UNL     1       3.692  -2.038   0.107  1.00  0.00     0.006 A 
HETATM   27  C2  UNL     1       4.104   1.217   0.800  1.00  0.00    -0.036 C 
HETATM   28  C1  UNL     1       4.856   2.273  -0.041  1.00  0.00     0.016 C 
HETATM   29  C3  UNL     1       4.061   1.740   2.249  1.00  0.00     0.016 C 
HETATM   30  C20 UNL     1       2.481   0.823   0.165  1.00  0.00    -0.030 C 
HETATM   31  C21 UNL     1       1.357   0.946   1.216  1.00  0.00     0.016 C 
HETATM   32  C22 UNL     1       2.096   1.793  -0.993  1.00  0.00     0.016 C 
ENDBRANCH  20  21
ENDBRANCH   1  20
TORSDOF 6
