REMARK  5 active torsions:
REMARK  status: ('A' for Active; 'I' for Inactive)
REMARK    1  A    between atoms: C2_2  and  N1_3 
REMARK       I    between atoms: N1_3  and  C3_5 
REMARK       I    between atoms: C3_5  and  N2_7 
REMARK    2  A    between atoms: C9_13  and  C10_14 
REMARK    3  A    between atoms: C11_16  and  O2_17 
REMARK    4  A    between atoms: C14_21  and  C15_22 
REMARK    5  A    between atoms: C17_25  and  O3_26 
ROOT
HETATM    1  N1  UNL     1      -3.625  -0.790   1.948  1.00  0.00    -0.348 N 
ATOM      2  H1  UNL     1      -2.750  -1.261   2.180  1.00  0.00     0.163 HD
HETATM    3  C3  UNL     1      -3.641   0.558   1.672  1.00  0.00     0.296 C 
HETATM    4  O1  UNL     1      -4.665   1.229   1.661  1.00  0.00    -0.254 OA
HETATM    5  N2  UNL     1      -2.403   1.091   1.384  1.00  0.00    -0.229 NA
HETATM    6  C4  UNL     1      -2.268   2.250   0.454  1.00  0.00     0.107 C 
HETATM    7  C5  UNL     1      -0.773   2.067   0.655  1.00  0.00     0.028 C 
HETATM    8  C6  UNL     1      -1.309   0.432   0.705  1.00  0.00     0.078 C 
HETATM    9  C7  UNL     1       0.150   0.243   1.087  1.00  0.00     0.015 C 
HETATM   10  C8  UNL     1       1.175  -0.928   1.363  1.00  0.00     0.020 C 
HETATM   11  C9  UNL     1       2.591  -0.904   0.547  1.00  0.00     0.005 C 
HETATM   12  C11 UNL     1       3.648   0.665   0.667  1.00  0.00     0.132 C 
HETATM   13  C12 UNL     1       2.885   2.139  -0.156  1.00  0.00     0.021 C 
HETATM   14  C13 UNL     1       2.036   2.544  -1.526  1.00  0.00     0.018 C 
HETATM   15  C14 UNL     1       0.475   1.697  -1.649  1.00  0.00    -0.020 C 
HETATM   16  C16 UNL     1       0.221   0.245  -2.330  1.00  0.00     0.043 C 
HETATM   17  C17 UNL     1       0.794  -1.143  -1.692  1.00  0.00     0.126 C 
HETATM   18  C19 UNL     1       2.187  -1.121  -0.968  1.00  0.00     0.027 C 
HETATM   19  C20 UNL     1       2.578   0.217  -1.333  1.00  0.00     0.014 C 
HETATM   20  C21 UNL     1       1.818   1.216  -0.031  1.00  0.00     0.003 C 
HETATM   21  C22 UNL     1       0.356   1.406  -0.183  1.00  0.00    -0.016 C 
ENDROOT
BRANCH   1  22
HETATM   22  C2  UNL     1      -4.870  -1.531   1.904  1.00  0.00     0.119 C 
HETATM   23  C1  UNL     1      -4.748  -2.902   2.536  1.00  0.00     0.026 C 
ENDBRANCH   1  22
BRANCH  15  24
HETATM   24  C15 UNL     1      -0.534   2.699  -2.221  1.00  0.00     0.095 C 
HETATM   25 BR1  UNL     1      -0.090   3.204  -4.052  1.00  0.00    -0.096 Br
ENDBRANCH  15  24
BRANCH  11  26
HETATM   26  C10 UNL     1       3.415  -2.085   1.114  1.00  0.00     0.127 C 
HETATM   27 CL1  UNL     1       4.858  -2.554   0.184  1.00  0.00    -0.130 Cl
ENDBRANCH  11  26
BRANCH  12  28
HETATM   28  O2  UNL     1       4.991   0.503   0.240  1.00  0.00    -0.394 OA
ATOM     29  H2  UNL     1       5.521   1.289   0.300  1.00  0.00     0.210 HD
ENDBRANCH  12  28
BRANCH  17  30
HETATM   30  O3  UNL     1      -0.189  -1.810  -0.909  1.00  0.00    -0.390 OA
HETATM   31  C18 UNL     1      -0.964  -2.749  -1.645  1.00  0.00     0.202 C 
ENDBRANCH  17  30
TORSDOF 5
