REMARK  6 active torsions:
REMARK  status: ('A' for Active; 'I' for Inactive)
REMARK    1  A    between atoms: C4_8  and  N3_9 
REMARK       I    between atoms: N3_9  and  C5_11 
REMARK       I    between atoms: C5_11  and  N4_13 
REMARK    2  A    between atoms: N4_13  and  C6_15 
REMARK    3  A    between atoms: C11_22  and  N6_23 
REMARK    4  A    between atoms: C16_28  and  C17_29 
REMARK    5  A    between atoms: C17_29  and  C18_30 
REMARK    6  A    between atoms: C22_34  and  C23_35 
REMARK       I    between atoms: C23_35  and  N7_37 
ROOT
HETATM    1  N6  UNL     1      -2.873   1.317   0.370  1.00  0.00    -0.317 N 
HETATM    2  C12 UNL     1      -3.739   2.272  -0.229  1.00  0.00     0.091 C 
HETATM    3  C13 UNL     1      -3.741   2.555  -1.566  1.00  0.00     0.000 C 
HETATM    4  C14 UNL     1      -2.687   1.906  -2.376  1.00  0.00     0.045 C 
HETATM    5  C15 UNL     1      -1.625   2.755  -2.562  1.00  0.00    -0.005 C 
HETATM    6  C16 UNL     1      -0.279   2.527  -1.961  1.00  0.00    -0.022 C 
HETATM    7  C27 UNL     1      -0.087   1.808  -0.807  1.00  0.00     0.123 C 
HETATM    8  N9  UNL     1      -0.762   0.545  -0.674  1.00  0.00    -0.278 N 
HETATM    9  N10 UNL     1      -0.498  -0.546  -1.508  1.00  0.00    -0.311 N 
ATOM     10  H10 UNL     1       0.220  -1.267  -1.437  1.00  0.00     0.185 HD
HETATM   11  C28 UNL     1      -1.464  -0.372  -2.434  1.00  0.00     0.089 C 
HETATM   12  C29 UNL     1      -2.399   0.552  -1.928  1.00  0.00     0.082 C 
HETATM   13  C30 UNL     1      -2.190   0.535  -0.539  1.00  0.00     0.223 C 
ENDROOT
BRANCH   1  14
HETATM   14  C11 UNL     1      -2.817   1.091   1.765  1.00  0.00     0.153 C 
HETATM   15  C4  UNL     1      -2.810  -0.141   2.359  1.00  0.00     0.097 C 
HETATM   16  C3  UNL     1      -3.063  -0.100   3.836  1.00  0.00     0.139 C 
HETATM   17  N2  UNL     1      -2.925   0.928   4.611  1.00  0.00    -0.200 N 
HETATM   18  C2  UNL     1      -2.342   1.966   3.941  1.00  0.00     0.679 C 
ATOM     19  H2  UNL     1      -3.213   0.959   5.589  1.00  0.00     0.183 HD
HETATM   20  N1  UNL     1      -1.357   2.498   4.576  1.00  0.00    -0.230 N 
HETATM   21  N11 UNL     1      -2.729   2.184   2.642  1.00  0.00    -0.174 N 
HETATM   22  C1  UNL     1      -0.315   3.134   3.787  1.00  0.00     0.165 C 
ATOM     23  H1  UNL     1      -1.309   2.474   5.595  1.00  0.00     0.177 HD
ATOM     24  H11 UNL     1      -2.949   3.126   2.319  1.00  0.00     0.186 HD
BRANCH  15  25
HETATM   25  N3  UNL     1      -2.715  -1.380   1.735  1.00  0.00    -0.304 N 
HETATM   26  C5  UNL     1      -1.464  -1.784   1.339  1.00  0.00     0.325 C 
HETATM   27  O1  UNL     1      -0.440  -1.185   1.682  1.00  0.00    -0.247 OA
HETATM   28  N4  UNL     1      -1.338  -2.830   0.478  1.00  0.00    -0.307 N 
ATOM     29  H4  UNL     1      -0.400  -3.225   0.416  1.00  0.00     0.170 HD
ATOM     30  H3  UNL     1      -3.538  -1.962   1.579  1.00  0.00     0.171 HD
BRANCH  28  31
HETATM   31  C6  UNL     1      -2.296  -3.451  -0.339  1.00  0.00     0.051 A 
HETATM   32  C7  UNL     1      -3.585  -3.769   0.064  1.00  0.00     0.032 A 
HETATM   33  C8  UNL     1      -4.476  -4.327  -0.849  1.00  0.00     0.019 A 
HETATM   34  C9  UNL     1      -4.034  -4.571  -2.138  1.00  0.00     0.088 A 
HETATM   35  N5  UNL     1      -2.772  -4.357  -2.549  1.00  0.00    -0.373 N 
HETATM   36  C10 UNL     1      -1.927  -3.816  -1.637  1.00  0.00     0.117 A 
ATOM     37  H5  UNL     1      -2.467  -4.589  -3.494  1.00  0.00     0.164 HD
ENDBRANCH  28  31
ENDBRANCH  15  25
ENDBRANCH   1  14
BRANCH   6  38
HETATM   38  C17 UNL     1       0.929   2.803  -2.659  1.00  0.00     0.013 C 
BRANCH  38  39
HETATM   39  C18 UNL     1       2.102   2.593  -2.836  1.00  0.00     0.013 C 
HETATM   40  C19 UNL     1       3.328   1.901  -2.573  1.00  0.00    -0.021 A 
HETATM   41  C20 UNL     1       3.700   0.817  -3.361  1.00  0.00     0.015 A 
HETATM   42  C26 UNL     1       3.938   2.052  -1.330  1.00  0.00     0.100 A 
HETATM   43  C21 UNL     1       4.585  -0.133  -2.837  1.00  0.00     0.036 A 
HETATM   44  C22 UNL     1       5.059   0.041  -1.535  1.00  0.00     0.100 A 
HETATM   45  N8  UNL     1       4.802   1.154  -0.798  1.00  0.00    -0.361 N 
ATOM     46  H8  UNL     1       5.238   1.306   0.111  1.00  0.00     0.165 HD
BRANCH  44  47
HETATM   47  C23 UNL     1       5.608  -1.163  -0.818  1.00  0.00     0.269 C 
HETATM   48  O2  UNL     1       5.720  -2.236  -1.415  1.00  0.00    -0.266 OA
HETATM   49  N7  UNL     1       5.800  -1.092   0.559  1.00  0.00    -0.355 N 
HETATM   50  C24 UNL     1       6.567  -0.031   1.175  1.00  0.00     0.152 C 
HETATM   51  C25 UNL     1       4.774  -1.707   1.373  1.00  0.00     0.152 C 
ENDBRANCH  44  47
ENDBRANCH  38  39
ENDBRANCH   6  38
TORSDOF 6
