REMARK  15 active torsions:
REMARK  status: ('A' for Active; 'I' for Inactive)
REMARK    1  A    between atoms: O1_2  and  C2_3 
REMARK    2  A    between atoms: C2_3  and  C3_4 
REMARK    3  A    between atoms: C3_4  and  C4_5 
REMARK    4  A    between atoms: C4_5  and  O2_6 
REMARK    5  A    between atoms: C8_10  and  C9_11 
REMARK    6  A    between atoms: C9_11  and  O4_13 
REMARK    7  A    between atoms: O4_13  and  C10_14 
REMARK    8  A    between atoms: C10_14  and  C11_15 
REMARK    9  A    between atoms: C11_15  and  C12_16 
REMARK   10  A    between atoms: C12_16  and  C13_17 
REMARK   11  A    between atoms: C13_17  and  C14_18 
REMARK   12  A    between atoms: C14_18  and  O6_20 
REMARK   13  A    between atoms: O6_20  and  C15_21 
REMARK   14  A    between atoms: C18_24  and  O7_25 
REMARK   15  A    between atoms: C33_41  and  O8_42 
ROOT
HETATM    1  C14 UNL     1      -0.723  -3.000  -0.602  1.00  0.00     0.259 C 
HETATM    2  O5  UNL     1       0.315  -2.582  -1.087  1.00  0.00    -0.265 OA
ENDROOT
BRANCH   1   3
HETATM    3  C13 UNL     1      -0.821  -4.111   0.424  1.00  0.00     0.111 C 
BRANCH   3   4
HETATM    4  C12 UNL     1       0.334  -3.971   1.417  1.00  0.00     0.012 C 
BRANCH   4   5
HETATM    5  C11 UNL     1       1.597  -4.720   0.967  1.00  0.00     0.027 C 
BRANCH   5   6
HETATM    6  C10 UNL     1       2.861  -3.863   1.046  1.00  0.00     0.178 C 
BRANCH   6   7
HETATM    7  O4  UNL     1       2.948  -3.282   2.356  1.00  0.00    -0.321 OA
BRANCH   7   8
HETATM    8  C9  UNL     1       3.326  -1.996   2.574  1.00  0.00     0.269 C 
HETATM    9  O3  UNL     1       2.956  -1.433   3.607  1.00  0.00    -0.264 OA
BRANCH   8  10
HETATM   10  C8  UNL     1       4.328  -1.377   1.587  1.00  0.00     0.138 C 
HETATM   11  C7  UNL     1       5.079  -0.250   2.257  1.00  0.00    -0.013 C 
HETATM   12  C6  UNL     1       5.125   0.859   1.518  1.00  0.00    -0.013 C 
HETATM   13  C3  UNL     1       4.448   0.692   0.178  1.00  0.00     0.047 C 
HETATM   14  C33 UNL     1       3.729  -0.691   0.337  1.00  0.00     0.151 C 
BRANCH  13  15
HETATM   15  C2  UNL     1       3.460   1.843  -0.112  1.00  0.00     0.185 C 
BRANCH  15  16
HETATM   16  O1  UNL     1       2.716   1.512  -1.295  1.00  0.00    -0.395 OA
HETATM   17  C1  UNL     1       1.910   2.595  -1.749  1.00  0.00     0.201 C 
ENDBRANCH  15  16
ENDBRANCH  13  15
BRANCH  13  18
HETATM   18  C4  UNL     1       5.524   0.633  -0.942  1.00  0.00     0.185 C 
BRANCH  18  19
HETATM   19  O2  UNL     1       6.221   1.885  -1.026  1.00  0.00    -0.395 OA
HETATM   20  C5  UNL     1       7.214   1.887  -2.046  1.00  0.00     0.201 C 
ENDBRANCH  18  19
ENDBRANCH  13  18
BRANCH  14  21
HETATM   21  O8  UNL     1       2.313  -0.562   0.465  1.00  0.00    -0.393 OA
ATOM     22  H8  UNL     1       1.877  -1.401   0.561  1.00  0.00     0.210 HD
ENDBRANCH  14  21
ENDBRANCH   8  10
ENDBRANCH   7   8
ENDBRANCH   6   7
ENDBRANCH   5   6
ENDBRANCH   4   5
ENDBRANCH   3   4
ENDBRANCH   1   3
BRANCH   1  23
HETATM   23  O6  UNL     1      -1.959  -2.480  -0.845  1.00  0.00    -0.315 OA
BRANCH  23  24
HETATM   24  C15 UNL     1      -2.014  -1.037  -0.711  1.00  0.00     0.143 C 
HETATM   25  C16 UNL     1      -2.318  -0.320  -2.276  1.00  0.00     0.041 C 
HETATM   26  C17 UNL     1      -1.265  -0.797  -3.288  1.00  0.00     0.015 C 
HETATM   27  C18 UNL     1      -2.768   1.356  -2.648  1.00  0.00     0.128 C 
HETATM   28  C19 UNL     1      -3.057   2.710  -1.617  1.00  0.00     0.020 C 
HETATM   29  C20 UNL     1      -4.043   3.692  -2.251  1.00  0.00     0.013 C 
HETATM   30  C21 UNL     1      -3.547   2.394  -0.186  1.00  0.00    -0.023 C 
HETATM   31  C22 UNL     1      -2.505   1.339  -0.116  1.00  0.00     0.001 C 
HETATM   32  C25 UNL     1      -3.672   2.421   1.496  1.00  0.00     0.000 C 
HETATM   33  C27 UNL     1      -4.779   1.487  -0.070  1.00  0.00     0.001 C 
HETATM   34  C23 UNL     1      -1.625   1.565   1.124  1.00  0.00     0.011 C 
HETATM   35  C28 UNL     1      -3.821   0.340  -0.233  1.00  0.00     0.002 C 
HETATM   36  C24 UNL     1      -2.703   1.316   2.111  1.00  0.00    -0.001 C 
HETATM   37  C30 UNL     1      -2.988  -0.286   1.947  1.00  0.00    -0.037 C 
HETATM   38  C29 UNL     1      -3.182  -0.798   0.428  1.00  0.00     0.029 C 
HETATM   39  C31 UNL     1      -1.841  -1.083   2.618  1.00  0.00     0.015 C 
HETATM   40  C32 UNL     1      -4.245  -0.666   2.767  1.00  0.00     0.015 C 
HETATM   41  C26 UNL     1      -5.135   2.070   1.288  1.00  0.00     0.011 C 
BRANCH  27  42
HETATM   42  O7  UNL     1      -1.758   1.840  -3.564  1.00  0.00    -0.395 OA
ATOM     43  H7  UNL     1      -1.999   2.737  -3.763  1.00  0.00     0.210 HD
ENDBRANCH  27  42
ENDBRANCH  23  24
ENDBRANCH   1  23
TORSDOF 15
