REMARK  9 active torsions:
REMARK  status: ('A' for Active; 'I' for Inactive)
REMARK    1  A    between atoms: N1_3  and  C3_5 
REMARK    2  A    between atoms: C3_5  and  C4_6 
REMARK    3  A    between atoms: C4_6  and  C19_25 
REMARK    4  A    between atoms: C5_7  and  C6_8 
REMARK       I    between atoms: C6_8  and  N2_10 
REMARK    5  A    between atoms: N2_10  and  C7_12 
REMARK    6  A    between atoms: C11_17  and  C12_18 
REMARK    7  A    between atoms: C15_21  and  C16_22 
REMARK    8  A    between atoms: C16_22  and  C17_23 
REMARK    9  A    between atoms: C21_27  and  C22_28 
ROOT
HETATM    1  C1  UNL     1       2.751  -3.279  -3.997  1.00  0.00     0.036 C 
HETATM    2  C2  UNL     1       2.656  -2.542  -3.054  1.00  0.00    -0.006 C 
HETATM    3  N1  UNL     1       2.545  -1.683  -1.981  1.00  0.00    -0.350 N 
ATOM      4  H1  UNL     1       3.162  -0.880  -1.861  1.00  0.00     0.169 HD
ENDROOT
BRANCH   3   5
HETATM    5  C3  UNL     1       1.485  -2.000  -1.029  1.00  0.00     0.140 C 
BRANCH   5   6
HETATM    6  C4  UNL     1       0.965  -0.754  -0.262  1.00  0.00    -0.003 C 
HETATM    7  C5  UNL     1       2.056   0.168   0.456  1.00  0.00     0.093 C 
HETATM    8  C8  UNL     1       2.333   1.502  -0.527  1.00  0.00     0.005 C 
HETATM    9  C9  UNL     1       1.732   2.797   0.011  1.00  0.00     0.011 C 
HETATM   10  C24 UNL     1       1.427   1.368  -1.765  1.00  0.00     0.001 C 
HETATM   11  C10 UNL     1       0.247   2.700  -0.403  1.00  0.00    -0.004 C 
HETATM   12  C11 UNL     1       0.127   2.331  -1.839  1.00  0.00    -0.001 C 
HETATM   13  C22 UNL     1      -0.250   1.313  -0.060  1.00  0.00     0.000 C 
HETATM   14  C23 UNL     1       0.617   0.338  -1.167  1.00  0.00     0.006 C 
BRANCH   7  15
HETATM   15  C6  UNL     1       3.352  -0.569   0.782  1.00  0.00     0.229 C 
HETATM   16  O1  UNL     1       4.227  -0.798  -0.044  1.00  0.00    -0.273 OA
HETATM   17  N2  UNL     1       3.459  -0.933   2.107  1.00  0.00    -0.305 N 
ATOM     18  H2  UNL     1       3.688  -0.239   2.819  1.00  0.00     0.171 HD
BRANCH  17  19
HETATM   19  C7  UNL     1       3.253  -2.243   2.451  1.00  0.00     0.355 C 
HETATM   20  O2  UNL     1       3.275  -3.219   1.719  1.00  0.00    -0.283 OA
ENDBRANCH  17  19
ENDBRANCH   7  15
BRANCH  12  21
HETATM   21  C12 UNL     1      -1.500   1.584  -1.805  1.00  0.00    -0.004 C 
HETATM   22  C13 UNL     1      -2.431   2.369  -0.344  1.00  0.00     0.011 C 
HETATM   23  C14 UNL     1      -2.328   1.164   1.033  1.00  0.00    -0.005 C 
HETATM   24  C15 UNL     1      -1.493  -0.292   1.415  1.00  0.00    -0.001 C 
HETATM   25  C21 UNL     1      -1.844   0.711  -0.205  1.00  0.00    -0.000 C 
HETATM   26  C19 UNL     1      -0.705  -0.976   0.040  1.00  0.00     0.006 C 
HETATM   27  C20 UNL     1      -1.544  -0.203  -1.234  1.00  0.00     0.000 C 
BRANCH  24  28
HETATM   28  C16 UNL     1      -2.427  -1.327   2.083  1.00  0.00     0.031 C 
BRANCH  28  29
HETATM   29  C17 UNL     1      -3.589  -1.801   1.259  1.00  0.00    -0.037 C 
HETATM   30  C18 UNL     1      -4.872  -1.659   1.615  1.00  0.00     0.007 C 
ENDBRANCH  28  29
ENDBRANCH  24  28
ENDBRANCH  12  21
ENDBRANCH   5   6
ENDBRANCH   3   5
TORSDOF 9
