REMARK  10 active torsions:
REMARK  status: ('A' for Active; 'I' for Inactive)
REMARK    1  A    between atoms: C2_2  and  N1_3 
REMARK    2  A    between atoms: N1_3  and  C3_4 
REMARK       I    between atoms: N1_3  and  C5_6 
REMARK    3  A    between atoms: C5_6  and  C6_8 
REMARK    4  A    between atoms: C6_8  and  C7_9 
REMARK    5  A    between atoms: C7_9  and  C8_10 
REMARK    6  A    between atoms: C13_16  and  C15_18 
REMARK    7  A    between atoms: C15_18  and  C16_20 
REMARK    8  A    between atoms: C17_21  and  C18_22 
REMARK    9  A    between atoms: C20_24  and  C21_25 
REMARK   10  A    between atoms: C33_42  and  O4_43 
ROOT
HETATM    1  C7  UNL     1      -1.587   0.586   1.686  1.00  0.00     0.099 C 
HETATM    2  O2  UNL     1      -1.318   1.858   2.385  1.00  0.00    -0.374 OA
HETATM    3  C10 UNL     1      -1.776   3.062   1.775  1.00  0.00     0.178 C 
HETATM    4  C11 UNL     1      -1.137   3.261   0.402  1.00  0.00     0.045 C 
HETATM    5  C12 UNL     1       0.434   3.329   0.483  1.00  0.00     0.028 C 
HETATM    6  C13 UNL     1       1.358   3.793  -0.731  1.00  0.00     0.022 C 
HETATM    7  C14 UNL     1       1.590   5.323  -0.475  1.00  0.00     0.024 C 
HETATM    8  C25 UNL     1       0.908   3.730  -2.238  1.00  0.00     0.022 C 
HETATM    9  C26 UNL     1       0.650   2.388  -2.984  1.00  0.00     0.043 C 
HETATM   10  C27 UNL     1      -0.391   1.536  -2.311  1.00  0.00    -0.015 C 
HETATM   11  C28 UNL     1      -1.484   2.187  -1.779  1.00  0.00    -0.045 C 
HETATM   12  C29 UNL     1      -2.257   3.252  -2.492  1.00  0.00     0.049 C 
HETATM   13  C30 UNL     1      -1.540   2.035  -0.409  1.00  0.00    -0.033 C 
HETATM   14  C31 UNL     1      -1.294   0.776   0.192  1.00  0.00     0.025 C 
HETATM   15  C32 UNL     1      -0.662  -0.161  -0.622  1.00  0.00     0.159 C 
HETATM   16  F1  UNL     1      -0.370  -1.389  -0.180  1.00  0.00    -0.202 F 
HETATM   17  C33 UNL     1      -0.105   0.257  -1.829  1.00  0.00     0.111 C 
ENDROOT
BRANCH   6  18
HETATM   18  C15 UNL     1       2.770   3.142  -0.665  1.00  0.00     0.157 C 
HETATM   19  O3  UNL     1       3.792   3.808  -0.853  1.00  0.00    -0.292 OA
BRANCH  18  20
HETATM   20  C16 UNL     1       2.900   1.671  -0.457  1.00  0.00     0.053 C 
HETATM   21  C17 UNL     1       4.073   1.051  -0.664  1.00  0.00     0.034 C 
BRANCH  21  22
HETATM   22  C18 UNL     1       4.323  -0.341  -0.461  1.00  0.00     0.050 A 
HETATM   23  C19 UNL     1       3.546  -1.239   0.311  1.00  0.00     0.058 A 
HETATM   24  C20 UNL     1       4.204  -2.454   0.269  1.00  0.00     0.035 A 
HETATM   25  N2  UNL     1       5.295  -2.224  -0.530  1.00  0.00    -0.304 N 
HETATM   26  N3  UNL     1       5.395  -0.961  -0.971  1.00  0.00    -0.301 N 
ATOM     27  H2  UNL     1       5.971  -2.950  -0.768  1.00  0.00     0.186 HD
ATOM     28  H3  UNL     1       6.124  -0.562  -1.562  1.00  0.00     0.187 HD
BRANCH  24  29
HETATM   29  C21 UNL     1       3.896  -3.774   0.940  1.00  0.00    -0.007 C 
HETATM   30  C22 UNL     1       4.062  -3.616   2.464  1.00  0.00     0.021 C 
HETATM   31  C23 UNL     1       2.444  -4.183   0.631  1.00  0.00     0.021 C 
HETATM   32  C24 UNL     1       4.827  -4.903   0.461  1.00  0.00     0.021 C 
ENDBRANCH  24  29
ENDBRANCH  21  22
ENDBRANCH  18  20
ENDBRANCH   6  18
BRANCH  17  33
HETATM   33  O4  UNL     1       0.815  -0.557  -2.420  1.00  0.00    -0.357 OA
ATOM     34  H4  UNL     1       1.010  -1.427  -2.092  1.00  0.00     0.217 HD
ENDBRANCH  17  33
BRANCH   1  35
HETATM   35  C6  UNL     1      -3.078   0.234   1.946  1.00  0.00     0.146 C 
BRANCH  35  36
HETATM   36  C5  UNL     1      -3.532  -1.143   1.479  1.00  0.00     0.223 C 
HETATM   37  N1  UNL     1      -3.730  -1.383   0.126  1.00  0.00    -0.353 N 
HETATM   38  O1  UNL     1      -3.665  -2.043   2.315  1.00  0.00    -0.273 OA
BRANCH  37  39
HETATM   39  C2  UNL     1      -3.605  -2.766  -0.348  1.00  0.00     0.121 C 
HETATM   40  C1  UNL     1      -4.771  -3.684  -0.009  1.00  0.00     0.026 C 
ENDBRANCH  37  39
BRANCH  37  41
HETATM   41  C3  UNL     1      -4.254  -0.391  -0.817  1.00  0.00     0.121 C 
HETATM   42  C4  UNL     1      -5.722  -0.613  -1.142  1.00  0.00     0.026 C 
ENDBRANCH  37  41
ENDBRANCH  35  36
ENDBRANCH   1  35
BRANCH   1  43
HETATM   43  C8  UNL     1      -0.552  -0.318   2.440  1.00  0.00     0.039 C 
HETATM   44  C9  UNL     1      -0.747  -1.821   2.556  1.00  0.00     0.008 C 
ENDBRANCH   1  43
TORSDOF 10
