REMARK  8 active torsions:
REMARK  status: ('A' for Active; 'I' for Inactive)
REMARK    1  A    between atoms: C2_2  and  C3_3 
REMARK    2  A    between atoms: C3_3  and  C4_4 
REMARK    3  A    between atoms: C11_15  and  C12_16 
REMARK    4  A    between atoms: C12_16  and  C13_17 
REMARK    5  A    between atoms: C13_17  and  N3_18 
REMARK    6  A    between atoms: N4_21  and  C16_22 
REMARK    7  A    between atoms: C16_22  and  C17_23 
REMARK    8  A    between atoms: C17_23  and  O1_24 
ROOT
HETATM    1  C4  UNL     1       4.609  -0.150  -0.177  1.00  0.00     0.078 C 
HETATM    2  N1  UNL     1       4.272  -0.323  -1.484  1.00  0.00    -0.344 N 
HETATM    3  C5  UNL     1       4.400   0.707  -2.543  1.00  0.00     0.153 C 
HETATM    4  C6  UNL     1       3.952  -1.660  -1.843  1.00  0.00     0.326 C 
HETATM    5  N2  UNL     1       4.740  -2.670  -1.225  1.00  0.00    -0.023 N 
ATOM      6  H21 UNL     1       5.749  -2.625  -1.370  1.00  0.00     0.283 HD
ATOM      7  H22 UNL     1       4.668  -3.613  -1.607  1.00  0.00     0.283 HD
HETATM    8  C7  UNL     1       4.266  -2.471   0.104  1.00  0.00     0.341 C 
HETATM    9  C8  UNL     1       2.930  -2.765  -0.200  1.00  0.00     0.088 A 
HETATM   10  C9  UNL     1       2.699  -2.191  -1.494  1.00  0.00     0.022 A 
HETATM   11  C10 UNL     1       1.444  -1.874  -2.005  1.00  0.00     0.039 A 
HETATM   12  C11 UNL     1       0.433  -2.279  -1.096  1.00  0.00     0.028 A 
HETATM   13  N5  UNL     1       0.625  -2.853   0.164  1.00  0.00    -0.303 N 
ATOM     14  H5  UNL     1      -0.184  -3.100   0.733  1.00  0.00     0.186 HD
HETATM   15  N6  UNL     1       1.879  -3.086   0.641  1.00  0.00    -0.296 N 
HETATM   16  C22 UNL     1       2.046  -3.676   1.976  1.00  0.00     0.177 C 
HETATM   17  N7  UNL     1       4.590  -1.210   0.672  1.00  0.00    -0.347 N 
ATOM     18  H7  UNL     1       4.797  -1.106   1.665  1.00  0.00     0.163 HD
ENDROOT
BRANCH  12  19
HETATM   19  C12 UNL     1      -1.040  -2.208  -1.531  1.00  0.00     0.086 C 
BRANCH  19  20
HETATM   20  C13 UNL     1      -1.619  -0.876  -2.065  1.00  0.00     0.243 C 
BRANCH  20  21
HETATM   21  N3  UNL     1      -2.455  -0.031  -1.068  1.00  0.00    -0.062 N 
HETATM   22  C14 UNL     1      -2.990   1.251  -1.842  1.00  0.00     0.265 C 
HETATM   23  C15 UNL     1      -3.754   2.206  -0.881  1.00  0.00     0.265 C 
HETATM   24  N4  UNL     1      -3.912   1.558   0.527  1.00  0.00    -0.060 N 
HETATM   25  C18 UNL     1      -4.625   0.194   0.350  1.00  0.00     0.265 C 
HETATM   26  C20 UNL     1      -2.503   1.304   1.118  1.00  0.00     0.265 C 
HETATM   27  C19 UNL     1      -3.749  -0.770  -0.529  1.00  0.00     0.265 C 
HETATM   28  C21 UNL     1      -1.624   0.481   0.132  1.00  0.00     0.265 C 
BRANCH  24  29
HETATM   29  C16 UNL     1      -4.741   2.550   1.415  1.00  0.00     0.263 C 
BRANCH  29  30
HETATM   30  C17 UNL     1      -4.866   2.166   2.902  1.00  0.00     0.192 C 
BRANCH  30  31
HETATM   31  O1  UNL     1      -3.582   2.064   3.511  1.00  0.00    -0.399 OA
ATOM     32  H1  UNL     1      -3.659   1.827   4.428  1.00  0.00     0.209 HD
ENDBRANCH  30  31
ENDBRANCH  29  30
ENDBRANCH  24  29
ENDBRANCH  20  21
ENDBRANCH  19  20
ENDBRANCH  12  19
BRANCH   1  33
HETATM   33  C3  UNL     1       4.954   1.182   0.386  1.00  0.00     0.076 C 
BRANCH  33  34
HETATM   34  C2  UNL     1       3.708   2.046   0.605  1.00  0.00     0.003 C 
HETATM   35  C1  UNL     1       2.673   1.395   1.515  1.00  0.00     0.005 C 
ENDBRANCH  33  34
ENDBRANCH   1  33
TORSDOF 8
