REMARK  11 active torsions:
REMARK  status: ('A' for Active; 'I' for Inactive)
REMARK    1  A    between atoms: C3_3  and  C4_4 
REMARK    2  A    between atoms: C4_4  and  C5_5 
REMARK    3  A    between atoms: C5_5  and  C6_6 
REMARK    4  A    between atoms: C6_6  and  C7_7 
REMARK    5  A    between atoms: C7_7  and  N1_8 
REMARK    6  A    between atoms: C10_11  and  C11_12 
REMARK    7  A    between atoms: C11_12  and  C12_13 
REMARK    8  A    between atoms: C14_15  and  C15_16 
REMARK    9  A    between atoms: C16_17  and  C17_18 
REMARK   10  A    between atoms: C22_31  and  C23_32 
REMARK   11  A    between atoms: C23_32  and  O3_33 
ROOT
HETATM    1  C1  UNL     1       3.083   2.657  -3.752  1.00  0.00     0.012 C 
HETATM    2  C2  UNL     1       3.165   1.702  -3.030  1.00  0.00    -0.117 C 
HETATM    3  C3  UNL     1       3.253   0.543  -2.135  1.00  0.00     0.093 C 
ENDROOT
BRANCH   3   4
HETATM    4  C4  UNL     1       4.696   0.260  -1.700  1.00  0.00     0.012 C 
BRANCH   4   5
HETATM    5  C5  UNL     1       4.764  -0.798  -0.594  1.00  0.00     0.002 C 
BRANCH   5   6
HETATM    6  C6  UNL     1       4.465  -0.203   0.788  1.00  0.00     0.020 C 
BRANCH   6   7
HETATM    7  C7  UNL     1       4.112  -1.257   1.840  1.00  0.00     0.128 C 
BRANCH   7   8
HETATM    8  N1  UNL     1       2.769  -1.833   1.555  1.00  0.00    -0.365 N 
HETATM    9  C8  UNL     1       2.660  -3.122   1.162  1.00  0.00     0.091 A 
HETATM   10  C9  UNL     1       1.423  -3.644   0.798  1.00  0.00     0.026 A 
HETATM   11  C10 UNL     1       0.276  -2.841   0.834  1.00  0.00    -0.037 A 
HETATM   12  C14 UNL     1       0.406  -1.521   1.288  1.00  0.00     0.039 A 
HETATM   13  C24 UNL     1       1.668  -1.052   1.666  1.00  0.00     0.111 A 
BRANCH  11  14
HETATM   14  C11 UNL     1      -1.038  -3.419   0.362  1.00  0.00     0.040 C 
BRANCH  14  15
HETATM   15  C12 UNL     1      -2.010  -3.721   1.504  1.00  0.00     0.000 C 
HETATM   16  C13 UNL     1      -3.425  -3.910   0.976  1.00  0.00     0.005 C 
ENDBRANCH  14  15
ENDBRANCH  11  14
BRANCH  12  17
HETATM   17  C15 UNL     1      -0.705  -0.610   1.324  1.00  0.00    -0.061 C 
HETATM   18  C16 UNL     1      -1.572   0.228   1.306  1.00  0.00    -0.045 C 
BRANCH  18  19
HETATM   19  C17 UNL     1      -2.490   1.392   1.230  1.00  0.00     0.258 C 
HETATM   20  C18 UNL     1      -3.181   1.568   2.594  1.00  0.00     0.080 C 
HETATM   21  N2  UNL     1      -3.537   1.096   0.198  1.00  0.00    -0.019 N 
HETATM   22  C19 UNL     1      -3.449   2.090  -0.900  1.00  0.00     0.305 C 
ATOM     23  H22 UNL     1      -3.478   0.137  -0.145  1.00  0.00     0.283 HD
ATOM     24  H21 UNL     1      -4.473   1.050   0.601  1.00  0.00     0.283 HD
HETATM   25  N3  UNL     1      -3.661   3.301  -0.183  1.00  0.00    -0.318 N 
HETATM   26  C22 UNL     1      -2.057   1.983  -1.528  1.00  0.00     0.146 C 
HETATM   27  C20 UNL     1      -2.596   3.634   0.634  1.00  0.00     0.308 C 
ATOM     28  H3  UNL     1      -4.508   3.863  -0.263  1.00  0.00     0.165 HD
HETATM   29  O1  UNL     1      -2.411   4.755   1.064  1.00  0.00    -0.253 OA
HETATM   30  N4  UNL     1      -1.755   2.560   0.809  1.00  0.00    -0.123 NA
HETATM   31  C21 UNL     1      -1.105   2.349  -0.395  1.00  0.00     0.220 C 
HETATM   32  O2  UNL     1       0.112   2.367  -0.519  1.00  0.00    -0.278 OA
BRANCH  26  33
HETATM   33  C23 UNL     1      -1.837   2.869  -2.747  1.00  0.00     0.181 C 
BRANCH  33  34
HETATM   34  O3  UNL     1      -2.586   4.067  -2.617  1.00  0.00    -0.400 OA
ATOM     35  H3  UNL     1      -2.449   4.620  -3.377  1.00  0.00     0.209 HD
ENDBRANCH  33  34
ENDBRANCH  26  33
ENDBRANCH  18  19
ENDBRANCH  12  17
ENDBRANCH   7   8
ENDBRANCH   6   7
ENDBRANCH   5   6
ENDBRANCH   4   5
ENDBRANCH   3   4
TORSDOF 11
