REMARK  3 active torsions:
REMARK  status: ('A' for Active; 'I' for Inactive)
REMARK    1  A    between atoms: C3_3  and  C4_4 
REMARK    2  A    between atoms: C8_8  and  C9_9 
REMARK    3  A    between atoms: N4_22  and  O1_23 
ROOT
HETATM    1  C1  UNL     1      -0.233   4.217   3.646  1.00  0.00     0.112 C 
HETATM    2  C2  UNL     1       0.067   3.284   2.563  1.00  0.00    -0.110 C 
HETATM    3  C3  UNL     1       0.348   2.531   1.669  1.00  0.00    -0.093 C 
ENDROOT
BRANCH   3   4
HETATM    4  C4  UNL     1       0.728   1.646   0.542  1.00  0.00     0.146 C 
HETATM    5  C5  UNL     1       2.063   0.978   0.877  1.00  0.00     0.178 C 
HETATM    6  C6  UNL     1       2.060  -0.363   1.069  1.00  0.00     0.035 C 
HETATM    7  N4  UNL     1       3.101   1.439  -0.051  1.00  0.00    -0.175 N 
HETATM    8  C7  UNL     1       2.080  -1.023  -0.248  1.00  0.00     0.051 C 
HETATM    9  C8  UNL     1       0.909  -1.137  -0.939  1.00  0.00    -0.018 C 
HETATM   10  N2  UNL     1       3.341  -0.947  -0.834  1.00  0.00    -0.282 N 
HETATM   11  C11 UNL     1      -0.342  -0.591  -0.431  1.00  0.00     0.004 A 
HETATM   12  C12 UNL     1      -0.408   0.649   0.213  1.00  0.00     0.039 A 
HETATM   13  C15 UNL     1      -1.658  -1.148  -0.442  1.00  0.00    -0.027 A 
HETATM   14  N1  UNL     1      -1.721   0.863   0.542  1.00  0.00    -0.361 N 
HETATM   15  C13 UNL     1      -2.487  -0.222   0.183  1.00  0.00     0.012 A 
ATOM     16  H1  UNL     1      -2.079   1.707   0.989  1.00  0.00     0.165 HD
HETATM   17  C14 UNL     1      -3.939  -0.249   0.488  1.00  0.00     0.068 C 
HETATM   18  C16 UNL     1      -2.059  -2.473  -0.987  1.00  0.00     0.051 C 
HETATM   19  N3  UNL     1       3.785   0.529  -1.008  1.00  0.00     0.002 NA
ATOM     20  H2  UNL     1       3.899  -1.755  -1.112  1.00  0.00     0.184 HD
BRANCH   9  21
HETATM   21  C9  UNL     1       0.893  -1.490  -2.411  1.00  0.00     0.037 C 
HETATM   22  C10 UNL     1       1.147  -2.969  -2.676  1.00  0.00     0.010 C 
ENDBRANCH   9  21
BRANCH   7  23
HETATM   23  O1  UNL     1       3.390   2.623  -0.017  1.00  0.00    -0.273 OA
ATOM     24  H1  UNL     1       4.062   2.922  -0.618  1.00  0.00     0.246 HD
ENDBRANCH   7  23
ENDBRANCH   3   4
TORSDOF 3
