REMARK  3 active torsions:
REMARK  status: ('A' for Active; 'I' for Inactive)
REMARK    1  A    between atoms: C2_2  and  N1_5 
REMARK       I    between atoms: N1_5  and  C5_7 
REMARK    2  A    between atoms: C5_7  and  C6_9 
REMARK    3  A    between atoms: C9_13  and  C14_18 
ROOT
HETATM    1  C6  UNL     1       0.198   1.685   0.277  1.00  0.00     0.106 C 
HETATM    2  C7  UNL     1       0.061   2.131  -1.196  1.00  0.00     0.060 C 
HETATM    3  C8  UNL     1       0.839   1.088  -1.935  1.00  0.00     0.060 C 
HETATM    4  N2  UNL     1       1.639   0.485  -1.141  1.00  0.00    -0.382 N 
HETATM    5  C9  UNL     1       2.370  -0.795  -1.374  1.00  0.00     0.089 C 
HETATM    6  C10 UNL     1       1.466  -1.861  -0.731  1.00  0.00     0.031 C 
HETATM    7  C11 UNL     1       1.675  -1.682   0.780  1.00  0.00    -0.002 C 
HETATM    8  C12 UNL     1       3.159  -1.937   1.177  1.00  0.00    -0.005 C 
HETATM    9  C13 UNL     1       4.142  -2.158  -0.002  1.00  0.00     0.012 C 
HETATM   10  C14 UNL     1       3.684  -0.768  -0.554  1.00  0.00     0.014 C 
HETATM   11  C15 UNL     1       3.405  -0.435   0.966  1.00  0.00     0.002 C 
HETATM   12  C16 UNL     1       1.898  -0.155   1.204  1.00  0.00     0.019 C 
HETATM   13  C17 UNL     1       1.560   0.992   0.257  1.00  0.00     0.102 C 
ENDROOT
BRANCH   1  14
HETATM   14  C5  UNL     1      -0.978   0.792   0.620  1.00  0.00     0.224 C 
HETATM   15  N1  UNL     1      -2.217   1.395   0.667  1.00  0.00    -0.353 N 
ATOM     16  H1  UNL     1      -2.293   2.382   0.911  1.00  0.00     0.163 HD
HETATM   17  O1  UNL     1      -0.823  -0.425   0.707  1.00  0.00    -0.273 OA
BRANCH  15  18
HETATM   18  C2  UNL     1      -3.439   0.612   0.364  1.00  0.00     0.022 C 
HETATM   19  C1  UNL     1      -3.657  -0.553   1.344  1.00  0.00     0.037 C 
HETATM   20  C3  UNL     1      -4.681   1.513   0.438  1.00  0.00     0.037 C 
HETATM   21  C4  UNL     1      -3.314   0.095  -1.083  1.00  0.00     0.037 C 
ENDBRANCH  15  18
ENDBRANCH   1  14
TORSDOF 3
