REMARK  13 active torsions:
REMARK  status: ('A' for Active; 'I' for Inactive)
REMARK    1  A    between atoms: N1_1  and  N2_4 
REMARK    2  A    between atoms: N2_4  and  C1_5 
REMARK    3  A    between atoms: C1_5  and  C2_6 
REMARK    4  A    between atoms: C2_6  and  C3_7 
REMARK    5  A    between atoms: C3_7  and  C4_8 
REMARK    6  A    between atoms: C4_8  and  C5_9 
REMARK    7  A    between atoms: C5_9  and  C6_10 
REMARK    8  A    between atoms: C6_10  and  C7_11 
REMARK    9  A    between atoms: C7_11  and  C8_12 
REMARK   10  A    between atoms: C8_12  and  C9_13 
REMARK   11  A    between atoms: C9_13  and  C10_14 
REMARK   12  A    between atoms: C13_17  and  C14_18 
REMARK   13  A    between atoms: C17_21  and  O1_22 
ROOT
HETATM    1  C10 UNL     1       1.758  -0.111  -0.501  1.00  0.00    -0.025 C 
HETATM    2  C11 UNL     1       2.772  -0.170  -1.681  1.00  0.00     0.000 C 
HETATM    3  C12 UNL     1       3.767   0.991  -1.698  1.00  0.00     0.011 C 
HETATM    4  C13 UNL     1       4.317   0.434  -0.372  1.00  0.00    -0.005 C 
HETATM    5  C14 UNL     1       3.612   0.914   0.896  1.00  0.00    -0.002 C 
HETATM    6  C15 UNL     1       3.868  -0.226   1.912  1.00  0.00     0.013 C 
HETATM    7  C16 UNL     1       2.592  -1.041   1.676  1.00  0.00     0.020 C 
HETATM    8  C17 UNL     1       1.583   0.082   1.910  1.00  0.00     0.128 C 
HETATM    9  C18 UNL     1       2.041   0.875   0.676  1.00  0.00     0.028 C 
HETATM   10  C19 UNL     1       2.482  -1.350   0.140  1.00  0.00     0.006 C 
HETATM   11  C20 UNL     1       3.716  -0.955  -0.762  1.00  0.00     0.000 C 
ENDROOT
BRANCH   1  12
HETATM   12  C9  UNL     1       0.307  -0.076  -0.992  1.00  0.00     0.011 C 
BRANCH  12  13
HETATM   13  C8  UNL     1      -0.082  -1.248  -1.898  1.00  0.00     0.001 C 
BRANCH  13  14
HETATM   14  C7  UNL     1      -1.603  -1.377  -2.025  1.00  0.00     0.000 C 
BRANCH  14  15
HETATM   15  C6  UNL     1      -2.246  -2.065  -0.808  1.00  0.00     0.000 C 
BRANCH  15  16
HETATM   16  C5  UNL     1      -3.594  -1.445  -0.429  1.00  0.00     0.000 C 
BRANCH  16  17
HETATM   17  C4  UNL     1      -3.417  -0.135   0.345  1.00  0.00     0.000 C 
BRANCH  17  18
HETATM   18  C3  UNL     1      -4.728   0.644   0.459  1.00  0.00     0.006 C 
BRANCH  18  19
HETATM   19  C2  UNL     1      -4.547   1.953   1.226  1.00  0.00     0.061 C 
BRANCH  19  20
HETATM   20  C1  UNL     1      -3.707   2.919   0.445  1.00  0.00     0.181 C 
BRANCH  20  21
HETATM   21  N2  UNL     1      -2.547   3.301   0.937  1.00  0.00    -0.350 NA
BRANCH  21  22
HETATM   22  N1  UNL     1      -1.540   3.634   1.362  1.00  0.00    -0.281 N 
ATOM     23  H12 UNL     1      -2.418   3.406   0.896  1.00  0.00     0.191 HD
ATOM     24  H11 UNL     1      -0.641   3.930   1.743  1.00  0.00     0.191 HD
ENDBRANCH  21  22
ENDBRANCH  20  21
ENDBRANCH  19  20
ENDBRANCH  18  19
ENDBRANCH  17  18
ENDBRANCH  16  17
ENDBRANCH  15  16
ENDBRANCH  14  15
ENDBRANCH  13  14
ENDBRANCH  12  13
ENDBRANCH   1  12
BRANCH   8  25
HETATM   25  O1  UNL     1       0.250  -0.358   1.932  1.00  0.00    -0.395 OA
ATOM     26  H1  UNL     1      -0.377   0.340   2.078  1.00  0.00     0.210 HD
ENDBRANCH   8  25
TORSDOF 13
