REMARK  9 active torsions:
REMARK  status: ('A' for Active; 'I' for Inactive)
REMARK    1  A    between atoms: C3_3  and  O1_4 
REMARK    2  A    between atoms: C7_11  and  C8_12 
REMARK    3  A    between atoms: C11_16  and  O5_17 
REMARK    4  A    between atoms: C11_16  and  C12_19 
REMARK    5  A    between atoms: C15_22  and  O6_23 
REMARK    6  A    between atoms: C16_25  and  O7_26 
REMARK    7  A    between atoms: C17_28  and  C18_29 
REMARK    8  A    between atoms: C22_33  and  O8_34 
REMARK    9  A    between atoms: C23_36  and  O9_37 
ROOT
HETATM    1  C1  UNL     1      -4.066   0.381  -2.881  1.00  0.00     0.020 C 
HETATM    2  C2  UNL     1      -3.800  -0.321  -1.767  1.00  0.00    -0.024 C 
HETATM    3  C3  UNL     1      -4.836  -0.769  -0.763  1.00  0.00     0.290 C 
HETATM    4  O2  UNL     1      -4.116  -1.183   0.400  1.00  0.00    -0.327 OA
HETATM    5  C4  UNL     1      -2.833  -0.543   0.303  1.00  0.00     0.275 C 
HETATM    6  O3  UNL     1      -1.894  -1.195   1.122  1.00  0.00    -0.346 OA
HETATM    7  C5  UNL     1      -0.714  -0.481   1.566  1.00  0.00     0.098 C 
HETATM    8  C6  UNL     1      -0.966  -0.175   3.057  1.00  0.00     0.050 C 
HETATM    9  C7  UNL     1       0.495  -1.468   1.464  1.00  0.00     0.188 C 
HETATM   10  O4  UNL     1       0.947  -1.563   0.116  1.00  0.00    -0.339 OA
HETATM   11  C11 UNL     1       2.216  -1.010  -0.181  1.00  0.00     0.200 C 
HETATM   12  C15 UNL     1       2.147   0.557  -0.320  1.00  0.00     0.151 C 
HETATM   13  C16 UNL     1       2.062   1.295   1.093  1.00  0.00     0.169 C 
HETATM   14  C17 UNL     1       0.711   1.923   0.721  1.00  0.00     0.014 C 
HETATM   15  C21 UNL     1      -0.506   0.881   0.828  1.00  0.00     0.073 C 
HETATM   16  C22 UNL     1      -0.620   0.990  -0.735  1.00  0.00     0.103 C 
HETATM   17  C23 UNL     1      -1.087  -0.203  -1.567  1.00  0.00     0.167 C 
HETATM   18  C24 UNL     1      -2.480  -0.727  -1.171  1.00  0.00     0.106 C 
HETATM   19  C25 UNL     1       0.894   1.475  -0.782  1.00  0.00     0.040 C 
HETATM   20  C26 UNL     1       1.212   2.448  -1.905  1.00  0.00     0.023 C 
ENDROOT
BRANCH  11  21
HETATM   21  O5  UNL     1       3.157  -1.304   0.856  1.00  0.00    -0.363 OA
ATOM     22  H5  UNL     1       4.009  -0.933   0.657  1.00  0.00     0.213 HD
ENDBRANCH  11  21
BRANCH  11  23
HETATM   23  C12 UNL     1       2.756  -1.713  -1.484  1.00  0.00     0.043 C 
HETATM   24  C13 UNL     1       1.923  -1.457  -2.741  1.00  0.00     0.015 C 
HETATM   25  C14 UNL     1       2.878  -3.245  -1.332  1.00  0.00     0.015 C 
ENDBRANCH  11  23
BRANCH  12  26
HETATM   26  O6  UNL     1       3.409   0.981  -0.972  1.00  0.00    -0.381 OA
ATOM     27  H6  UNL     1       3.367   1.926  -1.056  1.00  0.00     0.211 HD
ENDBRANCH  12  26
BRANCH   9  28
HETATM   28  C8  UNL     1       0.238  -2.915   1.901  1.00  0.00    -0.061 C 
HETATM   29  C9  UNL     1       0.831  -3.439   2.988  1.00  0.00     0.016 C 
HETATM   30  C10 UNL     1      -0.657  -3.771   1.042  1.00  0.00     0.045 C 
ENDBRANCH   9  28
BRANCH  13  31
HETATM   31  O7  UNL     1       3.156   2.211   1.343  1.00  0.00    -0.391 OA
ATOM     32  H7  UNL     1       3.105   2.650   2.184  1.00  0.00     0.210 HD
ENDBRANCH  13  31
BRANCH  14  33
HETATM   33  C18 UNL     1       0.333   3.345   1.189  1.00  0.00    -0.010 C 
HETATM   34  C19 UNL     1       1.188   4.475   0.614  1.00  0.00     0.010 C 
HETATM   35  C20 UNL     1       0.353   3.419   2.719  1.00  0.00     0.010 C 
ENDBRANCH  14  33
BRANCH  16  36
HETATM   36  O8  UNL     1      -1.546   2.071  -1.087  1.00  0.00    -0.386 OA
ATOM     37  H8  UNL     1      -1.615   2.137  -2.032  1.00  0.00     0.210 HD
ENDBRANCH  16  36
BRANCH  17  38
HETATM   38  O9  UNL     1      -1.014   0.153  -2.958  1.00  0.00    -0.392 OA
ATOM     39  H9  UNL     1      -1.304  -0.589  -3.475  1.00  0.00     0.210 HD
ENDBRANCH  17  38
BRANCH   3  40
HETATM   40  O1  UNL     1      -5.676   0.306  -0.414  1.00  0.00    -0.367 OA
ATOM     41  H1  UNL     1      -6.328   0.024   0.217  1.00  0.00     0.213 HD
ENDBRANCH   3  40
TORSDOF 9
