REMARK  5 active torsions:
REMARK  status: ('A' for Active; 'I' for Inactive)
REMARK    1  A    between atoms: C16_18  and  C17_19 
REMARK    2  A    between atoms: C17_19  and  C18_20 
REMARK    3  A    between atoms: C18_20  and  C19_21 
REMARK    4  A    between atoms: C19_21  and  C20_22 
REMARK    5  A    between atoms: C20_22  and  O1_24 
ROOT
HETATM    1  C1  UNL     1      -4.685   0.118   0.259  1.00  0.00     0.045 C 
HETATM    2  C2  UNL     1      -3.260   0.120  -0.208  1.00  0.00    -0.060 C 
HETATM    3  C3  UNL     1      -2.204   0.366   0.590  1.00  0.00     0.016 C 
HETATM    4  N1  UNL     1      -1.078   0.860   0.004  1.00  0.00    -0.382 N 
ATOM      5  H1  UNL     1      -1.009   1.869  -0.125  1.00  0.00     0.160 HD
HETATM    6  C4  UNL     1       0.046   0.026  -0.455  1.00  0.00     0.037 C 
HETATM    7  C5  UNL     1      -0.367  -0.216  -1.899  1.00  0.00     0.037 C 
HETATM    8  C6  UNL     1      -1.570  -1.256  -1.632  1.00  0.00    -0.003 C 
HETATM    9  C7  UNL     1      -2.958  -0.537  -1.549  1.00  0.00     0.041 C 
HETATM   10  C8  UNL     1      -1.112  -2.101  -0.336  1.00  0.00     0.001 C 
HETATM   11  C9  UNL     1       0.236  -1.479  -0.125  1.00  0.00     0.037 C 
HETATM   12  C10 UNL     1      -1.788  -2.056   1.110  1.00  0.00    -0.031 C 
HETATM   13  C11 UNL     1      -3.194  -2.712   1.018  1.00  0.00     0.016 C 
HETATM   14  C12 UNL     1      -1.048  -2.990   2.118  1.00  0.00     0.016 C 
HETATM   15  C13 UNL     1      -1.824  -0.570   1.712  1.00  0.00     0.066 C 
HETATM   16  C14 UNL     1      -0.525   0.041   2.463  1.00  0.00    -0.019 C 
HETATM   17  C15 UNL     1       0.912   0.449   1.844  1.00  0.00    -0.023 C 
HETATM   18  C16 UNL     1       1.193   0.690   0.276  1.00  0.00     0.036 C 
ENDROOT
BRANCH  18  19
HETATM   19  C17 UNL     1       1.374   2.188  -0.049  1.00  0.00     0.011 C 
BRANCH  19  20
HETATM   20  C18 UNL     1       2.776   2.714   0.297  1.00  0.00     0.003 C 
BRANCH  20  21
HETATM   21  C19 UNL     1       3.601   3.072  -0.945  1.00  0.00     0.031 C 
BRANCH  21  22
HETATM   22  C20 UNL     1       3.941   1.900  -1.869  1.00  0.00     0.114 C 
HETATM   23  C21 UNL     1       4.926   0.917  -1.253  1.00  0.00     0.039 C 
BRANCH  22  24
HETATM   24  O1  UNL     1       4.527   2.448  -3.051  1.00  0.00    -0.396 OA
ATOM     25  H1  UNL     1       4.738   1.721  -3.624  1.00  0.00     0.210 HD
ENDBRANCH  22  24
ENDBRANCH  21  22
ENDBRANCH  20  21
ENDBRANCH  19  20
ENDBRANCH  18  19
TORSDOF 5
