REMARK  2 active torsions:
REMARK  status: ('A' for Active; 'I' for Inactive)
REMARK    1  A    between atoms: C7_9  and  C8_10 
REMARK    2  A    between atoms: C10_14  and  O4_15 
ROOT
HETATM    1  C1  UNL     1      -2.565  -1.402  -0.774  1.00  0.00     0.062 C 
HETATM    2  C2  UNL     1      -1.883  -0.032  -0.935  1.00  0.00     0.141 C 
HETATM    3 BR1  UNL     1      -3.188   0.958  -2.099  1.00  0.00    -0.052 Br
HETATM    4  O1  UNL     1      -0.650  -0.187  -1.727  1.00  0.00    -0.360 OA
HETATM    5  C3  UNL     1       0.663   0.100  -1.114  1.00  0.00     0.140 C 
HETATM    6  C4  UNL     1       1.093  -1.020  -0.096  1.00  0.00    -0.007 C 
HETATM    7  C5  UNL     1       2.604  -1.088   0.192  1.00  0.00     0.018 C 
HETATM    8  C6  UNL     1       0.746  -2.420  -0.644  1.00  0.00     0.018 C 
HETATM    9  C7  UNL     1       0.304  -0.497   1.101  1.00  0.00     0.104 C 
HETATM   10  C9  UNL     1      -0.259   0.710   0.793  1.00  0.00     0.043 C 
HETATM   11  C10 UNL     1      -1.743   0.679   0.482  1.00  0.00     0.169 C 
HETATM   12  C11 UNL     1       0.567   1.405  -0.295  1.00  0.00    -0.014 C 
HETATM   13  C12 UNL     1       0.001   2.577  -1.117  1.00  0.00     0.018 C 
HETATM   14  C13 UNL     1       1.861   1.977   0.338  1.00  0.00     0.018 C 
ENDROOT
BRANCH   9  15
HETATM   15  C8  UNL     1      -0.208  -1.378   2.164  1.00  0.00     0.178 C 
HETATM   16  O2  UNL     1      -0.386  -2.575   2.052  1.00  0.00    -0.648 OA
HETATM   17  O3  UNL     1      -0.438  -0.689   3.300  1.00  0.00    -0.648 OA
ENDBRANCH   9  15
BRANCH  11  18
HETATM   18  O4  UNL     1      -2.225   2.013   0.556  1.00  0.00    -0.391 OA
ATOM     19  H4  UNL     1      -2.141   2.437   1.402  1.00  0.00     0.210 HD
ENDBRANCH  11  18
TORSDOF 2
