REMARK  2 active torsions:
REMARK  status: ('A' for Active; 'I' for Inactive)
REMARK    1  A    between atoms: C4_6  and  O3_7 
REMARK    2  A    between atoms: C10_14  and  O4_16 
ROOT
HETATM    1  C1  UNL     1      -4.097   0.385   1.180  1.00  0.00     0.042 C 
HETATM    2  C2  UNL     1      -2.628   0.399   0.756  1.00  0.00     0.155 C 
HETATM    3  O1  UNL     1      -1.909  -0.228   1.825  1.00  0.00    -0.352 OA
HETATM    4  C3  UNL     1      -0.499  -0.321   1.627  1.00  0.00     0.280 C 
HETATM    5  O2  UNL     1       0.118   0.950   1.601  1.00  0.00    -0.323 OA
HETATM    6  C4  UNL     1       1.527   0.875   1.407  1.00  0.00     0.173 C 
HETATM    7  C5  UNL     1       1.920   2.325   1.058  1.00  0.00     0.069 C 
HETATM    8  C6  UNL     1       1.777   2.438  -0.468  1.00  0.00     0.011 C 
HETATM    9  C7  UNL     1       1.401   1.029  -0.972  1.00  0.00     0.000 C 
HETATM   10  C8  UNL     1      -0.149   0.913  -1.208  1.00  0.00     0.014 C 
HETATM   11  C9  UNL     1      -0.852  -0.459  -0.892  1.00  0.00     0.043 C 
HETATM   12  C10 UNL     1      -2.373  -0.307  -0.613  1.00  0.00     0.085 C 
HETATM   13  C11 UNL     1      -3.082   0.427  -1.760  1.00  0.00     0.049 C 
HETATM   14  C12 UNL     1      -0.182  -1.091   0.331  1.00  0.00     0.074 C 
HETATM   15  C13 UNL     1      -0.080  -2.595   0.644  1.00  0.00     0.087 C 
HETATM   16  F1  UNL     1      -0.954  -3.531   0.906  1.00  0.00    -0.214 F 
HETATM   17  C14 UNL     1       1.244  -2.434   0.946  1.00  0.00     0.078 C 
HETATM   18  C15 UNL     1       1.321  -1.291  -0.076  1.00  0.00    -0.007 C 
HETATM   19  C16 UNL     1       1.710  -1.919  -1.457  1.00  0.00     0.018 C 
HETATM   20  C17 UNL     1       1.967   0.085   0.139  1.00  0.00     0.025 C 
HETATM   21  C18 UNL     1       3.504  -0.054   0.071  1.00  0.00     0.022 C 
ENDROOT
BRANCH  12  22
HETATM   22  O4  UNL     1      -2.931  -1.630  -0.572  1.00  0.00    -0.387 OA
ATOM     23  H4  UNL     1      -2.776  -2.060  -1.405  1.00  0.00     0.210 HD
ENDBRANCH  12  22
BRANCH   6  24
HETATM   24  O3  UNL     1       2.190   0.494   2.591  1.00  0.00    -0.364 OA
ATOM     25  H3  UNL     1       3.130   0.444   2.462  1.00  0.00     0.213 HD
ENDBRANCH   6  24
TORSDOF 2
