REMARK  19 active torsions:
REMARK  status: ('A' for Active; 'I' for Inactive)
REMARK    1  A    between atoms: C2_2  and  O2_4 
REMARK    2  A    between atoms: O2_4  and  C3_5 
REMARK    3  A    between atoms: C11_13  and  C12_14 
REMARK    4  A    between atoms: C12_14  and  C13_15 
REMARK       I    between atoms: C13_15  and  N1_16 
REMARK    5  A    between atoms: C17_24  and  C18_25 
REMARK    6  A    between atoms: C18_25  and  C19_26 
REMARK    7  A    between atoms: C19_26  and  C20_27 
REMARK    8  A    between atoms: C19_26  and  C28_45 
REMARK    9  A    between atoms: C20_27  and  N2_28 
REMARK   10  A    between atoms: N2_28  and  C21_31 
REMARK   11  A    between atoms: C21_31  and  C22_32 
REMARK   12  A    between atoms: C22_32  and  C23_33 
REMARK   13  A    between atoms: C23_33  and  C24_34 
REMARK   14  A    between atoms: C24_34  and  N3_35 
REMARK   15  A    between atoms: N3_35  and  C25_38 
REMARK   16  A    between atoms: C25_38  and  C26_39 
REMARK   17  A    between atoms: C26_39  and  C27_40 
REMARK   18  A    between atoms: C27_40  and  N4_41 
REMARK   19  A    between atoms: C34_51  and  O5_52 
ROOT
HETATM    1  C3  UNL     1       1.662   1.796  -0.094  1.00  0.00     0.172 C 
HETATM    2  C4  UNL     1       2.864   2.595  -0.616  1.00  0.00     0.028 C 
HETATM    3  C5  UNL     1       2.850   3.421  -1.882  1.00  0.00     0.009 C 
HETATM    4  C6  UNL     1       4.070   2.987  -2.250  1.00  0.00     0.011 C 
HETATM    5  C7  UNL     1       4.023   1.764  -1.280  1.00  0.00    -0.024 C 
HETATM    6  C8  UNL     1       5.291   1.535  -0.451  1.00  0.00    -0.007 C 
HETATM    7  C9  UNL     1       5.959   2.842   0.015  1.00  0.00     0.011 C 
HETATM    8  C10 UNL     1       5.052   0.630   0.775  1.00  0.00     0.037 C 
HETATM    9  C11 UNL     1       3.712   0.797   1.543  1.00  0.00     0.132 C 
HETATM   10  O4  UNL     1       2.523   0.156   1.008  1.00  0.00    -0.370 OA
HETATM   11  C14 UNL     1       1.771   0.209  -0.351  1.00  0.00     0.103 C 
HETATM   12  C15 UNL     1       2.744  -1.107  -0.506  1.00  0.00     0.059 C 
HETATM   13  C16 UNL     1       2.103  -2.453  -0.098  1.00  0.00     0.015 C 
HETATM   14  C17 UNL     1       1.076  -3.228  -0.913  1.00  0.00    -0.014 C 
HETATM   15  C31 UNL     1       1.482  -3.328  -2.378  1.00  0.00     0.005 C 
HETATM   16  C32 UNL     1       1.287  -2.047  -3.151  1.00  0.00     0.009 C 
HETATM   17  C33 UNL     1       2.313  -0.967  -2.846  1.00  0.00     0.033 C 
HETATM   18  C34 UNL     1       3.454  -0.928  -1.825  1.00  0.00     0.074 C 
HETATM   19  C35 UNL     1       3.513   0.603  -2.210  1.00  0.00     0.042 C 
HETATM   20  C36 UNL     1       1.986   0.366  -1.985  1.00  0.00     0.004 C 
HETATM   21  C37 UNL     1       0.867   1.029  -2.796  1.00  0.00     0.019 C 
ENDROOT
BRANCH  14  22
HETATM   22  C18 UNL     1      -0.385  -2.776  -0.754  1.00  0.00     0.011 C 
BRANCH  22  23
HETATM   23  C19 UNL     1      -1.152  -3.001   0.590  1.00  0.00     0.015 C 
BRANCH  23  24
HETATM   24  C20 UNL     1      -2.622  -2.573   0.281  1.00  0.00     0.237 C 
BRANCH  24  25
HETATM   25  N2  UNL     1      -3.403  -2.067   1.408  1.00  0.00    -0.075 N 
ATOM     26  H22 UNL     1      -4.403  -2.201   1.257  1.00  0.00     0.277 HD
ATOM     27  H21 UNL     1      -3.286  -2.654   2.234  1.00  0.00     0.277 HD
BRANCH  25  28
HETATM   28  C21 UNL     1      -3.091  -0.665   1.700  1.00  0.00     0.232 C 
BRANCH  28  29
HETATM   29  C22 UNL     1      -4.101  -0.057   2.676  1.00  0.00     0.029 C 
BRANCH  29  30
HETATM   30  C23 UNL     1      -5.567  -0.128   2.221  1.00  0.00     0.029 C 
BRANCH  30  31
HETATM   31  C24 UNL     1      -5.880   0.588   0.903  1.00  0.00     0.232 C 
BRANCH  31  32
HETATM   32  N3  UNL     1      -5.790   2.047   1.052  1.00  0.00    -0.075 N 
ATOM     33  H32 UNL     1      -6.393   2.381   1.804  1.00  0.00     0.277 HD
ATOM     34  H31 UNL     1      -4.887   2.326   1.436  1.00  0.00     0.277 HD
BRANCH  32  35
HETATM   35  C25 UNL     1      -6.073   2.743  -0.211  1.00  0.00     0.233 C 
BRANCH  35  36
HETATM   36  C26 UNL     1      -4.809   2.894  -1.059  1.00  0.00     0.055 C 
BRANCH  36  37
HETATM   37  C27 UNL     1      -5.088   3.594  -2.386  1.00  0.00     0.231 C 
BRANCH  37  38
HETATM   38  N4  UNL     1      -3.838   3.821  -3.110  1.00  0.00    -0.079 N 
ATOM     39  H43 UNL     1      -3.158   4.331  -2.546  1.00  0.00     0.274 HD
ATOM     40  H42 UNL     1      -3.310   2.958  -3.238  1.00  0.00     0.274 HD
ATOM     41  H41 UNL     1      -4.024   4.289  -3.997  1.00  0.00     0.274 HD
ENDBRANCH  37  38
ENDBRANCH  36  37
ENDBRANCH  35  36
ENDBRANCH  32  35
ENDBRANCH  31  32
ENDBRANCH  30  31
ENDBRANCH  29  30
ENDBRANCH  28  29
ENDBRANCH  25  28
ENDBRANCH  24  25
ENDBRANCH  23  24
BRANCH  23  42
HETATM   42  C28 UNL     1      -1.001  -4.459   1.154  1.00  0.00    -0.017 C 
HETATM   43  C29 UNL     1      -2.228  -5.050   1.863  1.00  0.00     0.010 C 
HETATM   44  C30 UNL     1       0.167  -4.556   2.149  1.00  0.00     0.010 C 
ENDBRANCH  23  42
ENDBRANCH  22  23
ENDBRANCH  14  22
BRANCH  18  45
HETATM   45  O5  UNL     1       4.616  -1.734  -2.039  1.00  0.00    -0.388 OA
ATOM     46  H5  UNL     1       5.063  -1.621  -2.870  1.00  0.00     0.210 HD
ENDBRANCH  18  45
BRANCH   1  47
HETATM   47  O2  UNL     1       0.423   2.428  -0.475  1.00  0.00    -0.313 OA
BRANCH  47  48
HETATM   48  C2  UNL     1      -0.585   2.238   0.421  1.00  0.00     0.255 C 
HETATM   49  C1  UNL     1      -1.528   3.396   0.377  1.00  0.00     0.126 C 
HETATM   50  O1  UNL     1      -0.642   1.318   1.224  1.00  0.00    -0.266 OA
ENDBRANCH  47  48
ENDBRANCH   1  47
BRANCH   9  51
HETATM   51  C12 UNL     1       3.863   0.153   2.942  1.00  0.00     0.134 C 
BRANCH  51  52
HETATM   52  C13 UNL     1       2.770   0.603   3.890  1.00  0.00     0.217 C 
HETATM   53  N1  UNL     1       1.520   0.138   3.614  1.00  0.00    -0.370 N 
ATOM     54  H12 UNL     1       1.345  -0.464   2.809  1.00  0.00     0.159 HD
ATOM     55  H11 UNL     1       0.784   0.441   4.252  1.00  0.00     0.159 HD
HETATM   56  O3  UNL     1       2.980   1.327   4.858  1.00  0.00    -0.274 OA
ENDBRANCH  51  52
ENDBRANCH   9  51
TORSDOF 19
