REMARK  5 active torsions:
REMARK  status: ('A' for Active; 'I' for Inactive)
REMARK    1  A    between atoms: C2_2  and  C3_3 
REMARK    2  A    between atoms: C3_3  and  O1_4 
REMARK    3  A    between atoms: O1_4  and  C4_5 
REMARK       I    between atoms: C4_5  and  N1_7 
REMARK    4  A    between atoms: N1_7  and  O3_9 
REMARK    5  A    between atoms: O3_9  and  C5_10 
ROOT
HETATM    1  C5  UNL     1       0.520  -1.236  -0.548  1.00  0.00     0.165 C 
HETATM    2  C6  UNL     1       1.564  -2.373  -0.239  1.00  0.00     0.063 C 
HETATM    3  C7  UNL     1       2.715  -2.155   0.816  1.00  0.00    -0.013 C 
HETATM    4  C8  UNL     1       3.641  -0.862   0.899  1.00  0.00     0.056 C 
HETATM    5  N2  UNL     1       3.321   0.432   0.215  1.00  0.00    -0.288 NA
HETATM    6  C9  UNL     1       2.572   0.100  -0.964  1.00  0.00     0.107 C 
HETATM    7  C10 UNL     1       1.181   0.090  -0.293  1.00  0.00     0.004 C 
HETATM    8  C11 UNL     1       1.179   0.285   1.330  1.00  0.00     0.033 C 
HETATM    9  C12 UNL     1       2.291   1.257   0.948  1.00  0.00     0.064 C 
HETATM   10  C13 UNL     1       1.173   1.671  -0.163  1.00  0.00     0.033 C 
ENDROOT
BRANCH   1  11
HETATM   11  O3  UNL     1      -0.627  -1.427   0.297  1.00  0.00    -0.269 OA
BRANCH  11  12
HETATM   12  N1  UNL     1      -1.823  -1.139  -0.393  1.00  0.00    -0.210 N 
HETATM   13  C4  UNL     1      -2.821  -0.491   0.281  1.00  0.00     0.384 C 
HETATM   14  O2  UNL     1      -2.859  -0.270   1.480  1.00  0.00    -0.236 OA
ATOM     15  H1  UNL     1      -1.941  -1.407  -1.370  1.00  0.00     0.200 HD
BRANCH  13  16
HETATM   16  O1  UNL     1      -3.762  -0.102  -0.619  1.00  0.00    -0.299 OA
BRANCH  16  17
HETATM   17  C3  UNL     1      -4.816   0.737  -0.126  1.00  0.00     0.207 C 
BRANCH  17  18
HETATM   18  C2  UNL     1      -4.585   2.171  -0.529  1.00  0.00    -0.011 C 
HETATM   19  C1  UNL     1      -3.686   2.604  -1.429  1.00  0.00     0.009 C 
ENDBRANCH  17  18
ENDBRANCH  16  17
ENDBRANCH  13  16
ENDBRANCH  11  12
ENDBRANCH   1  11
TORSDOF 5
