REMARK  6 active torsions:
REMARK  status: ('A' for Active; 'I' for Inactive)
REMARK    1  A    between atoms: C2_2  and  C3_3 
REMARK    2  A    between atoms: C3_3  and  N1_4 
REMARK    3  A    between atoms: N1_4  and  C4_5 
REMARK       I    between atoms: N1_4  and  C6_7 
REMARK       I    between atoms: C6_7  and  N2_9 
REMARK    4  A    between atoms: C9_15  and  N4_16 
REMARK       I    between atoms: N4_16  and  C10_18 
REMARK    5  A    between atoms: C10_18  and  C11_20 
REMARK    6  A    between atoms: C14_23  and  O3_24 
ROOT
HETATM    1  N1  UNL     1      -2.252  -0.796  -0.659  1.00  0.00    -0.334 N 
HETATM    2  C6  UNL     1      -1.985  -2.139  -0.377  1.00  0.00     0.332 C 
HETATM    3  O1  UNL     1      -2.405  -3.055  -1.091  1.00  0.00    -0.246 OA
HETATM    4  N2  UNL     1      -1.107  -2.396   0.658  1.00  0.00    -0.231 N 
HETATM    5  C7  UNL     1      -1.351  -3.264   1.684  1.00  0.00     0.096 A 
HETATM    6  C8  UNL     1      -2.740  -3.777   1.935  1.00  0.00     0.090 C 
HETATM    7  N3  UNL     1      -0.372  -3.621   2.458  1.00  0.00    -0.313 N 
ATOM      8  H3  UNL     1      -0.443  -4.235   3.269  1.00  0.00     0.175 HD
HETATM    9  S1  UNL     1       1.036  -2.893   1.890  1.00  0.00     0.025 SA
HETATM   10  C9  UNL     1       0.225  -2.090   0.560  1.00  0.00     0.179 A 
ENDROOT
BRANCH  10  11
HETATM   11  N4  UNL     1       0.726  -1.326  -0.350  1.00  0.00    -0.305 N 
HETATM   12  C10 UNL     1       2.083  -1.151  -0.379  1.00  0.00     0.233 C 
HETATM   13  O2  UNL     1       2.859  -2.046  -0.693  1.00  0.00    -0.272 OA
ATOM     14  H4  UNL     1       0.125  -0.863  -1.032  1.00  0.00     0.171 HD
BRANCH  12  15
HETATM   15  C11 UNL     1       2.516   0.307  -0.013  1.00  0.00     0.048 C 
HETATM   16  C12 UNL     1       2.999   0.447   1.441  1.00  0.00     0.023 C 
HETATM   17  C13 UNL     1       4.468   0.843   1.351  1.00  0.00     0.039 C 
HETATM   18  C14 UNL     1       4.603   1.635   0.057  1.00  0.00     0.063 A 
HETATM   19  C15 UNL     1       3.759   2.928  -0.106  1.00  0.00     0.043 A 
HETATM   20  C18 UNL     1       3.644   0.921  -0.897  1.00  0.00     0.042 A 
HETATM   21  C16 UNL     1       2.836   2.197  -1.091  1.00  0.00    -0.002 A 
HETATM   22  C17 UNL     1       1.618   1.497  -0.481  1.00  0.00     0.025 C 
BRANCH  18  23
HETATM   23  O3  UNL     1       5.982   1.724  -0.335  1.00  0.00    -0.389 OA
ATOM     24  H3  UNL     1       6.066   2.218  -1.142  1.00  0.00     0.210 HD
ENDBRANCH  18  23
ENDBRANCH  12  15
ENDBRANCH  10  11
BRANCH   1  25
HETATM   25  C3  UNL     1      -2.079   0.299   0.306  1.00  0.00     0.127 C 
BRANCH  25  26
HETATM   26  C2  UNL     1      -3.376   1.039   0.650  1.00  0.00     0.015 C 
HETATM   27  C1  UNL     1      -3.599   2.305  -0.170  1.00  0.00     0.006 C 
ENDBRANCH  25  26
ENDBRANCH   1  25
BRANCH   1  28
HETATM   28  C4  UNL     1      -2.653  -0.465  -2.026  1.00  0.00     0.123 C 
HETATM   29  C5  UNL     1      -4.132  -0.678  -2.298  1.00  0.00     0.026 C 
ENDBRANCH   1  28
TORSDOF 6
