REMARK  4 active torsions:
REMARK  status: ('A' for Active; 'I' for Inactive)
REMARK    1  A    between atoms: C2_2  and  O2_7 
REMARK    2  A    between atoms: N1_3  and  O1_5 
REMARK    3  A    between atoms: O2_7  and  C3_8 
REMARK    4  A    between atoms: C3_8  and  C4_9 
ROOT
HETATM    1  C4  UNL     1       0.713  -0.393   0.324  1.00  0.00    -0.014 A 
HETATM    2  C5  UNL     1       1.573  -1.654   0.443  1.00  0.00     0.012 C 
HETATM    3  C6  UNL     1       2.592  -1.600  -0.693  1.00  0.00     0.006 C 
HETATM    4  C7  UNL     1       1.978  -0.718  -1.775  1.00  0.00    -0.009 C 
HETATM    5  C8  UNL     1       2.514   0.732  -1.864  1.00  0.00     0.010 C 
HETATM    6  C9  UNL     1       1.329   1.218  -1.018  1.00  0.00    -0.008 A 
HETATM    7  C10 UNL     1       1.467   0.964   0.492  1.00  0.00     0.017 A 
HETATM    8  C11 UNL     1       0.673  -0.148  -1.192  1.00  0.00     0.004 A 
ENDROOT
BRANCH   1   9
HETATM    9  C3  UNL     1      -0.624  -0.505   1.050  1.00  0.00     0.187 C 
BRANCH   9  10
HETATM   10  O2  UNL     1      -1.468   0.599   0.670  1.00  0.00    -0.337 OA
BRANCH  10  11
HETATM   11  C2  UNL     1      -2.776   0.529   1.033  1.00  0.00     0.133 C 
HETATM   12  C1  UNL     1      -3.575   1.625   0.399  1.00  0.00     0.099 C 
HETATM   13  N1  UNL     1      -3.236  -0.400   1.810  1.00  0.00    -0.251 N 
ATOM     14  H1  UNL     1      -2.671  -1.142   2.222  1.00  0.00     0.196 HD
BRANCH  13  15
HETATM   15  O1  UNL     1      -4.616  -0.247   2.008  1.00  0.00    -0.288 OA
ATOM     16  H1  UNL     1      -4.953  -0.928   2.578  1.00  0.00     0.244 HD
ENDBRANCH  13  15
ENDBRANCH  10  11
ENDBRANCH   9  10
ENDBRANCH   1   9
TORSDOF 4
