REMARK  7 active torsions:
REMARK  status: ('A' for Active; 'I' for Inactive)
REMARK    1  A    between atoms: C2_2  and  C3_3 
REMARK    2  A    between atoms: C4_4  and  C5_5 
REMARK    3  A    between atoms: C5_5  and  C7_7 
REMARK    4  A    between atoms: C7_7  and  C8_8 
REMARK    5  A    between atoms: C8_8  and  C9_9 
REMARK    6  A    between atoms: C9_9  and  C11_11 
REMARK    7  A    between atoms: C11_11  and  O1_12 
ROOT
HETATM    1  C11 UNL     1       0.955   1.873   0.489  1.00  0.00     0.069 C 
HETATM    2  C12 UNL     1       0.706   3.344   0.045  1.00  0.00     0.040 C 
HETATM    3  C13 UNL     1      -0.329   3.346  -1.073  1.00  0.00     0.020 C 
HETATM    4  C14 UNL     1      -0.988   1.921  -1.046  1.00  0.00     0.043 C 
HETATM    5  C15 UNL     1      -1.730   1.601  -2.370  1.00  0.00     0.166 C 
HETATM    6  O2  UNL     1      -2.762   2.587  -2.047  1.00  0.00    -0.357 OA
HETATM    7  C16 UNL     1      -2.540   2.273  -0.631  1.00  0.00     0.238 C 
HETATM    8  N1  UNL     1      -3.554   1.315  -0.062  1.00  0.00    -0.319 N 
HETATM    9  C17 UNL     1      -4.363   1.849   0.946  1.00  0.00     0.222 C 
HETATM   10  O3  UNL     1      -5.133   2.790   0.789  1.00  0.00    -0.273 OA
HETATM   11  C18 UNL     1      -4.051   1.272   2.302  1.00  0.00     0.103 C 
HETATM   12  C19 UNL     1      -4.089  -0.245   2.364  1.00  0.00     0.014 C 
HETATM   13  C20 UNL     1      -3.301  -1.039   1.310  1.00  0.00    -0.005 C 
HETATM   14  C21 UNL     1      -1.903  -0.515   0.953  1.00  0.00     0.043 C 
HETATM   15  C22 UNL     1      -1.321  -0.973  -0.448  1.00  0.00     0.062 C 
HETATM   16  C23 UNL     1      -1.704  -2.454  -0.452  1.00  0.00     0.038 C 
HETATM   17  C24 UNL     1      -3.262  -2.464  -0.684  1.00  0.00     0.010 C 
HETATM   18  C25 UNL     1      -4.016  -1.239  -0.019  1.00  0.00     0.013 C 
HETATM   19  C26 UNL     1      -4.154   0.160  -0.784  1.00  0.00     0.096 C 
HETATM   20  C27 UNL     1      -3.823   0.124  -2.260  1.00  0.00     0.060 C 
HETATM   21  C28 UNL     1      -2.336   0.214  -2.517  1.00  0.00     0.154 C 
HETATM   22  O4  UNL     1      -1.610  -0.763  -1.831  1.00  0.00    -0.372 OA
HETATM   23  C29 UNL     1       0.116  -0.511  -0.384  1.00  0.00     0.051 C 
HETATM   24  C30 UNL     1       0.313   1.027  -0.687  1.00  0.00     0.004 C 
HETATM   25  C31 UNL     1       1.268   1.059  -1.931  1.00  0.00     0.019 C 
ENDROOT
BRANCH   1  26
HETATM   26  C9  UNL     1       2.485   1.689   0.860  1.00  0.00     0.017 C 
HETATM   27  C10 UNL     1       2.913   2.724   1.933  1.00  0.00     0.013 C 
BRANCH  26  28
HETATM   28  C8  UNL     1       2.941   0.291   1.382  1.00  0.00     0.008 C 
BRANCH  28  29
HETATM   29  C7  UNL     1       3.989  -0.369   0.464  1.00  0.00     0.008 C 
BRANCH  29  30
HETATM   30  C5  UNL     1       4.295  -1.849   0.792  1.00  0.00     0.004 C 
HETATM   31  C6  UNL     1       4.915  -2.015   2.183  1.00  0.00     0.014 C 
BRANCH  30  32
HETATM   32  C4  UNL     1       5.263  -2.417  -0.233  1.00  0.00    -0.023 C 
HETATM   33  C3  UNL     1       5.083  -3.426  -1.103  1.00  0.00    -0.004 C 
BRANCH  33  34
HETATM   34  C2  UNL     1       3.902  -4.228  -1.318  1.00  0.00    -0.011 C 
HETATM   35  C1  UNL     1       2.679  -3.742  -1.556  1.00  0.00     0.011 C 
ENDBRANCH  33  34
ENDBRANCH  30  32
ENDBRANCH  29  30
ENDBRANCH  28  29
ENDBRANCH  26  28
ENDBRANCH   1  26
BRANCH   1  36
HETATM   36  O1  UNL     1       0.174   1.637   1.665  1.00  0.00    -0.389 OA
ATOM     37  H1  UNL     1      -0.743   1.747   1.443  1.00  0.00     0.210 HD
ENDBRANCH   1  36
TORSDOF 7
