REMARK  12 active torsions:
REMARK  status: ('A' for Active; 'I' for Inactive)
REMARK    1  A    between atoms: C2_2  and  C3_3 
REMARK    2  A    between atoms: C3_3  and  C4_4 
REMARK    3  A    between atoms: C4_4  and  C5_5 
REMARK    4  A    between atoms: C5_5  and  C6_6 
REMARK    5  A    between atoms: C6_6  and  C7_7 
REMARK    6  A    between atoms: C7_7  and  C8_8 
REMARK    7  A    between atoms: C8_8  and  O1_9 
REMARK    8  A    between atoms: C8_8  and  C9_11 
REMARK    9  A    between atoms: C11_14  and  C12_15 
REMARK   10  A    between atoms: C12_15  and  C13_16 
REMARK   11  A    between atoms: C13_16  and  C14_17 
REMARK   12  A    between atoms: C24_28  and  O4_29 
ROOT
HETATM    1  C9  UNL     1       2.989   1.894  -0.346  1.00  0.00     0.069 C 
HETATM    2  C10 UNL     1       2.508   3.286  -0.746  1.00  0.00     0.178 C 
HETATM    3  O2  UNL     1       1.479   3.633   0.182  1.00  0.00    -0.383 OA
HETATM    4  C11 UNL     1       0.730   2.421   0.383  1.00  0.00     0.150 C 
HETATM    5  C24 UNL     1       1.778   1.293   0.378  1.00  0.00     0.155 C 
ENDROOT
BRANCH   4   6
HETATM    6  C12 UNL     1      -0.120   2.575   1.645  1.00  0.00     0.035 C 
BRANCH   6   7
HETATM    7  C13 UNL     1      -1.201   1.492   1.788  1.00  0.00     0.009 C 
BRANCH   7   8
HETATM    8  C14 UNL     1      -2.582   2.006   1.309  1.00  0.00     0.003 C 
HETATM    9  C15 UNL     1      -2.749   2.596  -0.103  1.00  0.00     0.020 C 
HETATM   10  C16 UNL     1      -4.196   2.899   0.468  1.00  0.00     0.020 C 
HETATM   11  C21 UNL     1      -2.786   1.562  -1.262  1.00  0.00     0.126 C 
HETATM   12  C17 UNL     1      -4.172   1.322   0.907  1.00  0.00    -0.009 C 
HETATM   13  C18 UNL     1      -3.658  -0.061   1.329  1.00  0.00     0.017 C 
HETATM   14  C22 UNL     1      -4.863   0.863  -0.515  1.00  0.00     0.131 C 
HETATM   15  C19 UNL     1      -3.281  -0.712  -0.019  1.00  0.00    -0.009 C 
HETATM   16  C20 UNL     1      -2.296   0.119  -0.925  1.00  0.00     0.037 C 
HETATM   17  C23 UNL     1      -4.647  -0.635  -0.673  1.00  0.00     0.037 C 
HETATM   18  O3  UNL     1      -4.167   1.460  -1.627  1.00  0.00    -0.379 OA
ENDBRANCH   7   8
ENDBRANCH   6   7
ENDBRANCH   4   6
BRANCH   5  19
HETATM   19  O4  UNL     1       2.205   0.920   1.693  1.00  0.00    -0.392 OA
ATOM     20  H4  UNL     1       1.455   0.548   2.141  1.00  0.00     0.210 HD
ENDBRANCH   5  19
BRANCH   1  21
HETATM   21  C8  UNL     1       3.510   1.116  -1.567  1.00  0.00     0.126 C 
BRANCH  21  22
HETATM   22  C7  UNL     1       4.495  -0.022  -1.230  1.00  0.00     0.032 C 
BRANCH  22  23
HETATM   23  C6  UNL     1       3.982  -1.211  -0.411  1.00  0.00     0.002 C 
BRANCH  23  24
HETATM   24  C5  UNL     1       3.202  -2.247  -1.224  1.00  0.00     0.000 C 
BRANCH  24  25
HETATM   25  C4  UNL     1       2.704  -3.419  -0.367  1.00  0.00     0.000 C 
BRANCH  25  26
HETATM   26  C3  UNL     1       1.485  -3.047   0.485  1.00  0.00    -0.000 C 
BRANCH  26  27
HETATM   27  C2  UNL     1       0.935  -4.217   1.304  1.00  0.00    -0.005 C 
HETATM   28  C1  UNL     1       0.276  -5.289   0.449  1.00  0.00     0.005 C 
ENDBRANCH  26  27
ENDBRANCH  25  26
ENDBRANCH  24  25
ENDBRANCH  23  24
ENDBRANCH  22  23
ENDBRANCH  21  22
BRANCH  21  29
HETATM   29  O1  UNL     1       2.424   0.652  -2.363  1.00  0.00    -0.395 OA
ATOM     30  H1  UNL     1       1.817   1.353  -2.571  1.00  0.00     0.210 HD
ENDBRANCH  21  29
ENDBRANCH   1  21
TORSDOF 12
