REMARK  10 active torsions:
REMARK  status: ('A' for Active; 'I' for Inactive)
REMARK    1  A    between atoms: C2_2  and  C3_3 
REMARK    2  A    between atoms: C3_3  and  C4_4 
REMARK    3  A    between atoms: C4_4  and  C5_5 
REMARK    4  A    between atoms: C5_5  and  C6_6 
REMARK    5  A    between atoms: C7_7  and  O1_8 
REMARK    6  A    between atoms: C12_14  and  C13_15 
REMARK       I    between atoms: C13_15  and  N1_16 
REMARK    7  A    between atoms: N2_21  and  C15_22 
REMARK    8  A    between atoms: C15_22  and  C16_23 
REMARK    9  A    between atoms: C16_23  and  C17_24 
REMARK   10  A    between atoms: C17_24  and  N3_25 
ROOT
HETATM    1  C6  UNL     1      -0.689   0.606   1.894  1.00  0.00     0.109 C 
HETATM    2  C7  UNL     1      -0.420  -0.853   2.295  1.00  0.00     0.151 C 
HETATM    3  C8  UNL     1       0.761  -1.303   1.465  1.00  0.00     0.013 A 
HETATM    4  C9  UNL     1       1.860  -2.257   1.962  1.00  0.00     0.015 A 
HETATM    5  C10 UNL     1       1.788  -3.032   0.640  1.00  0.00     0.007 A 
HETATM    6  C11 UNL     1       0.603  -2.161   0.203  1.00  0.00     0.014 A 
HETATM    7  C12 UNL     1       0.982  -0.961  -0.683  1.00  0.00     0.106 A 
HETATM    8  C14 UNL     1       1.247  -0.136   0.595  1.00  0.00     0.104 A 
HETATM    9  N2  UNL     1       0.234   0.913   0.785  1.00  0.00    -0.400 N 
ENDROOT
BRANCH   9  10
HETATM   10  C15 UNL     1       0.573   2.320   0.465  1.00  0.00     0.119 C 
BRANCH  10  11
HETATM   11  C16 UNL     1       0.648   2.537  -1.043  1.00  0.00     0.046 C 
BRANCH  11  12
HETATM   12  C17 UNL     1       1.467   3.782  -1.389  1.00  0.00     0.231 C 
BRANCH  12  13
HETATM   13  N3  UNL     1       1.530   3.976  -2.834  1.00  0.00    -0.079 N 
ATOM     14  H33 UNL     1       1.884   3.147  -3.311  1.00  0.00     0.274 HD
ATOM     15  H32 UNL     1       0.600   4.008  -3.251  1.00  0.00     0.274 HD
ATOM     16  H31 UNL     1       2.076   4.806  -3.065  1.00  0.00     0.274 HD
ENDBRANCH  12  13
ENDBRANCH  11  12
ENDBRANCH  10  11
ENDBRANCH   9  10
BRANCH   1  17
HETATM   17  C5  UNL     1      -2.146   0.910   1.534  1.00  0.00     0.028 C 
BRANCH  17  18
HETATM   18  C4  UNL     1      -2.577   0.479   0.133  1.00  0.00     0.006 C 
BRANCH  18  19
HETATM   19  C3  UNL     1      -3.134  -0.941   0.060  1.00  0.00     0.026 C 
BRANCH  19  20
HETATM   20  C2  UNL     1      -3.667  -1.236  -1.314  1.00  0.00    -0.037 C 
HETATM   21  C1  UNL     1      -3.175  -2.176  -2.124  1.00  0.00     0.007 C 
ENDBRANCH  19  20
ENDBRANCH  18  19
ENDBRANCH  17  18
ENDBRANCH   1  17
BRANCH   2  22
HETATM   22  O1  UNL     1      -0.038  -0.878   3.668  1.00  0.00    -0.393 OA
ATOM     23  H1  UNL     1       0.128  -1.780   3.916  1.00  0.00     0.210 HD
ENDBRANCH   2  22
BRANCH   7  24
HETATM   24  C13 UNL     1       2.065  -1.167  -1.768  1.00  0.00     0.222 C 
HETATM   25  N1  UNL     1       3.322  -0.688  -1.519  1.00  0.00    -0.370 N 
ATOM     26  H12 UNL     1       3.484  -0.207  -0.634  1.00  0.00     0.159 HD
ATOM     27  H11 UNL     1       4.036  -0.824  -2.234  1.00  0.00     0.159 HD
HETATM   28  O2  UNL     1       1.869  -1.748  -2.838  1.00  0.00    -0.273 OA
ENDBRANCH   7  24
TORSDOF 10
