REMARK  5 active torsions:
REMARK  status: ('A' for Active; 'I' for Inactive)
REMARK    1  A    between atoms: C6_6  and  O1_7 
REMARK    2  A    between atoms: C8_10  and  O2_11 
REMARK    3  A    between atoms: C9_13  and  O3_14 
REMARK    4  A    between atoms: C16_22  and  O4_24 
REMARK    5  A    between atoms: C18_26  and  O5_28 
ROOT
HETATM    1  C1  UNL     1      -2.996  -1.674   1.282  1.00  0.00     0.011 C 
HETATM    2  C2  UNL     1      -2.162  -0.442   0.935  1.00  0.00     0.005 C 
HETATM    3  C3  UNL     1      -2.840   0.497  -0.333  1.00  0.00    -0.012 C 
HETATM    4  C4  UNL     1      -3.720  -0.212  -1.380  1.00  0.00     0.018 C 
HETATM    5  C5  UNL     1      -3.738   1.633   0.223  1.00  0.00     0.018 C 
HETATM    6  C6  UNL     1      -1.446   0.821  -0.843  1.00  0.00     0.072 C 
HETATM    7  C7  UNL     1      -0.256   2.016  -1.540  1.00  0.00     0.080 C 
HETATM    8  C8  UNL     1       1.554   1.592  -1.111  1.00  0.00     0.098 C 
HETATM    9  C9  UNL     1       1.139   1.443   0.234  1.00  0.00     0.163 C 
HETATM   10  C10 UNL     1       0.517   0.024  -0.713  1.00  0.00     0.001 C 
HETATM   11  C11 UNL     1       0.126   0.068  -2.610  1.00  0.00     0.019 C 
HETATM   12  C12 UNL     1       1.534  -1.016  -1.218  1.00  0.00     0.012 C 
HETATM   13  C13 UNL     1       0.343  -1.947  -1.164  1.00  0.00     0.015 C 
HETATM   14  C14 UNL     1      -0.940  -1.058  -0.811  1.00  0.00     0.034 C 
HETATM   15  C15 UNL     1      -0.486  -0.710   0.494  1.00  0.00     0.016 C 
HETATM   16  C16 UNL     1       0.626  -1.117   1.540  1.00  0.00     0.119 C 
HETATM   17  C17 UNL     1       0.408  -0.322   2.851  1.00  0.00     0.052 C 
HETATM   18  C18 UNL     1       2.251  -0.818   0.975  1.00  0.00     0.098 C 
HETATM   19  C19 UNL     1       3.213  -0.296   2.065  1.00  0.00     0.050 C 
HETATM   20  C20 UNL     1       2.382  -0.011  -0.576  1.00  0.00     0.028 C 
HETATM   21  C21 UNL     1       3.830   0.025  -1.070  1.00  0.00     0.022 C 
ENDROOT
BRANCH  16  22
HETATM   22  O4  UNL     1       0.593  -2.548   1.762  1.00  0.00    -0.269 OA
HETATM   23 CL1  UNL     1      -0.245  -3.171   3.064  1.00  0.00     0.062 Cl
ENDBRANCH  16  22
BRANCH  18  24
HETATM   24  O5  UNL     1       2.845  -2.136   0.700  1.00  0.00    -0.386 OA
ATOM     25  H5  UNL     1       3.729  -1.973   0.393  1.00  0.00     0.210 HD
ENDBRANCH  18  24
BRANCH   9  26
HETATM   26  O3  UNL     1       0.603   2.687   0.675  1.00  0.00    -0.392 OA
ATOM     27  H3  UNL     1       0.324   2.587   1.578  1.00  0.00     0.210 HD
ENDBRANCH   9  26
BRANCH   6  28
HETATM   28  O1  UNL     1      -1.263   1.522   0.512  1.00  0.00    -0.389 OA
ATOM     29  H1  UNL     1      -0.391   1.725   0.193  1.00  0.00     0.210 HD
ENDBRANCH   6  28
BRANCH   8  30
HETATM   30  O2  UNL     1       2.427   2.682  -1.294  1.00  0.00    -0.386 OA
ATOM     31  H2  UNL     1       3.328   2.471  -1.080  1.00  0.00     0.210 HD
ENDBRANCH   8  30
TORSDOF 5
