REMARK  2 active torsions:
REMARK  status: ('A' for Active; 'I' for Inactive)
REMARK    1  A    between atoms: N1_1  and  C1_4 
REMARK    2  A    between atoms: C2_7  and  C3_8 
ROOT
HETATM    1  C3  UNL     1       0.021  -0.041  -0.265  1.00  0.00     0.101 C 
HETATM    2  C4  UNL     1      -0.435  -0.546   1.081  1.00  0.00    -0.006 C 
HETATM    3  N3  UNL     1      -0.917   0.244   1.985  1.00  0.00    -0.395 N 
ATOM      4  H3  UNL     1      -1.018  -0.073   2.949  1.00  0.00     0.159 HD
HETATM    5  C5  UNL     1      -1.327   1.638   1.593  1.00  0.00     0.125 C 
HETATM    6  C6  UNL     1      -1.506   1.907   0.071  1.00  0.00     0.072 C 
HETATM    7  C7  UNL     1      -1.317   0.566  -0.573  1.00  0.00    -0.005 C 
HETATM    8  N4  UNL     1      -2.369  -0.107  -0.875  1.00  0.00    -0.396 N 
ATOM      9  H4  UNL     1      -3.185   0.419  -1.187  1.00  0.00     0.159 HD
HETATM   10  C8  UNL     1      -2.500  -1.581  -0.809  1.00  0.00     0.119 C 
HETATM   11  C9  UNL     1      -1.381  -2.457  -0.195  1.00  0.00     0.025 C 
HETATM   12  C10 UNL     1      -0.715  -2.026   1.141  1.00  0.00     0.054 C 
ENDROOT
BRANCH   1  13
HETATM   13  C2  UNL     1       1.266   0.831  -0.168  1.00  0.00     0.124 C 
HETATM   14  N2  UNL     1       2.457   0.058   0.169  1.00  0.00    -0.349 N 
HETATM   15  C1  UNL     1       3.508   0.487  -0.580  1.00  0.00     0.213 C 
ATOM     16  H2  UNL     1       2.495  -0.690   0.861  1.00  0.00     0.163 HD
HETATM   17  O1  UNL     1       3.115   1.363  -1.538  1.00  0.00    -0.320 OA
HETATM   18  C11 UNL     1       1.685   1.419  -1.518  1.00  0.00     0.205 C 
BRANCH  15  19
HETATM   19  N1  UNL     1       4.730   0.166  -0.434  1.00  0.00    -0.365 N 
ATOM     20  H12 UNL     1       5.026  -0.493   0.286  1.00  0.00     0.159 HD
ATOM     21  H11 UNL     1       5.518   0.488  -0.996  1.00  0.00     0.159 HD
ENDBRANCH  15  19
ENDBRANCH   1  13
TORSDOF 2
