REMARK  18 active torsions:
REMARK  status: ('A' for Active; 'I' for Inactive)
REMARK    1  A    between atoms: C2_2  and  O1_3 
REMARK    2  A    between atoms: C3_6  and  C4_7 
REMARK    3  A    between atoms: C4_7  and  N1_8 
REMARK    4  A    between atoms: C4_7  and  C5_12 
REMARK    5  A    between atoms: C5_12  and  O3_13 
REMARK    6  A    between atoms: C5_12  and  C6_15 
REMARK    7  A    between atoms: C7_17  and  C8_18 
REMARK    8  A    between atoms: N2_19  and  C9_21 
REMARK    9  A    between atoms: C9_21  and  O5_22 
REMARK   10  A    between atoms: C9_21  and  C10_24 
REMARK   11  A    between atoms: C10_24  and  O6_25 
REMARK   12  A    between atoms: C10_24  and  C11_27 
REMARK   13  A    between atoms: C11_27  and  O7_28 
REMARK   14  A    between atoms: C11_27  and  C12_30 
REMARK   15  A    between atoms: C12_30  and  O8_31 
REMARK   16  A    between atoms: C12_30  and  C13_33 
REMARK   17  A    between atoms: C13_33  and  O9_34 
REMARK   18  A    between atoms: C17_45  and  O11_46 
ROOT
HETATM    1  C6  UNL     1      -0.120   2.082   1.700  1.00  0.00     0.212 C 
HETATM    2  O4  UNL     1      -0.021   1.477   0.419  1.00  0.00    -0.338 OA
HETATM    3  C7  UNL     1       0.780   2.251  -0.495  1.00  0.00     0.200 C 
HETATM    4  N3  UNL     1      -0.122   3.167  -1.200  1.00  0.00    -0.318 N 
ATOM      5  H3  UNL     1      -0.083   3.194  -2.219  1.00  0.00     0.166 HD
HETATM    6  C14 UNL     1      -1.019   3.993  -0.561  1.00  0.00     0.220 C 
HETATM    7  N4  UNL     1      -1.974   4.588  -1.188  1.00  0.00    -0.365 N 
ATOM      8  H41 UNL     1      -2.639   5.200  -0.715  1.00  0.00     0.159 HD
ATOM      9  H42 UNL     1      -2.020   4.423  -2.194  1.00  0.00     0.159 HD
HETATM   10  O10 UNL     1      -0.956   4.217   0.807  1.00  0.00    -0.282 OA
HETATM   11  C15 UNL     1       0.098   3.581   1.518  1.00  0.00     0.087 C 
HETATM   12  C16 UNL     1       1.338   3.993   1.159  1.00  0.00     0.045 C 
HETATM   13  C17 UNL     1       1.982   2.996   0.214  1.00  0.00     0.205 C 
ENDROOT
BRANCH   3  14
HETATM   14  C8  UNL     1       1.195   1.063  -1.328  1.00  0.00     0.121 C 
HETATM   15  N2  UNL     1       2.271   0.383  -1.066  1.00  0.00    -0.370 N 
ATOM     16  H2  UNL     1       3.095   0.737  -0.580  1.00  0.00     0.161 HD
BRANCH  15  17
HETATM   17  C9  UNL     1       2.101  -0.994  -1.592  1.00  0.00     0.248 C 
BRANCH  17  18
HETATM   18  O5  UNL     1       2.159  -1.117  -3.005  1.00  0.00    -0.374 OA
ATOM     19  H5  UNL     1       2.050  -1.999  -3.342  1.00  0.00     0.212 HD
ENDBRANCH  17  18
BRANCH  17  20
HETATM   20  C10 UNL     1       3.160  -1.911  -0.900  1.00  0.00     0.197 C 
BRANCH  20  21
HETATM   21  O6  UNL     1       3.497  -1.362   0.388  1.00  0.00    -0.389 OA
ATOM     22  H6  UNL     1       4.141  -1.920   0.809  1.00  0.00     0.210 HD
ENDBRANCH  20  21
BRANCH  20  23
HETATM   23  C11 UNL     1       2.587  -3.319  -0.685  1.00  0.00     0.181 C 
BRANCH  23  24
HETATM   24  O7  UNL     1       1.810  -3.740  -1.823  1.00  0.00    -0.390 OA
ATOM     25  H7  UNL     1       1.455  -4.611  -1.690  1.00  0.00     0.210 HD
ENDBRANCH  23  24
BRANCH  23  26
HETATM   26  C12 UNL     1       3.617  -4.426  -0.404  1.00  0.00     0.173 C 
BRANCH  26  27
HETATM   27  O8  UNL     1       2.877  -5.593   0.016  1.00  0.00    -0.391 OA
ATOM     28  H8  UNL     1       3.513  -6.277   0.190  1.00  0.00     0.210 HD
ENDBRANCH  26  27
BRANCH  26  29
HETATM   29  C13 UNL     1       4.707  -4.106   0.619  1.00  0.00     0.198 C 
BRANCH  29  30
HETATM   30  O9  UNL     1       5.753  -3.356   0.010  1.00  0.00    -0.398 OA
ATOM     31  H9  UNL     1       6.430  -3.157   0.646  1.00  0.00     0.209 HD
ENDBRANCH  29  30
ENDBRANCH  26  29
ENDBRANCH  23  26
ENDBRANCH  20  23
ENDBRANCH  17  20
ENDBRANCH  15  17
ENDBRANCH   3  14
BRANCH  13  32
HETATM   32  O11 UNL     1       2.795   3.725  -0.702  1.00  0.00    -0.386 OA
ATOM     33  H11 UNL     1       3.517   4.172  -0.276  1.00  0.00     0.210 HD
ENDBRANCH  13  32
BRANCH   1  34
HETATM   34  C5  UNL     1      -1.380   1.596   2.486  1.00  0.00     0.187 C 
BRANCH  34  35
HETATM   35  C4  UNL     1      -2.207   0.412   1.891  1.00  0.00     0.254 C 
BRANCH  35  36
HETATM   36  C3  UNL     1      -3.149   0.833   0.707  1.00  0.00     0.228 C 
HETATM   37  O2  UNL     1      -4.352   0.039   0.840  1.00  0.00    -0.330 OA
HETATM   38  C2  UNL     1      -5.153   0.271  -0.317  1.00  0.00     0.233 C 
HETATM   39  C1  UNL     1      -6.082  -0.928  -0.461  1.00  0.00     0.089 C 
HETATM   40  C18 UNL     1      -4.225   0.378  -1.546  1.00  0.00     0.250 C 
HETATM   41  S1  UNL     1      -2.561   0.565  -1.012  1.00  0.00    -0.052 SA
HETATM   42  O12 UNL     1      -4.556   0.377  -2.721  1.00  0.00    -0.279 OA
BRANCH  38  43
HETATM   43  O1  UNL     1      -5.904   1.455  -0.121  1.00  0.00    -0.359 OA
ATOM     44  H1  UNL     1      -5.325   2.203  -0.031  1.00  0.00     0.213 HD
ENDBRANCH  38  43
ENDBRANCH  35  36
BRANCH  35  45
HETATM   45  N1  UNL     1      -1.432  -0.837   1.662  1.00  0.00    -0.069 N 
ATOM     46  H13 UNL     1      -2.061  -1.603   1.422  1.00  0.00     0.275 HD
ATOM     47  H12 UNL     1      -0.899  -0.767   0.795  1.00  0.00     0.275 HD
ATOM     48  H11 UNL     1      -0.820  -1.110   2.431  1.00  0.00     0.275 HD
ENDBRANCH  35  45
ENDBRANCH  34  35
BRANCH  34  49
HETATM   49  O3  UNL     1      -2.307   2.641   2.831  1.00  0.00    -0.390 OA
ATOM     50  H3  UNL     1      -1.804   3.361   3.193  1.00  0.00     0.210 HD
ENDBRANCH  34  49
ENDBRANCH   1  34
TORSDOF 18
