REMARK  12 active torsions:
REMARK  status: ('A' for Active; 'I' for Inactive)
REMARK    1  A    between atoms: C3_3  and  N1_4 
REMARK    2  A    between atoms: N2_7  and  C6_8 
REMARK    3  A    between atoms: C6_8  and  C7_9 
REMARK    4  A    between atoms: C10_12  and  C11_13 
REMARK    5  A    between atoms: C11_13  and  C12_14 
REMARK    6  A    between atoms: C12_14  and  C13_15 
REMARK    7  A    between atoms: C13_15  and  N3_16 
REMARK    8  A    between atoms: N3_16  and  C14_18 
REMARK    9  A    between atoms: C14_18  and  N4_20 
REMARK   10  A    between atoms: N4_20  and  C15_22 
REMARK   11  A    between atoms: C15_22  and  C16_23 
REMARK   12  A    between atoms: C20_28  and  O1_29 
ROOT
HETATM    1  C1  UNL     1       4.833   5.799  -0.807  1.00  0.00     0.013 C 
HETATM    2  C2  UNL     1       3.628   5.783  -0.732  1.00  0.00    -0.089 C 
HETATM    3  C3  UNL     1       2.175   5.728  -0.630  1.00  0.00     0.330 C 
ENDROOT
BRANCH   3   4
HETATM    4  N1  UNL     1       1.716   4.279  -0.406  1.00  0.00    -0.052 N 
HETATM    5  C4  UNL     1       2.139   3.357  -1.593  1.00  0.00     0.266 C 
HETATM    6  C5  UNL     1       1.676   1.889  -1.330  1.00  0.00     0.266 C 
HETATM    7  N2  UNL     1       0.862   1.792  -0.015  1.00  0.00    -0.059 N 
HETATM    8  C23 UNL     1       1.760   2.247   1.167  1.00  0.00     0.266 C 
HETATM    9  C25 UNL     1      -0.347   2.810  -0.102  1.00  0.00     0.266 C 
HETATM   10  C24 UNL     1       2.301   3.692   0.919  1.00  0.00     0.266 C 
HETATM   11  C26 UNL     1       0.168   4.257  -0.306  1.00  0.00     0.266 C 
BRANCH   7  12
HETATM   12  C6  UNL     1       0.266   0.412   0.183  1.00  0.00     0.273 C 
BRANCH  12  13
HETATM   13  C7  UNL     1       1.147  -0.817   0.341  1.00  0.00    -0.039 C 
HETATM   14  C8  UNL     1       1.320  -1.330   1.597  1.00  0.00     0.007 C 
HETATM   15  C9  UNL     1       1.016  -2.710   2.021  1.00  0.00     0.026 C 
HETATM   16  C10 UNL     1       0.626  -3.763   1.267  1.00  0.00     0.015 C 
HETATM   17  N5  UNL     1       0.904  -3.794  -0.119  1.00  0.00    -0.339 N 
HETATM   18  C18 UNL     1       2.126  -4.250  -0.498  1.00  0.00     0.098 C 
HETATM   19  C22 UNL     1       0.392  -2.773  -0.849  1.00  0.00     0.085 C 
HETATM   20  C19 UNL     1       2.967  -3.360  -1.202  1.00  0.00     0.050 C 
HETATM   21  C20 UNL     1       2.540  -2.036  -1.311  1.00  0.00     0.057 C 
HETATM   22  C21 UNL     1       1.259  -1.676  -0.881  1.00  0.00     0.111 C 
BRANCH  16  23
HETATM   23  C11 UNL     1      -0.386  -4.777   1.813  1.00  0.00     0.059 C 
BRANCH  23  24
HETATM   24  C12 UNL     1      -1.831  -4.397   1.391  1.00  0.00     0.026 C 
BRANCH  24  25
HETATM   25  C13 UNL     1      -2.592  -3.619   2.486  1.00  0.00     0.122 C 
BRANCH  25  26
HETATM   26  N3  UNL     1      -3.913  -3.088   2.123  1.00  0.00    -0.367 N 
ATOM     27  H3  UNL     1      -4.734  -3.560   2.502  1.00  0.00     0.161 HD
BRANCH  26  28
HETATM   28  C14 UNL     1      -4.121  -2.001   1.309  1.00  0.00     0.167 C 
HETATM   29  S1  UNL     1      -4.972  -0.726   1.931  1.00  0.00    -0.041 SA
BRANCH  28  30
HETATM   30  N4  UNL     1      -3.607  -2.146   0.049  1.00  0.00    -0.367 N 
ATOM     31  H4  UNL     1      -2.963  -2.924  -0.092  1.00  0.00     0.161 HD
BRANCH  30  32
HETATM   32  C15 UNL     1      -3.881  -1.304  -1.123  1.00  0.00     0.121 C 
BRANCH  32  33
HETATM   33  C16 UNL     1      -3.567   0.185  -0.984  1.00  0.00     0.015 C 
HETATM   34  C17 UNL     1      -3.495   0.845  -2.348  1.00  0.00     0.006 C 
ENDBRANCH  32  33
ENDBRANCH  30  32
ENDBRANCH  28  30
ENDBRANCH  26  28
ENDBRANCH  25  26
ENDBRANCH  24  25
ENDBRANCH  23  24
ENDBRANCH  16  23
BRANCH  21  35
HETATM   35  O1  UNL     1       3.390  -1.055  -1.714  1.00  0.00    -0.364 OA
ATOM     36  H1  UNL     1       3.099  -0.154  -1.788  1.00  0.00     0.217 HD
ENDBRANCH  21  35
ENDBRANCH  12  13
ENDBRANCH   7  12
ENDBRANCH   3   4
TORSDOF 12
