REMARK  7 active torsions:
REMARK  status: ('A' for Active; 'I' for Inactive)
REMARK    1  A    between atoms: C2_2  and  C3_3 
REMARK    2  A    between atoms: C3_3  and  C4_4 
REMARK    3  A    between atoms: C4_4  and  C5_5 
REMARK    4  A    between atoms: C5_5  and  N1_6 
REMARK       I    between atoms: N1_6  and  C6_8 
REMARK    5  A    between atoms: C6_8  and  C7_10 
REMARK    6  A    between atoms: C16_19  and  O2_20 
REMARK    7  A    between atoms: C26_32  and  O4_33 
ROOT
HETATM    1  C7  UNL     1       1.223   0.269   1.429  1.00  0.00     0.050 C 
HETATM    2  C8  UNL     1       2.641   0.386   0.814  1.00  0.00     0.025 C 
HETATM    3  C9  UNL     1       3.055  -1.091   0.820  1.00  0.00     0.001 C 
HETATM    4  C10 UNL     1       3.365  -1.352   2.326  1.00  0.00    -0.009 C 
HETATM    5  C11 UNL     1       2.215  -2.069   2.994  1.00  0.00     0.011 C 
HETATM    6  C12 UNL     1       1.471  -0.591   2.795  1.00  0.00     0.004 C 
HETATM    7  C13 UNL     1       2.908  -0.191   3.360  1.00  0.00     0.011 C 
HETATM    8  C14 UNL     1       1.950  -1.968   0.011  1.00  0.00     0.060 C 
HETATM    9  C15 UNL     1       1.236  -0.944  -0.939  1.00  0.00     0.031 C 
HETATM   10  C16 UNL     1       0.459  -1.621  -2.135  1.00  0.00     0.131 C 
HETATM   11  C17 UNL     1      -1.127  -1.644  -2.112  1.00  0.00    -0.017 C 
HETATM   12  C18 UNL     1      -1.715  -0.597  -3.093  1.00  0.00     0.018 C 
HETATM   13  C19 UNL     1      -1.599  -3.017  -2.635  1.00  0.00     0.018 C 
HETATM   14  C20 UNL     1      -1.685  -1.339  -0.695  1.00  0.00     0.013 C 
HETATM   15  C21 UNL     1      -3.072  -1.889  -0.261  1.00  0.00     0.007 C 
HETATM   16  C22 UNL     1      -3.386  -1.483   1.211  1.00  0.00     0.007 C 
HETATM   17  C23 UNL     1      -2.350  -2.032   2.234  1.00  0.00     0.012 C 
HETATM   18  C24 UNL     1      -1.994  -1.027   3.304  1.00  0.00     0.012 C 
HETATM   19  C25 UNL     1      -1.181  -2.503   1.408  1.00  0.00     0.143 C 
HETATM   20  O3  UNL     1       0.140  -2.738   1.918  1.00  0.00    -0.347 OA
HETATM   21  C26 UNL     1       0.600  -2.625   0.510  1.00  0.00     0.177 C 
HETATM   22  C27 UNL     1      -0.580  -1.532   0.366  1.00  0.00     0.053 C 
HETATM   23  C28 UNL     1       0.346  -0.315   0.208  1.00  0.00     0.028 C 
ENDROOT
BRANCH   1  24
HETATM   24  C6  UNL     1       0.706   1.694   1.788  1.00  0.00     0.227 C 
HETATM   25  N1  UNL     1       0.852   2.641   0.797  1.00  0.00    -0.360 N 
ATOM     26  H1  UNL     1       1.281   2.366  -0.087  1.00  0.00     0.162 HD
HETATM   27  O1  UNL     1       0.165   1.956   2.858  1.00  0.00    -0.273 OA
BRANCH  25  28
HETATM   28  C5  UNL     1       0.417   4.013   0.966  1.00  0.00     0.122 C 
BRANCH  28  29
HETATM   29  C4  UNL     1       0.539   4.806  -0.336  1.00  0.00     0.020 C 
BRANCH  29  30
HETATM   30  C3  UNL     1      -0.357   4.247  -1.448  1.00  0.00     0.001 C 
BRANCH  30  31
HETATM   31  C2  UNL     1      -0.056   4.917  -2.788  1.00  0.00    -0.004 C 
HETATM   32  C1  UNL     1      -0.914   4.345  -3.904  1.00  0.00     0.005 C 
ENDBRANCH  30  31
ENDBRANCH  29  30
ENDBRANCH  28  29
ENDBRANCH  25  28
ENDBRANCH   1  24
BRANCH  10  33
HETATM   33  O2  UNL     1       0.934  -0.988  -3.335  1.00  0.00    -0.394 OA
ATOM     34  H2  UNL     1       0.466  -1.395  -4.055  1.00  0.00     0.210 HD
ENDBRANCH  10  33
BRANCH  21  35
HETATM   35  O4  UNL     1       0.442  -3.889  -0.164  1.00  0.00    -0.364 OA
ATOM     36  H4  UNL     1      -0.369  -4.283   0.136  1.00  0.00     0.213 HD
ENDBRANCH  21  35
TORSDOF 7
