REMARK  20 active torsions:
REMARK  status: ('A' for Active; 'I' for Inactive)
REMARK    1  A    between atoms: C2_2  and  C3_3 
REMARK    2  A    between atoms: C4_4  and  C5_5 
REMARK    3  A    between atoms: C6_6  and  C7_7 
REMARK    4  A    between atoms: C7_7  and  O2_9 
REMARK    5  A    between atoms: O2_9  and  C8_10 
REMARK    6  A    between atoms: C12_15  and  O4_16 
REMARK    7  A    between atoms: O4_16  and  C13_17 
REMARK    8  A    between atoms: C15_19  and  O5_20 
REMARK    9  A    between atoms: C16_22  and  O6_23 
REMARK   10  A    between atoms: C17_25  and  O7_26 
REMARK   11  A    between atoms: C18_28  and  O8_30 
REMARK   12  A    between atoms: C20_32  and  O9_33 
REMARK   13  A    between atoms: C21_35  and  O10_36 
REMARK   14  A    between atoms: C22_38  and  O11_39 
REMARK   15  A    between atoms: C22_38  and  C23_41 
REMARK   16  A    between atoms: C23_41  and  C24_42 
REMARK   17  A    between atoms: C24_42  and  C25_43 
REMARK   18  A    between atoms: C26_44  and  C28_46 
REMARK   19  A    between atoms: C28_46  and  C29_47 
REMARK   20  A    between atoms: C29_47  and  C30_48 
ROOT
HETATM    1  C8  UNL     1      -0.944   0.959  -3.175  1.00  0.00     0.172 C 
HETATM    2  C9  UNL     1      -0.503  -0.504  -3.148  1.00  0.00     0.080 C 
HETATM    3  C10 UNL     1       0.855  -0.509  -2.464  1.00  0.00     0.129 A 
HETATM    4  O3  UNL     1       0.702  -0.566  -1.018  1.00  0.00    -0.363 OA
HETATM    5  C11 UNL     1       1.508  -1.761  -0.937  1.00  0.00     0.195 A 
HETATM    6  C12 UNL     1       0.782  -3.122  -1.061  1.00  0.00     0.191 C 
HETATM    7  C18 UNL     1       1.262  -3.188  -2.559  1.00  0.00     0.119 C 
HETATM    8  C19 UNL     1       0.209  -3.515  -3.607  1.00  0.00     0.052 C 
HETATM    9  C20 UNL     1       1.819  -1.734  -2.436  1.00  0.00     0.153 A 
HETATM   10  C21 UNL     1       1.508   0.812  -2.900  1.00  0.00     0.193 C 
HETATM   11  C22 UNL     1       0.339   1.829  -3.062  1.00  0.00     0.113 C 
ENDROOT
BRANCH   9  12
HETATM   12  O9  UNL     1       3.205  -1.535  -2.808  1.00  0.00    -0.381 OA
ATOM     13  H9  UNL     1       3.792  -2.281  -2.791  1.00  0.00     0.211 HD
ENDBRANCH   9  12
BRANCH  10  14
HETATM   14  O10 UNL     1       2.132   0.595  -4.186  1.00  0.00    -0.389 OA
ATOM     15  H10 UNL     1       2.536   1.412  -4.456  1.00  0.00     0.210 HD
ENDBRANCH  10  14
BRANCH   1  16
HETATM   16  O2  UNL     1      -1.940   1.150  -2.161  1.00  0.00    -0.309 OA
BRANCH  16  17
HETATM   17  C7  UNL     1      -2.932   1.970  -2.589  1.00  0.00     0.283 C 
HETATM   18  O1  UNL     1      -2.760   3.132  -2.950  1.00  0.00    -0.260 OA
BRANCH  17  19
HETATM   19  C6  UNL     1      -4.183   1.256  -2.904  1.00  0.00     0.082 C 
HETATM   20  C5  UNL     1      -4.779   0.229  -2.287  1.00  0.00     0.006 C 
BRANCH  20  21
HETATM   21  C4  UNL     1      -4.435  -0.412  -1.047  1.00  0.00    -0.004 C 
HETATM   22  C3  UNL     1      -4.311   0.246   0.113  1.00  0.00    -0.027 C 
BRANCH  22  23
HETATM   23  C2  UNL     1      -4.117  -0.444   1.431  1.00  0.00     0.022 C 
HETATM   24  C1  UNL     1      -2.728  -0.174   1.990  1.00  0.00     0.009 C 
ENDBRANCH  22  23
ENDBRANCH  20  21
ENDBRANCH  17  19
ENDBRANCH  16  17
ENDBRANCH   1  16
BRANCH   7  25
HETATM   25  O8  UNL     1       2.312  -4.189  -2.764  1.00  0.00    -0.384 OA
ATOM     26  H8  UNL     1       2.602  -4.229  -3.668  1.00  0.00     0.210 HD
ENDBRANCH   7  25
BRANCH  11  27
HETATM   27  O11 UNL     1       0.526   2.473  -4.364  1.00  0.00    -0.384 OA
ATOM     28  H11 UNL     1       1.310   3.005  -4.295  1.00  0.00     0.210 HD
ENDBRANCH  11  27
BRANCH  11  29
HETATM   29  C23 UNL     1       0.334   2.989  -2.047  1.00  0.00     0.047 C 
BRANCH  29  30
HETATM   30  C24 UNL     1       0.542   2.681  -0.564  1.00  0.00     0.030 C 
BRANCH  30  31
HETATM   31  C25 UNL     1       1.992   2.790  -0.162  1.00  0.00    -0.024 C 
HETATM   32  C26 UNL     1       2.510   2.520   1.052  1.00  0.00    -0.087 C 
HETATM   33  C27 UNL     1       3.983   2.697   1.316  1.00  0.00     0.043 C 
BRANCH  32  34
HETATM   34  C28 UNL     1       1.712   2.002   2.226  1.00  0.00     0.037 C 
BRANCH  34  35
HETATM   35  C29 UNL     1       1.275   3.119   3.190  1.00  0.00     0.031 C 
BRANCH  35  36
HETATM   36  C30 UNL     1      -0.218   3.321   3.139  1.00  0.00    -0.024 C 
HETATM   37  C31 UNL     1      -0.895   4.431   2.786  1.00  0.00    -0.091 C 
HETATM   38  C32 UNL     1      -0.248   5.732   2.410  1.00  0.00     0.042 C 
HETATM   39  C33 UNL     1      -2.401   4.416   2.700  1.00  0.00     0.042 C 
ENDBRANCH  35  36
ENDBRANCH  34  35
ENDBRANCH  32  34
ENDBRANCH  30  31
ENDBRANCH  29  30
ENDBRANCH  11  29
BRANCH   6  40
HETATM   40  O4  UNL     1       1.254  -4.265  -0.284  1.00  0.00    -0.372 OA
BRANCH  40  41
HETATM   41  C13 UNL     1       1.480  -4.101   1.114  1.00  0.00     0.156 C 
HETATM   42  C14 UNL     1       1.898  -5.462   1.698  1.00  0.00     0.069 C 
HETATM   43  C15 UNL     1       1.157  -5.617   3.030  1.00  0.00     0.152 C 
HETATM   44  C16 UNL     1       0.558  -4.244   3.318  1.00  0.00     0.178 C 
HETATM   45  C17 UNL     1       0.247  -3.692   1.934  1.00  0.00     0.178 C 
BRANCH  43  46
HETATM   46  O5  UNL     1       2.046  -6.007   4.067  1.00  0.00    -0.393 OA
ATOM     47  H5  UNL     1       1.587  -6.103   4.893  1.00  0.00     0.210 HD
ENDBRANCH  43  46
BRANCH  44  48
HETATM   48  O6  UNL     1       1.510  -3.407   3.993  1.00  0.00    -0.390 OA
ATOM     49  H6  UNL     1       1.137  -2.552   4.172  1.00  0.00     0.210 HD
ENDBRANCH  44  48
BRANCH  45  50
HETATM   50  O7  UNL     1       0.091  -2.278   1.975  1.00  0.00    -0.390 OA
ATOM     51  H7  UNL     1      -0.671  -2.025   2.482  1.00  0.00     0.210 HD
ENDBRANCH  45  50
ENDBRANCH  40  41
ENDBRANCH   6  40
TORSDOF 20
