REMARK  18 active torsions:
REMARK  status: ('A' for Active; 'I' for Inactive)
REMARK    1  A    between atoms: C2_2  and  C3_3 
REMARK    2  A    between atoms: C3_3  and  C4_4 
REMARK    3  A    between atoms: C4_4  and  C5_5 
REMARK    4  A    between atoms: C5_5  and  C6_6 
REMARK    5  A    between atoms: C6_6  and  C7_7 
REMARK    6  A    between atoms: C7_7  and  C8_8 
REMARK    7  A    between atoms: C10_10  and  O1_11 
REMARK    8  A    between atoms: C12_14  and  O2_15 
REMARK    9  A    between atoms: C16_21  and  C17_22 
REMARK   10  A    between atoms: C17_22  and  O4_23 
REMARK   11  A    between atoms: C17_22  and  C18_25 
REMARK   12  A    between atoms: C17_22  and  C19_28 
REMARK   13  A    between atoms: C18_25  and  O5_26 
REMARK   14  A    between atoms: C19_28  and  C20_29 
REMARK   15  A    between atoms: C20_29  and  O6_30 
REMARK   16  A    between atoms: C25_38  and  C26_39 
REMARK   17  A    between atoms: C26_39  and  O9_42 
REMARK   18  A    between atoms: C29_44  and  C30_45 
ROOT
HETATM    1  C30 UNL     1      -0.081  -2.793   1.445  1.00  0.00     0.143 C 
HETATM    2  C31 UNL     1       0.144  -3.259   2.831  1.00  0.00     0.060 C 
HETATM    3  N1  UNL     1       0.307  -3.663   3.900  1.00  0.00    -0.197 NA
ENDROOT
BRANCH   1   4
HETATM    4  C29 UNL     1       0.759  -1.588   0.909  1.00  0.00     0.057 C 
HETATM    5  C22 UNL     1       0.420  -0.124   1.698  1.00  0.00     0.101 C 
HETATM    6  C21 UNL     1       0.464   1.378   1.241  1.00  0.00     0.189 C 
HETATM    7  C23 UNL     1      -0.786  -0.239   2.657  1.00  0.00     0.050 C 
HETATM    8  O8  UNL     1       1.665   0.032   2.517  1.00  0.00    -0.370 OA
HETATM    9  C15 UNL     1       1.810   1.921   0.803  1.00  0.00     0.163 C 
HETATM   10  O7  UNL     1      -0.542   2.053   0.498  1.00  0.00    -0.347 OA
HETATM   11  C14 UNL     1       2.863   0.855   0.454  1.00  0.00     0.051 C 
HETATM   12  O3  UNL     1       1.545   2.919  -0.170  1.00  0.00    -0.350 OA
HETATM   13  C13 UNL     1       3.120   0.703  -1.126  1.00  0.00     0.071 C 
HETATM   14  C24 UNL     1       2.757  -0.291   1.569  1.00  0.00     0.137 C 
HETATM   15  C12 UNL     1       2.325  -0.373  -1.877  1.00  0.00     0.136 C 
HETATM   16  C11 UNL     1       2.080  -0.371  -3.385  1.00  0.00     0.096 C 
HETATM   17  N2  UNL     1       1.046  -0.377  -1.193  1.00  0.00    -0.355 N 
HETATM   18  C10 UNL     1       1.407  -1.711  -3.854  1.00  0.00     0.146 C 
HETATM   19  C9  UNL     1       0.084  -2.263  -3.223  1.00  0.00     0.013 C 
HETATM   20  C8  UNL     1      -0.097  -2.588  -1.684  1.00  0.00    -0.036 C 
HETATM   21  C32 UNL     1       0.687  -1.656  -0.676  1.00  0.00     0.029 C 
HETATM   22  C33 UNL     1      -0.012   0.430  -1.788  1.00  0.00     0.152 C 
HETATM   23  C25 UNL     1       2.300  -1.734   1.403  1.00  0.00     0.067 C 
HETATM   24  C16 UNL     1       0.141   3.183  -0.095  1.00  0.00     0.297 C 
BRANCH  15  25
HETATM   25  O2  UNL     1       3.123  -1.558  -1.774  1.00  0.00    -0.371 OA
ATOM     26  H2  UNL     1       3.275  -1.559  -0.836  1.00  0.00     0.212 HD
ENDBRANCH  15  25
BRANCH  18  27
HETATM   27  O1  UNL     1       1.103  -1.552  -5.257  1.00  0.00    -0.392 OA
ATOM     28  H1  UNL     1       1.905  -1.217  -5.640  1.00  0.00     0.210 HD
ENDBRANCH  18  27
BRANCH  20  29
HETATM   29  C7  UNL     1      -1.577  -2.945  -1.395  1.00  0.00     0.040 C 
BRANCH  29  30
HETATM   30  C6  UNL     1      -2.588  -1.808  -1.400  1.00  0.00     0.005 C 
BRANCH  30  31
HETATM   31  C5  UNL     1      -3.819  -2.149  -0.550  1.00  0.00     0.000 C 
BRANCH  31  32
HETATM   32  C4  UNL     1      -4.779  -0.959  -0.492  1.00  0.00     0.000 C 
BRANCH  32  33
HETATM   33  C3  UNL     1      -5.771  -1.076   0.669  1.00  0.00    -0.000 C 
BRANCH  33  34
HETATM   34  C2  UNL     1      -6.296   0.282   1.144  1.00  0.00    -0.005 C 
HETATM   35  C1  UNL     1      -5.244   1.089   1.900  1.00  0.00     0.005 C 
ENDBRANCH  33  34
ENDBRANCH  32  33
ENDBRANCH  31  32
ENDBRANCH  30  31
ENDBRANCH  29  30
ENDBRANCH  20  29
BRANCH  23  36
HETATM   36  C26 UNL     1       3.414  -2.786   1.080  1.00  0.00     0.058 C 
HETATM   37  C27 UNL     1       2.954  -4.112   0.467  1.00  0.00     0.046 C 
HETATM   38  C28 UNL     1       4.179  -3.143   2.388  1.00  0.00     0.046 C 
BRANCH  36  39
HETATM   39  O9  UNL     1       4.406  -2.196   0.233  1.00  0.00    -0.390 OA
ATOM     40  H9  UNL     1       5.082  -2.834   0.037  1.00  0.00     0.210 HD
ENDBRANCH  36  39
ENDBRANCH  23  36
BRANCH  24  41
HETATM   41  C17 UNL     1      -0.185   4.542   0.616  1.00  0.00     0.130 C 
BRANCH  41  42
HETATM   42  O4  UNL     1      -1.550   4.933   0.278  1.00  0.00    -0.383 OA
ATOM     43  H4  UNL     1      -1.748   5.756   0.709  1.00  0.00     0.210 HD
ENDBRANCH  41  42
BRANCH  41  44
HETATM   44  C18 UNL     1      -0.142   4.467   2.156  1.00  0.00     0.207 C 
BRANCH  44  45
HETATM   45  O5  UNL     1      -0.512   5.722   2.737  1.00  0.00    -0.398 OA
ATOM     46  H5  UNL     1      -0.486   5.676   3.686  1.00  0.00     0.209 HD
ENDBRANCH  44  45
ENDBRANCH  41  44
BRANCH  41  47
HETATM   47  C19 UNL     1       0.743   5.683   0.126  1.00  0.00     0.071 C 
BRANCH  47  48
HETATM   48  C20 UNL     1       0.798   5.846  -1.393  1.00  0.00     0.167 C 
BRANCH  48  49
HETATM   49  O6  UNL     1      -0.496   5.892  -1.976  1.00  0.00    -0.401 OA
ATOM     50  H6  UNL     1      -0.462   5.993  -2.920  1.00  0.00     0.209 HD
ENDBRANCH  48  49
ENDBRANCH  47  48
ENDBRANCH  41  47
ENDBRANCH  24  41
ENDBRANCH   1   4
TORSDOF 18
