REMARK  3 active torsions:
REMARK  status: ('A' for Active; 'I' for Inactive)
REMARK    1  A    between atoms: O1_2  and  N1_3 
REMARK    2  A    between atoms: C3_5  and  O2_6 
REMARK    3  A    between atoms: C9_14  and  O4_15 
ROOT
HETATM    1  N1  UNL     1       1.357   1.001  -0.024  1.00  0.00    -0.190 NA
HETATM    2  C2  UNL     1       2.656   0.611  -0.594  1.00  0.00     0.153 C 
HETATM    3  C3  UNL     1       2.641  -0.923  -0.575  1.00  0.00     0.139 C 
HETATM    4  C4  UNL     1       1.748  -1.272   0.609  1.00  0.00     0.043 C 
HETATM    5  C5  UNL     1       0.280  -1.773   0.432  1.00  0.00     0.034 C 
HETATM    6  C6  UNL     1      -0.473  -1.183  -0.746  1.00  0.00     0.161 C 
HETATM    7  O3  UNL     1      -1.374  -1.787  -1.683  1.00  0.00    -0.382 OA
HETATM    8  C7  UNL     1      -2.379  -0.755  -1.886  1.00  0.00     0.171 C 
HETATM    9  C8  UNL     1      -1.988   0.381  -0.881  1.00  0.00     0.067 C 
HETATM   10  C9  UNL     1      -1.382  -0.413   0.278  1.00  0.00     0.094 C 
HETATM   11  C11 UNL     1      -0.175  -0.515   1.264  1.00  0.00     0.050 C 
HETATM   12  C12 UNL     1       1.208   0.091   1.114  1.00  0.00     0.101 C 
ENDROOT
BRANCH   1  13
HETATM   13  O1  UNL     1       1.563   2.329   0.542  1.00  0.00    -0.308 OA
HETATM   14  C1  UNL     1       0.650   3.229  -0.077  1.00  0.00     0.229 C 
ENDBRANCH   1  13
BRANCH   3  15
HETATM   15  O2  UNL     1       3.948  -1.443  -0.341  1.00  0.00    -0.394 OA
ATOM     16  H2  UNL     1       3.939  -2.393  -0.329  1.00  0.00     0.210 HD
ENDBRANCH   3  15
BRANCH  10  17
HETATM   17  O4  UNL     1      -2.507  -1.159   0.868  1.00  0.00    -0.382 OA
HETATM   18  C10 UNL     1      -3.314  -0.448   1.798  1.00  0.00     0.202 C 
ENDBRANCH  10  17
TORSDOF 3
