REMARK  3 active torsions:
REMARK  status: ('A' for Active; 'I' for Inactive)
REMARK    1  A    between atoms: C7_8  and  O1_9 
REMARK    2  A    between atoms: O1_9  and  C8_10 
REMARK    3  A    between atoms: C8_10  and  C9_12 
ROOT
HETATM    1  C1  UNL     1       2.533  -0.163   1.918  1.00  0.00     0.018 C 
HETATM    2  C2  UNL     1       2.153   0.047   0.452  1.00  0.00    -0.009 C 
HETATM    3  C3  UNL     1       2.834  -1.050  -0.433  1.00  0.00     0.013 C 
HETATM    4  C4  UNL     1       1.721  -2.173  -0.732  1.00  0.00     0.015 C 
HETATM    5  C5  UNL     1       0.410  -1.708  -0.048  1.00  0.00     0.089 C 
HETATM    6  C6  UNL     1      -1.013  -1.494  -0.648  1.00  0.00     0.134 C 
HETATM    7  F1  UNL     1      -1.738  -2.577  -1.012  1.00  0.00    -0.207 F 
HETATM    8  C7  UNL     1      -1.606  -0.238  -0.684  1.00  0.00     0.129 C 
HETATM    9  C10 UNL     1      -0.817   1.220  -0.297  1.00  0.00     0.150 A 
HETATM   10  C11 UNL     1       0.564   2.271  -0.057  1.00  0.00     0.049 C 
HETATM   11  C12 UNL     1       2.120   1.591   0.067  1.00  0.00     0.016 C 
HETATM   12  C13 UNL     1      -0.255   0.455   0.874  1.00  0.00     0.091 A 
HETATM   13  C14 UNL     1       0.775  -0.282   0.060  1.00  0.00     0.116 A 
HETATM   14  O3  UNL     1       0.812   0.121  -1.419  1.00  0.00    -0.227 OA
HETATM   15  O4  UNL     1      -0.248   1.071  -1.631  1.00  0.00    -0.222 OA
ENDROOT
BRANCH   8  16
HETATM   16  O1  UNL     1      -2.934  -0.121  -1.157  1.00  0.00    -0.276 OA
BRANCH  16  17
HETATM   17  C8  UNL     1      -3.790   0.574  -0.340  1.00  0.00     0.277 C 
HETATM   18  O2  UNL     1      -3.453   1.308   0.583  1.00  0.00    -0.264 OA
BRANCH  17  19
HETATM   19  C9  UNL     1      -5.207   0.277  -0.784  1.00  0.00     0.226 C 
HETATM   20 CL1  UNL     1      -6.319   0.341   0.598  1.00  0.00    -0.120 Cl
ENDBRANCH  17  19
ENDBRANCH  16  17
ENDBRANCH   8  16
TORSDOF 3
