REMARK  5 active torsions:
REMARK  status: ('A' for Active; 'I' for Inactive)
REMARK       I    between atoms: C2_2  and  N1_4 
REMARK    1  A    between atoms: N1_4  and  C3_6 
REMARK    2  A    between atoms: C3_6  and  C5_8 
REMARK    3  A    between atoms: C3_6  and  C6_11 
REMARK       I    between atoms: C6_11  and  N2_13 
REMARK    4  A    between atoms: N2_13  and  C7_15 
REMARK    5  A    between atoms: C17_25  and  C18_26 
REMARK       I    between atoms: C18_26  and  N3_27 
ROOT
HETATM    1  C7  UNL     1       0.976   0.675   0.674  1.00  0.00     0.120 C 
HETATM    2  C8  UNL     1       1.626  -0.229   1.786  1.00  0.00     0.039 C 
HETATM    3  C9  UNL     1       2.039  -1.541   1.141  1.00  0.00    -0.037 C 
HETATM    4  C10 UNL     1       0.714  -2.183   0.623  1.00  0.00     0.010 C 
HETATM    5  C11 UNL     1       0.600  -2.188  -0.882  1.00  0.00     0.010 C 
HETATM    6  C12 UNL     1       1.487  -1.114  -1.491  1.00  0.00     0.022 C 
HETATM    7  C13 UNL     1       2.950  -1.662  -1.570  1.00  0.00     0.014 C 
HETATM    8  C14 UNL     1       3.616  -2.063  -0.242  1.00  0.00    -0.012 C 
HETATM    9  C15 UNL     1       3.482  -0.879   0.657  1.00  0.00     0.014 C 
HETATM   10  C16 UNL     1       2.983  -2.818   0.986  1.00  0.00     0.014 C 
HETATM   11  C17 UNL     1       1.133   0.307  -0.884  1.00  0.00     0.014 C 
ENDROOT
BRANCH   1  12
HETATM   12  N2  UNL     1      -0.451   0.874   1.022  1.00  0.00    -0.350 N 
HETATM   13  C6  UNL     1      -1.171   1.922   0.454  1.00  0.00     0.257 C 
HETATM   14  O4  UNL     1      -0.606   2.784  -0.224  1.00  0.00    -0.270 OA
ATOM     15  H2  UNL     1      -0.907   0.241   1.679  1.00  0.00     0.163 HD
BRANCH  13  16
HETATM   16  C3  UNL     1      -2.692   1.926   0.784  1.00  0.00     0.199 C 
HETATM   17  C4  UNL     1      -2.837   2.143   2.304  1.00  0.00     0.061 C 
BRANCH  16  18
HETATM   18  N1  UNL     1      -3.308   0.596   0.479  1.00  0.00    -0.335 N 
HETATM   19  C2  UNL     1      -3.109  -0.022  -0.738  1.00  0.00     0.215 C 
HETATM   20  C1  UNL     1      -3.837  -1.333  -0.863  1.00  0.00     0.117 C 
HETATM   21  O1  UNL     1      -2.365   0.406  -1.610  1.00  0.00    -0.274 OA
ATOM     22  H1  UNL     1      -3.886   0.138   1.184  1.00  0.00     0.164 HD
ENDBRANCH  16  18
BRANCH  16  23
HETATM   23  C5  UNL     1      -3.496   3.053   0.125  1.00  0.00     0.212 C 
HETATM   24  O2  UNL     1      -4.639   2.942  -0.296  1.00  0.00    -0.646 OA
HETATM   25  O3  UNL     1      -2.904   4.264   0.163  1.00  0.00    -0.646 OA
ENDBRANCH  16  23
ENDBRANCH  13  16
ENDBRANCH   1  12
BRANCH  11  26
HETATM   26  C18 UNL     1       1.902   1.413  -1.613  1.00  0.00     0.243 C 
HETATM   27  N3  UNL     1       1.131   2.178  -2.459  1.00  0.00    -0.366 N 
ATOM     28  H32 UNL     1       0.136   1.991  -2.582  1.00  0.00     0.159 HD
ATOM     29  H31 UNL     1       1.643   2.915  -2.944  1.00  0.00     0.159 HD
HETATM   30  O5  UNL     1       3.099   1.638  -1.465  1.00  0.00    -0.268 OA
ENDBRANCH  11  26
TORSDOF 5
