REMARK  7 active torsions:
REMARK  status: ('A' for Active; 'I' for Inactive)
REMARK    1  A    between atoms: O1_1  and  C1_3 
REMARK    2  A    between atoms: C1_3  and  C2_4 
REMARK    3  A    between atoms: C3_5  and  O2_6 
REMARK    4  A    between atoms: C5_9  and  N1_10 
REMARK    5  A    between atoms: N1_10  and  C6_13 
REMARK    6  A    between atoms: C13_20  and  O3_21 
REMARK    7  A    between atoms: C14_23  and  O4_24 
ROOT
HETATM    1  C2  UNL     1       2.863   0.556  -0.282  1.00  0.00     0.069 C 
HETATM    2  C3  UNL     1       2.171   0.389  -1.646  1.00  0.00     0.129 C 
HETATM    3  C4  UNL     1       1.546  -1.007  -1.787  1.00  0.00     0.068 C 
HETATM    4  C5  UNL     1       0.527  -1.318  -0.665  1.00  0.00     0.219 C 
HETATM    5  C13 UNL     1       1.207  -1.104   0.715  1.00  0.00     0.178 C 
HETATM    6  C14 UNL     1       1.865   0.284   0.858  1.00  0.00     0.157 C 
ENDROOT
BRANCH   4   7
HETATM    7  N1  UNL     1      -0.683  -0.495  -0.903  1.00  0.00    -0.063 N 
ATOM      8  H12 UNL     1      -0.455   0.498  -0.942  1.00  0.00     0.278 HD
ATOM      9  H11 UNL     1      -1.033  -0.615  -1.853  1.00  0.00     0.278 HD
BRANCH   7  10
HETATM   10  C6  UNL     1      -1.734  -0.767   0.096  1.00  0.00     0.195 C 
HETATM   11  C7  UNL     1      -3.114  -0.616  -0.595  1.00  0.00     0.022 C 
HETATM   12  C8  UNL     1      -4.288  -0.981   0.341  1.00  0.00     0.012 C 
HETATM   13  C12 UNL     1      -3.196   0.818  -0.082  1.00  0.00     0.002 C 
HETATM   14  C9  UNL     1      -4.141   0.388   1.034  1.00  0.00    -0.009 C 
HETATM   15  C10 UNL     1      -2.959   0.445   2.020  1.00  0.00     0.012 C 
HETATM   16  C11 UNL     1      -1.989   0.573   0.829  1.00  0.00     0.022 C 
ENDBRANCH   7  10
ENDBRANCH   4   7
BRANCH   5  17
HETATM   17  O3  UNL     1       2.247  -2.090   0.900  1.00  0.00    -0.391 OA
ATOM     18  H3  UNL     1       2.663  -1.959   1.744  1.00  0.00     0.210 HD
ENDBRANCH   5  17
BRANCH   2  19
HETATM   19  O2  UNL     1       1.166   1.390  -1.830  1.00  0.00    -0.395 OA
ATOM     20  H2  UNL     1       0.739   1.287  -2.672  1.00  0.00     0.210 HD
ENDBRANCH   2  19
BRANCH   6  21
HETATM   21  O4  UNL     1       2.549   0.330   2.119  1.00  0.00    -0.392 OA
ATOM     22  H4  UNL     1       1.933   0.162   2.823  1.00  0.00     0.210 HD
ENDBRANCH   6  21
BRANCH   1  23
HETATM   23  C1  UNL     1       3.510   1.937  -0.134  1.00  0.00     0.173 C 
BRANCH  23  24
HETATM   24  O1  UNL     1       4.481   2.126  -1.163  1.00  0.00    -0.400 OA
ATOM     25  H1  UNL     1       4.882   2.982  -1.071  1.00  0.00     0.209 HD
ENDBRANCH  23  24
ENDBRANCH   1  23
TORSDOF 7
