REMARK  9 active torsions:
REMARK  status: ('A' for Active; 'I' for Inactive)
REMARK    1  A    between atoms: C2_2  and  O2_4 
REMARK    2  A    between atoms: O2_4  and  C3_5 
REMARK    3  A    between atoms: C6_8  and  C7_9 
REMARK    4  A    between atoms: C7_9  and  O3_10 
REMARK    5  A    between atoms: C9_13  and  O4_14 
REMARK    6  A    between atoms: C12_18  and  C13_19 
REMARK    7  A    between atoms: C13_19  and  C14_20 
REMARK    8  A    between atoms: C20_30  and  C21_31 
REMARK    9  A    between atoms: C21_31  and  C22_32 
ROOT
HETATM    1  C3  UNL     1       3.288  -0.842   1.539  1.00  0.00     0.166 C 
HETATM    2  C4  UNL     1       4.205   0.367   1.071  1.00  0.00     0.039 C 
HETATM    3  C5  UNL     1       4.020   0.898  -0.415  1.00  0.00     0.020 C 
HETATM    4  C6  UNL     1       2.519   0.906  -0.803  1.00  0.00     0.018 C 
HETATM    5  C8  UNL     1       2.270  -0.607  -0.584  1.00  0.00    -0.003 C 
HETATM    6  C9  UNL     1       1.785  -1.439  -1.534  1.00  0.00     0.090 C 
HETATM    7  C10 UNL     1       0.436  -1.526  -1.418  1.00  0.00     0.083 C 
HETATM    8  C11 UNL     1      -0.152  -1.362  -0.149  1.00  0.00     0.101 C 
HETATM    9  C12 UNL     1       0.693  -1.317   0.995  1.00  0.00    -0.010 C 
HETATM   10  C18 UNL     1       2.021  -0.951   0.721  1.00  0.00    -0.009 C 
HETATM   11  O5  UNL     1      -1.533  -1.124  -0.079  1.00  0.00    -0.296 OA
HETATM   12  C19 UNL     1      -1.865   0.188  -0.388  1.00  0.00     0.127 C 
HETATM   13  N1  UNL     1      -2.132   1.020   0.563  1.00  0.00    -0.383 N 
ATOM     14  H11 UNL     1      -2.376   1.984   0.336  1.00  0.00     0.158 HD
ATOM     15  H12 UNL     1      -2.077   0.763   1.549  1.00  0.00     0.158 HD
HETATM   16  C20 UNL     1      -1.948   0.577  -1.879  1.00  0.00     0.100 C 
HETATM   17  C26 UNL     1      -0.534   0.458  -2.423  1.00  0.00     0.002 C 
HETATM   18  C27 UNL     1       0.411   1.442  -2.333  1.00  0.00    -0.009 C 
HETATM   19  C28 UNL     1       1.992   1.339  -2.274  1.00  0.00     0.020 C 
HETATM   20  C29 UNL     1       2.623   2.640  -2.793  1.00  0.00     0.015 C 
HETATM   21  C30 UNL     1      -0.180  -0.969  -2.616  1.00  0.00     0.194 C 
HETATM   22  O6  UNL     1      -0.253  -1.564  -3.677  1.00  0.00    -0.287 OA
ENDROOT
BRANCH   9  23
HETATM   23  C13 UNL     1       0.231  -1.660   2.387  1.00  0.00     0.069 C 
BRANCH  23  24
HETATM   24  C14 UNL     1      -1.060  -1.055   2.855  1.00  0.00    -0.020 C 
HETATM   25  C15 UNL     1      -1.243   0.058   3.591  1.00  0.00    -0.091 C 
HETATM   26  C16 UNL     1      -2.629   0.500   3.982  1.00  0.00     0.042 C 
HETATM   27  C17 UNL     1      -0.154   0.983   4.050  1.00  0.00     0.042 C 
ENDBRANCH  23  24
ENDBRANCH   9  23
BRANCH   1  28
HETATM   28  O2  UNL     1       4.009  -2.060   1.228  1.00  0.00    -0.311 OA
BRANCH  28  29
HETATM   29  C2  UNL     1       3.776  -3.116   2.049  1.00  0.00     0.255 C 
HETATM   30  C1  UNL     1       4.145  -4.411   1.387  1.00  0.00     0.126 C 
HETATM   31  O1  UNL     1       3.255  -3.037   3.153  1.00  0.00    -0.266 OA
ENDBRANCH  28  29
ENDBRANCH   1  28
BRANCH   6  32
HETATM   32  O4  UNL     1       2.486  -1.657  -2.675  1.00  0.00    -0.359 OA
ATOM     33  H4  UNL     1       2.145  -2.241  -3.342  1.00  0.00     0.217 HD
ENDBRANCH   6  32
BRANCH   4  34
HETATM   34  C7  UNL     1       1.774   1.836   0.252  1.00  0.00     0.179 C 
BRANCH  34  35
HETATM   35  O3  UNL     1       2.133   3.207   0.117  1.00  0.00    -0.400 OA
ATOM     36  H3  UNL     1       1.688   3.762   0.747  1.00  0.00     0.209 HD
ENDBRANCH  34  35
ENDBRANCH   4  34
BRANCH  16  37
HETATM   37  C21 UNL     1      -3.042  -0.236  -2.615  1.00  0.00     0.045 C 
BRANCH  37  38
HETATM   38  C22 UNL     1      -4.290  -0.453  -1.800  1.00  0.00    -0.024 C 
HETATM   39  C23 UNL     1      -5.405   0.299  -1.765  1.00  0.00    -0.091 C 
HETATM   40  C24 UNL     1      -6.549  -0.082  -0.858  1.00  0.00     0.042 C 
HETATM   41  C25 UNL     1      -5.617   1.552  -2.566  1.00  0.00     0.042 C 
ENDBRANCH  37  38
ENDBRANCH  16  37
TORSDOF 9
