REMARK  6 active torsions:
REMARK  status: ('A' for Active; 'I' for Inactive)
REMARK    1  A    between atoms: C2_2  and  C3_3 
REMARK    2  A    between atoms: C2_2  and  C4_6 
REMARK    3  A    between atoms: C3_3  and  O1_4 
REMARK    4  A    between atoms: C12_14  and  C13_15 
REMARK    5  A    between atoms: C17_19  and  C18_20 
REMARK    6  A    between atoms: C18_20  and  N1_21 
ROOT
HETATM    1  C4  UNL     1       1.061  -1.767  -0.183  1.00  0.00     0.002 C 
HETATM    2  C5  UNL     1       0.088  -1.190  -1.180  1.00  0.00     0.006 C 
HETATM    3  C6  UNL     1       0.002   0.682  -1.130  1.00  0.00    -0.012 A 
HETATM    4  C7  UNL     1      -1.296   0.301  -1.133  1.00  0.00     0.011 A 
HETATM    5  C8  UNL     1       0.054   0.330   0.400  1.00  0.00    -0.017 A 
HETATM    6  C9  UNL     1      -0.615   1.087   1.470  1.00  0.00     0.012 C 
HETATM    7  C10 UNL     1      -1.201  -0.088   2.179  1.00  0.00     0.006 A 
HETATM    8  C11 UNL     1      -2.359  -0.528   1.536  1.00  0.00     0.006 A 
HETATM    9  C12 UNL     1      -2.608   0.378   0.371  1.00  0.00     0.007 C 
HETATM   10  C13 UNL     1      -2.300  -0.621  -0.672  1.00  0.00     0.002 C 
HETATM   11  C14 UNL     1      -1.319  -1.679  -0.313  1.00  0.00     0.005 C 
HETATM   12  C15 UNL     1      -1.045  -1.405   1.267  1.00  0.00    -0.022 A 
HETATM   13  C16 UNL     1       0.421  -1.048   0.991  1.00  0.00     0.010 C 
HETATM   14  C17 UNL     1      -1.223   1.451   0.164  1.00  0.00     0.002 C 
ENDROOT
BRANCH   1  15
HETATM   15  C2  UNL     1       2.577  -1.589  -0.458  1.00  0.00     0.010 C 
HETATM   16  C1  UNL     1       3.400  -1.584   0.834  1.00  0.00     0.012 C 
BRANCH  15  17
HETATM   17  C3  UNL     1       3.032  -0.434  -1.360  1.00  0.00     0.168 C 
BRANCH  17  18
HETATM   18  O1  UNL     1       2.504  -0.582  -2.670  1.00  0.00    -0.400 OA
ATOM     19  H1  UNL     1       2.786   0.133  -3.228  1.00  0.00     0.209 HD
ENDBRANCH  17  18
ENDBRANCH  15  17
ENDBRANCH   1  15
BRANCH  14  20
HETATM   20  C18 UNL     1      -1.532   2.926  -0.083  1.00  0.00     0.240 C 
BRANCH  20  21
HETATM   21  N1  UNL     1      -2.302   3.525   1.000  1.00  0.00    -0.079 N 
ATOM     22  H13 UNL     1      -3.156   2.996   1.179  1.00  0.00     0.274 HD
ATOM     23  H12 UNL     1      -1.836   3.393   1.898  1.00  0.00     0.274 HD
ATOM     24  H11 UNL     1      -2.508   4.510   0.835  1.00  0.00     0.274 HD
ENDBRANCH  20  21
ENDBRANCH  14  20
TORSDOF 6
