REMARK  3 active torsions:
REMARK  status: ('A' for Active; 'I' for Inactive)
REMARK    1  A    between atoms: C10_10  and  C11_11 
REMARK    2  A    between atoms: C12_14  and  C13_15 
REMARK       I    between atoms: C13_15  and  N1_17 
REMARK    3  A    between atoms: N1_17  and  C14_19 
ROOT
HETATM    1  C1  UNL     1       2.422  -0.206   3.317  1.00  0.00     0.013 C 
HETATM    2  C2  UNL     1       2.127  -0.025   2.167  1.00  0.00    -0.105 C 
HETATM    3  C3  UNL     1       1.805   0.117   0.771  1.00  0.00     0.046 A 
HETATM    4  C4  UNL     1       2.647   1.151  -0.021  1.00  0.00     0.034 C 
HETATM    5  C5  UNL     1       1.807   1.001  -1.295  1.00  0.00    -0.033 C 
HETATM    6  C6  UNL     1       1.341   0.437  -2.708  1.00  0.00     0.016 C 
HETATM    7  C7  UNL     1       1.094  -0.940  -2.027  1.00  0.00     0.012 C 
HETATM    8  C8  UNL     1       2.382  -0.579  -1.339  1.00  0.00     0.006 C 
HETATM    9  C9  UNL     1       1.911  -1.170  -0.037  1.00  0.00     0.033 A 
HETATM   10  C10 UNL     1       0.467  -1.073  -0.555  1.00  0.00     0.076 A 
HETATM   11  C12 UNL     1       0.328   0.260   0.264  1.00  0.00     0.079 A 
HETATM   12  C16 UNL     1       0.406   1.400  -0.734  1.00  0.00     0.032 C 
ENDROOT
BRANCH  11  13
HETATM   13  C13 UNL     1      -0.832   0.507   1.290  1.00  0.00     0.229 C 
HETATM   14  O3  UNL     1      -0.693   1.065   2.380  1.00  0.00    -0.273 OA
HETATM   15  N1  UNL     1      -2.094   0.170   0.828  1.00  0.00    -0.361 N 
ATOM     16  H1  UNL     1      -2.171  -0.437   0.012  1.00  0.00     0.162 HD
BRANCH  15  17
HETATM   17  C14 UNL     1      -3.310   0.646   1.458  1.00  0.00     0.118 C 
HETATM   18  C15 UNL     1      -4.274   1.121   0.382  1.00  0.00     0.026 C 
ENDBRANCH  15  17
ENDBRANCH  11  13
BRANCH  10  19
HETATM   19  C11 UNL     1      -0.569  -2.179  -0.381  1.00  0.00     0.184 C 
HETATM   20  O1  UNL     1      -1.749  -2.118  -0.710  1.00  0.00    -0.647 OA
HETATM   21  O2  UNL     1      -0.097  -3.320   0.166  1.00  0.00    -0.647 OA
ENDBRANCH  10  19
TORSDOF 3
