REMARK  8 active torsions:
REMARK  status: ('A' for Active; 'I' for Inactive)
REMARK    1  A    between atoms: C2_2  and  C3_3 
REMARK    2  A    between atoms: C3_3  and  C4_4 
REMARK    3  A    between atoms: C4_4  and  O2_6 
REMARK    4  A    between atoms: O2_6  and  C5_7 
REMARK    5  A    between atoms: C12_14  and  O3_15 
REMARK    6  A    between atoms: C23_30  and  C24_31 
REMARK    7  A    between atoms: C33_41  and  C35_43 
REMARK    8  A    between atoms: C35_43  and  O6_44 
ROOT
HETATM    1  C5  UNL     1       3.427  -0.687  -2.015  1.00  0.00     0.142 C 
HETATM    2  C6  UNL     1       4.628  -0.164  -1.239  1.00  0.00     0.034 C 
HETATM    3  C7  UNL     1       4.260   0.627   0.013  1.00  0.00     0.016 C 
HETATM    4  C8  UNL     1       2.950   1.495   0.009  1.00  0.00    -0.015 C 
HETATM    5  C9  UNL     1       3.474   2.957  -0.249  1.00  0.00     0.020 C 
HETATM    6  C10 UNL     1       2.307   1.488   1.483  1.00  0.00    -0.066 C 
HETATM    7  C11 UNL     1       1.252   2.591   1.687  1.00  0.00     0.070 C 
HETATM    8  C12 UNL     1       0.002   2.619   0.818  1.00  0.00     0.163 C 
HETATM    9  C13 UNL     1      -0.556   1.328   0.154  1.00  0.00     0.145 C 
HETATM   10  F1  UNL     1      -1.234   1.886  -0.966  1.00  0.00    -0.239 F 
HETATM   11  C14 UNL     1       0.571   0.432  -0.542  1.00  0.00     0.035 C 
HETATM   12  C15 UNL     1       0.834  -0.938   0.085  1.00  0.00     0.013 C 
HETATM   13  C16 UNL     1       1.812  -1.099   1.213  1.00  0.00     0.035 C 
HETATM   14  C17 UNL     1       1.966   0.093   2.147  1.00  0.00    -0.073 C 
HETATM   15  C18 UNL     1       0.957   0.005   3.348  1.00  0.00     0.013 C 
HETATM   16  C19 UNL     1       1.596   0.671   4.592  1.00  0.00     0.015 C 
HETATM   17  C20 UNL     1      -0.524   0.459   3.234  1.00  0.00     0.042 C 
HETATM   18  C21 UNL     1      -1.481  -0.190   2.221  1.00  0.00     0.139 C 
HETATM   19  O4  UNL     1      -2.783  -0.277   2.908  1.00  0.00    -0.353 OA
HETATM   20  C22 UNL     1      -3.790   0.153   1.984  1.00  0.00     0.285 C 
HETATM   21  O5  UNL     1      -5.069   0.485   2.498  1.00  0.00    -0.354 OA
HETATM   22  C23 UNL     1      -6.006   0.813   1.447  1.00  0.00     0.128 C 
HETATM   23  C27 UNL     1      -5.467   1.970   0.570  1.00  0.00     0.034 C 
HETATM   24  C28 UNL     1      -4.032   1.752   0.049  1.00  0.00     0.034 C 
HETATM   25  C29 UNL     1      -3.110   1.273   1.177  1.00  0.00     0.099 C 
HETATM   26 CL1  UNL     1      -2.923   2.696   2.318  1.00  0.00    -0.113 Cl
HETATM   27  C30 UNL     1      -1.762   0.512   0.832  1.00  0.00     0.047 C 
HETATM   28  C31 UNL     1      -2.219  -0.591  -0.255  1.00  0.00     0.023 C 
HETATM   29  C32 UNL     1       1.870   1.148  -1.113  1.00  0.00     0.018 C 
HETATM   30  C33 UNL     1       2.484   0.464  -2.441  1.00  0.00     0.009 C 
HETATM   31  C34 UNL     1       1.363  -0.054  -3.385  1.00  0.00     0.020 C 
ENDROOT
BRANCH   1  32
HETATM   32  O2  UNL     1       3.897  -1.433  -3.154  1.00  0.00    -0.315 OA
BRANCH  32  33
HETATM   33  C4  UNL     1       3.952  -2.783  -2.942  1.00  0.00     0.259 C 
HETATM   34  O1  UNL     1       4.999  -3.358  -2.683  1.00  0.00    -0.265 OA
BRANCH  33  35
HETATM   35  C3  UNL     1       2.625  -3.467  -3.203  1.00  0.00     0.111 C 
BRANCH  35  36
HETATM   36  C2  UNL     1       2.410  -4.764  -2.425  1.00  0.00     0.005 C 
HETATM   37  C1  UNL     1       2.042  -4.552  -0.963  1.00  0.00     0.005 C 
ENDBRANCH  35  36
ENDBRANCH  33  35
ENDBRANCH  32  33
ENDBRANCH   1  32
BRANCH  30  38
HETATM   38  C35 UNL     1       3.257   1.510  -3.321  1.00  0.00     0.176 C 
BRANCH  38  39
HETATM   39  O6  UNL     1       3.716   0.962  -4.556  1.00  0.00    -0.400 OA
ATOM     40  H6  UNL     1       4.184   1.595  -5.088  1.00  0.00     0.209 HD
ENDBRANCH  38  39
ENDBRANCH  30  38
BRANCH   8  41
HETATM   41  O3  UNL     1       0.227   3.605  -0.219  1.00  0.00    -0.392 OA
ATOM     42  H3  UNL     1      -0.553   3.622  -0.761  1.00  0.00     0.210 HD
ENDBRANCH   8  41
BRANCH  22  43
HETATM   43  C24 UNL     1      -6.632  -0.428   0.709  1.00  0.00     0.006 C 
HETATM   44  C25 UNL     1      -6.271  -1.823   1.242  1.00  0.00     0.012 C 
HETATM   45  C26 UNL     1      -6.528  -0.437  -0.819  1.00  0.00     0.012 C 
ENDBRANCH  22  43
TORSDOF 8
