REMARK  7 active torsions:
REMARK  status: ('A' for Active; 'I' for Inactive)
REMARK    1  A    between atoms: C2_2  and  C4_4 
REMARK    2  A    between atoms: C4_4  and  C5_5 
REMARK    3  A    between atoms: C5_5  and  C6_6 
REMARK    4  A    between atoms: C5_5  and  C7_8 
REMARK    5  A    between atoms: C7_8  and  O2_10 
REMARK    6  A    between atoms: O2_10  and  C8_11 
REMARK    7  A    between atoms: C33_41  and  O6_42 
ROOT
HETATM    1  C8  UNL     1       0.119   0.525   0.166  1.00  0.00     0.130 C 
HETATM    2  C9  UNL     1      -0.605  -0.332  -1.039  1.00  0.00     0.054 C 
HETATM    3  C10 UNL     1      -0.254  -1.783  -1.638  1.00  0.00     0.019 C 
HETATM    4  C11 UNL     1      -0.146  -1.800  -3.180  1.00  0.00    -0.022 C 
HETATM    5  C12 UNL     1       0.460  -0.676  -3.973  1.00  0.00     0.015 C 
HETATM    6  C13 UNL     1       1.841  -0.100  -3.666  1.00  0.00     0.163 C 
HETATM    7  C14 UNL     1       2.126   0.772  -4.941  1.00  0.00     0.059 C 
HETATM    8  O3  UNL     1       3.029  -0.955  -3.616  1.00  0.00    -0.218 OA
HETATM    9  O4  UNL     1       3.683   0.215  -2.857  1.00  0.00    -0.203 OA
HETATM   10  C15 UNL     1       2.391   0.375  -2.168  1.00  0.00     0.209 C 
HETATM   11  N1  UNL     1       2.479  -0.684  -1.144  1.00  0.00    -0.376 N 
ATOM     12  H1  UNL     1       2.240  -1.638  -1.415  1.00  0.00     0.157 HD
HETATM   13  C16 UNL     1       2.900  -0.435   0.271  1.00  0.00     0.047 A 
HETATM   14  C17 UNL     1       4.251  -0.357   0.765  1.00  0.00     0.044 A 
HETATM   15  C18 UNL     1       3.584   1.016   0.544  1.00  0.00    -0.006 A 
HETATM   16  C19 UNL     1       4.745   1.867  -0.015  1.00  0.00     0.018 C 
HETATM   17  C20 UNL     1       2.327   1.907   0.826  1.00  0.00     0.068 C 
HETATM   18  C21 UNL     1       1.800   1.924   2.264  1.00  0.00     0.061 C 
HETATM   19  C22 UNL     1       2.994   2.057   3.236  1.00  0.00     0.046 C 
HETATM   20  C23 UNL     1       0.916   3.159   2.581  1.00  0.00     0.046 C 
HETATM   21  O5  UNL     1       0.973   0.798   2.550  1.00  0.00    -0.371 OA
HETATM   22  C24 UNL     1       0.679  -0.162   1.482  1.00  0.00     0.171 C 
HETATM   23  C25 UNL     1       1.896  -1.128   1.326  1.00  0.00     0.011 C 
HETATM   24  C26 UNL     1       2.492  -1.419   2.749  1.00  0.00     0.020 C 
HETATM   25  C27 UNL     1       1.574  -2.607   0.876  1.00  0.00     0.014 C 
HETATM   26  C28 UNL     1       0.142  -3.118   1.062  1.00  0.00     0.002 C 
HETATM   27  C29 UNL     1      -0.296  -3.942  -0.137  1.00  0.00     0.009 C 
HETATM   28  C30 UNL     1      -1.106  -3.114  -1.174  1.00  0.00    -0.041 C 
HETATM   29  C31 UNL     1      -1.392  -4.163  -2.307  1.00  0.00     0.015 C 
HETATM   30  C32 UNL     1      -2.487  -2.779  -0.588  1.00  0.00     0.015 C 
HETATM   31  C33 UNL     1       1.205   1.716  -0.276  1.00  0.00     0.107 C 
HETATM   32  C34 UNL     1       1.960   1.744  -1.670  1.00  0.00     0.081 C 
HETATM   33  C35 UNL     1       1.258   2.633  -2.705  1.00  0.00     0.018 C 
ENDROOT
BRANCH   1  34
HETATM   34  O2  UNL     1      -1.074   1.413   0.572  1.00  0.00    -0.304 OA
BRANCH  34  35
HETATM   35  C7  UNL     1      -2.116   0.998   1.334  1.00  0.00     0.265 C 
HETATM   36  O1  UNL     1      -2.148  -0.037   1.971  1.00  0.00    -0.265 OA
BRANCH  35  37
HETATM   37  C5  UNL     1      -3.271   1.980   1.240  1.00  0.00     0.100 C 
BRANCH  37  38
HETATM   38  C4  UNL     1      -4.522   1.208   0.743  1.00  0.00     0.019 C 
BRANCH  38  39
HETATM   39  C2  UNL     1      -5.072   0.044   1.603  1.00  0.00    -0.022 C 
HETATM   40  C1  UNL     1      -6.255  -0.656   0.923  1.00  0.00     0.009 C 
HETATM   41  C3  UNL     1      -5.454   0.449   3.024  1.00  0.00     0.009 C 
ENDBRANCH  38  39
ENDBRANCH  37  38
BRANCH  37  42
HETATM   42  C6  UNL     1      -3.334   2.768   2.549  1.00  0.00     0.129 C 
HETATM   43 CL1  UNL     1      -4.644   3.978   2.565  1.00  0.00    -0.130 Cl
ENDBRANCH  37  42
ENDBRANCH  35  37
ENDBRANCH  34  35
ENDBRANCH   1  34
BRANCH  31  44
HETATM   44  O6  UNL     1       0.510   3.003  -0.253  1.00  0.00    -0.386 OA
ATOM     45  H6  UNL     1       1.127   3.680  -0.504  1.00  0.00     0.210 HD
ENDBRANCH  31  44
TORSDOF 7
