REMARK  3 active torsions:
REMARK  status: ('A' for Active; 'I' for Inactive)
REMARK    1  A    between atoms: C3_3  and  C4_4 
REMARK    2  A    between atoms: C4_4  and  N1_5 
REMARK    3  A    between atoms: C10_11  and  C14_16 
ROOT
HETATM    1  N1  UNL     1       1.619   1.324   0.329  1.00  0.00     0.089 N 
HETATM    2  C5  UNL     1       1.061   1.704  -0.977  1.00  0.00     0.273 C 
HETATM    3  C6  UNL     1       0.087   0.690  -1.593  1.00  0.00     0.041 C 
HETATM    4  C7  UNL     1      -1.015   0.398  -0.601  1.00  0.00    -0.021 C 
HETATM    5  C8  UNL     1      -2.544   0.594  -0.909  1.00  0.00     0.025 C 
HETATM    6  C9  UNL     1      -3.367   0.946   0.334  1.00  0.00     0.015 C 
HETATM    7  C10 UNL     1      -3.120  -0.222   1.315  1.00  0.00     0.015 C 
HETATM    8  C11 UNL     1      -3.955  -1.426   0.842  1.00  0.00     0.173 C 
HETATM    9  O1  UNL     1      -3.790  -1.613  -0.577  1.00  0.00    -0.385 OA
HETATM   10  C12 UNL     1      -2.629  -0.954  -1.143  1.00  0.00     0.131 C 
HETATM   11  C13 UNL     1      -1.355  -1.080  -0.285  1.00  0.00     0.029 C 
HETATM   12  C14 UNL     1      -1.628  -0.629   1.186  1.00  0.00     0.005 C 
HETATM   13  C15 UNL     1      -0.643   0.550   0.902  1.00  0.00     0.028 C 
HETATM   14  C16 UNL     1       0.861   0.319   1.082  1.00  0.00     0.278 C 
ENDROOT
BRANCH   1  15
HETATM   15  C4  UNL     1       3.066   1.084   0.327  1.00  0.00     0.277 C 
BRANCH  15  16
HETATM   16  C3  UNL     1       3.498  -0.111  -0.475  1.00  0.00     0.014 A 
HETATM   17  C1  UNL     1       4.885  -0.672  -0.281  1.00  0.00     0.007 A 
HETATM   18  C2  UNL     1       3.690  -1.464   0.163  1.00  0.00     0.007 A 
ENDBRANCH  15  16
ENDBRANCH   1  15
TORSDOF 3
