REMARK  10 active torsions:
REMARK  status: ('A' for Active; 'I' for Inactive)
REMARK    1  A    between atoms: C2_2  and  C3_3 
REMARK    2  A    between atoms: C11_13  and  C12_14 
REMARK    3  A    between atoms: C12_14  and  O3_15 
REMARK    4  A    between atoms: O3_15  and  C13_16 
REMARK    5  A    between atoms: C16_20  and  C18_22 
REMARK    6  A    between atoms: C18_22  and  C19_23 
REMARK    7  A    between atoms: C19_23  and  C20_24 
REMARK    8  A    between atoms: C22_27  and  O6_28 
REMARK    9  A    between atoms: C26_33  and  C28_35 
REMARK   10  A    between atoms: C30_37  and  O7_38 
ROOT
HETATM    1  C3  UNL     1       3.986  -0.599   0.086  1.00  0.00     0.006 C 
HETATM    2  C4  UNL     1       5.556  -0.649   0.116  1.00  0.00     0.022 C 
HETATM    3  C5  UNL     1       3.566  -1.066   1.487  1.00  0.00     0.094 C 
HETATM    4  C6  UNL     1       2.115  -1.106   1.899  1.00  0.00     0.133 C 
HETATM    5  O1  UNL     1       1.880  -1.556   3.025  1.00  0.00    -0.297 OA
HETATM    6  C7  UNL     1       0.974  -0.624   0.960  1.00  0.00     0.069 C 
HETATM    7  C8  UNL     1      -0.361  -1.391   1.380  1.00  0.00     0.008 C 
HETATM    8  C9  UNL     1      -0.896  -0.995   2.775  1.00  0.00     0.038 C 
HETATM    9  C10 UNL     1      -2.132  -0.141   2.841  1.00  0.00     0.132 C 
HETATM   10  O2  UNL     1      -3.280  -0.902   2.358  1.00  0.00    -0.371 OA
HETATM   11  C11 UNL     1      -3.276  -0.103   1.142  1.00  0.00     0.092 C 
HETATM   12  C15 UNL     1      -2.642  -0.876  -0.008  1.00  0.00     0.050 C 
HETATM   13  C16 UNL     1      -1.452  -1.840   0.279  1.00  0.00    -0.036 C 
HETATM   14  C17 UNL     1      -2.026  -3.213   0.759  1.00  0.00     0.015 C 
HETATM   15  C21 UNL     1      -2.460   1.001   1.868  1.00  0.00     0.080 C 
HETATM   16  C22 UNL     1      -1.481   1.994   1.265  1.00  0.00     0.128 C 
HETATM   17  C23 UNL     1      -0.399   1.496   0.301  1.00  0.00     0.043 C 
HETATM   18  C24 UNL     1       0.997   0.947   0.784  1.00  0.00    -0.018 C 
HETATM   19  C25 UNL     1       1.346   1.629   2.136  1.00  0.00     0.017 C 
HETATM   20  C26 UNL     1       2.094   1.355  -0.391  1.00  0.00     0.008 C 
HETATM   21  C27 UNL     1       1.633   0.814  -1.780  1.00  0.00     0.023 C 
HETATM   22  C30 UNL     1       3.592   0.898  -0.171  1.00  0.00     0.143 C 
ENDROOT
BRANCH  11  23
HETATM   23  C12 UNL     1      -4.723   0.328   0.834  1.00  0.00     0.217 C 
BRANCH  23  24
HETATM   24  O3  UNL     1      -4.685   1.368  -0.153  1.00  0.00    -0.319 OA
BRANCH  24  25
HETATM   25  C13 UNL     1      -5.056   1.035  -1.416  1.00  0.00     0.254 C 
HETATM   26  C14 UNL     1      -4.564   2.087  -2.366  1.00  0.00     0.126 C 
HETATM   27  O4  UNL     1      -5.640   0.012  -1.738  1.00  0.00    -0.266 OA
ENDBRANCH  24  25
ENDBRANCH  23  24
ENDBRANCH  11  23
BRANCH  13  28
HETATM   28  C18 UNL     1      -0.773  -2.144  -1.114  1.00  0.00     0.016 C 
BRANCH  28  29
HETATM   29  C19 UNL     1      -1.698  -2.611  -2.254  1.00  0.00     0.070 C 
BRANCH  29  30
HETATM   30  C20 UNL     1      -1.287  -1.973  -3.556  1.00  0.00     0.231 C 
HETATM   31  O5  UNL     1      -1.928  -1.075  -4.089  1.00  0.00    -0.307 OA
ENDBRANCH  29  30
ENDBRANCH  28  29
ENDBRANCH  13  28
BRANCH  16  32
HETATM   32  O6  UNL     1      -2.259   2.928   0.489  1.00  0.00    -0.395 OA
ATOM     33  H6  UNL     1      -1.647   3.549   0.112  1.00  0.00     0.210 HD
ENDBRANCH  16  32
BRANCH  20  34
HETATM   34  C28 UNL     1       2.172   2.916  -0.502  1.00  0.00    -0.024 C 
HETATM   35  C29 UNL     1       2.036   3.693  -1.586  1.00  0.00     0.008 C 
ENDBRANCH  20  34
BRANCH  22  36
HETATM   36  O7  UNL     1       4.185   1.675   0.890  1.00  0.00    -0.393 OA
ATOM     37  H7  UNL     1       3.946   2.581   0.734  1.00  0.00     0.210 HD
ENDBRANCH  22  36
BRANCH   1  38
HETATM   38  C2  UNL     1       3.573  -1.615  -0.979  1.00  0.00    -0.025 C 
HETATM   39  C1  UNL     1       3.921  -1.592  -2.272  1.00  0.00     0.008 C 
ENDBRANCH   1  38
TORSDOF 10
