REMARK  4 active torsions:
REMARK  status: ('A' for Active; 'I' for Inactive)
REMARK    1  A    between atoms: N1_5  and  C5_7 
REMARK    2  A    between atoms: C5_7  and  C6_8 
REMARK    3  A    between atoms: C6_8  and  S1_9 
REMARK    4  A    between atoms: S1_9  and  C7_10 
ROOT
HETATM    1  C1  UNL     1       0.818  -5.060   2.052  1.00  0.00     0.049 C 
HETATM    2  C2  UNL     1       0.350  -3.781   1.412  1.00  0.00    -0.046 C 
HETATM    3  C3  UNL     1      -0.966  -3.552   1.244  1.00  0.00     0.056 C 
HETATM    4  C4  UNL     1      -1.403  -2.416   0.371  1.00  0.00     0.102 C 
HETATM    5  N1  UNL     1      -2.566  -2.575  -0.178  1.00  0.00    -0.376 N 
ATOM      6  H1  UNL     1      -3.179  -3.320   0.153  1.00  0.00     0.161 HD
HETATM    7  N2  UNL     1      -0.529  -1.374   0.169  1.00  0.00    -0.340 N 
ATOM      8  H2  UNL     1      -0.881  -0.470  -0.145  1.00  0.00     0.167 HD
HETATM    9  C11 UNL     1       0.867  -1.553   0.397  1.00  0.00     0.072 C 
HETATM   10  C12 UNL     1       1.339  -2.772   0.938  1.00  0.00    -0.001 C 
HETATM   11  C13 UNL     1       2.721  -2.983   0.999  1.00  0.00     0.015 C 
HETATM   12  C14 UNL     1       3.624  -2.007   0.545  1.00  0.00     0.011 C 
HETATM   13  C15 UNL     1       3.160  -0.761   0.098  1.00  0.00    -0.021 C 
HETATM   14  C16 UNL     1       1.768  -0.495   0.133  1.00  0.00     0.069 C 
HETATM   15  N3  UNL     1       1.181   0.801   0.044  1.00  0.00    -0.319 N 
ATOM     16  H3  UNL     1       0.164   0.819  -0.027  1.00  0.00     0.169 HD
HETATM   17  C17 UNL     1       1.798   2.033   0.041  1.00  0.00     0.269 C 
HETATM   18  O1  UNL     1       1.166   3.050   0.276  1.00  0.00    -0.266 OA
HETATM   19  C18 UNL     1       3.209   2.000  -0.197  1.00  0.00     0.083 C 
HETATM   20  N4  UNL     1       4.164   1.790   0.855  1.00  0.00    -0.380 N 
ATOM     21  H4  UNL     1       4.164   2.146   1.811  1.00  0.00     0.160 HD
HETATM   22  C19 UNL     1       5.117   0.945   0.197  1.00  0.00     0.114 C 
HETATM   23  C20 UNL     1       5.998   1.707  -0.661  1.00  0.00    -0.004 C 
HETATM   24  C21 UNL     1       5.166   1.967  -1.674  1.00  0.00    -0.017 C 
HETATM   25  C22 UNL     1       3.893   1.375  -1.267  1.00  0.00     0.074 C 
HETATM   26  C23 UNL     1       4.145   0.169  -0.508  1.00  0.00     0.061 C 
ENDROOT
BRANCH   5  27
HETATM   27  C5  UNL     1      -3.017  -1.697  -1.272  1.00  0.00     0.131 C 
BRANCH  27  28
HETATM   28  C6  UNL     1      -3.582  -0.358  -0.757  1.00  0.00     0.094 C 
BRANCH  28  29
HETATM   29  S1  UNL     1      -2.893   1.052  -1.722  1.00  0.00    -0.159 SA
BRANCH  29  30
HETATM   30  C7  UNL     1      -3.412   2.538  -0.724  1.00  0.00    -0.003 C 
HETATM   31  C8  UNL     1      -2.981   3.812  -1.474  1.00  0.00     0.026 C 
HETATM   32  C9  UNL     1      -4.933   2.556  -0.542  1.00  0.00     0.026 C 
HETATM   33  C10 UNL     1      -2.678   2.538   0.622  1.00  0.00     0.026 C 
ENDBRANCH  29  30
ENDBRANCH  28  29
ENDBRANCH  27  28
ENDBRANCH   5  27
TORSDOF 4
