REMARK  13 active torsions:
REMARK  status: ('A' for Active; 'I' for Inactive)
REMARK    1  A    between atoms: C2_2  and  C3_3 
REMARK    2  A    between atoms: C3_3  and  C4_4 
REMARK    3  A    between atoms: C4_4  and  O2_6 
REMARK    4  A    between atoms: O2_6  and  C5_7 
REMARK    5  A    between atoms: C6_8  and  O3_9 
REMARK    6  A    between atoms: C6_8  and  C7_11 
REMARK    7  A    between atoms: C10_16  and  C11_17 
REMARK    8  A    between atoms: C23_31  and  C24_32 
REMARK    9  A    between atoms: C24_32  and  C25_33 
REMARK   10  A    between atoms: C30_38  and  C31_39 
REMARK   11  A    between atoms: C32_40  and  C33_41 
REMARK   12  A    between atoms: C33_41  and  O8_42 
REMARK   13  A    between atoms: C35_44  and  O9_46 
ROOT
HETATM    1  C5  UNL     1      -0.494   0.040  -1.471  1.00  0.00     0.189 C 
HETATM    2  C6  UNL     1      -0.143  -1.370  -2.186  1.00  0.00     0.172 C 
HETATM    3  C9  UNL     1       1.162  -2.152  -1.809  1.00  0.00     0.296 C 
HETATM    4  O4  UNL     1       1.393  -3.310  -2.132  1.00  0.00    -0.262 OA
HETATM    5  O5  UNL     1       1.986  -1.393  -1.071  1.00  0.00    -0.313 OA
HETATM    6  C10 UNL     1       3.091  -1.919  -0.335  1.00  0.00     0.144 C 
HETATM    7  C13 UNL     1       3.165  -1.152   1.028  1.00  0.00     0.032 C 
HETATM    8  C14 UNL     1       4.166  -2.007   1.891  1.00  0.00     0.022 C 
HETATM    9  C15 UNL     1       1.765  -0.948   1.752  1.00  0.00    -0.013 C 
HETATM   10  C16 UNL     1       1.300  -2.276   2.423  1.00  0.00     0.018 C 
HETATM   11  C17 UNL     1       2.141   0.044   2.923  1.00  0.00     0.047 C 
HETATM   12  C18 UNL     1       3.124   0.985   2.325  1.00  0.00     0.167 A 
HETATM   13  O6  UNL     1       4.484   0.620   2.166  1.00  0.00    -0.360 OA
HETATM   14  C19 UNL     1       3.611   0.330   1.052  1.00  0.00     0.159 A 
HETATM   15  C20 UNL     1       3.697   1.225  -0.116  1.00  0.00     0.176 C 
HETATM   16  O7  UNL     1       4.785   1.293  -0.688  1.00  0.00    -0.294 OA
HETATM   17  C21 UNL     1       2.368   2.084  -0.508  1.00  0.00     0.056 C 
HETATM   18  C22 UNL     1       2.889   3.523  -0.747  1.00  0.00     0.027 C 
HETATM   19  C23 UNL     1       0.943   2.012   0.273  1.00  0.00     0.023 C 
HETATM   20  C29 UNL     1       0.613   0.597  -0.456  1.00  0.00     0.042 C 
HETATM   21  C30 UNL     1       0.549  -0.446   0.813  1.00  0.00     0.088 C 
HETATM   22  C35 UNL     1       1.630   1.372  -1.681  1.00  0.00     0.081 C 
HETATM   23  C36 UNL     1       1.090   2.394  -2.710  1.00  0.00     0.048 C 
ENDROOT
BRANCH   1  24
HETATM   24  O2  UNL     1      -1.813  -0.015  -0.870  1.00  0.00    -0.311 OA
BRANCH  24  25
HETATM   25  C4  UNL     1      -2.835   0.433  -1.658  1.00  0.00     0.259 C 
HETATM   26  O1  UNL     1      -2.704   1.186  -2.619  1.00  0.00    -0.265 OA
BRANCH  25  27
HETATM   27  C3  UNL     1      -4.154  -0.183  -1.265  1.00  0.00     0.111 C 
BRANCH  27  28
HETATM   28  C2  UNL     1      -4.881  -0.635  -2.536  1.00  0.00     0.005 C 
HETATM   29  C1  UNL     1      -6.072  -1.526  -2.241  1.00  0.00     0.005 C 
ENDBRANCH  27  28
ENDBRANCH  25  27
ENDBRANCH  24  25
ENDBRANCH   1  24
BRANCH   2  30
HETATM   30  O3  UNL     1       0.061  -1.028  -3.589  1.00  0.00    -0.377 OA
ATOM     31  H3  UNL     1       0.267  -1.855  -4.008  1.00  0.00     0.211 HD
ENDBRANCH   2  30
BRANCH   2  32
HETATM   32  C7  UNL     1      -1.299  -2.413  -2.141  1.00  0.00     0.047 C 
HETATM   33  C8  UNL     1      -1.614  -3.016  -0.768  1.00  0.00     0.009 C 
ENDBRANCH   2  32
BRANCH  19  34
HETATM   34  C24 UNL     1       0.033   3.255   0.421  1.00  0.00     0.034 C 
BRANCH  34  35
HETATM   35  C25 UNL     1      -1.373   3.114  -0.084  1.00  0.00    -0.024 C 
HETATM   36  C26 UNL     1      -2.514   3.434   0.553  1.00  0.00    -0.091 C 
HETATM   37  C27 UNL     1      -2.634   3.834   1.999  1.00  0.00     0.042 C 
HETATM   38  C28 UNL     1      -3.829   3.506  -0.188  1.00  0.00     0.042 C 
ENDBRANCH  34  35
ENDBRANCH  19  34
BRANCH  21  39
HETATM   39  C31 UNL     1      -0.602  -0.083   1.693  1.00  0.00    -0.098 C 
HETATM   40  C32 UNL     1      -1.494   0.140   2.469  1.00  0.00    -0.080 C 
BRANCH  40  41
HETATM   41  C33 UNL     1      -2.514   0.384   3.493  1.00  0.00     0.260 C 
BRANCH  41  42
HETATM   42  O8  UNL     1      -2.244  -0.384   4.669  1.00  0.00    -0.384 OA
HETATM   43  C34 UNL     1      -2.634  -1.747   4.542  1.00  0.00     0.202 C 
ENDBRANCH  41  42
ENDBRANCH  40  41
ENDBRANCH  21  39
BRANCH  22  44
HETATM   44  O9  UNL     1       2.445   0.485  -2.477  1.00  0.00    -0.388 OA
ATOM     45  H9  UNL     1       1.995   0.051  -3.192  1.00  0.00     0.210 HD
ENDBRANCH  22  44
BRANCH   6  46
HETATM   46  C11 UNL     1       4.376  -1.889  -1.178  1.00  0.00     0.029 C 
HETATM   47  C12 UNL     1       4.847  -3.294  -1.536  1.00  0.00     0.007 C 
ENDBRANCH   6  46
TORSDOF 13
