REMARK  10 active torsions:
REMARK  status: ('A' for Active; 'I' for Inactive)
REMARK    1  A    between atoms: C2_2  and  C3_3 
REMARK    2  A    between atoms: C3_3  and  C4_4 
REMARK    3  A    between atoms: C4_4  and  C5_5 
REMARK    4  A    between atoms: C5_5  and  C6_6 
REMARK    5  A    between atoms: C6_6  and  C7_7 
REMARK    6  A    between atoms: C8_8  and  O1_9 
REMARK    7  A    between atoms: O1_9  and  C9_10 
REMARK    8  A    between atoms: C11_14  and  O4_16 
REMARK    9  A    between atoms: C18_23  and  O5_24 
REMARK   10  A    between atoms: C22_31  and  O6_32 
ROOT
HETATM    1  C9  UNL     1      -0.956   0.440   0.401  1.00  0.00     0.285 C 
HETATM    2  O2  UNL     1      -0.416  -0.464   1.385  1.00  0.00    -0.286 OA
HETATM    3  C10 UNL     1      -0.660  -1.785   1.207  1.00  0.00     0.296 C 
HETATM    4  O3  UNL     1       0.156  -2.640   1.547  1.00  0.00    -0.262 OA
HETATM    5  C11 UNL     1      -2.026  -2.124   0.559  1.00  0.00     0.146 C 
HETATM    6  C12 UNL     1      -2.512  -3.482   1.090  1.00  0.00     0.057 C 
HETATM    7  C13 UNL     1      -3.010  -0.998   0.943  1.00  0.00     0.044 C 
HETATM    8  C14 UNL     1      -4.492  -1.173   0.551  1.00  0.00     0.016 C 
HETATM    9  C15 UNL     1      -4.930  -0.053  -0.390  1.00  0.00     0.021 C 
HETATM   10  C16 UNL     1      -4.085  -0.067  -1.681  1.00  0.00     0.016 C 
HETATM   11  C17 UNL     1      -3.114   0.881  -0.963  1.00  0.00     0.035 C 
HETATM   12  C18 UNL     1      -4.319   1.357  -0.115  1.00  0.00     0.067 C 
HETATM   13  C19 UNL     1      -3.345   1.472   1.070  1.00  0.00     0.054 C 
HETATM   14  C20 UNL     1      -2.487   0.353   0.386  1.00  0.00     0.027 C 
ENDROOT
BRANCH   1  15
HETATM   15  O1  UNL     1      -0.577   1.780   0.738  1.00  0.00    -0.317 OA
BRANCH  15  16
HETATM   16  C8  UNL     1       0.431   2.255  -0.019  1.00  0.00     0.098 A 
HETATM   17  C7  UNL     1       1.801   2.349   0.336  1.00  0.00     0.028 A 
HETATM   18  C22 UNL     1       2.414   3.062  -0.681  1.00  0.00     0.149 A 
HETATM   19  N1  UNL     1       1.458   3.377  -1.617  1.00  0.00    -0.344 N 
HETATM   20  C21 UNL     1       0.238   2.909  -1.206  1.00  0.00     0.127 A 
ATOM     21  H1  UNL     1       1.631   3.883  -2.486  1.00  0.00     0.167 HD
BRANCH  17  22
HETATM   22  C6  UNL     1       2.452   1.823   1.579  1.00  0.00     0.046 C 
BRANCH  22  23
HETATM   23  C5  UNL     1       2.896   0.359   1.450  1.00  0.00     0.005 C 
BRANCH  23  24
HETATM   24  C4  UNL     1       4.207   0.181   0.671  1.00  0.00     0.000 C 
BRANCH  24  25
HETATM   25  C3  UNL     1       4.238  -1.149  -0.089  1.00  0.00    -0.000 C 
BRANCH  25  26
HETATM   26  C2  UNL     1       5.537  -1.312  -0.877  1.00  0.00    -0.005 C 
HETATM   27  C1  UNL     1       5.517  -2.564  -1.746  1.00  0.00     0.005 C 
ENDBRANCH  25  26
ENDBRANCH  24  25
ENDBRANCH  23  24
ENDBRANCH  22  23
ENDBRANCH  17  22
BRANCH  18  28
HETATM   28  O6  UNL     1       3.680   3.447  -0.798  1.00  0.00    -0.346 OA
ATOM     29  H6  UNL     1       4.100   3.936  -1.496  1.00  0.00     0.219 HD
ENDBRANCH  18  28
ENDBRANCH  15  16
ENDBRANCH   1  15
BRANCH   5  30
HETATM   30  O4  UNL     1      -1.895  -2.188  -0.859  1.00  0.00    -0.380 OA
ATOM     31  H4  UNL     1      -2.733  -2.396  -1.256  1.00  0.00     0.211 HD
ENDBRANCH   5  30
BRANCH  12  32
HETATM   32  O5  UNL     1      -5.035   2.519  -0.534  1.00  0.00    -0.389 OA
ATOM     33  H5  UNL     1      -4.663   3.377  -0.367  1.00  0.00     0.210 HD
ENDBRANCH  12  32
TORSDOF 10
