REMARK  10 active torsions:
REMARK  status: ('A' for Active; 'I' for Inactive)
REMARK    1  A    between atoms: C2_2  and  C4_4 
REMARK    2  A    between atoms: C4_4  and  C5_5 
REMARK    3  A    between atoms: C5_5  and  C6_6 
REMARK    4  A    between atoms: C5_5  and  C14_19 
REMARK    5  A    between atoms: C6_6  and  O1_7 
REMARK    6  A    between atoms: O1_7  and  C7_8 
REMARK    7  A    between atoms: C7_8  and  C8_12 
REMARK    8  A    between atoms: C14_19  and  C15_20 
REMARK    9  A    between atoms: C15_20  and  C17_22 
REMARK   10  A    between atoms: C18_23  and  O3_24 
ROOT
HETATM    1  C5  UNL     1      -0.585   1.972   0.364  1.00  0.00     0.014 C 
ENDROOT
BRANCH   1   2
HETATM    2  C4  UNL     1      -1.044   3.248  -0.370  1.00  0.00     0.039 C 
BRANCH   2   3
HETATM    3  C2  UNL     1      -2.275   3.061  -1.229  1.00  0.00    -0.093 C 
HETATM    4  C1  UNL     1      -3.453   3.619  -0.899  1.00  0.00     0.014 C 
HETATM    5  C3  UNL     1      -2.121   2.266  -2.497  1.00  0.00     0.042 C 
ENDBRANCH   2   3
ENDBRANCH   1   2
BRANCH   1   6
HETATM    6  C6  UNL     1      -1.628   1.477   1.385  1.00  0.00     0.182 C 
BRANCH   6   7
HETATM    7  O1  UNL     1      -2.077   0.210   0.859  1.00  0.00    -0.338 OA
BRANCH   7   8
HETATM    8  C7  UNL     1      -2.401  -0.787   1.704  1.00  0.00     0.125 C 
HETATM    9  N1  UNL     1      -2.759  -0.553   2.920  1.00  0.00    -0.383 N 
ATOM     10  H12 UNL     1      -2.847   0.370   3.345  1.00  0.00     0.158 HD
ATOM     11  H11 UNL     1      -3.004  -1.308   3.560  1.00  0.00     0.158 HD
BRANCH   8  12
HETATM   12  C8  UNL     1      -2.269  -2.172   1.066  1.00  0.00     0.078 A 
HETATM   13  C9  UNL     1      -1.365  -3.207   1.749  1.00  0.00     0.190 A 
HETATM   14  O2  UNL     1      -2.495  -4.083   1.977  1.00  0.00    -0.377 OA
HETATM   15  C10 UNL     1      -3.331  -3.153   1.288  1.00  0.00     0.082 A 
HETATM   16  C11 UNL     1      -4.630  -3.440   0.661  1.00  0.00     0.047 A 
HETATM   17  C12 UNL     1      -3.411  -3.460  -0.194  1.00  0.00     0.026 A 
HETATM   18  C13 UNL     1      -2.431  -2.379  -0.453  1.00  0.00     0.031 A 
ENDBRANCH   8  12
ENDBRANCH   7   8
ENDBRANCH   6   7
ENDBRANCH   1   6
BRANCH   1  19
HETATM   19  C14 UNL     1       0.815   2.186   0.990  1.00  0.00     0.011 C 
BRANCH  19  20
HETATM   20  C15 UNL     1       1.523   0.850   1.348  1.00  0.00    -0.011 C 
HETATM   21  C16 UNL     1       1.771   0.843   2.871  1.00  0.00     0.010 C 
BRANCH  20  22
HETATM   22  C17 UNL     1       2.876   0.636   0.603  1.00  0.00     0.023 C 
HETATM   23  C18 UNL     1       3.492  -0.776   0.939  1.00  0.00     0.123 C 
HETATM   24  C19 UNL     1       3.630  -1.557  -0.386  1.00  0.00     0.042 C 
HETATM   25  C20 UNL     1       2.638  -0.854  -1.288  1.00  0.00     0.029 C 
HETATM   26  C21 UNL     1       2.755  -0.822  -2.776  1.00  0.00    -0.017 C 
HETATM   27  C25 UNL     1       2.917   0.605  -0.928  1.00  0.00     0.008 C 
HETATM   28  C22 UNL     1       3.128  -1.770  -3.637  1.00  0.00     0.023 C 
HETATM   29  C23 UNL     1       2.376   0.580  -3.172  1.00  0.00     0.155 C 
HETATM   30  O4  UNL     1       2.273   0.974  -4.321  1.00  0.00    -0.293 OA
HETATM   31  C24 UNL     1       2.099   1.404  -1.926  1.00  0.00     0.089 C 
BRANCH  23  32
HETATM   32  O3  UNL     1       4.775  -0.638   1.528  1.00  0.00    -0.395 OA
ATOM     33  H3  UNL     1       5.146  -1.489   1.730  1.00  0.00     0.210 HD
ENDBRANCH  23  32
ENDBRANCH  20  22
ENDBRANCH  19  20
ENDBRANCH   1  19
TORSDOF 10
