REMARK  6 active torsions:
REMARK  status: ('A' for Active; 'I' for Inactive)
REMARK    1  A    between atoms: C2_2  and  C5_5 
REMARK    2  A    between atoms: C5_5  and  C6_6 
REMARK    3  A    between atoms: C6_6  and  O1_7 
REMARK    4  A    between atoms: C6_6  and  C7_9 
REMARK    5  A    between atoms: C12_14  and  O2_15 
REMARK    6  A    between atoms: C13_17  and  O3_18 
ROOT
HETATM    1  C7  UNL     1       0.495  -0.411   0.249  1.00  0.00     0.150 C 
HETATM    2  C8  UNL     1       1.339  -0.074   1.483  1.00  0.00     0.059 C 
HETATM    3  C9  UNL     1       2.184   0.969   1.331  1.00  0.00     0.083 C 
HETATM    4  C10 UNL     1       3.456   0.880   0.512  1.00  0.00     0.137 C 
HETATM    5  C11 UNL     1       3.739  -0.442  -0.224  1.00  0.00     0.067 C 
HETATM    6  C12 UNL     1       2.641  -0.849  -1.227  1.00  0.00     0.152 C 
HETATM    7  C13 UNL     1       1.320  -1.416  -0.623  1.00  0.00     0.187 C 
HETATM    8  O4  UNL     1       2.873   1.856  -0.385  1.00  0.00    -0.346 OA
HETATM    9  C14 UNL     1       1.790   2.181   0.509  1.00  0.00     0.200 C 
HETATM   10  C15 UNL     1       1.970   3.555   1.113  1.00  0.00     0.082 C 
HETATM   11  O5  UNL     1       0.436   2.017   0.006  1.00  0.00    -0.200 OA
HETATM   12  O6  UNL     1       0.321   0.714  -0.674  1.00  0.00    -0.221 OA
ENDROOT
BRANCH   1  13
HETATM   13  C6  UNL     1      -0.875  -1.072   0.604  1.00  0.00     0.159 C 
BRANCH  13  14
HETATM   14  C5  UNL     1      -2.019  -0.070   0.890  1.00  0.00     0.043 C 
BRANCH  14  15
HETATM   15  C2  UNL     1      -3.173  -0.113  -0.166  1.00  0.00    -0.049 C 
HETATM   16  C1  UNL     1      -4.143   1.053   0.088  1.00  0.00     0.014 C 
HETATM   17  C3  UNL     1      -3.959  -1.428  -0.014  1.00  0.00     0.014 C 
HETATM   18  C4  UNL     1      -2.663   0.025  -1.620  1.00  0.00     0.014 C 
ENDBRANCH  14  15
ENDBRANCH  13  14
BRANCH  13  19
HETATM   19  O1  UNL     1      -0.747  -1.995   1.706  1.00  0.00    -0.392 OA
ATOM     20  H1  UNL     1      -0.045  -2.610   1.530  1.00  0.00     0.210 HD
ENDBRANCH  13  19
ENDBRANCH   1  13
BRANCH   7  21
HETATM   21  O3  UNL     1       1.589  -2.659   0.059  1.00  0.00    -0.390 OA
ATOM     22  H3  UNL     1       2.090  -3.269  -0.470  1.00  0.00     0.210 HD
ENDBRANCH   7  21
BRANCH   6  23
HETATM   23  O2  UNL     1       3.185  -1.917  -2.037  1.00  0.00    -0.393 OA
ATOM     24  H2  UNL     1       2.508  -2.168  -2.655  1.00  0.00     0.210 HD
ENDBRANCH   6  23
TORSDOF 6
