REMARK  3 active torsions:
REMARK  status: ('A' for Active; 'I' for Inactive)
REMARK    1  A    between atoms: C2_2  and  C3_3 
REMARK    2  A    between atoms: C3_3  and  O1_5 
REMARK    3  A    between atoms: C3_3  and  C5_7 
ROOT
HETATM    1  C5  UNL     1       1.414   0.333   0.404  1.00  0.00    -0.010 C 
HETATM    2  C6  UNL     1       2.126   1.509  -0.338  1.00  0.00     0.018 C 
HETATM    3  C7  UNL     1       0.956  -0.734  -0.716  1.00  0.00     0.020 C 
HETATM    4  C8  UNL     1      -0.361  -0.730  -1.607  1.00  0.00     0.027 C 
HETATM    5  C9  UNL     1      -0.723   0.816  -2.208  1.00  0.00    -0.011 C 
HETATM    6  C10 UNL     1      -1.783   0.675  -3.313  1.00  0.00     0.010 C 
HETATM    7  C11 UNL     1      -1.136   2.192  -1.312  1.00  0.00     0.012 C 
HETATM    8  C12 UNL     1      -1.664   2.273   0.247  1.00  0.00     0.020 C 
HETATM    9  C13 UNL     1      -3.181   2.511   0.264  1.00  0.00     0.013 C 
HETATM   10  C14 UNL     1      -1.219   1.062   1.083  1.00  0.00     0.100 C 
HETATM   11  C15 UNL     1      -2.037   0.188   2.045  1.00  0.00     0.042 C 
HETATM   12  C16 UNL     1      -1.651  -1.360   1.962  1.00  0.00     0.006 C 
HETATM   13  C17 UNL     1      -1.479  -2.188   0.584  1.00  0.00     0.041 C 
HETATM   14  C18 UNL     1      -1.678  -1.476  -0.819  1.00  0.00     0.097 C 
HETATM   15  C19 UNL     1      -2.482  -2.347  -1.774  1.00  0.00     0.050 C 
HETATM   16  O2  UNL     1      -2.408  -0.353  -0.403  1.00  0.00    -0.229 OA
HETATM   17  O3  UNL     1      -1.208   0.266   0.015  1.00  0.00    -0.228 OA
HETATM   18  C20 UNL     1       0.316   1.063   1.390  1.00  0.00     0.053 C 
ENDROOT
BRANCH   1  19
HETATM   19  C3  UNL     1       2.560  -0.393   1.323  1.00  0.00     0.061 C 
HETATM   20  C4  UNL     1       1.971  -1.373   2.366  1.00  0.00     0.046 C 
BRANCH  19  21
HETATM   21  C2  UNL     1       3.655  -1.238   0.581  1.00  0.00     0.034 C 
HETATM   22  C1  UNL     1       4.683  -0.532  -0.290  1.00  0.00     0.008 C 
ENDBRANCH  19  21
BRANCH  19  23
HETATM   23  O1  UNL     1       3.261   0.607   2.083  1.00  0.00    -0.389 OA
ATOM     24  H1  UNL     1       2.598   1.118   2.532  1.00  0.00     0.210 HD
ENDBRANCH  19  23
ENDBRANCH   1  19
TORSDOF 3
