REMARK  14 active torsions:
REMARK  status: ('A' for Active; 'I' for Inactive)
REMARK    1  A    between atoms: C2_2  and  O1_4 
REMARK    2  A    between atoms: O1_4  and  C4_5 
REMARK    3  A    between atoms: C4_5  and  N1_7 
REMARK    4  A    between atoms: C4_5  and  C17_44 
REMARK       I    between atoms: N1_7  and  C6_9 
REMARK    5  A    between atoms: C6_9  and  C7_11 
REMARK    6  A    between atoms: C7_11  and  O3_12 
REMARK    7  A    between atoms: C7_11  and  C8_14 
REMARK    8  A    between atoms: C10_20  and  C11_21 
REMARK    9  A    between atoms: C14_26  and  N5_27 
REMARK   10  A    between atoms: N5_27  and  O4_28 
REMARK   11  A    between atoms: N5_27  and  O5_30 
REMARK   12  A    between atoms: N6_33  and  N7_35 
REMARK   13  A    between atoms: N8_38  and  O6_39 
REMARK   14  A    between atoms: C17_44  and  O7_46 
ROOT
HETATM    1  C8  UNL     1      -0.428   1.797   0.483  1.00  0.00     0.110 C 
HETATM    2  N2  UNL     1      -0.599   1.232   1.657  1.00  0.00    -0.296 N 
ATOM      3  H2  UNL     1       0.175   0.832   2.187  1.00  0.00     0.187 HD
HETATM    4  N3  UNL     1      -1.904   1.217   2.127  1.00  0.00    -0.283 N 
ATOM      5  H3  UNL     1      -2.124   0.926   3.080  1.00  0.00     0.188 HD
HETATM    6  C9  UNL     1      -2.897   1.615   1.244  1.00  0.00     0.145 C 
HETATM    7  C10 UNL     1      -3.827   0.740   0.749  1.00  0.00     0.060 C 
HETATM    8  N4  UNL     1      -4.657   1.066  -0.317  1.00  0.00    -0.340 N 
ATOM      9  H4  UNL     1      -5.666   1.097  -0.171  1.00  0.00     0.167 HD
HETATM   10  C14 UNL     1      -4.174   1.335  -1.505  1.00  0.00     0.184 C 
HETATM   11  C15 UNL     1      -2.720   1.281  -2.002  1.00  0.00     0.192 C 
HETATM   12  N6  UNL     1      -2.280   0.315  -2.783  1.00  0.00    -0.287 N 
ATOM     13  H6  UNL     1      -1.333   0.332  -3.162  1.00  0.00     0.188 HD
HETATM   14  N8  UNL     1      -1.863   2.314  -1.595  1.00  0.00    -0.184 N 
HETATM   15  C16 UNL     1      -1.631   2.474  -0.234  1.00  0.00     0.164 C 
HETATM   16  N9  UNL     1      -2.680   2.754   0.502  1.00  0.00    -0.322 N 
ATOM     17  H9  UNL     1      -3.215   3.622   0.520  1.00  0.00     0.169 HD
ENDROOT
BRANCH   1  18
HETATM   18  C7  UNL     1       0.872   1.624  -0.261  1.00  0.00     0.265 C 
BRANCH  18  19
HETATM   19  C6  UNL     1       2.082   1.458   0.671  1.00  0.00     0.255 C 
HETATM   20  N1  UNL     1       2.641   0.216   0.836  1.00  0.00    -0.325 N 
ATOM     21  H1  UNL     1       2.399  -0.289   1.688  1.00  0.00     0.165 HD
HETATM   22  O2  UNL     1       2.475   2.393   1.377  1.00  0.00    -0.270 OA
BRANCH  20  23
HETATM   23  C4  UNL     1       3.557  -0.458  -0.099  1.00  0.00     0.159 C 
HETATM   24  C5  UNL     1       3.057  -0.614  -1.542  1.00  0.00     0.074 C 
BRANCH  23  25
HETATM   25  O1  UNL     1       3.643  -1.840   0.311  1.00  0.00    -0.354 OA
BRANCH  25  26
HETATM   26  C2  UNL     1       3.977  -2.191   1.650  1.00  0.00     0.116 C 
HETATM   27  C1  UNL     1       4.908  -3.396   1.565  1.00  0.00     0.039 C 
HETATM   28  C3  UNL     1       2.709  -2.581   2.405  1.00  0.00     0.039 C 
ENDBRANCH  25  26
ENDBRANCH  23  25
BRANCH  23  29
HETATM   29  C17 UNL     1       4.980   0.215  -0.108  1.00  0.00     0.169 C 
HETATM   30  C18 UNL     1       5.087   1.462  -0.984  1.00  0.00     0.044 C 
BRANCH  29  31
HETATM   31  O7  UNL     1       5.368   0.579   1.229  1.00  0.00    -0.391 OA
ATOM     32  H7  UNL     1       6.227   0.985   1.224  1.00  0.00     0.210 HD
ENDBRANCH  29  31
ENDBRANCH  23  29
ENDBRANCH  20  23
ENDBRANCH  18  19
BRANCH  18  33
HETATM   33  O3  UNL     1       0.590   0.498  -1.091  1.00  0.00    -0.380 OA
ATOM     34  H3  UNL     1      -0.158   0.601  -1.667  1.00  0.00     0.211 HD
ENDBRANCH  18  33
ENDBRANCH   1  18
BRANCH  14  35
HETATM   35  O6  UNL     1      -0.721   2.411  -2.405  1.00  0.00    -0.279 OA
ATOM     36  H6  UNL     1      -0.141   3.111  -2.129  1.00  0.00     0.245 HD
ENDBRANCH  14  35
BRANCH   7  37
HETATM   37  C11 UNL     1      -4.010  -0.659   1.360  1.00  0.00     0.031 C 
HETATM   38  C12 UNL     1      -4.704  -1.684   0.448  1.00  0.00     0.016 C 
HETATM   39  C13 UNL     1      -4.753  -0.591   2.697  1.00  0.00     0.016 C 
ENDBRANCH   7  37
BRANCH  10  40
HETATM   40  N5  UNL     1      -5.140   1.775  -2.487  1.00  0.00    -0.015 NA
BRANCH  40  41
HETATM   41  O4  UNL     1      -4.629   2.715  -3.315  1.00  0.00    -0.283 OA
ATOM     42  H4  UNL     1      -5.264   3.004  -3.960  1.00  0.00     0.240 HD
ENDBRANCH  40  41
BRANCH  40  43
HETATM   43  O5  UNL     1      -5.575   0.716  -3.321  1.00  0.00    -0.283 OA
ATOM     44  H5  UNL     1      -6.210   1.005  -3.966  1.00  0.00     0.240 HD
ENDBRANCH  40  43
ENDBRANCH  10  40
BRANCH  12  45
HETATM   45  N7  UNL     1      -3.127  -0.697  -3.063  1.00  0.00    -0.343 N 
ATOM     46  H72 UNL     1      -4.071  -0.699  -2.676  1.00  0.00     0.176 HD
ATOM     47  H71 UNL     1      -2.786  -1.445  -3.667  1.00  0.00     0.176 HD
ENDBRANCH  12  45
TORSDOF 14
