REMARK  3 active torsions:
REMARK  status: ('A' for Active; 'I' for Inactive)
REMARK    1  A    between atoms: C7_7  and  C8_8 
REMARK    2  A    between atoms: C11_12  and  N1_13 
REMARK       I    between atoms: N1_13  and  C12_15 
REMARK    3  A    between atoms: C12_15  and  C13_17 
REMARK       I    between atoms: C13_17  and  N2_19 
ROOT
HETATM    1  C1  UNL     1      -0.082   3.865   0.843  1.00  0.00     0.012 C 
HETATM    2  C2  UNL     1      -0.166   2.876   0.175  1.00  0.00    -0.112 C 
HETATM    3  C3  UNL     1      -0.238   1.626  -0.605  1.00  0.00     0.071 C 
HETATM    4  C4  UNL     1      -1.507   1.508  -1.459  1.00  0.00     0.023 C 
HETATM    5  C5  UNL     1      -2.341   0.430  -0.764  1.00  0.00    -0.001 C 
HETATM    6  C6  UNL     1      -1.813  -1.061  -0.632  1.00  0.00     0.024 C 
HETATM    7  C7  UNL     1      -2.490  -0.993   0.782  1.00  0.00     0.058 C 
HETATM    8  C9  UNL     1      -1.877   0.444   0.719  1.00  0.00     0.008 C 
HETATM    9  C10 UNL     1      -0.359   0.428   0.353  1.00  0.00     0.029 C 
HETATM   10  C11 UNL     1      -0.311  -0.935  -0.363  1.00  0.00     0.095 C 
ENDROOT
BRANCH  10  11
HETATM   11  N1  UNL     1       0.354  -1.075  -1.632  1.00  0.00    -0.347 N 
HETATM   12  C12 UNL     1       1.716  -1.253  -1.747  1.00  0.00     0.309 C 
HETATM   13  O2  UNL     1       2.188  -2.038  -2.553  1.00  0.00    -0.262 OA
ATOM     14  H1  UNL     1      -0.207  -1.041  -2.483  1.00  0.00     0.163 HD
BRANCH  12  15
HETATM   15  C13 UNL     1       2.622  -0.422  -0.826  1.00  0.00     0.308 C 
HETATM   16  O3  UNL     1       3.121   0.619  -1.240  1.00  0.00    -0.262 OA
HETATM   17  N2  UNL     1       2.779  -0.945   0.440  1.00  0.00    -0.357 N 
HETATM   18  C14 UNL     1       3.679  -0.297   1.351  1.00  0.00     0.149 C 
ATOM     19  H2  UNL     1       2.264  -1.778   0.724  1.00  0.00     0.162 HD
ENDBRANCH  12  15
ENDBRANCH  10  11
BRANCH   7  20
HETATM   20  C8  UNL     1      -2.027  -1.906   1.931  1.00  0.00     0.236 C 
HETATM   21  O1  UNL     1      -1.566  -3.041   1.820  1.00  0.00    -0.306 OA
ENDBRANCH   7  20
TORSDOF 3
