REMARK  6 active torsions:
REMARK  status: ('A' for Active; 'I' for Inactive)
REMARK    1  A    between atoms: N1_9  and  C8_10 
REMARK    2  A    between atoms: C8_10  and  C9_11 
REMARK    3  A    between atoms: C9_11  and  C10_12 
REMARK    4  A    between atoms: C10_12  and  N2_13 
REMARK    5  A    between atoms: N2_13  and  S1_15 
REMARK    6  A    between atoms: C20_27  and  O4_28 
ROOT
HETATM    1  C1  UNL     1       6.728  -0.752  -0.917  1.00  0.00     0.043 C 
HETATM    2  C2  UNL     1       5.315  -1.084  -0.524  1.00  0.00    -0.085 C 
HETATM    3  C3  UNL     1       4.862  -0.873   0.721  1.00  0.00     0.008 C 
HETATM    4  C4  UNL     1       3.517  -1.252   1.247  1.00  0.00     0.159 C 
HETATM    5  O1  UNL     1       3.073  -2.551   0.762  1.00  0.00    -0.365 OA
HETATM    6  C5  UNL     1       1.824  -2.164   0.143  1.00  0.00     0.127 C 
HETATM    7  C6  UNL     1       0.761  -3.179  -0.133  1.00  0.00     0.074 C 
HETATM    8  C7  UNL     1      -0.535  -2.501   0.368  1.00  0.00     0.276 C 
HETATM    9  N1  UNL     1      -0.211  -1.078   0.678  1.00  0.00     0.097 N 
HETATM   10  C17 UNL     1       1.168  -1.206   1.197  1.00  0.00     0.274 C 
HETATM   11  C18 UNL     1       2.361  -0.326   0.700  1.00  0.00     0.054 C 
HETATM   12  C19 UNL     1       2.409   1.127   1.069  1.00  0.00     0.023 C 
HETATM   13  C20 UNL     1       2.077  -0.852  -0.770  1.00  0.00     0.103 C 
HETATM   14  C21 UNL     1       3.157  -0.885  -1.861  1.00  0.00     0.046 C 
HETATM   15  C22 UNL     1       4.442  -1.668  -1.604  1.00  0.00     0.036 C 
ENDROOT
BRANCH   9  16
HETATM   16  C8  UNL     1      -1.077  -0.520   1.739  1.00  0.00     0.275 C 
BRANCH  16  17
HETATM   17  C9  UNL     1      -2.601  -0.485   1.470  1.00  0.00     0.061 C 
BRANCH  17  18
HETATM   18  C10 UNL     1      -3.161   0.685   0.579  1.00  0.00     0.042 C 
HETATM   19  C12 UNL     1      -4.702   0.500   0.541  1.00  0.00     0.031 C 
HETATM   20  C13 UNL     1      -5.423   1.128  -0.648  1.00  0.00     0.002 C 
HETATM   21  C14 UNL     1      -4.760   0.762  -1.967  1.00  0.00     0.000 C 
HETATM   22  C15 UNL     1      -3.295   1.165  -1.990  1.00  0.00     0.002 C 
HETATM   23  C16 UNL     1      -2.514   0.591  -0.812  1.00  0.00     0.031 C 
BRANCH  18  24
HETATM   24  N2  UNL     1      -2.852   1.916   1.356  1.00  0.00    -0.310 N 
ATOM     25  H2  UNL     1      -2.685   1.767   2.351  1.00  0.00     0.173 HD
BRANCH  24  26
HETATM   26  S1  UNL     1      -2.737   3.495   0.854  1.00  0.00     0.223 S 
HETATM   27  C11 UNL     1      -1.047   3.643   0.322  1.00  0.00     0.185 C 
HETATM   28  O2  UNL     1      -2.861   4.259   2.078  1.00  0.00    -0.206 OA
HETATM   29  O3  UNL     1      -3.624   3.741  -0.254  1.00  0.00    -0.206 OA
ENDBRANCH  24  26
ENDBRANCH  18  24
ENDBRANCH  17  18
ENDBRANCH  16  17
ENDBRANCH   9  16
BRANCH  13  30
HETATM   30  O4  UNL     1       0.936  -0.239  -1.440  1.00  0.00    -0.386 OA
ATOM     31  H4  UNL     1       1.085   0.531  -1.976  1.00  0.00     0.210 HD
ENDBRANCH  13  30
TORSDOF 6
