REMARK  10 active torsions:
REMARK  status: ('A' for Active; 'I' for Inactive)
REMARK    1  A    between atoms: N3_8  and  C5_10 
REMARK    2  A    between atoms: N5_14  and  C7_15 
REMARK    3  A    between atoms: C7_15  and  O1_16 
REMARK    4  A    between atoms: C7_15  and  C8_18 
REMARK    5  A    between atoms: C8_18  and  N6_19 
REMARK    6  A    between atoms: C8_18  and  C9_23 
REMARK    7  A    between atoms: C9_23  and  S1_24 
REMARK    8  A    between atoms: S1_24  and  C10_25 
REMARK    9  A    between atoms: C13_28  and  C14_29 
REMARK   10  A    between atoms: C14_29  and  C15_30 
ROOT
HETATM    1  N1  UNL     1       3.246  -4.571  -2.757  1.00  0.00    -0.190 NA
HETATM    2  C1  UNL     1       2.949  -4.346  -1.660  1.00  0.00     0.119 C 
HETATM    3  C2  UNL     1       2.609  -4.010  -0.335  1.00  0.00     0.132 C 
HETATM    4  C3  UNL     1       2.716  -4.708   0.808  1.00  0.00     0.132 C 
HETATM    5  N2  UNL     1       2.321  -3.867   1.837  1.00  0.00    -0.335 N 
ATOM      6  H2  UNL     1       2.244  -4.148   2.814  1.00  0.00     0.168 HD
HETATM    7  C4  UNL     1       2.043  -2.584   1.360  1.00  0.00     0.186 C 
HETATM    8  N3  UNL     1       1.830  -1.576   2.123  1.00  0.00    -0.311 N 
ATOM      9  H3  UNL     1       1.866  -1.671   3.138  1.00  0.00     0.170 HD
HETATM   10  N16 UNL     1       2.124  -2.751  -0.021  1.00  0.00    -0.318 N 
ATOM     11  H16 UNL     1       1.862  -2.043  -0.707  1.00  0.00     0.169 HD
ENDROOT
BRANCH   8  12
HETATM   12  C5  UNL     1       1.546  -0.338   1.524  1.00  0.00     0.150 C 
HETATM   13  N4  UNL     1       1.419   0.809   2.296  1.00  0.00    -0.345 N 
HETATM   14  C6  UNL     1       1.627   1.783   1.411  1.00  0.00     0.258 C 
ATOM     15  H4  UNL     1       1.217   0.887   3.293  1.00  0.00     0.163 HD
HETATM   16  N5  UNL     1       1.061   1.292   0.258  1.00  0.00    -0.307 N 
HETATM   17  C18 UNL     1       2.963   2.388   1.252  1.00  0.00     0.119 C 
HETATM   18  C16 UNL     1       1.716   0.081   0.195  1.00  0.00     0.153 C 
HETATM   19  N13 UNL     1       2.744  -0.124  -0.689  1.00  0.00    -0.335 N 
HETATM   20  C17 UNL     1       3.716   0.734  -0.520  1.00  0.00     0.183 C 
ATOM     21  H13 UNL     1       2.750  -0.860  -1.396  1.00  0.00     0.168 HD
HETATM   22  N14 UNL     1       3.860   1.832   0.334  1.00  0.00    -0.339 N 
ATOM     23  H14 UNL     1       4.763   2.302   0.279  1.00  0.00     0.168 HD
HETATM   24  N15 UNL     1       3.236   3.435   1.962  1.00  0.00    -0.386 N 
ATOM     25 2H15 UNL     1       2.582   3.840   2.631  1.00  0.00     0.157 HD
ATOM     26 1H15 UNL     1       4.160   3.853   1.852  1.00  0.00     0.157 HD
BRANCH  16  27
HETATM   27  C7  UNL     1      -0.169   1.719  -0.383  1.00  0.00     0.255 C 
BRANCH  27  28
HETATM   28  O1  UNL     1      -0.139   1.236  -1.730  1.00  0.00    -0.374 OA
ATOM     29  H1  UNL     1      -0.944   1.516  -2.150  1.00  0.00     0.212 HD
ENDBRANCH  27  28
BRANCH  27  30
HETATM   30  C8  UNL     1      -0.357   3.281  -0.367  1.00  0.00     0.241 C 
BRANCH  30  31
HETATM   31  N6  UNL     1      -0.751   3.796   0.956  1.00  0.00    -0.070 N 
ATOM     32  H63 UNL     1      -1.588   3.324   1.297  1.00  0.00     0.274 HD
ATOM     33  H62 UNL     1      -0.090   3.500   1.674  1.00  0.00     0.274 HD
ATOM     34  H61 UNL     1      -0.873   4.809   0.966  1.00  0.00     0.274 HD
ENDBRANCH  30  31
BRANCH  30  35
HETATM   35  C9  UNL     1      -1.275   3.837  -1.491  1.00  0.00     0.118 C 
BRANCH  35  36
HETATM   36  S1  UNL     1      -3.086   3.828  -1.239  1.00  0.00    -0.109 SA
BRANCH  36  37
HETATM   37  C10 UNL     1      -3.396   2.088  -1.237  1.00  0.00     0.084 A 
HETATM   38  C11 UNL     1      -3.191   1.276  -2.338  1.00  0.00     0.040 A 
HETATM   39  C12 UNL     1      -3.362  -0.106  -2.198  1.00  0.00     0.029 A 
HETATM   40  C13 UNL     1      -3.748  -0.627  -0.965  1.00  0.00     0.033 A 
HETATM   41  N11 UNL     1      -4.004   0.212   0.061  1.00  0.00    -0.304 N 
HETATM   42  N12 UNL     1      -3.808   1.564  -0.072  1.00  0.00    -0.294 N 
ATOM     43  H11 UNL     1      -4.347  -0.163   0.945  1.00  0.00     0.186 HD
ATOM     44  H12 UNL     1      -3.978   2.178   0.724  1.00  0.00     0.187 HD
BRANCH  40  45
HETATM   45  C14 UNL     1      -3.972  -2.102  -0.736  1.00  0.00     0.137 C 
BRANCH  45  46
HETATM   46  C15 UNL     1      -3.330  -2.442   0.564  1.00  0.00     0.115 A 
HETATM   47  N7  UNL     1      -4.064  -2.864   1.645  1.00  0.00    -0.270 N 
HETATM   48  N8  UNL     1      -3.203  -3.077   2.630  1.00  0.00    -0.005 NA
ATOM     49  H7  UNL     1      -5.076  -2.989   1.683  1.00  0.00     0.185 HD
HETATM   50  N9  UNL     1      -2.004  -2.771   2.109  1.00  0.00    -0.225 N 
HETATM   51  N10 UNL     1      -2.004  -2.422   0.803  1.00  0.00    -0.275 N 
ATOM     52  H9  UNL     1      -1.148  -2.800   2.663  1.00  0.00     0.205 HD
ATOM     53  H10 UNL     1      -1.226  -2.206   0.180  1.00  0.00     0.189 HD
ENDBRANCH  45  46
ENDBRANCH  40  45
ENDBRANCH  36  37
ENDBRANCH  35  36
ENDBRANCH  30  35
ENDBRANCH  27  30
ENDBRANCH  16  27
ENDBRANCH   8  12
TORSDOF 10
