REMARK  11 active torsions:
REMARK  status: ('A' for Active; 'I' for Inactive)
REMARK    1  A    between atoms: C2_2  and  C3_3 
REMARK    2  A    between atoms: C3_3  and  C4_4 
REMARK    3  A    between atoms: C4_4  and  C5_5 
REMARK    4  A    between atoms: C5_5  and  C6_6 
REMARK    5  A    between atoms: C6_6  and  C7_7 
REMARK    6  A    between atoms: C7_7  and  C8_8 
REMARK    7  A    between atoms: C8_8  and  C9_9 
REMARK    8  A    between atoms: C9_9  and  C10_10 
REMARK    9  A    between atoms: C10_10  and  C11_11 
REMARK   10  A    between atoms: N3_25  and  N4_27 
REMARK   11  A    between atoms: C22_31  and  O2_32 
ROOT
HETATM    1  C11 UNL     1      -2.809   1.582  -0.658  1.00  0.00     0.004 C 
HETATM    2  C12 UNL     1      -1.493   1.576  -0.386  1.00  0.00     0.050 C 
HETATM    3  C13 UNL     1      -0.690   2.801  -0.210  1.00  0.00    -0.006 C 
HETATM    4  C14 UNL     1       0.004   2.893   1.088  1.00  0.00    -0.049 C 
HETATM    5  C15 UNL     1       0.197   4.227   1.752  1.00  0.00     0.049 C 
HETATM    6  C16 UNL     1       0.316   1.738   1.710  1.00  0.00     0.025 C 
HETATM    7  C17 UNL     1       0.059   0.482   0.956  1.00  0.00     0.102 C 
HETATM    8  N1  UNL     1      -0.730   0.420  -0.067  1.00  0.00    -0.275 N 
HETATM    9  C18 UNL     1      -0.325  -0.649  -1.154  1.00  0.00     0.327 C 
HETATM   10  O1  UNL     1      -0.253  -1.810  -0.779  1.00  0.00    -0.246 OA
HETATM   11  N2  UNL     1       0.096  -0.240  -2.408  1.00  0.00    -0.332 N 
ATOM     12  H2  UNL     1      -0.466   0.375  -2.997  1.00  0.00     0.165 HD
HETATM   13  C19 UNL     1       1.402  -0.749  -2.833  1.00  0.00     0.146 C 
HETATM   14  C20 UNL     1       1.488  -1.940  -3.749  1.00  0.00     0.029 C 
HETATM   15  N3  UNL     1       0.787  -3.000  -3.589  1.00  0.00    -0.313 N 
ATOM     16  H3  UNL     1       0.074  -3.032  -2.861  1.00  0.00     0.185 HD
HETATM   17  C21 UNL     1       2.526  -1.842  -4.824  1.00  0.00     0.088 C 
HETATM   18  C22 UNL     1       3.308  -0.612  -4.308  1.00  0.00     0.135 C 
HETATM   19  C23 UNL     1       2.192   0.265  -3.714  1.00  0.00     0.093 C 
HETATM   20  C24 UNL     1       2.558   1.468  -2.898  1.00  0.00     0.018 C 
HETATM   21  C25 UNL     1       3.383   1.651  -1.800  1.00  0.00     0.027 C 
HETATM   22  C26 UNL     1       2.969   2.850  -1.165  1.00  0.00     0.027 C 
HETATM   23  C27 UNL     1       1.916   3.354  -1.902  1.00  0.00     0.013 C 
HETATM   24  N5  UNL     1       1.918   2.675  -3.100  1.00  0.00    -0.362 N 
ATOM     25  H5  UNL     1       1.519   3.004  -3.979  1.00  0.00     0.165 HD
HETATM   26  C28 UNL     1       0.841   4.343  -1.552  1.00  0.00     0.085 C 
HETATM   27  C29 UNL     1      -0.436   3.564  -1.296  1.00  0.00    -0.007 C 
ENDROOT
BRANCH   1  28
HETATM   28  C10 UNL     1      -3.709   0.374  -0.583  1.00  0.00     0.029 C 
BRANCH  28  29
HETATM   29  C9  UNL     1      -4.265   0.227   0.840  1.00  0.00     0.004 C 
BRANCH  29  30
HETATM   30  C8  UNL     1      -4.674  -1.203   1.194  1.00  0.00     0.000 C 
BRANCH  30  31
HETATM   31  C7  UNL     1      -3.503  -2.172   1.404  1.00  0.00     0.000 C 
BRANCH  31  32
HETATM   32  C6  UNL     1      -2.705  -1.886   2.681  1.00  0.00     0.000 C 
BRANCH  32  33
HETATM   33  C5  UNL     1      -1.722  -3.021   2.989  1.00  0.00     0.000 C 
BRANCH  33  34
HETATM   34  C4  UNL     1      -0.974  -2.819   4.311  1.00  0.00     0.000 C 
BRANCH  34  35
HETATM   35  C3  UNL     1       0.154  -1.782   4.257  1.00  0.00    -0.000 C 
BRANCH  35  36
HETATM   36  C2  UNL     1       1.448  -2.355   3.673  1.00  0.00    -0.005 C 
HETATM   37  C1  UNL     1       2.566  -1.324   3.684  1.00  0.00     0.005 C 
ENDBRANCH  35  36
ENDBRANCH  34  35
ENDBRANCH  33  34
ENDBRANCH  32  33
ENDBRANCH  31  32
ENDBRANCH  30  31
ENDBRANCH  29  30
ENDBRANCH  28  29
ENDBRANCH   1  28
BRANCH  15  38
HETATM   38  N4  UNL     1       0.999  -4.137  -4.425  1.00  0.00    -0.345 N 
ATOM     39  H42 UNL     1       1.716  -4.089  -5.149  1.00  0.00     0.176 HD
ATOM     40  H41 UNL     1       0.441  -4.981  -4.298  1.00  0.00     0.176 HD
ENDBRANCH  15  38
BRANCH  18  41
HETATM   41  O2  UNL     1       4.183  -1.082  -3.285  1.00  0.00    -0.394 OA
ATOM     42  H2  UNL     1       4.663  -0.326  -2.968  1.00  0.00     0.210 HD
ENDBRANCH  18  41
TORSDOF 11
