REMARK  11 active torsions:
REMARK  status: ('A' for Active; 'I' for Inactive)
REMARK    1  A    between atoms: N1_1  and  C1_4 
REMARK    2  A    between atoms: C2_7  and  N3_8 
REMARK       I    between atoms: N3_8  and  C3_10 
REMARK       I    between atoms: C3_10  and  N4_11 
REMARK       I    between atoms: C3_10  and  N5_15 
REMARK    3  A    between atoms: C6_23  and  O1_24 
REMARK    4  A    between atoms: O1_24  and  C7_25 
REMARK    5  A    between atoms: C7_25  and  C8_26 
REMARK    6  A    between atoms: C8_26  and  N7_27 
REMARK    7  A    between atoms: N12_43  and  C13_44 
REMARK    8  A    between atoms: C13_44  and  C14_45 
REMARK    9  A    between atoms: C14_45  and  O2_46 
REMARK   10  A    between atoms: C14_45  and  C15_48 
REMARK   11  A    between atoms: C15_48  and  O3_49 
ROOT
HETATM    1  C1  UNL     1       3.342  -0.541   3.005  1.00  0.00     0.678 C 
HETATM    2  N2  UNL     1       3.181   0.549   2.184  1.00  0.00    -0.176 N 
ATOM      3  H2  UNL     1       3.918   1.254   2.196  1.00  0.00     0.186 HD
HETATM    4  C2  UNL     1       2.103   0.772   1.341  1.00  0.00     0.135 C 
HETATM    5  C4  UNL     1       1.178  -0.392   1.242  1.00  0.00     0.068 C 
HETATM    6  C5  UNL     1       0.707  -0.868   0.080  1.00  0.00     0.092 C 
HETATM    7  N6  UNL     1       0.579  -0.089  -1.078  1.00  0.00    -0.322 N 
ATOM      8  H6  UNL     1       1.196   0.645  -1.427  1.00  0.00     0.169 HD
HETATM    9  C6  UNL     1      -0.553  -0.551  -1.606  1.00  0.00     0.224 C 
HETATM   10  N8  UNL     1      -1.178  -1.440  -0.716  1.00  0.00    -0.102 NA
HETATM   11  C9  UNL     1      -0.145  -1.972   0.002  1.00  0.00     0.139 C 
HETATM   12  N9  UNL     1      -0.286  -3.097   0.631  1.00  0.00    -0.328 N 
ATOM     13  H9  UNL     1      -0.698  -3.916   0.184  1.00  0.00     0.168 HD
HETATM   14  C10 UNL     1       0.144  -3.125   1.915  1.00  0.00     0.129 C 
HETATM   15  N10 UNL     1       0.670  -4.197   2.384  1.00  0.00    -0.384 N 
ATOM     16 1H10 UNL     1       0.994  -4.218   3.351  1.00  0.00     0.157 HD
ATOM     17 2H10 UNL     1       0.869  -5.074   1.903  1.00  0.00     0.157 HD
HETATM   18  C11 UNL     1      -0.150  -1.830   2.626  1.00  0.00     0.105 C 
HETATM   19  N11 UNL     1      -1.432  -1.279   2.510  1.00  0.00    -0.347 N 
ATOM     20  H11 UNL     1      -1.816  -0.960   3.399  1.00  0.00     0.167 HD
HETATM   21  C12 UNL     1      -2.235  -1.089   1.504  1.00  0.00     0.196 C 
HETATM   22  N12 UNL     1      -2.349  -1.162   0.088  1.00  0.00    -0.290 N 
HETATM   23  C16 UNL     1       1.005  -1.123   2.502  1.00  0.00     0.096 C 
HETATM   24  N13 UNL     1       2.227  -1.331   3.138  1.00  0.00    -0.189 N 
ATOM     25  H13 UNL     1       2.300  -2.140   3.755  1.00  0.00     0.184 HD
ENDROOT
BRANCH   4  26
HETATM   26  N3  UNL     1       1.796   1.851   0.701  1.00  0.00    -0.326 N 
HETATM   27  C3  UNL     1       2.566   3.037   0.885  1.00  0.00     0.481 C 
HETATM   28  N4  UNL     1       1.829   4.131   0.340  1.00  0.00    -0.033 N 
HETATM   29  N5  UNL     1       3.738   3.042   0.083  1.00  0.00    -0.033 N 
ATOM     30  H43 UNL     1       1.562   3.981  -0.633  1.00  0.00     0.278 HD
ATOM     31  H42 UNL     1       0.889   4.206   0.729  1.00  0.00     0.278 HD
ATOM     32  H41 UNL     1       2.380   4.979   0.472  1.00  0.00     0.278 HD
ATOM     33  H53 UNL     1       4.301   2.207   0.245  1.00  0.00     0.278 HD
ATOM     34  H52 UNL     1       3.513   2.896  -0.901  1.00  0.00     0.278 HD
ATOM     35  H51 UNL     1       4.289   3.890   0.215  1.00  0.00     0.278 HD
ATOM     36  H3  UNL     1       1.001   1.855   0.062  1.00  0.00     0.164 HD
ENDBRANCH   4  26
BRANCH   1  37
HETATM   37  N1  UNL     1       4.418  -0.830   3.648  1.00  0.00    -0.234 N 
ATOM     38  H12 UNL     1       5.246  -0.243   3.549  1.00  0.00     0.174 HD
ATOM     39  H11 UNL     1       4.538  -1.639   4.257  1.00  0.00     0.174 HD
ENDBRANCH   1  37
BRANCH   9  40
HETATM   40  O1  UNL     1      -0.997  -0.242  -2.818  1.00  0.00    -0.323 OA
BRANCH  40  41
HETATM   41  C7  UNL     1      -1.097  -1.373  -3.695  1.00  0.00     0.205 C 
BRANCH  41  42
HETATM   42  C8  UNL     1       0.217  -1.628  -4.445  1.00  0.00     0.256 C 
BRANCH  42  43
HETATM   43  N7  UNL     1       1.261  -2.200  -3.589  1.00  0.00    -0.077 N 
ATOM     44  H73 UNL     1       1.418  -1.618  -2.766  1.00  0.00     0.274 HD
ATOM     45  H72 UNL     1       0.932  -3.050  -3.131  1.00  0.00     0.274 HD
ATOM     46  H71 UNL     1       2.135  -2.370  -4.088  1.00  0.00     0.274 HD
ENDBRANCH  42  43
ENDBRANCH  41  42
ENDBRANCH  40  41
ENDBRANCH   9  40
BRANCH  22  47
HETATM   47  C13 UNL     1      -3.492  -0.582  -0.626  1.00  0.00     0.179 C 
BRANCH  47  48
HETATM   48  C14 UNL     1      -3.429   0.944  -0.840  1.00  0.00     0.161 C 
BRANCH  48  49
HETATM   49  O2  UNL     1      -4.618   1.356  -1.546  1.00  0.00    -0.392 OA
ATOM     50  H2  UNL     1      -4.579   2.296  -1.678  1.00  0.00     0.210 HD
ENDBRANCH  48  49
BRANCH  48  51
HETATM   51  C15 UNL     1      -3.354   1.761   0.451  1.00  0.00     0.197 C 
BRANCH  51  52
HETATM   52  O3  UNL     1      -3.349   3.147   0.099  1.00  0.00    -0.398 OA
ATOM     53  H3  UNL     1      -3.302   3.654   0.901  1.00  0.00     0.209 HD
ENDBRANCH  51  52
ENDBRANCH  48  51
ENDBRANCH  47  48
ENDBRANCH  22  47
TORSDOF 11
