REMARK  1 active torsions:
REMARK  status: ('A' for Active; 'I' for Inactive)
REMARK    1  A    between atoms: C1_2  and  C2_4 
ROOT
HETATM    1  C2  UNL     1       1.029   0.864  -0.270  1.00  0.00     0.252 C 
HETATM    2  O3  UNL     1       0.507   0.189  -1.438  1.00  0.00    -0.364 OA
HETATM    3  C3  UNL     1      -0.838  -0.247  -1.106  1.00  0.00     0.158 C 
HETATM    4  C4  UNL     1      -0.934  -1.359   0.037  1.00  0.00     0.152 C 
HETATM    5  C5  UNL     1      -2.259  -0.624   0.408  1.00  0.00     0.044 C 
HETATM    6  C6  UNL     1      -1.343   0.603   0.104  1.00  0.00     0.052 C 
HETATM    7  C7  UNL     1       0.023   0.471   0.828  1.00  0.00     0.168 C 
HETATM    8  O4  UNL     1       0.059  -0.966   1.017  1.00  0.00    -0.374 OA
ENDROOT
BRANCH   1   9
HETATM    9  C1  UNL     1       2.446   0.513   0.151  1.00  0.00     0.205 C 
HETATM   10  O1  UNL     1       2.981   0.846   1.200  1.00  0.00    -0.646 OA
HETATM   11  O2  UNL     1       3.142  -0.185  -0.769  1.00  0.00    -0.646 OA
ENDBRANCH   1   9
TORSDOF 1
