REMARK  7 active torsions:
REMARK  status: ('A' for Active; 'I' for Inactive)
REMARK    1  A    between atoms: C2_2  and  C3_3 
REMARK    2  A    between atoms: C3_3  and  O1_5 
REMARK    3  A    between atoms: C3_3  and  C9_14 
REMARK    4  A    between atoms: O1_5  and  C5_6 
REMARK    5  A    between atoms: C5_6  and  O2_10 
REMARK    6  A    between atoms: O2_10  and  C6_11 
REMARK    7  A    between atoms: C6_11  and  C7_12 
ROOT
HETATM    1  C9  UNL     1      -0.337   0.845   1.306  1.00  0.00     0.034 A 
HETATM    2  C10 UNL     1       0.290   1.338   2.629  1.00  0.00     0.009 A 
HETATM    3  C11 UNL     1       1.517   0.881   2.319  1.00  0.00     0.012 A 
HETATM    4  C12 UNL     1       1.062   0.275   1.030  1.00  0.00    -0.019 A 
HETATM    5  C13 UNL     1       1.146  -1.245   0.834  1.00  0.00     0.042 C 
HETATM    6  C14 UNL     1       2.247  -1.979   1.543  1.00  0.00    -0.023 C 
HETATM    7  C15 UNL     1       3.401  -1.912   0.861  1.00  0.00    -0.023 C 
HETATM    8  C16 UNL     1       3.241  -1.099  -0.383  1.00  0.00     0.036 C 
HETATM    9  C17 UNL     1       3.341   0.443  -0.186  1.00  0.00    -0.002 C 
HETATM   10  C18 UNL     1       4.074   1.188  -1.290  1.00  0.00     0.011 C 
HETATM   11  C19 UNL     1       1.793   0.562  -0.261  1.00  0.00     0.024 C 
HETATM   12  C20 UNL     1       1.711  -0.936  -0.604  1.00  0.00     0.056 C 
HETATM   13 CL1  UNL     1       1.030  -1.592  -2.059  1.00  0.00    -0.117 Cl
ENDROOT
BRANCH   1  14
HETATM   14  C3  UNL     1      -1.068   1.911   0.438  1.00  0.00     0.089 C 
HETATM   15  C4  UNL     1      -2.409   2.277   1.095  1.00  0.00     0.051 C 
BRANCH  14  16
HETATM   16  C2  UNL     1      -0.227   3.197   0.332  1.00  0.00     0.001 C 
HETATM   17  C1  UNL     1       0.106   3.849  -0.793  1.00  0.00     0.010 C 
ENDBRANCH  14  16
BRANCH  14  18
HETATM   18  O1  UNL     1      -1.314   1.453  -0.919  1.00  0.00    -0.301 OA
BRANCH  18  19
HETATM   19  C5  UNL     1      -1.944   0.322  -1.275  1.00  0.00     0.259 C 
HETATM   20  N1  UNL     1      -2.225   0.155  -2.545  1.00  0.00    -0.359 N 
ATOM     21  H12 UNL     1      -1.996   0.846  -3.260  1.00  0.00     0.160 HD
ATOM     22  H11 UNL     1      -2.704  -0.704  -2.815  1.00  0.00     0.160 HD
BRANCH  19  23
HETATM   23  O2  UNL     1      -2.245  -0.587  -0.335  1.00  0.00    -0.317 OA
BRANCH  23  24
HETATM   24  C6  UNL     1      -2.421  -1.959  -0.748  1.00  0.00     0.179 C 
BRANCH  24  25
HETATM   25  C7  UNL     1      -3.890  -2.349  -0.829  1.00  0.00     0.022 C 
HETATM   26  C8  UNL     1      -4.032  -3.769  -1.361  1.00  0.00     0.007 C 
ENDBRANCH  24  25
ENDBRANCH  23  24
ENDBRANCH  19  23
ENDBRANCH  18  19
ENDBRANCH  14  18
ENDBRANCH   1  14
TORSDOF 7
