REMARK  4 active torsions:
REMARK  status: ('A' for Active; 'I' for Inactive)
REMARK    1  A    between atoms: S1_2  and  C2_3 
REMARK    2  A    between atoms: C2_3  and  C3_4 
REMARK    3  A    between atoms: C3_4  and  C4_5 
REMARK    4  A    between atoms: C20_21  and  O1_22 
ROOT
HETATM    1  C4  UNL     1       1.453   0.613   0.865  1.00  0.00    -0.032 C 
HETATM    2  C5  UNL     1       2.056   1.390   2.090  1.00  0.00     0.016 C 
HETATM    3  C6  UNL     1      -0.109   0.347   1.196  1.00  0.00     0.023 C 
HETATM    4  C7  UNL     1      -1.462   1.309   1.046  1.00  0.00    -0.019 C 
HETATM    5  C8  UNL     1      -0.796   2.565   1.437  1.00  0.00    -0.017 C 
HETATM    6  C9  UNL     1      -0.027   3.002   0.408  1.00  0.00     0.001 C 
HETATM    7  C10 UNL     1       0.268   2.063  -0.852  1.00  0.00    -0.067 C 
HETATM    8  C11 UNL     1      -0.994   1.157  -1.570  1.00  0.00     0.026 C 
HETATM    9  C12 UNL     1      -2.129   2.145  -1.450  1.00  0.00     0.011 C 
HETATM   10  C13 UNL     1      -2.462   2.151   0.019  1.00  0.00     0.014 C 
HETATM   11  C14 UNL     1      -1.705  -0.384  -1.292  1.00  0.00    -0.005 C 
HETATM   12  C15 UNL     1      -2.594  -0.654  -2.582  1.00  0.00     0.019 C 
HETATM   13  C16 UNL     1      -0.641  -1.514  -1.438  1.00  0.00     0.013 C 
HETATM   14  C17 UNL     1      -1.056  -2.928  -1.050  1.00  0.00     0.001 C 
HETATM   15  C18 UNL     1      -1.663  -2.980   0.337  1.00  0.00     0.003 C 
HETATM   16  C19 UNL     1      -2.912  -2.126   0.389  1.00  0.00     0.038 C 
HETATM   17  C20 UNL     1      -2.731  -0.625   0.035  1.00  0.00     0.067 C 
HETATM   18  C21 UNL     1      -2.476   0.215   1.391  1.00  0.00     0.052 C 
HETATM   19  C22 UNL     1       1.625   1.368  -0.535  1.00  0.00    -0.017 C 
HETATM   20  C23 UNL     1       2.748   2.463  -0.461  1.00  0.00     0.020 C 
HETATM   21  C24 UNL     1       2.079   0.533  -1.754  1.00  0.00     0.020 C 
ENDROOT
BRANCH   1  22
HETATM   22  C3  UNL     1       2.187  -0.796   0.912  1.00  0.00     0.020 C 
BRANCH  22  23
HETATM   23  C2  UNL     1       3.717  -0.788   1.036  1.00  0.00     0.074 C 
BRANCH  23  24
HETATM   24  S1  UNL     1       4.459  -2.397   0.584  1.00  0.00    -0.173 SA
HETATM   25  C1  UNL     1       3.837  -3.421   1.940  1.00  0.00     0.089 C 
ENDBRANCH  23  24
ENDBRANCH  22  23
ENDBRANCH   1  22
BRANCH  17  26
HETATM   26  O1  UNL     1      -4.104  -0.305  -0.329  1.00  0.00    -0.389 OA
ATOM     27  H1  UNL     1      -4.679  -0.440   0.415  1.00  0.00     0.210 HD
ENDBRANCH  17  26
TORSDOF 4
