REMARK  7 active torsions:
REMARK  status: ('A' for Active; 'I' for Inactive)
REMARK    1  A    between atoms: C2_2  and  C3_3 
REMARK    2  A    between atoms: C5_5  and  O1_6 
REMARK    3  A    between atoms: C17_19  and  O2_20 
REMARK    4  A    between atoms: C19_22  and  O3_23 
REMARK    5  A    between atoms: C21_25  and  O4_26 
REMARK    6  A    between atoms: C21_25  and  C22_28 
REMARK    7  A    between atoms: C22_28  and  O5_29 
ROOT
HETATM    1  C3  UNL     1      -1.630   1.638   0.320  1.00  0.00    -0.003 C 
HETATM    2  C4  UNL     1      -2.737   0.618   0.080  1.00  0.00     0.047 C 
HETATM    3  C5  UNL     1      -2.099  -0.521  -0.712  1.00  0.00     0.099 C 
HETATM    4  C7  UNL     1      -1.358   0.231  -1.953  1.00  0.00     0.056 C 
HETATM    5  C8  UNL     1       0.085   0.365  -1.451  1.00  0.00     0.022 C 
HETATM    6  C9  UNL     1       1.215   1.290  -1.888  1.00  0.00     0.136 C 
HETATM    7  N1  UNL     1       2.397   1.271  -0.937  1.00  0.00    -0.383 N 
HETATM    8  C10 UNL     1       3.112   2.559  -0.943  1.00  0.00     0.123 C 
HETATM    9  C11 UNL     1       3.763   2.692   0.427  1.00  0.00     0.026 C 
HETATM   10  C12 UNL     1       2.843   1.910   1.349  1.00  0.00     0.058 C 
HETATM   11  C13 UNL     1       2.452   0.721   0.475  1.00  0.00     0.007 C 
HETATM   12  C14 UNL     1       1.383  -0.226   1.101  1.00  0.00     0.031 C 
HETATM   13  C15 UNL     1       0.083  -0.183   0.740  1.00  0.00    -0.033 C 
HETATM   14  C16 UNL     1      -0.233   1.018  -0.019  1.00  0.00     0.035 C 
HETATM   15  C17 UNL     1      -0.929  -1.289   0.272  1.00  0.00     0.144 C 
HETATM   16  C19 UNL     1      -0.214  -2.187  -0.790  1.00  0.00     0.200 C 
HETATM   17  C21 UNL     1       0.640  -1.217  -1.690  1.00  0.00     0.118 C 
ENDROOT
BRANCH  17  18
HETATM   18  O4  UNL     1       0.307  -1.549  -3.090  1.00  0.00    -0.384 OA
ATOM     19  H4  UNL     1       0.618  -2.436  -3.224  1.00  0.00     0.210 HD
ENDBRANCH  17  18
BRANCH  17  20
HETATM   20  C22 UNL     1       2.162  -1.532  -1.724  1.00  0.00     0.205 C 
BRANCH  20  21
HETATM   21  O5  UNL     1       2.383  -2.832  -2.311  1.00  0.00    -0.398 OA
ATOM     22  H5  UNL     1       3.313  -3.024  -2.332  1.00  0.00     0.209 HD
ENDBRANCH  20  21
ENDBRANCH  17  20
BRANCH  16  23
HETATM   23  O3  UNL     1       0.361  -3.443  -0.420  1.00  0.00    -0.384 OA
HETATM   24  C20 UNL     1       1.150  -3.558   0.738  1.00  0.00     0.202 C 
ENDBRANCH  16  23
BRANCH  15  25
HETATM   25  O2  UNL     1      -1.497  -2.083   1.308  1.00  0.00    -0.374 OA
HETATM   26  C18 UNL     1      -1.631  -1.529   2.601  1.00  0.00     0.203 C 
ENDBRANCH  15  25
BRANCH   3  27
HETATM   27  O1  UNL     1      -3.110  -1.344  -1.299  1.00  0.00    -0.381 OA
HETATM   28  C6  UNL     1      -3.798  -2.232  -0.434  1.00  0.00     0.202 C 
ENDBRANCH   3  27
BRANCH   1  29
HETATM   29  C2  UNL     1      -1.675   2.246   1.738  1.00  0.00     0.001 C 
HETATM   30  C1  UNL     1      -2.957   3.024   2.007  1.00  0.00     0.005 C 
ENDBRANCH   1  29
TORSDOF 7
