REMARK  6 active torsions:
REMARK  status: ('A' for Active; 'I' for Inactive)
REMARK       I    between atoms: C1_2  and  N1_3 
REMARK    1  A    between atoms: C1_2  and  C4_8 
REMARK    2  A    between atoms: N1_3  and  C2_5 
REMARK    3  A    between atoms: C2_5  and  C3_6 
REMARK    4  A    between atoms: C8_15  and  C9_16 
REMARK    5  A    between atoms: C12_20  and  C13_21 
REMARK    6  A    between atoms: C13_21  and  O3_22 
ROOT
HETATM    1  C4  UNL     1      -0.501  -1.211  -0.859  1.00  0.00     0.103 C 
HETATM    2  C5  UNL     1      -0.021   0.173  -1.424  1.00  0.00     0.034 C 
HETATM    3  C6  UNL     1       1.351   0.041  -2.131  1.00  0.00     0.143 C 
HETATM    4 BR1  UNL     1       1.627   1.502  -3.368  1.00  0.00    -0.074 Br
HETATM    5  N2  UNL     1       2.385  -0.136  -1.088  1.00  0.00    -0.231 NA
HETATM    6  C7  UNL     1       2.020  -1.220  -0.242  1.00  0.00     0.212 C 
HETATM    7  O2  UNL     1       2.792  -2.135   0.020  1.00  0.00    -0.279 OA
HETATM    8  C8  UNL     1       0.525  -0.929   0.302  1.00  0.00     0.065 C 
HETATM    9  C10 UNL     1       0.194   0.623   0.058  1.00  0.00     0.014 C 
HETATM   10  C11 UNL     1       1.334   1.632   0.266  1.00  0.00     0.028 C 
HETATM   11  C12 UNL     1       2.664   1.021  -0.215  1.00  0.00     0.091 C 
ENDROOT
BRANCH   1  12
HETATM   12  C1  UNL     1      -1.986  -1.558  -0.590  1.00  0.00     0.223 C 
HETATM   13  O1  UNL     1      -2.552  -2.498  -1.155  1.00  0.00    -0.273 OA
HETATM   14  N1  UNL     1      -2.664  -0.793   0.337  1.00  0.00    -0.360 N 
ATOM     15  H1  UNL     1      -2.189   0.001   0.767  1.00  0.00     0.162 HD
BRANCH  14  16
HETATM   16  C2  UNL     1      -4.042  -1.086   0.721  1.00  0.00     0.137 C 
BRANCH  16  17
HETATM   17  C3  UNL     1      -4.385  -0.442   2.059  1.00  0.00     0.134 C 
HETATM   18 CL1  UNL     1      -4.385   1.338   1.911  1.00  0.00    -0.129 Cl
ENDBRANCH  16  17
ENDBRANCH  14  16
ENDBRANCH   1  12
BRANCH   8  19
HETATM   19  C9  UNL     1       0.291  -1.409   1.715  1.00  0.00     0.134 C 
HETATM   20 CL2  UNL     1       0.009  -3.159   1.763  1.00  0.00    -0.129 Cl
ENDBRANCH   8  19
BRANCH  11  21
HETATM   21  C13 UNL     1       3.740   1.987  -0.750  1.00  0.00     0.184 C 
BRANCH  21  22
HETATM   22  O3  UNL     1       3.217   3.256  -1.121  1.00  0.00    -0.399 OA
ATOM     23  H3  UNL     1       3.880   3.851  -1.451  1.00  0.00     0.209 HD
ENDBRANCH  21  22
ENDBRANCH  11  21
TORSDOF 6
