REMARK  0 active torsions:
REMARK  status: ('A' for Active; 'I' for Inactive)
ROOT
HETATM    1  C1  UNL     1       1.988   0.358  -0.481  1.00  0.00    -0.003 C 
HETATM    2  C2  UNL     1       1.996  -0.909  -0.003  1.00  0.00    -0.021 C 
HETATM    3  C3  UNL     1       0.865  -1.424   0.881  1.00  0.00     0.017 C 
HETATM    4  C4  UNL     1      -0.478  -1.280   0.684  1.00  0.00     0.025 C 
HETATM    5  C5  UNL     1      -1.387  -1.348  -0.504  1.00  0.00    -0.004 C 
HETATM    6  C6  UNL     1      -2.163  -0.380  -1.031  1.00  0.00     0.084 C 
HETATM    7  N1  UNL     1      -2.373   0.946  -0.702  1.00  0.00    -0.375 N 
ATOM      8  H1  UNL     1      -3.252   1.388  -0.971  1.00  0.00     0.164 HD
HETATM    9  C7  UNL     1      -1.487   1.647  -0.061  1.00  0.00     0.095 C 
HETATM   10  C8  UNL     1      -0.196   1.160   0.471  1.00  0.00    -0.038 C 
HETATM   11  C9  UNL     1       0.859   1.303  -0.371  1.00  0.00     0.009 C 
HETATM   12  C10 UNL     1      -0.309  -0.030   1.389  1.00  0.00     0.029 C 
HETATM   13  C11 UNL     1       0.649  -0.657   2.113  1.00  0.00     0.019 C 
ENDROOT
TORSDOF 0
