REMARK  8 active torsions:
REMARK  status: ('A' for Active; 'I' for Inactive)
REMARK    1  A    between atoms: N1_1  and  C1_5 
REMARK    2  A    between atoms: C1_5  and  C2_6 
REMARK    3  A    between atoms: C2_6  and  C3_7 
REMARK    4  A    between atoms: C3_7  and  C4_8 
REMARK    5  A    between atoms: C4_8  and  N2_9 
REMARK       I    between atoms: N2_9  and  C5_11 
REMARK    6  A    between atoms: C5_11  and  C6_13 
REMARK    7  A    between atoms: C19_29  and  C20_30 
REMARK    8  A    between atoms: C20_30  and  S1_31 
ROOT
HETATM    1  C6  UNL     1       0.948   1.520  -0.711  1.00  0.00     0.208 C 
HETATM    2  C7  UNL     1       0.449   2.910  -1.111  1.00  0.00     0.055 C 
HETATM    3  C8  UNL     1      -1.057   2.753  -0.812  1.00  0.00     0.017 C 
HETATM    4  C9  UNL     1      -1.563   1.857  -1.932  1.00  0.00     0.048 C 
HETATM    5  C10 UNL     1      -1.061   0.410  -1.690  1.00  0.00     0.154 C 
HETATM    6  C11 UNL     1      -1.878  -0.498  -2.619  1.00  0.00     0.048 C 
HETATM    7  C12 UNL     1      -3.345  -0.644  -1.970  1.00  0.00     0.010 A 
HETATM    8  C13 UNL     1      -4.340  -1.046  -0.814  1.00  0.00    -0.012 A 
HETATM    9  C14 UNL     1      -3.686  -2.618  -0.431  1.00  0.00     0.114 C 
HETATM   10  C15 UNL     1      -1.992  -2.778  -0.256  1.00  0.00     0.219 C 
HETATM   11  O2  UNL     1      -1.498  -3.910  -0.229  1.00  0.00    -0.274 OA
HETATM   12  N3  UNL     1      -1.096  -1.651  -0.083  1.00  0.00    -0.348 N 
ATOM     13  H3  UNL     1      -0.149  -1.847   0.240  1.00  0.00     0.163 HD
HETATM   14  C16 UNL     1      -1.469  -0.171  -0.352  1.00  0.00     0.081 C 
HETATM   15  C17 UNL     1      -2.812  -0.483  -0.513  1.00  0.00     0.006 A 
HETATM   16  C18 UNL     1      -3.704   0.573  -0.109  1.00  0.00     0.016 A 
HETATM   17  C19 UNL     1      -2.087   0.824   0.668  1.00  0.00     0.049 C 
HETATM   18  C20 UNL     1      -1.109   2.033   0.580  1.00  0.00     0.095 C 
HETATM   19  C21 UNL     1       0.351   1.480   0.731  1.00  0.00     0.078 C 
HETATM   20  N4  UNL     1       0.416   0.458  -1.678  1.00  0.00    -0.046 N 
ATOM     21  H41 UNL     1       0.814  -0.459  -1.476  1.00  0.00     0.279 HD
ATOM     22  H42 UNL     1       0.790   0.593  -2.618  1.00  0.00     0.279 HD
ENDROOT
BRANCH   1  23
HETATM   23  C5  UNL     1       2.478   1.376  -0.584  1.00  0.00     0.254 C 
HETATM   24  N2  UNL     1       2.857   0.059  -0.412  1.00  0.00    -0.359 N 
ATOM     25  H2  UNL     1       2.145  -0.669  -0.463  1.00  0.00     0.162 HD
HETATM   26  O1  UNL     1       3.250   2.326  -0.543  1.00  0.00    -0.271 OA
BRANCH  24  27
HETATM   27  C4  UNL     1       4.228  -0.322  -0.162  1.00  0.00     0.122 C 
BRANCH  27  28
HETATM   28  C3  UNL     1       4.379  -1.832   0.009  1.00  0.00     0.021 C 
BRANCH  28  29
HETATM   29  C2  UNL     1       3.505  -2.462   1.102  1.00  0.00     0.029 C 
BRANCH  29  30
HETATM   30  C1  UNL     1       3.817  -1.938   2.502  1.00  0.00     0.229 C 
BRANCH  30  31
HETATM   31  N1  UNL     1       3.006  -2.642   3.488  1.00  0.00    -0.079 N 
ATOM     32  H13 UNL     1       2.010  -2.589   3.273  1.00  0.00     0.274 HD
ATOM     33  H12 UNL     1       3.118  -3.654   3.424  1.00  0.00     0.274 HD
ATOM     34  H11 UNL     1       3.214  -2.292   4.423  1.00  0.00     0.274 HD
ENDBRANCH  30  31
ENDBRANCH  29  30
ENDBRANCH  28  29
ENDBRANCH  27  28
ENDBRANCH  24  27
ENDBRANCH   1  23
BRANCH  18  35
HETATM   35  S1  UNL     1      -1.518   3.211   1.880  1.00  0.00     0.112 S 
HETATM   36  O3  UNL     1      -0.601   4.327   1.844  1.00  0.00    -0.594 OA
HETATM   37  O4  UNL     1      -2.949   3.394   1.935  1.00  0.00    -0.594 OA
HETATM   38  O5  UNL     1      -1.081   2.332   3.162  1.00  0.00    -0.594 OA
ENDBRANCH  18  35
TORSDOF 8
