REMARK  5 active torsions:
REMARK  status: ('A' for Active; 'I' for Inactive)
REMARK    1  A    between atoms: C2_2  and  O1_3 
REMARK    2  A    between atoms: O1_3  and  C3_4 
REMARK    3  A    between atoms: C3_4  and  C4_6 
REMARK    4  A    between atoms: C5_8  and  N1_9 
REMARK    5  A    between atoms: N1_9  and  C6_11 
ROOT
HETATM    1  C6  UNL     1      -1.652  -1.272   0.247  1.00  0.00     0.297 C 
HETATM    2  N2  UNL     1      -3.017  -1.192   0.773  1.00  0.00    -0.043 N 
ATOM      3  H21 UNL     1      -3.220  -1.598   1.687  1.00  0.00     0.280 HD
ATOM      4  H22 UNL     1      -3.749  -1.755   0.339  1.00  0.00     0.280 HD
HETATM    5  C7  UNL     1      -3.053   0.243   0.620  1.00  0.00     0.147 C 
HETATM    6  C8  UNL     1      -2.889   1.188   1.779  1.00  0.00     0.045 C 
HETATM    7  C9  UNL     1      -2.285   2.276   0.899  1.00  0.00    -0.010 C 
HETATM    8  C10 UNL     1      -3.383   2.430  -0.189  1.00  0.00     0.016 C 
HETATM    9  C11 UNL     1      -3.692   0.949  -0.589  1.00  0.00    -0.009 C 
HETATM   10  C12 UNL     1      -5.121   0.701  -1.000  1.00  0.00     0.018 C 
HETATM   11  C13 UNL     1      -2.587   0.368  -1.499  1.00  0.00     0.027 C 
HETATM   12  C14 UNL     1      -1.731   0.216  -0.211  1.00  0.00     0.041 C 
HETATM   13  C15 UNL     1      -1.083   1.514   0.293  1.00  0.00     0.020 C 
ENDROOT
BRANCH   1  14
HETATM   14  N1  UNL     1      -0.683  -1.492   1.285  1.00  0.00    -0.356 N 
ATOM     15  H1  UNL     1      -0.952  -1.429   2.267  1.00  0.00     0.162 HD
BRANCH  14  16
HETATM   16  C5  UNL     1       0.602  -1.787   0.936  1.00  0.00     0.072 C 
HETATM   17  S1  UNL     1       1.893  -0.747   1.341  1.00  0.00    -0.066 SA
HETATM   18  C4  UNL     1       2.998  -1.607   0.351  1.00  0.00     0.088 C 
HETATM   19  C17 UNL     1       2.462  -2.816  -0.070  1.00  0.00    -0.036 C 
HETATM   20  C16 UNL     1       1.060  -2.879   0.234  1.00  0.00     0.045 C 
HETATM   21  C18 UNL     1       3.201  -3.865  -0.837  1.00  0.00     0.050 C 
BRANCH  18  22
HETATM   22  C3  UNL     1       4.312  -1.062   0.044  1.00  0.00     0.300 C 
HETATM   23  O2  UNL     1       5.279  -1.700  -0.350  1.00  0.00    -0.259 OA
BRANCH  22  24
HETATM   24  O1  UNL     1       4.289   0.297   0.151  1.00  0.00    -0.317 OA
BRANCH  24  25
HETATM   25  C2  UNL     1       5.456   0.978  -0.318  1.00  0.00     0.174 C 
HETATM   26  C1  UNL     1       5.139   2.462  -0.303  1.00  0.00     0.034 C 
ENDBRANCH  24  25
ENDBRANCH  22  24
ENDBRANCH  18  22
ENDBRANCH  14  16
ENDBRANCH   1  14
TORSDOF 5
