REMARK  14 active torsions:
REMARK  status: ('A' for Active; 'I' for Inactive)
REMARK    1  A    between atoms: C2_2  and  N1_3 
REMARK    2  A    between atoms: N1_3  and  C3_4 
REMARK    3  A    between atoms: N1_3  and  C5_6 
REMARK    4  A    between atoms: C5_6  and  C6_7 
REMARK    5  A    between atoms: C6_7  and  C7_8 
REMARK    6  A    between atoms: C7_8  and  C8_9 
REMARK    7  A    between atoms: C8_9  and  C9_10 
REMARK    8  A    between atoms: C9_10  and  N2_11 
REMARK    9  A    between atoms: C9_10  and  C10_15 
REMARK   10  A    between atoms: C10_15  and  C11_17 
REMARK   11  A    between atoms: C11_17  and  O2_18 
REMARK   12  A    between atoms: O2_18  and  C12_19 
REMARK   13  A    between atoms: C12_19  and  C13_20 
REMARK       I    between atoms: C13_20  and  N3_22 
REMARK   14  A    between atoms: N6_39  and  C25_41 
ROOT
HETATM    1  C13 UNL     1      -2.171   3.096  -1.705  1.00  0.00     0.247 C 
HETATM    2  O3  UNL     1      -2.067   4.247  -1.277  1.00  0.00    -0.271 OA
HETATM    3  N3  UNL     1      -1.313   2.587  -2.706  1.00  0.00    -0.326 N 
HETATM    4  C14 UNL     1      -0.070   3.391  -2.860  1.00  0.00     0.131 C 
HETATM    5  C15 UNL     1       0.835   3.409  -1.562  1.00  0.00     0.020 C 
HETATM    6  C16 UNL     1       2.181   2.613  -1.534  1.00  0.00     0.004 C 
HETATM    7  C17 UNL     1       2.252   1.228  -0.787  1.00  0.00     0.034 C 
HETATM    8  C18 UNL     1       1.293   0.150  -1.240  1.00  0.00     0.198 C 
HETATM    9  N4  UNL     1       1.648  -1.235  -1.413  1.00  0.00    -0.060 N 
ATOM     10  H41 UNL     1       1.209  -1.837  -0.717  1.00  0.00     0.278 HD
ATOM     11  H42 UNL     1       2.621  -1.419  -1.169  1.00  0.00     0.278 HD
HETATM   12  C19 UNL     1       1.283  -1.706  -2.988  1.00  0.00     0.237 C 
HETATM   13  C20 UNL     1       2.284  -1.083  -3.726  1.00  0.00     0.090 C 
HETATM   14  N5  UNL     1       2.087   0.230  -3.928  1.00  0.00    -0.391 N 
ATOM     15  H5  UNL     1       2.817   0.852  -4.275  1.00  0.00     0.159 HD
HETATM   16  C21 UNL     1       0.827   0.660  -3.630  1.00  0.00     0.122 C 
HETATM   17  C22 UNL     1      -0.171  -0.079  -4.150  1.00  0.00    -0.043 C 
HETATM   18  C23 UNL     1      -0.104  -1.219  -3.342  1.00  0.00     0.098 C 
HETATM   19  C24 UNL     1      -0.653  -0.616  -2.131  1.00  0.00     0.002 C 
HETATM   20  N6  UNL     1      -1.625  -0.951  -1.371  1.00  0.00    -0.391 N 
ATOM     21  H6  UNL     1      -1.917  -0.349  -0.601  1.00  0.00     0.159 HD
HETATM   22  C30 UNL     1       0.321   0.541  -2.074  1.00  0.00     0.089 C 
HETATM   23  C31 UNL     1      -1.353   0.710  -4.654  1.00  0.00     0.023 C 
HETATM   24  C32 UNL     1      -1.956   1.957  -3.891  1.00  0.00     0.094 C 
ENDROOT
BRANCH   1  25
HETATM   25  C12 UNL     1      -3.167   2.122  -1.064  1.00  0.00     0.271 C 
BRANCH  25  26
HETATM   26  O2  UNL     1      -2.762   1.769   0.256  1.00  0.00    -0.375 OA
BRANCH  26  27
HETATM   27  C11 UNL     1      -3.221   2.669   1.251  1.00  0.00     0.248 C 
BRANCH  27  28
HETATM   28  C10 UNL     1      -2.471   2.509   2.572  1.00  0.00     0.180 C 
HETATM   29  O1  UNL     1      -2.319   3.476   3.324  1.00  0.00    -0.293 OA
BRANCH  28  30
HETATM   30  C9  UNL     1      -1.991   1.093   2.942  1.00  0.00     0.254 C 
BRANCH  30  31
HETATM   31  C8  UNL     1      -0.458   1.089   3.056  1.00  0.00     0.041 C 
BRANCH  31  32
HETATM   32  C7  UNL     1       0.136  -0.325   3.051  1.00  0.00     0.004 C 
BRANCH  32  33
HETATM   33  C6  UNL     1       1.664  -0.295   3.184  1.00  0.00     0.030 C 
BRANCH  33  34
HETATM   34  C5  UNL     1       2.257  -1.691   2.946  1.00  0.00     0.272 C 
BRANCH  34  35
HETATM   35  N1  UNL     1       3.716  -1.735   3.127  1.00  0.00     0.087 N 
BRANCH  35  36
HETATM   36  C2  UNL     1       4.221  -3.109   3.274  1.00  0.00     0.268 C 
HETATM   37  C1  UNL     1       3.918  -4.068   2.123  1.00  0.00     0.037 C 
ENDBRANCH  35  36
BRANCH  35  38
HETATM   38  C3  UNL     1       4.462  -0.965   2.125  1.00  0.00     0.268 C 
HETATM   39  C4  UNL     1       5.211   0.174   2.804  1.00  0.00     0.037 C 
ENDBRANCH  35  38
ENDBRANCH  34  35
ENDBRANCH  33  34
ENDBRANCH  32  33
ENDBRANCH  31  32
ENDBRANCH  30  31
BRANCH  30  40
HETATM   40  N2  UNL     1      -2.629   0.666   4.201  1.00  0.00    -0.068 N 
ATOM     41  H23 UNL     1      -2.280  -0.243   4.506  1.00  0.00     0.275 HD
ATOM     42  H22 UNL     1      -2.312   1.230   4.990  1.00  0.00     0.275 HD
ATOM     43  H21 UNL     1      -3.646   0.669   4.125  1.00  0.00     0.275 HD
ENDBRANCH  30  40
ENDBRANCH  28  30
ENDBRANCH  27  28
ENDBRANCH  26  27
ENDBRANCH  25  26
ENDBRANCH   1  25
BRANCH  20  44
HETATM   44  C25 UNL     1      -2.311  -2.223  -1.632  1.00  0.00     0.085 C 
HETATM   45  C26 UNL     1      -2.205  -3.086  -0.372  1.00  0.00     0.051 C 
HETATM   46  C27 UNL     1      -3.143  -2.599   0.721  1.00  0.00     0.169 C 
HETATM   47  O4  UNL     1      -4.485  -2.540   0.241  1.00  0.00    -0.391 OA
HETATM   48  C28 UNL     1      -4.620  -1.577  -0.801  1.00  0.00     0.169 C 
HETATM   49  C29 UNL     1      -3.770  -1.959  -2.006  1.00  0.00     0.051 C 
ENDBRANCH  20  44
TORSDOF 14
