REMARK  15 active torsions:
REMARK  status: ('A' for Active; 'I' for Inactive)
REMARK    1  A    between atoms: C2_2  and  C3_3 
REMARK    2  A    between atoms: C3_3  and  C4_4 
REMARK    3  A    between atoms: C4_4  and  C5_5 
REMARK    4  A    between atoms: C5_5  and  C6_6 
REMARK    5  A    between atoms: C6_6  and  C7_7 
REMARK    6  A    between atoms: C7_7  and  C8_8 
REMARK    7  A    between atoms: C8_8  and  C9_9 
REMARK    8  A    between atoms: C9_9  and  C10_10 
REMARK    9  A    between atoms: C10_10  and  O1_11 
REMARK   10  A    between atoms: O1_11  and  C11_12 
REMARK   11  A    between atoms: C12_13  and  O2_14 
REMARK   12  A    between atoms: C12_13  and  C13_16 
REMARK   13  A    between atoms: C16_22  and  O6_23 
REMARK   14  A    between atoms: O6_23  and  C17_24 
REMARK   15  A    between atoms: C20_29  and  C21_30 
ROOT
HETATM    1  C11 UNL     1       0.914  -1.857   0.528  1.00  0.00     0.184 C 
HETATM    2  C12 UNL     1       2.236  -2.478  -0.011  1.00  0.00     0.233 C 
HETATM    3  C14 UNL     1       2.922  -1.729  -1.157  1.00  0.00     0.178 C 
HETATM    4  O5  UNL     1       3.035  -2.202  -2.290  1.00  0.00    -0.294 OA
HETATM    5  C15 UNL     1       3.524  -0.381  -0.863  1.00  0.00     0.130 C 
HETATM    6  C16 UNL     1       2.602   0.809  -1.057  1.00  0.00     0.148 C 
HETATM    7  C19 UNL     1       1.147   0.498  -1.570  1.00  0.00     0.184 C 
HETATM    8  O8  UNL     1       0.655   0.252  -2.648  1.00  0.00    -0.293 OA
HETATM    9  C20 UNL     1       0.535   0.710  -0.189  1.00  0.00     0.133 C 
HETATM   10  C22 UNL     1       0.753  -0.368   0.983  1.00  0.00     0.017 C 
HETATM   11  C23 UNL     1      -0.444  -0.376   1.999  1.00  0.00     0.020 C 
HETATM   12  C24 UNL     1       1.763   0.702   1.578  1.00  0.00     0.019 C 
HETATM   13  C25 UNL     1       2.880   0.892   2.641  1.00  0.00    -0.042 C 
HETATM   14  C26 UNL     1       2.329   1.617   3.904  1.00  0.00     0.015 C 
HETATM   15  C27 UNL     1       3.432  -0.441   3.123  1.00  0.00     0.015 C 
HETATM   16  C28 UNL     1       4.001   1.770   2.033  1.00  0.00     0.009 C 
HETATM   17  C29 UNL     1       3.515   3.018   1.264  1.00  0.00     0.002 C 
HETATM   18  C30 UNL     1       2.156   2.881   0.547  1.00  0.00     0.015 C 
HETATM   19  C31 UNL     1       1.880   1.417   0.225  1.00  0.00     0.030 C 
ENDROOT
BRANCH   1  20
HETATM   20  O1  UNL     1      -0.086  -2.031  -0.498  1.00  0.00    -0.381 OA
BRANCH  20  21
HETATM   21  C10 UNL     1      -1.049  -3.063  -0.274  1.00  0.00     0.168 C 
BRANCH  21  22
HETATM   22  C9  UNL     1      -1.546  -3.610  -1.614  1.00  0.00     0.026 C 
BRANCH  22  23
HETATM   23  C8  UNL     1      -2.096  -2.558  -2.584  1.00  0.00     0.002 C 
BRANCH  23  24
HETATM   24  C7  UNL     1      -3.605  -2.306  -2.480  1.00  0.00     0.000 C 
BRANCH  24  25
HETATM   25  C6  UNL     1      -4.034  -1.614  -1.188  1.00  0.00     0.000 C 
BRANCH  25  26
HETATM   26  C5  UNL     1      -5.475  -1.109  -1.285  1.00  0.00     0.000 C 
BRANCH  26  27
HETATM   27  C4  UNL     1      -6.020  -0.553   0.034  1.00  0.00     0.000 C 
BRANCH  27  28
HETATM   28  C3  UNL     1      -5.291   0.663   0.610  1.00  0.00    -0.000 C 
BRANCH  28  29
HETATM   29  C2  UNL     1      -5.337   1.885  -0.309  1.00  0.00    -0.005 C 
HETATM   30  C1  UNL     1      -4.834   3.137   0.397  1.00  0.00     0.005 C 
ENDBRANCH  28  29
ENDBRANCH  27  28
ENDBRANCH  26  27
ENDBRANCH  25  26
ENDBRANCH  24  25
ENDBRANCH  23  24
ENDBRANCH  22  23
ENDBRANCH  21  22
ENDBRANCH  20  21
ENDBRANCH   1  20
BRANCH   2  31
HETATM   31  O2  UNL     1       1.905  -3.816  -0.538  1.00  0.00    -0.370 OA
ATOM     32  H2  UNL     1       2.712  -4.195  -0.867  1.00  0.00     0.212 HD
ENDBRANCH   2  31
BRANCH   2  33
HETATM   33  C13 UNL     1       3.195  -2.919   1.086  1.00  0.00     0.220 C 
HETATM   34  O3  UNL     1       2.861  -3.437   2.144  1.00  0.00    -0.645 OA
HETATM   35  O4  UNL     1       4.501  -2.796   0.791  1.00  0.00    -0.645 OA
ENDBRANCH   2  33
BRANCH   9  36
HETATM   36  C21 UNL     1      -0.763   1.514  -0.366  1.00  0.00     0.191 C 
HETATM   37  O9  UNL     1      -1.919   1.137  -0.204  1.00  0.00    -0.647 OA
HETATM   38  O10 UNL     1      -0.568   2.804  -0.731  1.00  0.00    -0.647 OA
ENDBRANCH   9  36
BRANCH   6  39
HETATM   39  O6  UNL     1       3.250   1.873  -1.822  1.00  0.00    -0.301 OA
BRANCH  39  40
HETATM   40  C17 UNL     1       3.388   1.684  -3.167  1.00  0.00     0.256 C 
HETATM   41  C18 UNL     1       3.445   3.008  -3.869  1.00  0.00     0.126 C 
HETATM   42  O7  UNL     1       3.432   0.602  -3.721  1.00  0.00    -0.266 OA
ENDBRANCH  39  40
ENDBRANCH   6  39
TORSDOF 15
