REMARK  6 active torsions:
REMARK  status: ('A' for Active; 'I' for Inactive)
REMARK    1  A    between atoms: C2_2  and  O1_3 
REMARK    2  A    between atoms: C2_2  and  C3_5 
REMARK    3  A    between atoms: C3_5  and  C4_6 
REMARK    4  A    between atoms: C3_5  and  C18_23 
REMARK    5  A    between atoms: C5_7  and  C6_8 
REMARK    6  A    between atoms: C12_14  and  O2_15 
ROOT
HETATM    1  C6  UNL     1      -0.228  -1.674  -0.467  1.00  0.00    -0.080 C 
HETATM    2  C7  UNL     1      -1.074  -1.279  -1.692  1.00  0.00     0.035 C 
HETATM    3  C8  UNL     1      -2.540  -0.987  -1.413  1.00  0.00     0.019 C 
HETATM    4  C9  UNL     1      -2.872   0.360  -0.771  1.00  0.00     0.020 C 
HETATM    5  C10 UNL     1      -4.417   0.493  -0.631  1.00  0.00     0.018 C 
HETATM    6  C11 UNL     1      -4.758   0.370   0.868  1.00  0.00     0.036 C 
HETATM    7  C12 UNL     1      -3.442   0.183   1.631  1.00  0.00     0.154 C 
HETATM    8  C13 UNL     1      -2.414   0.694   0.666  1.00  0.00     0.101 C 
HETATM    9  O3  UNL     1      -2.656   2.153   0.300  1.00  0.00    -0.370 OA
HETATM   10  C14 UNL     1      -1.961   1.670  -0.941  1.00  0.00     0.135 C 
HETATM   11  C15 UNL     1      -0.543   1.442  -0.415  1.00  0.00     0.041 C 
HETATM   12  C16 UNL     1      -0.904   0.581   0.808  1.00  0.00     0.030 C 
HETATM   13  C17 UNL     1      -0.407  -0.863   0.833  1.00  0.00     0.042 C 
ENDROOT
BRANCH   1  14
HETATM   14  C5  UNL     1       1.190  -1.996  -0.921  1.00  0.00    -0.001 C 
HETATM   15  C4  UNL     1       2.414  -1.473  -0.711  1.00  0.00    -0.019 C 
BRANCH  15  16
HETATM   16  C3  UNL     1       2.873  -0.242   0.041  1.00  0.00     0.041 C 
BRANCH  16  17
HETATM   17  C2  UNL     1       3.706  -0.572   1.324  1.00  0.00     0.122 C 
HETATM   18  C1  UNL     1       3.282  -1.819   2.092  1.00  0.00     0.040 C 
BRANCH  17  19
HETATM   19  O1  UNL     1       3.623   0.528   2.241  1.00  0.00    -0.395 OA
ATOM     20  H1  UNL     1       3.887   1.305   1.762  1.00  0.00     0.210 HD
ENDBRANCH  17  19
ENDBRANCH  16  17
BRANCH  16  21
HETATM   21  C18 UNL     1       3.744   0.633  -0.867  1.00  0.00    -0.004 A 
HETATM   22  C19 UNL     1       3.152   1.387  -2.031  1.00  0.00     0.006 A 
HETATM   23  C20 UNL     1       3.644   2.139  -0.827  1.00  0.00     0.006 A 
ENDBRANCH  16  21
ENDBRANCH  15  16
ENDBRANCH   1  14
BRANCH   7  24
HETATM   24  O2  UNL     1      -3.438   0.956   2.823  1.00  0.00    -0.392 OA
ATOM     25  H2  UNL     1      -2.622   0.840   3.296  1.00  0.00     0.210 HD
ENDBRANCH   7  24
TORSDOF 6
