REMARK  4 active torsions:
REMARK  status: ('A' for Active; 'I' for Inactive)
REMARK       I    between atoms: N1_1  and  C1_4 
REMARK    1  A    between atoms: C1_4  and  C2_6 
REMARK    2  A    between atoms: C4_8  and  C5_9 
REMARK       I    between atoms: C5_9  and  N2_11 
REMARK       I    between atoms: N2_11  and  C6_13 
REMARK       I    between atoms: C6_13  and  N3_14 
REMARK    3  A    between atoms: C12_25  and  C13_27 
REMARK    4  A    between atoms: C14_28  and  C15_29 
ROOT
HETATM    1  C2  UNL     1      -0.499  -0.928   0.739  1.00  0.00     0.095 C 
HETATM    2  C3  UNL     1      -1.590  -1.999   1.017  1.00  0.00     0.044 C 
HETATM    3  C4  UNL     1      -2.411  -1.462  -0.196  1.00  0.00     0.052 C 
HETATM    4  C7  UNL     1      -2.824  -2.545  -1.210  1.00  0.00     0.046 C 
HETATM    5  C8  UNL     1      -1.675  -3.118  -1.983  1.00  0.00    -0.029 C 
HETATM    6  C9  UNL     1      -0.445  -2.606  -2.065  1.00  0.00    -0.021 C 
HETATM    7  C10 UNL     1      -0.074  -1.358  -1.360  1.00  0.00     0.068 C 
HETATM    8  C11 UNL     1      -1.179  -0.614  -0.604  1.00  0.00     0.037 C 
HETATM    9  C12 UNL     1       0.713  -1.538  -0.019  1.00  0.00     0.190 C 
HETATM   10  F1  UNL     1       1.036  -2.814   0.307  1.00  0.00    -0.227 F 
ENDROOT
BRANCH   3  11
HETATM   11  C5  UNL     1      -3.703  -0.607   0.201  1.00  0.00     0.245 C 
HETATM   12  O2  UNL     1      -4.866  -0.948  -0.027  1.00  0.00    -0.272 OA
HETATM   13  N2  UNL     1      -3.389   0.589   0.803  1.00  0.00    -0.160 N 
HETATM   14  C6  UNL     1      -3.983   1.644   0.364  1.00  0.00     0.672 C 
ATOM     15  H2  UNL     1      -2.714   0.638   1.566  1.00  0.00     0.187 HD
HETATM   16  N3  UNL     1      -3.763   2.846   0.942  1.00  0.00    -0.235 N 
HETATM   17  N4  UNL     1      -4.851   1.773  -0.665  1.00  0.00    -0.235 N 
ATOM     18  H32 UNL     1      -3.108   2.749   1.718  1.00  0.00     0.174 HD
ATOM     19  H31 UNL     1      -4.233   3.682   0.594  1.00  0.00     0.174 HD
ATOM     20  H42 UNL     1      -5.017   0.866  -1.101  1.00  0.00     0.174 HD
ATOM     21  H41 UNL     1      -5.321   2.609  -1.013  1.00  0.00     0.174 HD
ENDBRANCH   3  11
BRANCH   1  22
HETATM   22  C1  UNL     1      -0.243   0.117   1.845  1.00  0.00     0.229 C 
HETATM   23  N1  UNL     1      -0.357   1.440   1.506  1.00  0.00    -0.369 N 
ATOM     24  H12 UNL     1      -0.188   2.131   2.237  1.00  0.00     0.159 HD
ATOM     25  H11 UNL     1      -0.585   1.665   0.538  1.00  0.00     0.159 HD
HETATM   26  O1  UNL     1       0.033  -0.155   3.016  1.00  0.00    -0.273 OA
ENDBRANCH   1  22
BRANCH   9  27
HETATM   27  C13 UNL     1       1.935  -0.751   0.027  1.00  0.00    -0.055 C 
HETATM   28  C14 UNL     1       2.938  -0.094   0.058  1.00  0.00    -0.064 C 
BRANCH  28  29
HETATM   29  C15 UNL     1       4.133   0.686   0.098  1.00  0.00     0.018 A 
HETATM   30  C16 UNL     1       4.065   2.077  -0.043  1.00  0.00     0.024 A 
HETATM   31  C17 UNL     1       5.234   2.837  -0.000  1.00  0.00     0.044 A 
HETATM   32  C18 UNL     1       6.457   2.198   0.184  1.00  0.00     0.116 A 
HETATM   33  F2  UNL     1       7.577   2.929   0.227  1.00  0.00    -0.206 F 
HETATM   34  C19 UNL     1       6.537   0.816   0.327  1.00  0.00     0.044 A 
HETATM   35  C20 UNL     1       5.368   0.057   0.283  1.00  0.00     0.024 A 
ENDBRANCH  28  29
ENDBRANCH   9  27
TORSDOF 4
