REMARK  1 active torsions:
REMARK  status: ('A' for Active; 'I' for Inactive)
REMARK    1  A    between atoms: C1_2  and  C2_4 
ROOT
HETATM    1  C2  UNL     1      -1.902   0.206  -0.061  1.00  0.00     0.096 C 
HETATM    2  C3  UNL     1      -1.103   1.571  -0.630  1.00  0.00     0.021 C 
HETATM    3  C4  UNL     1       0.572   1.305  -0.731  1.00  0.00    -0.005 C 
HETATM    4  C5  UNL     1       1.108   0.994   0.701  1.00  0.00    -0.009 C 
HETATM    5  C6  UNL     1       2.201  -0.066   0.892  1.00  0.00     0.010 C 
HETATM    6  C7  UNL     1       1.774  -1.367   0.167  1.00  0.00    -0.013 C 
HETATM    7  C8  UNL     1       1.949  -0.915  -1.306  1.00  0.00     0.010 C 
HETATM    8  C9  UNL     1       0.833   0.078  -1.661  1.00  0.00    -0.009 C 
HETATM    9  C10 UNL     1      -0.376  -0.754  -1.424  1.00  0.00     0.015 C 
HETATM   10  C11 UNL     1      -0.674  -0.660   0.173  1.00  0.00    -0.026 C 
HETATM   11  C12 UNL     1       0.227  -1.852   0.533  1.00  0.00     0.015 C 
HETATM   12  C13 UNL     1      -0.061   0.317   1.319  1.00  0.00     0.015 C 
ENDROOT
BRANCH   1  13
HETATM   13  C1  UNL     1      -2.843   0.417   1.107  1.00  0.00     0.177 C 
HETATM   14  O1  UNL     1      -3.079  -0.383   1.997  1.00  0.00    -0.648 OA
HETATM   15  O2  UNL     1      -3.498   1.592   1.052  1.00  0.00    -0.648 OA
ENDBRANCH   1  13
TORSDOF 1
