REMARK  2 active torsions:
REMARK  status: ('A' for Active; 'I' for Inactive)
REMARK       I    between atoms: C2_2  and  N1_4 
REMARK    1  A    between atoms: N1_4  and  C3_6 
REMARK    2  A    between atoms: C10_15  and  C11_16 
ROOT
HETATM    1  C3  UNL     1      -2.257  -0.781  -0.667  1.00  0.00     0.031 C 
HETATM    2  C4  UNL     1      -1.990  -0.338   0.633  1.00  0.00     0.031 C 
HETATM    3  C5  UNL     1      -0.847  -0.849   1.303  1.00  0.00     0.129 C 
HETATM    4  N2  UNL     1      -0.414  -2.041   0.833  1.00  0.00    -0.392 N 
HETATM    5  C6  UNL     1       0.327  -2.974   1.691  1.00  0.00     0.145 C 
HETATM    6  C7  UNL     1      -0.199  -2.030  -0.499  1.00  0.00     0.180 C 
HETATM    7  C8  UNL     1      -1.301  -1.613  -1.269  1.00  0.00     0.035 C 
HETATM    8  C9  UNL     1       1.011  -1.156  -0.752  1.00  0.00     0.182 C 
HETATM    9  O2  UNL     1       1.710  -1.375  -1.726  1.00  0.00    -0.290 OA
HETATM   10  C10 UNL     1       1.241  -0.025   0.280  1.00  0.00    -0.004 C 
HETATM   11  C15 UNL     1       0.315   0.095   1.276  1.00  0.00     0.013 C 
ENDROOT
BRANCH   1  12
HETATM   12  N1  UNL     1      -3.338  -0.399  -1.473  1.00  0.00    -0.328 N 
HETATM   13  C2  UNL     1      -4.343   0.518  -1.369  1.00  0.00     0.218 C 
HETATM   14  C1  UNL     1      -4.374   1.544  -0.279  1.00  0.00     0.117 C 
HETATM   15  O1  UNL     1      -5.226   0.489  -2.229  1.00  0.00    -0.274 OA
ATOM     16  H1  UNL     1      -3.384  -0.932  -2.342  1.00  0.00     0.169 HD
ENDBRANCH   1  12
BRANCH  10  17
HETATM   17  C11 UNL     1       2.465   0.891   0.087  1.00  0.00    -0.021 C 
HETATM   18  C12 UNL     1       2.287   1.735  -1.190  1.00  0.00     0.019 C 
HETATM   19  C13 UNL     1       3.766   0.068  -0.010  1.00  0.00     0.019 C 
HETATM   20  C14 UNL     1       2.654   1.885   1.259  1.00  0.00     0.019 C 
ENDBRANCH  10  17
TORSDOF 2
