REMARK  9 active torsions:
REMARK  status: ('A' for Active; 'I' for Inactive)
REMARK    1  A    between atoms: C2_2  and  C3_3 
REMARK    2  A    between atoms: C3_3  and  C4_4 
REMARK    3  A    between atoms: C12_13  and  C13_14 
REMARK    4  A    between atoms: C12_13  and  C22_28 
REMARK       I    between atoms: C13_14  and  N1_16 
REMARK    5  A    between atoms: N1_16  and  C14_18 
REMARK    6  A    between atoms: C14_18  and  C15_19 
REMARK    7  A    between atoms: C15_19  and  C16_20 
REMARK    8  A    between atoms: C16_20  and  N2_21 
REMARK    9  A    between atoms: C26_33  and  O3_34 
ROOT
HETATM    1  C4  UNL     1       1.399  -1.933  -0.655  1.00  0.00    -0.005 C 
HETATM    2  C5  UNL     1       0.062  -0.998  -0.517  1.00  0.00     0.014 C 
HETATM    3  C6  UNL     1      -0.058  -0.042   0.791  1.00  0.00     0.043 C 
HETATM    4  C7  UNL     1       0.486  -0.889   1.918  1.00  0.00     0.095 A 
HETATM    5  C8  UNL     1      -0.436  -1.469   2.987  1.00  0.00     0.208 A 
HETATM    6  O1  UNL     1       0.221  -2.277   2.006  1.00  0.00    -0.374 OA
HETATM    7  C9  UNL     1       1.827  -0.364   2.078  1.00  0.00     0.000 C 
HETATM    8  C10 UNL     1       1.449   0.897   3.118  1.00  0.00     0.014 C 
HETATM    9  C11 UNL     1       0.700   1.964   2.380  1.00  0.00     0.022 C 
HETATM   10  C12 UNL     1       0.927   1.542   0.950  1.00  0.00     0.069 C 
HETATM   11  C22 UNL     1       2.756   1.281   0.818  1.00  0.00     0.077 C 
HETATM   12  C23 UNL     1       3.350   2.221  -0.131  1.00  0.00     0.071 C 
HETATM   13  N4  UNL     1       3.809   2.968  -0.881  1.00  0.00    -0.196 NA
HETATM   14  C24 UNL     1       3.855   0.587   1.874  1.00  0.00     0.039 C 
HETATM   15  C25 UNL     1       3.157  -0.657   2.603  1.00  0.00     0.022 C 
HETATM   16  C26 UNL     1       5.210   0.057   1.314  1.00  0.00     0.124 C 
HETATM   17  C27 UNL     1       5.249  -1.003   0.181  1.00  0.00     0.033 C 
HETATM   18  C28 UNL     1       4.013  -1.881  -0.136  1.00  0.00     0.012 C 
HETATM   19  C29 UNL     1       2.761  -1.103  -0.569  1.00  0.00    -0.034 C 
HETATM   20  C30 UNL     1       3.073  -0.482  -1.963  1.00  0.00     0.016 C 
HETATM   21  C31 UNL     1       2.337  -0.027   0.408  1.00  0.00     0.030 C 
ENDROOT
BRANCH  16  22
HETATM   22  O3  UNL     1       6.047   1.156   0.950  1.00  0.00    -0.395 OA
ATOM     23  H3  UNL     1       6.873   0.833   0.609  1.00  0.00     0.210 HD
ENDBRANCH  16  22
BRANCH   1  24
HETATM   24  C3  UNL     1       1.235  -2.964  -1.791  1.00  0.00     0.005 C 
BRANCH  24  25
HETATM   25  C2  UNL     1       0.642  -2.479  -3.118  1.00  0.00    -0.004 C 
HETATM   26  C1  UNL     1       0.582  -3.630  -4.115  1.00  0.00     0.005 C 
ENDBRANCH  24  25
ENDBRANCH   1  24
BRANCH  10  27
HETATM   27  C13 UNL     1       0.346   2.630   0.035  1.00  0.00     0.228 C 
HETATM   28  O2  UNL     1       0.733   3.799   0.126  1.00  0.00    -0.273 OA
HETATM   29  N1  UNL     1      -0.671   2.271  -0.821  1.00  0.00    -0.360 N 
ATOM     30  H1  UNL     1      -0.926   1.287  -0.903  1.00  0.00     0.162 HD
BRANCH  29  31
HETATM   31  C14 UNL     1      -1.398   3.264  -1.618  1.00  0.00     0.124 C 
BRANCH  31  32
HETATM   32  C15 UNL     1      -2.538   2.614  -2.426  1.00  0.00     0.050 C 
BRANCH  32  33
HETATM   33  C16 UNL     1      -3.877   2.527  -1.666  1.00  0.00     0.274 C 
BRANCH  33  34
HETATM   34  N2  UNL     1      -3.882   1.653  -0.480  1.00  0.00     0.091 N 
HETATM   35  C17 UNL     1      -4.941   2.109   0.467  1.00  0.00     0.302 C 
HETATM   36  C18 UNL     1      -5.268   1.032   1.521  1.00  0.00     0.302 C 
HETATM   37  N3  UNL     1      -5.928  -0.162   0.934  1.00  0.00     0.087 N 
HETATM   38  C19 UNL     1      -5.586  -1.349   1.721  1.00  0.00     0.310 C 
HETATM   39  C20 UNL     1      -5.514  -0.329  -0.482  1.00  0.00     0.302 C 
HETATM   40  C21 UNL     1      -4.101   0.223  -0.823  1.00  0.00     0.302 C 
ENDBRANCH  33  34
ENDBRANCH  32  33
ENDBRANCH  31  32
ENDBRANCH  29  31
ENDBRANCH  10  27
TORSDOF 9
