REMARK  3 active torsions:
REMARK  status: ('A' for Active; 'I' for Inactive)
REMARK    1  A    between atoms: C2_2  and  N1_3 
REMARK       I    between atoms: N1_3  and  C3_5 
REMARK    2  A    between atoms: C3_5  and  O2_7 
REMARK    3  A    between atoms: O2_7  and  C4_8 
ROOT
HETATM    1  C4  UNL     1      -0.113  -1.544   1.257  1.00  0.00     0.165 C 
HETATM    2  C5  UNL     1       0.470  -2.526  -0.020  1.00  0.00     0.042 C 
HETATM    3  C6  UNL     1       1.092  -1.967  -1.520  1.00  0.00    -0.010 C 
HETATM    4  C7  UNL     1       0.070  -1.099  -2.388  1.00  0.00     0.024 C 
HETATM    5  C8  UNL     1       0.103   0.505  -2.274  1.00  0.00     0.123 C 
HETATM    6  N2  UNL     1       0.749   1.087  -1.076  1.00  0.00    -0.383 N 
HETATM    7  C9  UNL     1       0.292   2.352  -0.564  1.00  0.00     0.123 C 
HETATM    8  C10 UNL     1       1.383   2.924   0.366  1.00  0.00     0.024 C 
HETATM    9  C11 UNL     1       2.092   1.862   1.263  1.00  0.00    -0.008 C 
HETATM   10  C12 UNL     1       3.104   0.946   0.316  1.00  0.00     0.015 C 
HETATM   11  C13 UNL     1       2.397  -0.340  -0.187  1.00  0.00     0.036 C 
HETATM   12  C14 UNL     1       2.475  -1.177  -1.441  1.00  0.00     0.015 C 
HETATM   13  C15 UNL     1       0.960   0.067  -0.071  1.00  0.00     0.016 C 
HETATM   14  C16 UNL     1       0.770  -0.263   1.381  1.00  0.00    -0.028 C 
HETATM   15  C17 UNL     1       0.938   1.064   2.070  1.00  0.00     0.043 C 
ENDROOT
BRANCH   1  16
HETATM   16  O2  UNL     1      -1.490  -1.245   0.966  1.00  0.00    -0.294 OA
BRANCH  16  17
HETATM   17  C3  UNL     1      -2.230  -0.804   2.011  1.00  0.00     0.361 C 
HETATM   18  N1  UNL     1      -3.540  -0.610   1.684  1.00  0.00    -0.337 N 
ATOM     19  H1  UNL     1      -4.161  -0.295   2.430  1.00  0.00     0.164 HD
HETATM   20  O1  UNL     1      -1.809  -0.604   3.142  1.00  0.00    -0.238 OA
BRANCH  18  21
HETATM   21  C2  UNL     1      -4.131  -0.809   0.379  1.00  0.00     0.120 C 
HETATM   22  C1  UNL     1      -4.054   0.448  -0.469  1.00  0.00     0.026 C 
ENDBRANCH  18  21
ENDBRANCH  16  17
ENDBRANCH   1  16
TORSDOF 3
