REMARK  10 active torsions:
REMARK  status: ('A' for Active; 'I' for Inactive)
REMARK    1  A    between atoms: C2_2  and  N1_3 
REMARK    2  A    between atoms: N1_3  and  C3_4 
REMARK    3  A    between atoms: C3_4  and  C4_5 
REMARK    4  A    between atoms: C4_5  and  N2_6 
REMARK    5  A    between atoms: C9_11  and  C10_12 
REMARK    6  A    between atoms: C11_13  and  C12_14 
REMARK    7  A    between atoms: C12_14  and  O1_15 
REMARK    8  A    between atoms: C14_18  and  C15_19 
REMARK    9  A    between atoms: C16_20  and  C21_27 
REMARK   10  A    between atoms: C19_23  and  C20_24 
ROOT
HETATM    1  N1  UNL     1      -0.660  -1.074  -0.398  1.00  0.00    -0.060 N 
HETATM    2  C8  UNL     1       0.327  -0.927  -1.534  1.00  0.00     0.245 C 
HETATM    3  C9  UNL     1       0.751   0.417  -0.912  1.00  0.00     0.050 C 
HETATM    4  C21 UNL     1       0.065   0.010   0.355  1.00  0.00     0.205 C 
ENDROOT
BRANCH   1   5
HETATM    5  C2  UNL     1      -0.563  -2.463   0.184  1.00  0.00     0.233 C 
HETATM    6  C1  UNL     1      -0.955  -3.542  -0.817  1.00  0.00     0.035 C 
ENDBRANCH   1   5
BRANCH   1   7
HETATM    7  C3  UNL     1      -2.034  -0.565  -0.832  1.00  0.00     0.266 C 
BRANCH   7   8
HETATM    8  C4  UNL     1      -2.995  -0.330   0.390  1.00  0.00     0.264 C 
BRANCH   8   9
HETATM    9  N2  UNL     1      -3.936   0.897   0.279  1.00  0.00    -0.077 N 
HETATM   10  C5  UNL     1      -5.002   0.680  -0.796  1.00  0.00     0.271 C 
HETATM   11  C6  UNL     1      -4.679   1.088   1.619  1.00  0.00     0.271 C 
HETATM   12  C7  UNL     1      -3.195   2.203   0.003  1.00  0.00     0.271 C 
ENDBRANCH   8   9
ENDBRANCH   7   8
ENDBRANCH   1   7
BRANCH   4  13
HETATM   13  C16 UNL     1       1.259  -0.268   1.286  1.00  0.00    -0.004 C 
HETATM   14  C15 UNL     1       2.537  -1.040   0.259  1.00  0.00     0.021 C 
HETATM   15  C19 UNL     1       2.984  -0.020   1.133  1.00  0.00     0.063 C 
HETATM   16  C10 UNL     1       2.098   0.969  -0.406  1.00  0.00     0.024 C 
HETATM   17  C18 UNL     1       2.456   1.248   1.251  1.00  0.00     0.021 C 
HETATM   18  C11 UNL     1       3.175   0.937  -1.303  1.00  0.00    -0.005 A 
HETATM   19  C13 UNL     1       3.786   1.368  -0.096  1.00  0.00     0.008 A 
HETATM   20  C14 UNL     1       3.613  -0.327  -0.834  1.00  0.00     0.008 A 
HETATM   21  C17 UNL     1       0.955  -0.818   2.676  1.00  0.00     0.018 C 
BRANCH  15  22
HETATM   22  C20 UNL     1       4.431  -0.267   1.754  1.00  0.00     0.183 C 
HETATM   23  O2  UNL     1       5.097  -1.281   1.561  1.00  0.00    -0.647 OA
HETATM   24  O3  UNL     1       4.903   0.650   2.638  1.00  0.00    -0.647 OA
ENDBRANCH  15  22
BRANCH  18  25
HETATM   25  C12 UNL     1       3.270   1.532  -2.640  1.00  0.00     0.175 C 
BRANCH  25  26
HETATM   26  O1  UNL     1       2.105   1.161  -3.366  1.00  0.00    -0.400 OA
ATOM     27  H1  UNL     1       2.167   1.546  -4.232  1.00  0.00     0.209 HD
ENDBRANCH  25  26
ENDBRANCH  18  25
ENDBRANCH   4  13
TORSDOF 10
