REMARK  7 active torsions:
REMARK  status: ('A' for Active; 'I' for Inactive)
REMARK    1  A    between atoms: C2_2  and  C7_10 
REMARK    2  A    between atoms: C3_3  and  C4_4 
REMARK    3  A    between atoms: C5_5  and  C6_6 
REMARK    4  A    between atoms: C6_6  and  N1_7 
REMARK    5  A    between atoms: N1_7  and  O1_8 
REMARK    6  A    between atoms: C8_12  and  C9_13 
REMARK    7  A    between atoms: C16_21  and  O3_22 
ROOT
HETATM    1  C9  UNL     1       1.637  -1.267   0.428  1.00  0.00     0.087 C 
HETATM    2  C10 UNL     1       2.891  -2.139   0.555  1.00  0.00     0.051 C 
HETATM    3  O2  UNL     1       1.255  -0.724   1.731  1.00  0.00    -0.356 OA
HETATM    4  C11 UNL     1       1.575   0.610   1.296  1.00  0.00     0.133 C 
HETATM    5  C12 UNL     1       3.062   1.018   1.323  1.00  0.00     0.056 C 
HETATM    6  C13 UNL     1       2.881   1.182  -0.189  1.00  0.00    -0.028 C 
HETATM    7  C14 UNL     1       4.136   0.927  -0.993  1.00  0.00     0.016 C 
HETATM    8  C15 UNL     1       2.235   2.579  -0.485  1.00  0.00     0.049 C 
HETATM    9  C16 UNL     1       0.868   2.812   0.243  1.00  0.00     0.191 C 
HETATM   10  C17 UNL     1       0.613   1.822   1.416  1.00  0.00     0.190 C 
HETATM   11  O4  UNL     1      -0.198   2.085   2.308  1.00  0.00    -0.292 OA
HETATM   12  C18 UNL     1       1.742   0.146  -0.183  1.00  0.00     0.074 C 
ENDROOT
BRANCH   1  13
HETATM   13  C8  UNL     1       0.548  -2.063  -0.256  1.00  0.00     0.053 C 
HETATM   14  C7  UNL     1      -0.765  -1.800  -0.099  1.00  0.00     0.121 C 
HETATM   15  F1  UNL     1      -1.117  -0.778   0.711  1.00  0.00    -0.206 F 
BRANCH  14  16
HETATM   16  C2  UNL     1      -1.857  -2.501  -0.775  1.00  0.00    -0.024 C 
HETATM   17  C1  UNL     1      -1.497  -3.341  -1.978  1.00  0.00     0.051 C 
HETATM   18  C3  UNL     1      -3.151  -2.470  -0.391  1.00  0.00     0.009 C 
BRANCH  18  19
HETATM   19  C4  UNL     1      -3.749  -1.761   0.713  1.00  0.00    -0.002 C 
HETATM   20  C5  UNL     1      -4.190  -0.492   0.691  1.00  0.00    -0.009 C 
BRANCH  20  21
HETATM   21  C6  UNL     1      -4.165   0.468  -0.460  1.00  0.00     0.169 C 
BRANCH  21  22
HETATM   22  N1  UNL     1      -3.501   1.731  -0.119  1.00  0.00    -0.100 NA
BRANCH  22  23
HETATM   23  O1  UNL     1      -4.382   2.416   0.818  1.00  0.00    -0.296 OA
ATOM     24  H1  UNL     1      -3.952   3.234   1.039  1.00  0.00     0.238 HD
ENDBRANCH  22  23
ENDBRANCH  21  22
ENDBRANCH  20  21
ENDBRANCH  18  19
ENDBRANCH  14  16
ENDBRANCH   1  13
BRANCH   9  25
HETATM   25  O3  UNL     1       0.831   4.150   0.715  1.00  0.00    -0.388 OA
ATOM     26  H3  UNL     1       0.002   4.291   1.157  1.00  0.00     0.210 HD
ENDBRANCH   9  25
TORSDOF 7
