REMARK  1 active torsions:
REMARK  status: ('A' for Active; 'I' for Inactive)
REMARK    1  A    between atoms: C2_2  and  N1_3 
ROOT
HETATM    1  N1  UNL     1      -1.423  -0.572  -0.349  1.00  0.00    -0.392 N 
HETATM    2  C3  UNL     1      -1.595  -0.374   1.092  1.00  0.00     0.119 C 
HETATM    3  C4  UNL     1      -1.644   1.093   1.611  1.00  0.00     0.024 C 
HETATM    4  C5  UNL     1      -0.335   1.924   1.646  1.00  0.00     0.043 C 
HETATM    5  C6  UNL     1       0.104   2.281   0.263  1.00  0.00    -0.018 C 
HETATM    6  C7  UNL     1      -0.475   3.218  -0.575  1.00  0.00     0.083 C 
HETATM    7 CL1  UNL     1      -1.466   4.557  -0.154  1.00  0.00    -0.076 Cl
HETATM    8  S1  UNL     1      -0.399   2.724  -2.214  1.00  0.00    -0.059 SA
HETATM    9  C8  UNL     1       0.360   1.298  -1.705  1.00  0.00     0.082 C 
HETATM   10  C9  UNL     1       1.008   1.485  -0.498  1.00  0.00     0.013 C 
HETATM   11  C10 UNL     1       1.917   0.370  -0.137  1.00  0.00     0.165 C 
HETATM   12  O1  UNL     1       2.715   0.496   1.043  1.00  0.00    -0.378 OA
HETATM   13  C11 UNL     1       3.738  -0.520   1.020  1.00  0.00     0.205 C 
HETATM   14  C12 UNL     1       3.192  -1.950   0.840  1.00  0.00     0.194 C 
HETATM   15  F1  UNL     1       4.214  -2.791   0.533  1.00  0.00    -0.247 F 
HETATM   16  C13 UNL     1       2.115  -2.066  -0.252  1.00  0.00     0.050 C 
HETATM   17  C14 UNL     1       1.112  -0.928  -0.048  1.00  0.00     0.064 C 
HETATM   18  C15 UNL     1      -0.132  -0.896  -1.011  1.00  0.00     0.186 C 
HETATM   19  N2  UNL     1       0.193   0.019  -2.169  1.00  0.00    -0.362 N 
ATOM     20  H2  UNL     1       0.275  -0.270  -3.144  1.00  0.00     0.162 HD
ENDROOT
BRANCH   1  21
HETATM   21  C2  UNL     1      -2.594  -1.059  -1.074  1.00  0.00     0.114 C 
HETATM   22  C1  UNL     1      -3.714  -0.027  -1.120  1.00  0.00     0.026 C 
ENDBRANCH   1  21
TORSDOF 1
