REMARK  3 active torsions:
REMARK  status: ('A' for Active; 'I' for Inactive)
REMARK    1  A    between atoms: C2_2  and  N1_4 
REMARK    2  A    between atoms: N2_15  and  N3_16 
REMARK    3  A    between atoms: N3_16  and  C11_17 
ROOT
HETATM    1  N1  UNL     1      -0.861   0.430   0.064  1.00  0.00    -0.172 NA
HETATM    2  C4  UNL     1      -1.830  -0.587   0.155  1.00  0.00     0.049 A 
HETATM    3  C5  UNL     1      -2.670  -0.891   1.216  1.00  0.00     0.071 A 
HETATM    4  C6  UNL     1      -3.528  -1.984   1.100  1.00  0.00     0.156 A 
HETATM    5  F1  UNL     1      -4.342  -2.292   2.125  1.00  0.00    -0.203 F 
HETATM    6  C7  UNL     1      -3.537  -2.779  -0.054  1.00  0.00     0.155 A 
HETATM    7  F2  UNL     1      -4.352  -3.838  -0.125  1.00  0.00    -0.203 F 
HETATM    8  C8  UNL     1      -2.687  -2.510  -1.113  1.00  0.00     0.062 A 
HETATM    9  C9  UNL     1      -1.841  -1.421  -0.973  1.00  0.00     0.031 A 
HETATM   10  C10 UNL     1      -0.795  -0.921  -1.858  1.00  0.00     0.144 A 
HETATM   11  S1  UNL     1      -0.361  -1.519  -3.357  1.00  0.00    -0.057 SA
HETATM   12  N2  UNL     1      -0.218   0.151  -1.176  1.00  0.00    -0.203 N 
ENDROOT
BRANCH  12  13
HETATM   13  N3  UNL     1       0.983   0.739  -1.550  1.00  0.00    -0.110 NA
BRANCH  13  14
HETATM   14  C11 UNL     1       2.096   0.361  -0.705  1.00  0.00     0.060 C 
HETATM   15  C12 UNL     1       2.739   1.363   0.243  1.00  0.00     0.038 C 
HETATM   16  C13 UNL     1       3.618   0.313   0.968  1.00  0.00     0.015 C 
HETATM   17  C14 UNL     1       2.766  -0.349   2.026  1.00  0.00    -0.025 C 
HETATM   18  C17 UNL     1       3.646  -0.781  -0.134  1.00  0.00     0.005 C 
HETATM   19  C15 UNL     1       1.838  -1.118   1.433  1.00  0.00    -0.023 C 
HETATM   20  C16 UNL     1       2.099  -1.072  -0.031  1.00  0.00     0.039 C 
HETATM   21  C18 UNL     1       3.294  -0.184  -1.530  1.00  0.00     0.035 C 
ENDBRANCH  13  14
ENDBRANCH  12  13
BRANCH   1  22
HETATM   22  C2  UNL     1      -1.252   1.852   0.234  1.00  0.00     0.079 C 
HETATM   23  C1  UNL     1      -1.825   2.151   1.621  1.00  0.00     0.028 C 
HETATM   24  C3  UNL     1      -2.198   2.351  -0.867  1.00  0.00     0.028 C 
ENDBRANCH   1  22
TORSDOF 3
