REMARK  4 active torsions:
REMARK  status: ('A' for Active; 'I' for Inactive)
REMARK       I    between atoms: N1_1  and  C1_4 
REMARK    1  A    between atoms: C1_4  and  C2_6 
REMARK    2  A    between atoms: C2_6  and  C3_7 
REMARK    3  A    between atoms: C3_7  and  C4_8 
REMARK    4  A    between atoms: C4_8  and  C5_9 
REMARK       I    between atoms: C5_9  and  N2_10 
ROOT
HETATM    1  C4  UNL     1       0.803  -0.384  -0.115  1.00  0.00     0.137 C 
HETATM    2  C6  UNL     1       1.047   0.684  -1.223  1.00  0.00     0.184 C 
HETATM    3  O3  UNL     1       0.065   1.737  -1.436  1.00  0.00    -0.341 OA
HETATM    4  C7  UNL     1       0.985   2.715  -0.857  1.00  0.00     0.246 C 
HETATM    5 CL1  UNL     1       1.789   3.611  -2.225  1.00  0.00    -0.068 Cl
HETATM    6 CL2  UNL     1       0.120   3.878   0.202  1.00  0.00    -0.068 Cl
HETATM    7  C8  UNL     1       1.795   1.565  -0.204  1.00  0.00     0.191 C 
HETATM    8 CL3  UNL     1       3.565   1.609  -0.150  1.00  0.00    -0.104 Cl
HETATM    9  C9  UNL     1       1.026   0.788   0.902  1.00  0.00     0.291 C 
HETATM   10  F1  UNL     1       1.750   0.458   2.001  1.00  0.00    -0.202 F 
HETATM   11  F2  UNL     1      -0.105   1.338   1.399  1.00  0.00    -0.202 F 
ENDROOT
BRANCH   1  12
HETATM   12  C3  UNL     1      -0.569  -1.090  -0.068  1.00  0.00     0.037 C 
BRANCH  12  13
HETATM   13  C2  UNL     1      -1.772  -0.238  -0.458  1.00  0.00     0.104 C 
BRANCH  13  14
HETATM   14  C1  UNL     1      -3.058  -0.962  -0.137  1.00  0.00     0.215 C 
HETATM   15  N1  UNL     1      -3.687  -0.545   0.998  1.00  0.00    -0.370 N 
ATOM     16  H12 UNL     1      -4.556  -1.034   1.215  1.00  0.00     0.159 HD
ATOM     17  H11 UNL     1      -3.329   0.232   1.553  1.00  0.00     0.159 HD
HETATM   18  O1  UNL     1      -3.488  -1.895  -0.803  1.00  0.00    -0.274 OA
ENDBRANCH  13  14
ENDBRANCH  12  13
ENDBRANCH   1  12
BRANCH   1  19
HETATM   19  C5  UNL     1       1.955  -1.473  -0.082  1.00  0.00     0.233 C 
HETATM   20  N2  UNL     1       2.044  -2.222   1.059  1.00  0.00    -0.369 N 
ATOM     21  H22 UNL     1       1.382  -2.049   1.816  1.00  0.00     0.159 HD
ATOM     22  H21 UNL     1       2.785  -2.923   1.080  1.00  0.00     0.159 HD
HETATM   23  O2  UNL     1       2.753  -1.682  -0.995  1.00  0.00    -0.273 OA
ENDBRANCH   1  19
TORSDOF 4
