REMARK  10 active torsions:
REMARK  status: ('A' for Active; 'I' for Inactive)
REMARK    1  A    between atoms: C3_3  and  C4_4 
REMARK    2  A    between atoms: C5_5  and  O1_6 
REMARK    3  A    between atoms: O1_6  and  C6_7 
REMARK    4  A    between atoms: C6_7  and  C7_8 
REMARK    5  A    between atoms: C7_8  and  O2_9 
REMARK    6  A    between atoms: O2_9  and  C8_10 
REMARK    7  A    between atoms: C10_13  and  O4_14 
REMARK    8  A    between atoms: C11_16  and  O5_17 
REMARK    9  A    between atoms: C12_19  and  O6_20 
REMARK   10  A    between atoms: C17_27  and  O8_28 
ROOT
HETATM    1  C7  UNL     1       0.393   1.039  -0.756  1.00  0.00     0.087 C 
HETATM    2  C13 UNL     1       0.631   2.513  -1.027  1.00  0.00     0.049 C 
HETATM    3  C14 UNL     1       1.365   3.236  -0.139  1.00  0.00     0.043 C 
HETATM    4  C15 UNL     1       2.857   2.836   0.283  1.00  0.00     0.073 C 
HETATM    5  C16 UNL     1       2.556   3.747   1.583  1.00  0.00     0.167 C 
HETATM    6  O7  UNL     1       3.118   4.495   2.337  1.00  0.00    -0.294 OA
HETATM    7  C17 UNL     1       1.199   2.994   1.427  1.00  0.00     0.129 C 
HETATM    8  C19 UNL     1       2.046   1.720   1.099  1.00  0.00     0.043 C 
HETATM    9  C20 UNL     1       1.461   0.557   0.271  1.00  0.00     0.049 C 
ENDROOT
BRANCH   1  10
HETATM   10  C6  UNL     1       0.462   0.260  -2.094  1.00  0.00     0.212 C 
BRANCH  10  11
HETATM   11  O1  UNL     1       0.747  -1.129  -1.852  1.00  0.00    -0.360 OA
BRANCH  11  12
HETATM   12  C5  UNL     1       1.133  -1.738  -3.016  1.00  0.00     0.134 C 
HETATM   13  C4  UNL     1       2.382  -2.152  -3.271  1.00  0.00     0.024 C 
BRANCH  13  14
HETATM   14  C3  UNL     1       3.520  -1.976  -2.399  1.00  0.00    -0.003 C 
HETATM   15  C2  UNL     1       3.671  -2.470  -1.161  1.00  0.00    -0.031 C 
HETATM   16  C1  UNL     1       2.724  -3.360  -0.422  1.00  0.00     0.036 C 
ENDBRANCH  13  14
ENDBRANCH  11  12
ENDBRANCH  10  11
ENDBRANCH   1  10
BRANCH   1  17
HETATM   17  O2  UNL     1      -0.888   1.033  -0.114  1.00  0.00    -0.345 OA
BRANCH  17  18
HETATM   18  C8  UNL     1      -1.590  -0.204  -0.041  1.00  0.00     0.292 C 
HETATM   19  O3  UNL     1      -2.419  -0.321  -1.198  1.00  0.00    -0.356 OA
HETATM   20  C9  UNL     1      -3.265  -1.468  -1.157  1.00  0.00     0.205 C 
HETATM   21  C10 UNL     1      -4.220  -1.418   0.032  1.00  0.00     0.173 C 
HETATM   22  C11 UNL     1      -3.413  -1.289   1.325  1.00  0.00     0.182 C 
HETATM   23  C12 UNL     1      -2.438  -0.120   1.248  1.00  0.00     0.204 C 
BRANCH  21  24
HETATM   24  O4  UNL     1      -5.007  -2.607   0.086  1.00  0.00    -0.391 OA
ATOM     25  H4  UNL     1      -5.602  -2.576   0.826  1.00  0.00     0.210 HD
ENDBRANCH  21  24
BRANCH  22  26
HETATM   26  O5  UNL     1      -4.328  -1.112   2.419  1.00  0.00    -0.390 OA
ATOM     27  H5  UNL     1      -3.827  -1.032   3.222  1.00  0.00     0.210 HD
ENDBRANCH  22  26
BRANCH  23  28
HETATM   28  O6  UNL     1      -3.204   1.106   1.284  1.00  0.00    -0.388 OA
ATOM     29  H6  UNL     1      -3.725   1.158   2.076  1.00  0.00     0.210 HD
ENDBRANCH  23  28
ENDBRANCH  17  18
ENDBRANCH   1  17
BRANCH   7  30
HETATM   30  O8  UNL     1      -0.018   3.128   2.115  1.00  0.00    -0.376 OA
HETATM   31  C18 UNL     1       0.064   3.079   3.529  1.00  0.00     0.203 C 
ENDBRANCH   7  30
TORSDOF 10
