REMARK  10 active torsions:
REMARK  status: ('A' for Active; 'I' for Inactive)
REMARK    1  A    between atoms: C2_2  and  O2_4 
REMARK    2  A    between atoms: O2_4  and  C3_5 
REMARK    3  A    between atoms: C3_5  and  C4_6 
REMARK    4  A    between atoms: C4_6  and  C5_7 
REMARK    5  A    between atoms: C5_7  and  C6_8 
REMARK    6  A    between atoms: C6_8  and  C7_9 
REMARK    7  A    between atoms: C10_12  and  C11_13 
REMARK    8  A    between atoms: C11_13  and  O3_14 
REMARK    9  A    between atoms: C12_16  and  O4_17 
REMARK   10  A    between atoms: C13_19  and  O5_20 
ROOT
HETATM    1  C7  UNL     1       0.778  -0.577   1.120  1.00  0.00     0.106 C 
HETATM    2  C8  UNL     1       0.350  -1.127  -0.334  1.00  0.00     0.038 C 
HETATM    3  C9  UNL     1      -0.972  -0.857  -1.230  1.00  0.00     0.015 C 
HETATM    4  C10 UNL     1      -2.057  -1.932  -0.969  1.00  0.00     0.090 C 
HETATM    5  C12 UNL     1      -2.866  -1.709   0.288  1.00  0.00     0.167 C 
HETATM    6  C13 UNL     1      -2.170  -0.918   1.393  1.00  0.00     0.120 C 
HETATM    7  C14 UNL     1      -1.157  -1.769   2.152  1.00  0.00     0.079 C 
HETATM    8  C15 UNL     1      -0.169  -0.685   2.417  1.00  0.00     0.164 C 
HETATM    9  O6  UNL     1      -1.088   0.494   2.617  1.00  0.00    -0.366 OA
HETATM   10  C16 UNL     1      -1.565   0.578   1.258  1.00  0.00     0.117 C 
HETATM   11  C17 UNL     1      -2.662   1.421   0.644  1.00  0.00     0.063 C 
HETATM   12  C18 UNL     1      -2.628   1.151  -0.910  1.00  0.00     0.125 C 
HETATM   13  N1  UNL     1      -1.389   0.551  -1.494  1.00  0.00    -0.388 N 
HETATM   14  C19 UNL     1      -1.277   0.906  -2.915  1.00  0.00     0.149 C 
HETATM   15  C20 UNL     1      -0.266   1.420   0.791  1.00  0.00     0.210 C 
HETATM   16  O7  UNL     1       0.999   0.805   0.948  1.00  0.00    -0.370 OA
ENDROOT
BRANCH   1  17
HETATM   17  C6  UNL     1       2.142  -1.271   1.488  1.00  0.00     0.045 C 
BRANCH  17  18
HETATM   18  C5  UNL     1       3.321  -0.323   1.751  1.00  0.00     0.006 C 
BRANCH  18  19
HETATM   19  C4  UNL     1       3.985   0.122   0.440  1.00  0.00     0.027 C 
BRANCH  19  20
HETATM   20  C3  UNL     1       4.895   1.335   0.623  1.00  0.00     0.178 C 
BRANCH  20  21
HETATM   21  O2  UNL     1       4.137   2.538   0.845  1.00  0.00    -0.322 OA
BRANCH  21  22
HETATM   22  C2  UNL     1       3.677   3.331  -0.150  1.00  0.00     0.254 C 
HETATM   23  C1  UNL     1       3.590   2.786  -1.546  1.00  0.00     0.126 C 
HETATM   24  O1  UNL     1       3.292   4.476   0.092  1.00  0.00    -0.266 OA
ENDBRANCH  21  22
ENDBRANCH  20  21
ENDBRANCH  19  20
ENDBRANCH  18  19
ENDBRANCH  17  18
ENDBRANCH   1  17
BRANCH   4  25
HETATM   25  C11 UNL     1      -2.956  -2.212  -2.182  1.00  0.00     0.177 C 
BRANCH  25  26
HETATM   26  O3  UNL     1      -2.176  -2.789  -3.229  1.00  0.00    -0.400 OA
ATOM     27  H3  UNL     1      -2.732  -2.962  -3.979  1.00  0.00     0.209 HD
ENDBRANCH  25  26
ENDBRANCH   4  25
BRANCH   6  28
HETATM   28  O5  UNL     1      -3.281  -0.773   2.385  1.00  0.00    -0.384 OA
ATOM     29  H5  UNL     1      -2.848  -0.281   3.073  1.00  0.00     0.210 HD
ENDBRANCH   6  28
BRANCH   5  30
HETATM   30  O4  UNL     1      -4.162  -1.162   0.022  1.00  0.00    -0.392 OA
ATOM     31  H4  UNL     1      -4.671  -1.022   0.812  1.00  0.00     0.210 HD
ENDBRANCH   5  30
TORSDOF 10
