REMARK  2 active torsions:
REMARK  status: ('A' for Active; 'I' for Inactive)
REMARK    1  A    between atoms: C5_5  and  O1_6 
REMARK    2  A    between atoms: C7_9  and  O2_10 
ROOT
HETATM    1  O2  UNL     1      -1.845   2.107   0.469  1.00  0.00    -0.277 OA
HETATM    2  C8  UNL     1      -2.608   2.408  -0.576  1.00  0.00     0.228 C 
HETATM    3  N1  UNL     1      -3.284   2.666  -1.482  1.00  0.00    -0.164 NA
ENDROOT
BRANCH   1   4
HETATM    4  C7  UNL     1      -0.508   1.775   0.039  1.00  0.00     0.155 C 
HETATM    5  C6  UNL     1      -0.319   0.455  -0.611  1.00  0.00     0.029 C 
HETATM    6  C2  UNL     1      -0.574  -0.962  -0.055  1.00  0.00    -0.028 C 
HETATM    7  C5  UNL     1       0.648  -0.048  -1.668  1.00  0.00     0.136 C 
HETATM    8  C10 UNL     1       1.220   0.397   0.307  1.00  0.00    -0.022 C 
HETATM    9  C1  UNL     1      -1.572  -1.728  -0.950  1.00  0.00     0.016 C 
HETATM   10  C3  UNL     1      -0.932  -1.303   1.391  1.00  0.00     0.016 C 
HETATM   11  C4  UNL     1       0.939  -0.981  -0.427  1.00  0.00     0.033 C 
HETATM   12  C9  UNL     1       0.412   1.362   1.187  1.00  0.00     0.045 C 
HETATM   13  C11 UNL     1       2.378  -0.075   1.157  1.00  0.00     0.016 C 
BRANCH   7  14
HETATM   14  O1  UNL     1       1.681   0.844  -2.135  1.00  0.00    -0.394 OA
ATOM     15  H1  UNL     1       1.506   1.405  -2.881  1.00  0.00     0.210 HD
ENDBRANCH   7  14
ENDBRANCH   1   4
TORSDOF 2
