REMARK  2 active torsions:
REMARK  status: ('A' for Active; 'I' for Inactive)
REMARK    1  A    between atoms: O1_2  and  N1_3 
REMARK    2  A    between atoms: C6_8  and  O2_10 
ROOT
HETATM    1  N1  UNL     1       0.269  -0.523  -0.267  1.00  0.00    -0.158 NA
HETATM    2  C2  UNL     1      -0.903  -0.504   0.623  1.00  0.00     0.098 C 
HETATM    3  C3  UNL     1      -2.192  -0.614  -0.196  1.00  0.00     0.023 C 
HETATM    4  C4  UNL     1      -2.147   0.902  -0.458  1.00  0.00     0.012 C 
HETATM    5  C5  UNL     1      -0.966   1.020   0.522  1.00  0.00     0.057 C 
HETATM    6  C6  UNL     1       0.442   0.938  -0.097  1.00  0.00     0.138 C 
HETATM    7  C7  UNL     1       1.550   1.411   0.835  1.00  0.00     0.067 C 
ENDROOT
BRANCH   6   8
HETATM    8  O2  UNL     1       0.618   1.537  -1.386  1.00  0.00    -0.373 OA
ATOM      9  H2  UNL     1       0.729   2.474  -1.277  1.00  0.00     0.212 HD
ENDBRANCH   6   8
BRANCH   1  10
HETATM   10  O1  UNL     1       1.308  -1.209   0.497  1.00  0.00    -0.305 OA
HETATM   11  C1  UNL     1       1.923  -2.166  -0.358  1.00  0.00     0.230 C 
ENDBRANCH   1  10
TORSDOF 2
