REMARK  7 active torsions:
REMARK  status: ('A' for Active; 'I' for Inactive)
REMARK    1  A    between atoms: C2_2  and  C3_3 
REMARK    2  A    between atoms: C3_3  and  N1_4 
REMARK    3  A    between atoms: C9_10  and  O1_11 
REMARK    4  A    between atoms: C13_16  and  N2_17 
REMARK       I    between atoms: N2_17  and  C14_19 
REMARK    5  A    between atoms: C14_19  and  C15_21 
REMARK    6  A    between atoms: C15_21  and  C16_22 
REMARK    7  A    between atoms: C16_22  and  N3_23 
ROOT
HETATM    1  N1  UNL     1      -3.800  -0.270   0.644  1.00  0.00     0.100 N 
HETATM    2  C4  UNL     1      -3.864  -1.767   0.661  1.00  0.00     0.286 C 
HETATM    3  C5  UNL     1      -2.433  -2.101   0.326  1.00  0.00     0.025 C 
HETATM    4  C6  UNL     1      -1.855  -3.408  -0.141  1.00  0.00     0.021 C 
HETATM    5  C7  UNL     1      -0.447  -2.787  -0.352  1.00  0.00     0.013 C 
HETATM    6  C8  UNL     1      -0.732  -1.570  -1.270  1.00  0.00     0.047 C 
HETATM    7  C9  UNL     1      -2.150  -1.155  -0.851  1.00  0.00     0.099 C 
HETATM    8  C10 UNL     1      -2.480   0.065   0.009  1.00  0.00     0.258 C 
HETATM    9  C11 UNL     1      -1.482  -0.042   1.171  1.00  0.00     0.046 C 
HETATM   10  C12 UNL     1      -1.447  -1.563   1.429  1.00  0.00     0.024 C 
HETATM   11  C13 UNL     1      -0.134  -2.294   1.076  1.00  0.00     0.093 C 
ENDROOT
BRANCH  11  12
HETATM   12  N2  UNL     1       1.052  -1.494   1.336  1.00  0.00    -0.356 N 
HETATM   13  C14 UNL     1       2.248  -1.655   0.674  1.00  0.00     0.219 C 
HETATM   14  O2  UNL     1       2.392  -2.273  -0.374  1.00  0.00    -0.274 OA
ATOM     15  H2  UNL     1       0.994  -0.770   2.052  1.00  0.00     0.162 HD
BRANCH  13  16
HETATM   16  C15 UNL     1       3.411  -0.940   1.315  1.00  0.00     0.130 C 
BRANCH  16  17
HETATM   17  C16 UNL     1       4.163  -0.068   0.312  1.00  0.00     0.246 C 
BRANCH  17  18
HETATM   18  N3  UNL     1       3.620   1.375   0.152  1.00  0.00    -0.070 N 
HETATM   19  C17 UNL     1       3.473   2.083   1.495  1.00  0.00     0.272 C 
HETATM   20  C18 UNL     1       2.292   1.429  -0.641  1.00  0.00     0.237 C 
HETATM   21  C19 UNL     1       2.583   2.235  -1.897  1.00  0.00     0.029 C 
HETATM   22  C20 UNL     1       3.749   3.118  -1.520  1.00  0.00     0.029 C 
HETATM   23  C21 UNL     1       4.623   2.178  -0.718  1.00  0.00     0.237 C 
ENDBRANCH  17  18
ENDBRANCH  16  17
ENDBRANCH  13  16
ENDBRANCH  11  12
BRANCH   7  24
HETATM   24  O1  UNL     1      -3.022  -1.341  -1.955  1.00  0.00    -0.387 OA
ATOM     25  H1  UNL     1      -2.847  -0.756  -2.683  1.00  0.00     0.210 HD
ENDBRANCH   7  24
BRANCH   1  26
HETATM   26  C3  UNL     1      -4.954   0.300  -0.050  1.00  0.00     0.299 C 
BRANCH  26  27
HETATM   27  C2  UNL     1      -5.014   1.788   0.150  1.00  0.00    -0.007 C 
HETATM   28  C1  UNL     1      -5.087   2.684  -0.842  1.00  0.00     0.008 C 
ENDBRANCH  26  27
ENDBRANCH   1  26
TORSDOF 7
