REMARK  5 active torsions:
REMARK  status: ('A' for Active; 'I' for Inactive)
REMARK    1  A    between atoms: C2_2  and  C3_3 
REMARK    2  A    between atoms: C3_3  and  C4_4 
REMARK    3  A    between atoms: C4_4  and  C5_5 
REMARK    4  A    between atoms: C5_5  and  C6_6 
REMARK    5  A    between atoms: C6_6  and  N1_7 
ROOT
HETATM    1  N1  UNL     1      -0.789   1.831  -0.897  1.00  0.00    -0.210 NA
HETATM    2  C7  UNL     1       0.628   2.196  -0.707  1.00  0.00     0.120 C 
HETATM    3  C8  UNL     1       1.141   1.526   0.582  1.00  0.00     0.034 C 
HETATM    4  C9  UNL     1       0.036   1.364   1.653  1.00  0.00     0.031 C 
HETATM    5  C10 UNL     1      -0.927   2.554   1.687  1.00  0.00     0.158 C 
HETATM    6  S1  UNL     1      -1.811   2.771   0.137  1.00  0.00     0.211 S 
HETATM    7  O1  UNL     1      -1.653   4.152  -0.267  1.00  0.00    -0.211 OA
HETATM    8  O2  UNL     1      -3.091   2.119   0.223  1.00  0.00    -0.211 OA
HETATM    9  C11 UNL     1       2.523   2.174   1.012  1.00  0.00     0.286 C 
HETATM   10  N2  UNL     1       2.864   0.842   1.501  1.00  0.00     0.100 N 
HETATM   11  C12 UNL     1       3.740  -0.294   1.183  1.00  0.00     0.310 C 
HETATM   12  C13 UNL     1       2.406  -1.028   0.746  1.00  0.00     0.109 A 
HETATM   13  C14 UNL     1       1.600  -1.730   1.780  1.00  0.00     0.013 A 
HETATM   14  C15 UNL     1       1.349  -3.000   1.421  1.00  0.00     0.072 A 
HETATM   15  C16 UNL     1       1.935  -3.245   0.095  1.00  0.00     0.241 A 
HETATM   16  O3  UNL     1       1.864  -4.271  -0.549  1.00  0.00    -0.269 OA
HETATM   17  N3  UNL     1       2.559  -2.078  -0.265  1.00  0.00    -0.341 N 
ATOM     18  H3  UNL     1       3.072  -1.955  -1.138  1.00  0.00     0.164 HD
HETATM   19  C17 UNL     1       2.059   0.353   0.225  1.00  0.00     0.268 C 
ENDROOT
BRANCH   1  20
HETATM   20  C6  UNL     1      -1.220   1.811  -2.329  1.00  0.00     0.107 C 
BRANCH  20  21
HETATM   21  C5  UNL     1      -2.301   0.766  -2.592  1.00  0.00     0.015 C 
BRANCH  21  22
HETATM   22  C4  UNL     1      -1.896  -0.699  -2.360  1.00  0.00     0.001 C 
BRANCH  22  23
HETATM   23  C3  UNL     1      -1.986  -1.149  -0.896  1.00  0.00    -0.000 C 
BRANCH  23  24
HETATM   24  C2  UNL     1      -2.429  -2.612  -0.777  1.00  0.00    -0.005 C 
HETATM   25  C1  UNL     1      -2.678  -3.010   0.668  1.00  0.00     0.005 C 
ENDBRANCH  23  24
ENDBRANCH  22  23
ENDBRANCH  21  22
ENDBRANCH  20  21
ENDBRANCH   1  20
TORSDOF 5
