REMARK  5 active torsions:
REMARK  status: ('A' for Active; 'I' for Inactive)
REMARK    1  A    between atoms: C2_2  and  C3_3 
REMARK    2  A    between atoms: C3_3  and  S1_4 
REMARK    3  A    between atoms: S1_4  and  N1_6 
REMARK    4  A    between atoms: S1_4  and  N4_25 
REMARK       I    between atoms: N1_6  and  C4_8 
REMARK       I    between atoms: C4_8  and  N2_9 
REMARK       I    between atoms: N3_12  and  C5_14 
REMARK    5  A    between atoms: C5_14  and  C6_16 
ROOT
HETATM    1  N1  UNL     1       2.610   0.156  -1.920  1.00  0.00    -0.133 N 
ATOM      2  H1  UNL     1       2.965  -0.221  -2.798  1.00  0.00     0.195 HD
HETATM    3  C4  UNL     1       1.638   1.100  -2.013  1.00  0.00     0.687 C 
HETATM    4  N2  UNL     1       2.176   2.283  -2.426  1.00  0.00    -0.234 N 
ATOM      5  H21 UNL     1       1.446   2.992  -2.496  1.00  0.00     0.174 HD
ATOM      6  H22 UNL     1       3.186   2.305  -2.565  1.00  0.00     0.174 HD
HETATM    7  N3  UNL     1       0.363   1.072  -1.837  1.00  0.00    -0.156 N 
ATOM      8  H3  UNL     1      -0.190   1.923  -1.942  1.00  0.00     0.187 HD
HETATM    9  C5  UNL     1      -0.242  -0.105  -1.509  1.00  0.00     0.262 C 
HETATM   10  O2  UNL     1       0.039  -1.225  -1.923  1.00  0.00    -0.267 OA
ENDROOT
BRANCH   1  11
HETATM   11  S1  UNL     1       3.296  -0.462  -0.494  1.00  0.00     0.125 S 
HETATM   12  O1  UNL     1       4.721  -0.412  -0.740  1.00  0.00    -0.228 OA
BRANCH  11  13
HETATM   13  C3  UNL     1       2.601  -2.155  -0.715  1.00  0.00     0.166 C 
BRANCH  13  14
HETATM   14  C2  UNL     1       3.476  -3.230  -0.116  1.00  0.00    -0.022 C 
HETATM   15  C1  UNL     1       3.049  -4.148   0.762  1.00  0.00     0.008 C 
ENDBRANCH  13  14
ENDBRANCH  11  13
BRANCH  11  16
HETATM   16  N4  UNL     1       2.829   0.841   0.513  1.00  0.00    -0.335 N 
HETATM   17  C15 UNL     1       1.861   0.604   1.579  1.00  0.00     0.160 C 
HETATM   18  C16 UNL     1       3.854   1.766   0.977  1.00  0.00     0.160 C 
ENDBRANCH  11  16
ENDBRANCH   1  11
BRANCH   9  19
HETATM   19  C6  UNL     1      -1.311   0.062  -0.533  1.00  0.00    -0.006 C 
HETATM   20  C7  UNL     1      -2.051   1.187  -0.334  1.00  0.00     0.029 C 
HETATM   21  C8  UNL     1      -2.244   1.353   1.257  1.00  0.00     0.020 C 
HETATM   22  C12 UNL     1      -3.661   0.843  -0.314  1.00  0.00    -0.033 C 
HETATM   23  C9  UNL     1      -3.031   0.015   0.932  1.00  0.00    -0.032 C 
HETATM   24  C10 UNL     1      -3.922  -0.588   1.984  1.00  0.00     0.016 C 
HETATM   25  C11 UNL     1      -1.916  -0.957   0.372  1.00  0.00     0.050 C 
HETATM   26  C13 UNL     1      -4.174  -0.027  -1.479  1.00  0.00     0.016 C 
HETATM   27  C14 UNL     1      -4.627   2.020  -0.139  1.00  0.00     0.016 C 
ENDBRANCH   9  19
TORSDOF 5
