REMARK  15 active torsions:
REMARK  status: ('A' for Active; 'I' for Inactive)
REMARK    1  A    between atoms: O1_2  and  C2_3 
REMARK    2  A    between atoms: C3_4  and  C4_5 
REMARK    3  A    between atoms: C4_5  and  C5_6 
REMARK    4  A    between atoms: C6_7  and  C8_9 
REMARK    5  A    between atoms: C8_9  and  O2_11 
REMARK    6  A    between atoms: C11_14  and  C12_15 
REMARK    7  A    between atoms: C15_19  and  O3_20 
REMARK    8  A    between atoms: C19_25  and  O4_26 
REMARK    9  A    between atoms: C21_30  and  O6_31 
REMARK   10  A    between atoms: C21_30  and  O7_33 
REMARK   11  A    between atoms: O7_33  and  C22_34 
REMARK   12  A    between atoms: C22_34  and  C23_36 
REMARK   13  A    between atoms: C23_36  and  C24_37 
REMARK   14  A    between atoms: C30_43  and  O9_44 
REMARK   15  A    between atoms: C31_46  and  O10_47 
ROOT
HETATM    1  C2  UNL     1       2.672  -1.949  -1.304  1.00  0.00     0.086 C 
HETATM    2  C3  UNL     1       2.983  -2.383   0.004  1.00  0.00    -0.020 C 
HETATM    3  C10 UNL     1       3.348  -1.435   0.973  1.00  0.00     0.021 C 
HETATM    4  C11 UNL     1       2.993  -0.111   0.779  1.00  0.00    -0.010 C 
HETATM    5  C13 UNL     1       2.343   0.194  -0.414  1.00  0.00     0.089 C 
HETATM    6  C14 UNL     1       2.461  -0.593  -1.560  1.00  0.00     0.039 C 
HETATM    7  C15 UNL     1       2.327   0.082  -2.919  1.00  0.00     0.162 C 
HETATM    8  C16 UNL     1       1.312   1.266  -3.019  1.00  0.00     0.033 C 
HETATM    9  C17 UNL     1       1.743   2.763  -2.456  1.00  0.00     0.034 C 
HETATM   10  C18 UNL     1       3.209   2.953  -2.003  1.00  0.00     0.014 C 
HETATM   11  C19 UNL     1       0.696   3.626  -1.588  1.00  0.00     0.156 C 
HETATM   12  C20 UNL     1       0.457   3.506   0.017  1.00  0.00     0.229 C 
HETATM   13  O5  UNL     1       0.901   4.393   0.750  1.00  0.00    -0.288 OA
HETATM   14  C21 UNL     1      -0.354   2.184   0.572  1.00  0.00     0.271 C 
HETATM   15  C27 UNL     1       0.064   1.183  -0.494  1.00  0.00     0.166 C 
HETATM   16  C28 UNL     1      -0.415  -0.122  -1.214  1.00  0.00     0.056 C 
HETATM   17  C29 UNL     1      -0.085   0.737  -2.572  1.00  0.00     0.036 C 
HETATM   18  C30 UNL     1      -0.844   1.834  -1.833  1.00  0.00     0.129 C 
HETATM   19  C31 UNL     1      -0.656   3.307  -2.179  1.00  0.00     0.201 C 
HETATM   20  O11 UNL     1       1.556   1.308  -0.466  1.00  0.00    -0.329 OA
ENDROOT
BRANCH  14  21
HETATM   21  O6  UNL     1       0.220   1.885   1.852  1.00  0.00    -0.357 OA
ATOM     22  H6  UNL     1      -0.248   1.123   2.172  1.00  0.00     0.213 HD
ENDBRANCH  14  21
BRANCH  14  23
HETATM   23  O7  UNL     1      -1.780   2.269   0.699  1.00  0.00    -0.272 OA
BRANCH  23  24
HETATM   24  C22 UNL     1      -2.382   1.106   1.102  1.00  0.00     0.262 C 
HETATM   25  O8  UNL     1      -1.761   0.192   1.657  1.00  0.00    -0.265 OA
BRANCH  24  26
HETATM   26  C23 UNL     1      -3.829   0.993   0.636  1.00  0.00     0.115 C 
BRANCH  26  27
HETATM   27  C24 UNL     1      -4.882   0.769   1.728  1.00  0.00    -0.013 C 
HETATM   28  C25 UNL     1      -6.272   0.622   1.088  1.00  0.00     0.010 C 
HETATM   29  C26 UNL     1      -4.609  -0.462   2.597  1.00  0.00     0.010 C 
ENDBRANCH  26  27
ENDBRANCH  24  26
ENDBRANCH  23  24
ENDBRANCH  14  23
BRANCH  11  30
HETATM   30  O4  UNL     1       1.040   5.006  -1.832  1.00  0.00    -0.379 OA
ATOM     31  H4  UNL     1       0.422   5.515  -1.320  1.00  0.00     0.211 HD
ENDBRANCH  11  30
BRANCH  18  32
HETATM   32  O9  UNL     1      -2.290   1.589  -1.855  1.00  0.00    -0.383 OA
ATOM     33  H9  UNL     1      -2.785   1.944  -2.584  1.00  0.00     0.210 HD
ENDBRANCH  18  32
BRANCH  19  34
HETATM   34  O10 UNL     1      -1.746   4.028  -1.560  1.00  0.00    -0.384 OA
HETATM   35  C32 UNL     1      -1.956   5.337  -2.079  1.00  0.00     0.202 C 
ENDBRANCH  19  34
BRANCH   4  36
HETATM   36  C12 UNL     1       3.340   0.960   1.774  1.00  0.00     0.156 C 
HETATM   37 CL1  UNL     1       2.718   0.596   3.397  1.00  0.00    -0.125 Cl
ENDBRANCH   4  36
BRANCH   7  38
HETATM   38  O3  UNL     1       2.004  -0.833  -3.975  1.00  0.00    -0.390 OA
ATOM     39  H3  UNL     1       1.920  -0.412  -4.823  1.00  0.00     0.210 HD
ENDBRANCH   7  38
BRANCH   1  40
HETATM   40  O1  UNL     1       2.515  -2.876  -2.301  1.00  0.00    -0.355 OA
HETATM   41  C1  UNL     1       1.154  -3.326  -2.359  1.00  0.00     0.210 C 
ENDBRANCH   1  40
BRANCH   2  42
HETATM   42  C4  UNL     1       2.631  -3.773   0.529  1.00  0.00     0.068 C 
BRANCH  42  43
HETATM   43  C5  UNL     1       1.415  -3.615   1.444  1.00  0.00    -0.017 C 
HETATM   44  C6  UNL     1       0.733  -4.536   2.156  1.00  0.00    -0.059 C 
HETATM   45  C7  UNL     1       0.866  -6.013   1.938  1.00  0.00     0.046 C 
BRANCH  44  46
HETATM   46  C8  UNL     1      -0.159  -4.106   3.327  1.00  0.00     0.142 C 
HETATM   47  C9  UNL     1       0.570  -3.158   4.289  1.00  0.00     0.044 C 
BRANCH  46  48
HETATM   48  O2  UNL     1      -1.350  -3.492   2.844  1.00  0.00    -0.392 OA
ATOM     49  H2  UNL     1      -1.903  -3.226   3.569  1.00  0.00     0.210 HD
ENDBRANCH  46  48
ENDBRANCH  44  46
ENDBRANCH  42  43
ENDBRANCH   2  42
TORSDOF 15
