REMARK  6 active torsions:
REMARK  status: ('A' for Active; 'I' for Inactive)
REMARK    1  A    between atoms: C9_9  and  C10_10 
REMARK    2  A    between atoms: C10_10  and  C11_11 
REMARK    3  A    between atoms: C11_11  and  C12_12 
REMARK    4  A    between atoms: C12_12  and  O2_14 
REMARK    5  A    between atoms: O2_14  and  C13_15 
REMARK    6  A    between atoms: C17_20  and  O3_21 
ROOT
HETATM    1  C13 UNL     1      -5.356  -2.468   1.006  1.00  0.00     0.302 C 
HETATM    2  C14 UNL     1      -5.047  -2.769   2.414  1.00  0.00     0.085 C 
HETATM    3  N1  UNL     1      -4.813  -3.034   3.517  1.00  0.00    -0.195 NA
ENDROOT
BRANCH   1   4
HETATM    4  O2  UNL     1      -4.369  -1.610   0.404  1.00  0.00    -0.307 OA
BRANCH   4   5
HETATM    5  C12 UNL     1      -4.575  -0.281   0.630  1.00  0.00     0.259 C 
HETATM    6  O1  UNL     1      -5.481   0.181   1.300  1.00  0.00    -0.265 OA
BRANCH   5   7
HETATM    7  C11 UNL     1      -3.515   0.540  -0.059  1.00  0.00     0.111 C 
BRANCH   7   8
HETATM    8  C10 UNL     1      -2.234   0.534   0.780  1.00  0.00     0.015 C 
BRANCH   8   9
HETATM    9  C9  UNL     1      -0.934   0.824  -0.026  1.00  0.00     0.005 C 
HETATM   10  C8  UNL     1      -0.569  -0.281  -1.047  1.00  0.00     0.001 C 
HETATM   11  C7  UNL     1      -0.394  -1.615  -0.257  1.00  0.00     0.009 C 
HETATM   12  C20 UNL     1       0.634   0.162  -2.043  1.00  0.00    -0.013 C 
HETATM   13  C6  UNL     1       0.288  -1.426   1.140  1.00  0.00     0.039 C 
HETATM   14  C5  UNL     1       1.256  -0.240   1.022  1.00  0.00     0.075 C 
HETATM   15  C4  UNL     1       2.368  -0.177   2.066  1.00  0.00     0.044 C 
HETATM   16  C15 UNL     1       0.385   1.126   0.790  1.00  0.00     0.018 C 
HETATM   17  O5  UNL     1       1.969  -0.763  -0.102  1.00  0.00    -0.344 OA
HETATM   18  C3  UNL     1       3.625   0.146   1.263  1.00  0.00     0.071 C 
HETATM   19  C2  UNL     1       3.268  -0.276  -0.157  1.00  0.00     0.162 C 
HETATM   20  C1  UNL     1       4.170  -1.371  -0.696  1.00  0.00     0.079 C 
HETATM   21  O4  UNL     1       3.246   0.809  -1.047  1.00  0.00    -0.349 OA
HETATM   22  C22 UNL     1       2.103   0.993  -1.925  1.00  0.00     0.140 C 
HETATM   23  C18 UNL     1       1.228   2.186  -1.532  1.00  0.00     0.046 C 
HETATM   24  C17 UNL     1       1.029   2.334   0.001  1.00  0.00     0.136 C 
HETATM   25  C19 UNL     1       0.193   1.586  -2.566  1.00  0.00     0.021 C 
HETATM   26  C16 UNL     1       0.009   1.678   2.201  1.00  0.00     0.021 C 
HETATM   27  C21 UNL     1       0.765  -0.882  -3.171  1.00  0.00     0.018 C 
BRANCH  24  28
HETATM   28  O3  UNL     1       2.240   2.792   0.605  1.00  0.00    -0.394 OA
ATOM     29  H3  UNL     1       2.627   3.518   0.131  1.00  0.00     0.210 HD
ENDBRANCH  24  28
ENDBRANCH   8   9
ENDBRANCH   7   8
ENDBRANCH   5   7
ENDBRANCH   4   5
ENDBRANCH   1   4
TORSDOF 6
