REMARK  5 active torsions:
REMARK  status: ('A' for Active; 'I' for Inactive)
REMARK    1  A    between atoms: N2_4  and  C1_6 
REMARK    2  A    between atoms: C1_6  and  C2_7 
REMARK    3  A    between atoms: C3_8  and  C4_9 
REMARK    4  A    between atoms: C4_9  and  C5_10 
REMARK    5  A    between atoms: C5_10  and  N3_11 
ROOT
HETATM    1  C5  UNL     1       0.286   0.310  -0.704  1.00  0.00     0.270 C 
ENDROOT
BRANCH   1   2
HETATM    2  C4  UNL     1      -0.440   1.032   0.438  1.00  0.00     0.057 C 
BRANCH   2   3
HETATM    3  C3  UNL     1      -1.905   0.790   0.409  1.00  0.00    -0.027 C 
HETATM    4  C2  UNL     1      -2.733   1.160  -0.583  1.00  0.00    -0.010 C 
BRANCH   4   5
HETATM    5  C1  UNL     1      -4.179   0.763  -0.531  1.00  0.00     0.166 C 
BRANCH   5   6
HETATM    6  N2  UNL     1      -4.417  -0.100   0.640  1.00  0.00    -0.339 N 
HETATM    7  N1  UNL     1      -4.601  -1.346   0.520  1.00  0.00    -0.349 N 
ATOM      8  H12 UNL     1      -4.581  -1.747  -0.417  1.00  0.00     0.176 HD
ATOM      9  H11 UNL     1      -4.766  -1.943   1.330  1.00  0.00     0.176 HD
ATOM     10  H2  UNL     1      -4.434   0.318   1.570  1.00  0.00     0.179 HD
ENDBRANCH   5   6
ENDBRANCH   4   5
ENDBRANCH   2   3
ENDBRANCH   1   2
BRANCH   1  11
HETATM   11  N3  UNL     1       1.583  -0.258  -0.257  1.00  0.00     0.027 N 
HETATM   12  C6  UNL     1       2.579   0.590   0.521  1.00  0.00     0.387 C 
HETATM   13  N4  UNL     1       3.788  -0.197   0.785  1.00  0.00    -0.376 N 
HETATM   14  C7  UNL     1       3.942  -1.410   0.171  1.00  0.00     0.085 C 
ATOM     15  H4  UNL     1       4.505   0.156   1.419  1.00  0.00     0.160 HD
HETATM   16  C8  UNL     1       2.839  -1.787  -0.527  1.00  0.00     0.172 C 
HETATM   17  C9  UNL     1       1.467  -1.611   0.282  1.00  0.00     0.298 C 
HETATM   18  N5  UNL     1       2.325  -0.928  -1.421  1.00  0.00    -0.240 N 
ATOM     19  H5  UNL     1       2.396  -0.784  -2.428  1.00  0.00     0.188 HD
ENDBRANCH   1  11
TORSDOF 5
