REMARK  8 active torsions:
REMARK  status: ('A' for Active; 'I' for Inactive)
REMARK    1  A    between atoms: O1_2  and  C2_3 
REMARK    2  A    between atoms: C2_3  and  C3_4 
REMARK    3  A    between atoms: C3_4  and  C4_5 
REMARK    4  A    between atoms: C8_11  and  C9_12 
REMARK    5  A    between atoms: C9_12  and  C10_13 
REMARK    6  A    between atoms: C10_13  and  O4_14 
REMARK    7  A    between atoms: C12_17  and  C13_18 
REMARK    8  A    between atoms: C21_27  and  O5_28 
ROOT
HETATM    1  C10 UNL     1       0.457  -1.425   0.888  1.00  0.00     0.076 A 
HETATM    2  C11 UNL     1       1.711  -0.883   1.542  1.00  0.00     0.046 A 
HETATM    3  C12 UNL     1       3.154  -0.550   1.196  1.00  0.00    -0.011 C 
HETATM    4  C14 UNL     1       3.467  -1.369  -0.061  1.00  0.00     0.019 C 
HETATM    5  C15 UNL     1       3.072  -0.333  -1.074  1.00  0.00     0.023 C 
HETATM    6  C16 UNL     1       4.005   0.779  -0.542  1.00  0.00     0.024 C 
HETATM    7  C17 UNL     1       3.340   1.182   0.820  1.00  0.00     0.007 C 
HETATM    8  C18 UNL     1       2.198   1.692   1.807  1.00  0.00     0.017 C 
HETATM    9  C19 UNL     1       0.750   1.236   1.397  1.00  0.00     0.017 C 
HETATM   10  C20 UNL     1       0.925  -0.032   0.566  1.00  0.00     0.030 A 
HETATM   11  C21 UNL     1       1.543   0.162  -0.936  1.00  0.00     0.080 C 
HETATM   12  C23 UNL     1       1.598   1.657  -1.236  1.00  0.00     0.092 C 
HETATM   13  C24 UNL     1       2.585   2.212  -0.216  1.00  0.00    -0.008 C 
HETATM   14  N1  UNL     1       2.888   3.476  -0.205  1.00  0.00    -0.405 N 
ATOM     15  H11 UNL     1       2.420   4.115  -0.848  1.00  0.00     0.155 HD
ATOM     16  H12 UNL     1       3.549   3.847   0.478  1.00  0.00     0.155 HD
ENDROOT
BRANCH   1  17
HETATM   17  C9  UNL     1      -0.776  -1.677   1.725  1.00  0.00     0.074 C 
BRANCH  17  18
HETATM   18  C8  UNL     1      -2.084  -1.854   0.939  1.00  0.00     0.157 C 
HETATM   19  C4  UNL     1      -3.169  -0.794   1.095  1.00  0.00     0.156 C 
HETATM   20  O2  UNL     1      -4.025  -1.044  -0.028  1.00  0.00    -0.348 OA
HETATM   21  C5  UNL     1      -3.200  -1.658  -1.028  1.00  0.00     0.158 C 
HETATM   22  C6  UNL     1      -3.039  -0.722  -2.219  1.00  0.00     0.078 C 
HETATM   23  C7  UNL     1      -3.856  -2.967  -1.456  1.00  0.00     0.078 C 
HETATM   24  O3  UNL     1      -1.907  -1.943  -0.480  1.00  0.00    -0.348 OA
BRANCH  19  25
HETATM   25  C3  UNL     1      -2.706   0.669   1.090  1.00  0.00     0.061 C 
BRANCH  25  26
HETATM   26  C2  UNL     1      -3.879   1.656   1.084  1.00  0.00     0.169 C 
BRANCH  26  27
HETATM   27  O1  UNL     1      -4.090   2.211  -0.215  1.00  0.00    -0.396 OA
HETATM   28  C1  UNL     1      -3.300   3.369  -0.455  1.00  0.00     0.201 C 
ENDBRANCH  26  27
ENDBRANCH  25  26
ENDBRANCH  19  25
ENDBRANCH  17  18
ENDBRANCH   1  17
BRANCH   1  29
HETATM   29  O4  UNL     1       0.674  -2.467  -0.073  1.00  0.00    -0.388 OA
ATOM     30  H4  UNL     1       1.449  -2.309  -0.599  1.00  0.00     0.210 HD
ENDBRANCH   1  29
BRANCH   3  31
HETATM   31  C13 UNL     1       4.042  -0.965   2.388  1.00  0.00     0.096 C 
HETATM   32 BR1  UNL     1       5.904  -0.431   2.254  1.00  0.00    -0.096 Br
ENDBRANCH   3  31
BRANCH  11  33
HETATM   33  O5  UNL     1       0.611  -0.454  -1.833  1.00  0.00    -0.383 OA
HETATM   34  C22 UNL     1       1.055  -0.740  -3.146  1.00  0.00     0.202 C 
ENDBRANCH  11  33
TORSDOF 8
