REMARK  11 active torsions:
REMARK  status: ('A' for Active; 'I' for Inactive)
REMARK    1  A    between atoms: N1_1  and  C1_5 
REMARK    2  A    between atoms: C1_5  and  C2_6 
REMARK    3  A    between atoms: C2_6  and  N2_7 
REMARK    4  A    between atoms: N2_7  and  C3_10 
REMARK    5  A    between atoms: C3_10  and  C4_11 
REMARK    6  A    between atoms: C4_11  and  C5_12 
REMARK    7  A    between atoms: C5_12  and  C6_13 
REMARK    8  A    between atoms: C6_13  and  C7_14 
REMARK    9  A    between atoms: C7_14  and  N3_15 
REMARK       I    between atoms: N3_15  and  C8_17 
REMARK       I    between atoms: C8_17  and  N5_25 
REMARK   10  A    between atoms: N4_18  and  C9_20 
REMARK   11  A    between atoms: N5_25  and  C14_27 
ROOT
HETATM    1  N3  UNL     1      -1.023  -2.025  -2.214  1.00  0.00    -0.227 N 
ATOM      2  H3  UNL     1      -1.436  -2.895  -2.549  1.00  0.00     0.177 HD
HETATM    3  C8  UNL     1      -1.782  -1.179  -1.456  1.00  0.00     0.670 C 
HETATM    4  N4  UNL     1      -2.666  -1.502  -0.581  1.00  0.00    -0.222 N 
ATOM      5  H4  UNL     1      -3.200  -0.784  -0.091  1.00  0.00     0.178 HD
HETATM    6  N5  UNL     1      -1.691   0.131  -1.835  1.00  0.00    -0.221 N 
ATOM      7  H5  UNL     1      -2.068   0.445  -2.729  1.00  0.00     0.178 HD
ENDROOT
BRANCH   1   8
HETATM    8  C7  UNL     1       0.361  -1.719  -2.558  1.00  0.00     0.138 C 
BRANCH   8   9
HETATM    9  C6  UNL     1       1.253  -2.887  -2.126  1.00  0.00     0.020 C 
BRANCH   9  10
HETATM   10  C5  UNL     1       2.566  -2.433  -1.480  1.00  0.00     0.003 C 
BRANCH  10  11
HETATM   11  C4  UNL     1       2.370  -1.801  -0.096  1.00  0.00     0.027 C 
BRANCH  11  12
HETATM   12  C3  UNL     1       3.689  -1.232   0.430  1.00  0.00     0.232 C 
BRANCH  12  13
HETATM   13  N2  UNL     1       3.456  -0.497   1.671  1.00  0.00    -0.074 N 
ATOM     14  H22 UNL     1       3.054  -1.096   2.392  1.00  0.00     0.277 HD
ATOM     15  H21 UNL     1       2.689   0.168   1.575  1.00  0.00     0.277 HD
BRANCH  13  16
HETATM   16  C2  UNL     1       4.678   0.155   2.134  1.00  0.00     0.259 C 
BRANCH  16  17
HETATM   17  C1  UNL     1       4.377   1.069   3.309  1.00  0.00     0.257 C 
BRANCH  17  18
HETATM   18  N1  UNL     1       5.626   1.632   3.799  1.00  0.00    -0.078 N 
ATOM     19  H13 UNL     1       6.312   0.914   4.030  1.00  0.00     0.274 HD
ATOM     20  H12 UNL     1       6.155   2.103   3.065  1.00  0.00     0.274 HD
ATOM     21  H11 UNL     1       5.424   2.246   4.588  1.00  0.00     0.274 HD
ENDBRANCH  17  18
ENDBRANCH  16  17
ENDBRANCH  13  16
ENDBRANCH  12  13
ENDBRANCH  11  12
ENDBRANCH  10  11
ENDBRANCH   9  10
ENDBRANCH   8   9
ENDBRANCH   1   8
BRANCH   4  22
HETATM   22  C9  UNL     1      -2.892  -2.924  -0.302  1.00  0.00     0.099 C 
HETATM   23  C10 UNL     1      -1.786  -3.531   0.564  1.00  0.00     0.026 C 
HETATM   24  C11 UNL     1      -2.243  -3.405   2.021  1.00  0.00     0.002 C 
HETATM   25  C12 UNL     1      -3.600  -2.716   1.980  1.00  0.00     0.002 C 
HETATM   26  C13 UNL     1      -4.131  -3.027   0.586  1.00  0.00     0.026 C 
ENDBRANCH   4  22
BRANCH   6  27
HETATM   27  C14 UNL     1      -1.028   1.085  -0.909  1.00  0.00     0.115 C 
HETATM   28  C15 UNL     1      -2.080   2.141  -0.358  1.00  0.00     0.015 C 
HETATM   29  C16 UNL     1      -2.174   1.972   1.193  1.00  0.00     0.009 C 
HETATM   30  C21 UNL     1      -1.685   3.754  -1.020  1.00  0.00     0.010 C 
HETATM   31  C17 UNL     1      -0.880   1.605   2.027  1.00  0.00     0.031 C 
HETATM   32  C18 UNL     1       0.589   1.828   1.493  1.00  0.00     0.273 C 
HETATM   33  N6  UNL     1       0.864   3.087   0.806  1.00  0.00     0.101 N 
HETATM   34  C19 UNL     1      -0.399   3.509   0.265  1.00  0.00     0.246 A 
HETATM   35  C26 UNL     1       1.233   3.015  -0.633  1.00  0.00     0.246 C 
HETATM   36  C20 UNL     1      -0.007   4.524  -0.586  1.00  0.00     0.039 A 
HETATM   37  C25 UNL     1      -0.176   3.339  -1.633  1.00  0.00     0.019 A 
HETATM   38  C22 UNL     1      -1.365   3.285  -2.440  1.00  0.00     0.004 C 
HETATM   39  C24 UNL     1       0.157   1.884  -1.568  1.00  0.00     0.024 C 
HETATM   40  C23 UNL     1      -0.348   2.152  -3.078  1.00  0.00     0.020 C 
ENDBRANCH   6  27
TORSDOF 11
