REMARK  13 active torsions:
REMARK  status: ('A' for Active; 'I' for Inactive)
REMARK    1  A    between atoms: O1_1  and  C1_3 
REMARK    2  A    between atoms: C1_3  and  C2_4 
REMARK    3  A    between atoms: C2_4  and  O2_5 
REMARK    4  A    between atoms: O2_5  and  N1_6 
REMARK    5  A    between atoms: C3_8  and  C4_9 
REMARK    6  A    between atoms: C4_9  and  C5_10 
REMARK    7  A    between atoms: C5_10  and  C6_11 
REMARK    8  A    between atoms: C6_11  and  S1_12 
REMARK    9  A    between atoms: S1_12  and  C7_13 
REMARK   10  A    between atoms: C10_16  and  O3_17 
REMARK   11  A    between atoms: C15_23  and  O4_24 
REMARK   12  A    between atoms: N2_33  and  C23_34 
REMARK   13  A    between atoms: C23_34  and  C24_35 
ROOT
HETATM    1  C7  UNL     1      -0.825   1.465   0.548  1.00  0.00     0.061 C 
HETATM    2  C8  UNL     1      -0.182   2.360   1.715  1.00  0.00     0.019 C 
HETATM    3  C9  UNL     1       1.310   2.966   1.516  1.00  0.00     0.043 C 
HETATM    4  C10 UNL     1       2.071   2.695   0.157  1.00  0.00     0.083 C 
HETATM    5  C11 UNL     1       3.393   1.876   0.128  1.00  0.00     0.040 C 
HETATM    6  C12 UNL     1       3.566   0.317   0.061  1.00  0.00     0.030 C 
HETATM    7  C13 UNL     1       3.146  -0.469  -1.224  1.00  0.00     0.044 C 
HETATM    8  C14 UNL     1       1.721  -0.773  -1.724  1.00  0.00     0.007 C 
HETATM    9  C15 UNL     1       1.658  -1.471  -2.948  1.00  0.00     0.076 C 
HETATM   10  C16 UNL     1       0.896  -0.964  -3.999  1.00  0.00     0.038 C 
HETATM   11  C17 UNL     1       0.387   0.317  -3.837  1.00  0.00     0.010 C 
HETATM   12  C18 UNL     1       0.431   0.863  -2.561  1.00  0.00    -0.050 C 
HETATM   13  C19 UNL     1       0.672   0.092  -1.445  1.00  0.00    -0.028 C 
HETATM   14  C20 UNL     1       0.445   0.808  -0.124  1.00  0.00     0.009 C 
HETATM   15  C21 UNL     1       0.892  -0.245   1.000  1.00  0.00     0.036 C 
HETATM   16  C22 UNL     1       2.075  -0.143   1.938  1.00  0.00     0.124 C 
HETATM   17  N2  UNL     1       3.357  -0.347   1.335  1.00  0.00    -0.381 N 
HETATM   18  C27 UNL     1       0.982   2.174  -0.704  1.00  0.00     0.042 C 
HETATM   19  C28 UNL     1       0.880   2.254  -2.245  1.00  0.00     0.048 C 
ENDROOT
BRANCH   1  20
HETATM   20  S1  UNL     1      -2.225   0.349   1.067  1.00  0.00    -0.163 SA
BRANCH  20  21
HETATM   21  C6  UNL     1      -3.248   1.492   2.062  1.00  0.00     0.074 C 
BRANCH  21  22
HETATM   22  C5  UNL     1      -4.299   0.756   2.907  1.00  0.00     0.015 C 
BRANCH  22  23
HETATM   23  C4  UNL     1      -5.651   0.585   2.223  1.00  0.00     0.047 C 
BRANCH  23  24
HETATM   24  C3  UNL     1      -5.588  -0.432   1.125  1.00  0.00     0.087 C 
HETATM   25  N1  UNL     1      -5.848  -0.107  -0.098  1.00  0.00    -0.282 N 
ATOM     26  H1  UNL     1      -6.115   0.819  -0.432  1.00  0.00     0.193 HD
BRANCH  25  27
HETATM   27  O2  UNL     1      -5.696  -1.256  -0.880  1.00  0.00    -0.279 OA
BRANCH  27  28
HETATM   28  C2  UNL     1      -5.510  -0.891  -2.248  1.00  0.00     0.227 C 
BRANCH  28  29
HETATM   29  C1  UNL     1      -4.533  -1.897  -2.840  1.00  0.00     0.192 C 
BRANCH  29  30
HETATM   30  O1  UNL     1      -3.213  -1.695  -2.338  1.00  0.00    -0.399 OA
ATOM     31  H1  UNL     1      -2.603  -2.323  -2.707  1.00  0.00     0.209 HD
ENDBRANCH  29  30
ENDBRANCH  28  29
ENDBRANCH  27  28
ENDBRANCH  25  27
ENDBRANCH  23  24
ENDBRANCH  22  23
ENDBRANCH  21  22
ENDBRANCH  20  21
ENDBRANCH   1  20
BRANCH   4  32
HETATM   32  O3  UNL     1       2.429   4.020  -0.314  1.00  0.00    -0.385 OA
ATOM     33  H3  UNL     1       2.886   3.857  -1.131  1.00  0.00     0.211 HD
ENDBRANCH   4  32
BRANCH   9  34
HETATM   34  O4  UNL     1       2.516  -2.513  -3.165  1.00  0.00    -0.360 OA
ATOM     35  H4  UNL     1       2.474  -2.983  -3.989  1.00  0.00     0.217 HD
ENDBRANCH   9  34
BRANCH  17  36
HETATM   36  C23 UNL     1       3.961  -1.675   1.531  1.00  0.00     0.127 C 
BRANCH  36  37
HETATM   37  C24 UNL     1       3.130  -2.868   1.149  1.00  0.00     0.003 A 
HETATM   38  C25 UNL     1       2.325  -3.642   2.167  1.00  0.00     0.007 A 
HETATM   39  C26 UNL     1       3.571  -4.245   1.588  1.00  0.00     0.007 A 
ENDBRANCH  36  37
ENDBRANCH  17  36
TORSDOF 13
