REMARK  3 active torsions:
REMARK  status: ('A' for Active; 'I' for Inactive)
REMARK    1  A    between atoms: C2_2  and  O2_4 
REMARK    2  A    between atoms: O2_4  and  C3_5 
REMARK    3  A    between atoms: C13_17  and  C15_19 
ROOT
HETATM    1  C3  UNL     1       1.495   0.482   0.161  1.00  0.00     0.141 C 
HETATM    2  C4  UNL     1       1.076  -0.667   1.089  1.00  0.00     0.034 C 
HETATM    3  C5  UNL     1       0.020  -1.557   0.426  1.00  0.00     0.018 C 
HETATM    4  C6  UNL     1      -1.109  -0.765  -0.278  1.00  0.00     0.019 C 
HETATM    5  C7  UNL     1      -1.193  -1.126  -1.772  1.00  0.00     0.021 C 
HETATM    6  C8  UNL     1      -1.026   0.757  -0.083  1.00  0.00     0.042 C 
HETATM    7  C9  UNL     1      -2.222   1.064   0.479  1.00  0.00     0.155 C 
HETATM    8  C10 UNL     1      -2.305   0.718   1.955  1.00  0.00     0.204 C 
HETATM    9  O3  UNL     1      -2.376  -0.730   1.875  1.00  0.00    -0.352 OA
HETATM   10  C11 UNL     1      -2.499  -0.951   0.440  1.00  0.00     0.168 C 
HETATM   11  C12 UNL     1      -3.234  -2.247   0.172  1.00  0.00     0.080 C 
HETATM   12  O4  UNL     1      -3.221   0.190  -0.057  1.00  0.00    -0.347 OA
HETATM   13  C13 UNL     1       0.314   1.493  -0.062  1.00  0.00     0.002 C 
HETATM   14  C14 UNL     1       0.334   2.558   1.063  1.00  0.00     0.019 C 
ENDROOT
BRANCH   1  15
HETATM   15  O2  UNL     1       1.865  -0.092  -1.119  1.00  0.00    -0.316 OA
BRANCH  15  16
HETATM   16  C2  UNL     1       3.100  -0.511  -1.471  1.00  0.00     0.255 C 
HETATM   17  C1  UNL     1       4.191  -0.430  -0.449  1.00  0.00     0.126 C 
HETATM   18  O1  UNL     1       3.301  -0.952  -2.598  1.00  0.00    -0.266 OA
ENDBRANCH  15  16
ENDBRANCH   1  15
BRANCH  13  19
HETATM   19  C15 UNL     1       0.453   2.232  -1.428  1.00  0.00     0.126 C 
HETATM   20 CL1  UNL     1       1.997   3.122  -1.615  1.00  0.00    -0.130 Cl
ENDBRANCH  13  19
TORSDOF 3
