REMARK  1 active torsions:
REMARK  status: ('A' for Active; 'I' for Inactive)
REMARK    1  A    between atoms: O1_2  and  C2_3 
ROOT
HETATM    1  C2  UNL     1       1.499   0.505  -0.216  1.00  0.00     0.186 C 
HETATM    2  C3  UNL     1       2.184   1.865  -0.529  1.00  0.00     0.082 C 
HETATM    3  O2  UNL     1       1.107   0.425   1.176  1.00  0.00    -0.344 OA
HETATM    4  C4  UNL     1      -0.139   0.842   1.778  1.00  0.00     0.166 C 
HETATM    5  C5  UNL     1      -0.249   2.359   1.753  1.00  0.00     0.039 C 
HETATM    6  C6  UNL     1      -0.760   2.620   0.367  1.00  0.00     0.055 C 
HETATM    7  C7  UNL     1      -1.653   1.425   0.210  1.00  0.00     0.198 C 
HETATM    8  F1  UNL     1      -2.837   1.970   0.739  1.00  0.00    -0.234 F 
HETATM    9  C8  UNL     1      -1.949   0.833  -1.099  1.00  0.00     0.233 C 
HETATM   10  C9  UNL     1      -2.887   1.675  -1.956  1.00  0.00     0.086 C 
HETATM   11  O3  UNL     1      -2.695  -0.322  -0.633  1.00  0.00    -0.196 OA
HETATM   12  O4  UNL     1      -2.654  -0.146   0.905  1.00  0.00    -0.220 OA
HETATM   13  C10 UNL     1      -1.263   0.144   1.030  1.00  0.00     0.164 C 
HETATM   14  C11 UNL     1      -0.968  -1.404   1.204  1.00  0.00     0.052 C 
HETATM   15  C12 UNL     1       0.029  -2.282   0.445  1.00  0.00    -0.015 C 
HETATM   16  C13 UNL     1       0.001  -3.699   1.057  1.00  0.00     0.010 C 
HETATM   17  C14 UNL     1      -0.310  -2.383  -1.033  1.00  0.00     0.007 C 
HETATM   18  C15 UNL     1       0.475  -1.411  -1.883  1.00  0.00     0.038 C 
HETATM   19  C16 UNL     1       0.494   0.069  -1.456  1.00  0.00     0.187 C 
HETATM   20  O5  UNL     1      -0.741   0.691  -1.850  1.00  0.00    -0.339 OA
ENDROOT
BRANCH   1  21
HETATM   21  O1  UNL     1       2.611  -0.446  -0.356  1.00  0.00    -0.358 OA
HETATM   22  C1  UNL     1       3.555  -0.455   0.711  1.00  0.00     0.205 C 
ENDBRANCH   1  21
TORSDOF 1
