REMARK  1 active torsions:
REMARK  status: ('A' for Active; 'I' for Inactive)
REMARK    1  A    between atoms: C2_2  and  C3_3 
ROOT
HETATM    1  C3  UNL     1      -1.841   0.196  -0.166  1.00  0.00     0.010 C 
HETATM    2  C4  UNL     1      -1.772   1.362   0.823  1.00  0.00     0.020 C 
HETATM    3  C5  UNL     1      -1.741  -1.214   0.478  1.00  0.00     0.164 C 
HETATM    4  O1  UNL     1      -0.761  -1.470   1.515  1.00  0.00    -0.356 OA
HETATM    5  C6  UNL     1      -0.027  -2.307   0.604  1.00  0.00     0.249 C 
HETATM    6  N1  UNL     1       1.411  -2.224   0.512  1.00  0.00    -0.367 N 
ATOM      7  H1  UNL     1       1.920  -2.999   0.086  1.00  0.00     0.161 HD
HETATM    8  C7  UNL     1       2.079  -1.209   0.947  1.00  0.00     0.012 C 
HETATM    9  C8  UNL     1       3.562  -1.140   0.633  1.00  0.00     0.055 C 
HETATM   10  C9  UNL     1       4.033   0.318   0.694  1.00  0.00     0.036 C 
HETATM   11  C10 UNL     1       2.990   1.344   0.179  1.00  0.00     0.275 C 
HETATM   12  N2  UNL     1       1.551   1.005   0.445  1.00  0.00     0.113 N 
HETATM   13  C11 UNL     1       1.509   0.046   1.535  1.00  0.00     0.326 C 
HETATM   14  C12 UNL     1       0.858   0.671  -0.854  1.00  0.00     0.354 C 
HETATM   15  C13 UNL     1       0.627   2.014  -1.513  1.00  0.00     0.097 C 
HETATM   16  N3  UNL     1       0.447   3.051  -2.003  1.00  0.00    -0.195 NA
HETATM   17  C14 UNL     1      -0.489  -0.162  -1.001  1.00  0.00     0.130 C 
HETATM   18  C15 UNL     1      -0.729  -0.105  -2.473  1.00  0.00     0.075 C 
HETATM   19  N4  UNL     1      -0.884  -0.057  -3.621  1.00  0.00    -0.196 NA
HETATM   20  C16 UNL     1      -0.761  -1.716  -0.600  1.00  0.00     0.132 C 
HETATM   21 CL1  UNL     1      -1.373  -2.927  -1.773  1.00  0.00    -0.110 Cl
ENDROOT
BRANCH   1  22
HETATM   22  C2  UNL     1      -3.139   0.323  -1.025  1.00  0.00     0.009 C 
HETATM   23  C1  UNL     1      -4.423   0.393  -0.207  1.00  0.00     0.006 C 
ENDBRANCH   1  22
TORSDOF 1
