REMARK  8 active torsions:
REMARK  status: ('A' for Active; 'I' for Inactive)
REMARK    1  A    between atoms: C8_13  and  C9_14 
REMARK    2  A    between atoms: C15_21  and  S2_22 
REMARK    3  A    between atoms: S2_22  and  C16_23 
REMARK    4  A    between atoms: C16_23  and  C17_24 
REMARK    5  A    between atoms: C17_24  and  C18_25 
REMARK    6  A    between atoms: C18_25  and  S3_26 
REMARK    7  A    between atoms: S3_26  and  C19_27 
REMARK    8  A    between atoms: C19_27  and  C20_28 
ROOT
HETATM    1  O1  UNL     1      -4.376  -0.573   0.227  1.00  0.00    -0.290 OA
HETATM    2  C1  UNL     1      -3.446  -0.888  -0.503  1.00  0.00     0.183 C 
HETATM    3  C2  UNL     1      -2.812  -2.103  -0.369  1.00  0.00     0.086 C 
HETATM    4  C3  UNL     1      -3.392  -2.744  -1.409  1.00  0.00     0.080 C 
HETATM    5  S1  UNL     1      -4.621  -1.689  -2.597  1.00  0.00    -0.105 SA
HETATM    6  C4  UNL     1      -3.817   0.187  -2.403  1.00  0.00     0.263 C 
HETATM    7  N1  UNL     1      -4.098   1.295  -1.341  1.00  0.00    -0.056 N 
ATOM      8  H11 UNL     1      -4.922   1.105  -0.771  1.00  0.00     0.279 HD
ATOM      9  H12 UNL     1      -4.423   2.171  -1.751  1.00  0.00     0.279 HD
HETATM   10  C5  UNL     1      -2.710   1.468  -0.445  1.00  0.00     0.203 C 
HETATM   11  C6  UNL     1      -1.812   0.763  -1.379  1.00  0.00     0.049 C 
HETATM   12  C7  UNL     1      -2.631  -0.239  -1.699  1.00  0.00     0.105 C 
HETATM   13  C8  UNL     1      -2.294   0.741   1.050  1.00  0.00     0.106 C 
HETATM   14  C15 UNL     1      -1.731  -0.927   1.302  1.00  0.00     0.057 C 
HETATM   15  N3  UNL     1      -1.929  -2.094   0.667  1.00  0.00    -0.350 N 
ATOM     16  H3  UNL     1      -1.437  -2.941   0.950  1.00  0.00     0.166 HD
ENDROOT
BRANCH  14  17
HETATM   17  S2  UNL     1      -0.912  -1.173   2.880  1.00  0.00    -0.116 SA
BRANCH  17  18
HETATM   18  C16 UNL     1       0.840  -1.128   2.424  1.00  0.00     0.081 C 
BRANCH  18  19
HETATM   19  C17 UNL     1       1.250  -2.112   1.332  1.00  0.00     0.021 C 
BRANCH  19  20
HETATM   20  C18 UNL     1       2.733  -1.936   1.008  1.00  0.00     0.075 C 
BRANCH  20  21
HETATM   21  S3  UNL     1       3.259  -3.034  -0.346  1.00  0.00    -0.163 SA
BRANCH  21  22
HETATM   22  C19 UNL     1       2.582  -2.144  -1.785  1.00  0.00     0.133 C 
BRANCH  22  23
HETATM   23  C20 UNL     1       3.590  -1.201  -2.339  1.00  0.00     0.046 A 
HETATM   24  C21 UNL     1       4.376  -1.299  -3.406  1.00  0.00     0.173 A 
HETATM   25  O2  UNL     1       5.197  -0.190  -3.625  1.00  0.00    -0.272 OA
HETATM   26  C22 UNL     1       4.829   0.633  -2.571  1.00  0.00     0.369 A 
HETATM   27  O3  UNL     1       5.296   1.738  -2.346  1.00  0.00    -0.238 OA
HETATM   28  N2  UNL     1       3.855   0.022  -1.822  1.00  0.00    -0.303 N 
ATOM     29  H2  UNL     1       3.401   0.426  -1.003  1.00  0.00     0.171 HD
ENDBRANCH  22  23
ENDBRANCH  21  22
ENDBRANCH  20  21
ENDBRANCH  19  20
ENDBRANCH  18  19
ENDBRANCH  17  18
ENDBRANCH  14  17
BRANCH  13  30
HETATM   30  C9  UNL     1      -1.266   1.714   1.675  1.00  0.00    -0.046 A 
HETATM   31  C10 UNL     1      -0.025   1.968   1.064  1.00  0.00     0.009 A 
HETATM   32  C11 UNL     1       0.890   2.843   1.650  1.00  0.00     0.019 A 
HETATM   33  C12 UNL     1       0.573   3.475   2.849  1.00  0.00     0.011 A 
HETATM   34 BR1  UNL     1       1.825   4.639   3.654  1.00  0.00    -0.051 Br
HETATM   35  C13 UNL     1      -0.655   3.247   3.462  1.00  0.00     0.019 A 
HETATM   36  C14 UNL     1      -1.573   2.373   2.877  1.00  0.00     0.009 A 
ENDBRANCH  13  30
TORSDOF 8
