REMARK  1 active torsions:
REMARK  status: ('A' for Active; 'I' for Inactive)
REMARK       I    between atoms: C2_2  and  N1_4 
REMARK       I    between atoms: N1_4  and  C4_6 
REMARK    1  A    between atoms: C4_6  and  C5_8 
ROOT
HETATM    1  C5  UNL     1       0.679   0.065   0.235  1.00  0.00     0.216 A 
HETATM    2  N2  UNL     1       1.111   0.136  -1.176  1.00  0.00    -0.052 N 
ATOM      3  H21 UNL     1       0.898   0.956  -1.744  1.00  0.00     0.279 HD
ATOM      4  H22 UNL     1       0.672  -0.452  -1.884  1.00  0.00     0.279 HD
HETATM    5  C6  UNL     1       2.506  -0.133  -0.724  1.00  0.00     0.195 C 
HETATM    6  C7  UNL     1       2.572  -1.518   0.071  1.00  0.00     0.041 C 
HETATM    7  C8  UNL     1       1.566  -0.882   0.983  1.00  0.00     0.043 A 
HETATM    8  C9  UNL     1       2.086   0.432   0.554  1.00  0.00     0.069 A 
ENDROOT
BRANCH   1   9
HETATM    9  C4  UNL     1      -0.460   0.873   0.716  1.00  0.00     0.263 C 
HETATM   10  N1  UNL     1      -1.518   0.936  -0.175  1.00  0.00    -0.291 N 
HETATM   11  C2  UNL     1      -2.414  -0.112  -0.332  1.00  0.00     0.222 C 
HETATM   12  C3  UNL     1      -2.014   2.265  -0.462  1.00  0.00     0.162 C 
HETATM   13  C1  UNL     1      -1.963  -1.479   0.130  1.00  0.00     0.117 C 
HETATM   14  O1  UNL     1      -3.546   0.029  -0.796  1.00  0.00    -0.273 OA
HETATM   15  O2  UNL     1      -0.414   1.464   1.791  1.00  0.00    -0.270 OA
ENDBRANCH   1   9
TORSDOF 1
