REMARK  4 active torsions:
REMARK  status: ('A' for Active; 'I' for Inactive)
REMARK    1  A    between atoms: O1_1  and  C1_3 
REMARK    2  A    between atoms: C3_5  and  C4_6 
REMARK    3  A    between atoms: C5_7  and  C9_12 
REMARK    4  A    between atoms: C6_8  and  C7_9 
ROOT
HETATM    1  C1  UNL     1       1.810   0.173   0.145  1.00  0.00     0.077 A 
HETATM    2  C2  UNL     1       1.348  -0.916  -0.772  1.00  0.00     0.047 C 
HETATM    3  C3  UNL     1      -0.009  -1.072  -0.140  1.00  0.00     0.029 C 
HETATM    4  C7  UNL     1      -0.459   1.175  -1.211  1.00  0.00     0.142 C 
HETATM    5  O2  UNL     1      -1.099   1.860  -0.150  1.00  0.00    -0.372 OA
HETATM    6  C8  UNL     1      -0.453   0.663   0.457  1.00  0.00     0.083 C 
HETATM    7  C9  UNL     1      -0.725   0.107   1.696  1.00  0.00     0.035 C 
HETATM    8  C10 UNL     1       1.012   0.366   1.482  1.00  0.00     0.045 A 
HETATM    9  C11 UNL     1       0.776   1.227   0.161  1.00  0.00     0.057 A 
ENDROOT
BRANCH   1  10
HETATM   10  O1  UNL     1       3.175   0.567   0.105  1.00  0.00    -0.388 OA
ATOM     11  H1  UNL     1       3.468   1.258   0.687  1.00  0.00     0.210 HD
ENDBRANCH   1  10
BRANCH   3  12
HETATM   12  C4  UNL     1      -1.301  -1.359  -0.628  1.00  0.00     0.005 A 
HETATM   13  C5  UNL     1      -1.936  -0.653   0.514  1.00  0.00     0.005 A 
HETATM   14  C6  UNL     1      -1.681  -0.098  -1.218  1.00  0.00     0.025 A 
ENDBRANCH   3  12
TORSDOF 4
