REMARK  2 active torsions:
REMARK  status: ('A' for Active; 'I' for Inactive)
REMARK    1  A    between atoms: C6_8  and  C7_9 
REMARK       I    between atoms: C7_9  and  N3_11 
REMARK    2  A    between atoms: C8_13  and  C9_14 
ROOT
HETATM    1  C1  UNL     1       0.855   2.303   0.532  1.00  0.00     0.310 C 
HETATM    2  N1  UNL     1       1.104   0.864   0.417  1.00  0.00     0.090 N 
HETATM    3  C2  UNL     1       2.515   0.652   0.027  1.00  0.00     0.280 C 
HETATM    4  C3  UNL     1       2.049  -0.204  -1.151  1.00  0.00     0.067 C 
HETATM    5  C4  UNL     1       1.581  -1.617  -0.733  1.00  0.00     0.115 C 
HETATM    6  C5  UNL     1       1.872  -2.682  -1.673  1.00  0.00     0.065 C 
HETATM    7  N2  UNL     1       2.092  -3.523  -2.439  1.00  0.00    -0.197 NA
HETATM    8  C6  UNL     1       0.118  -1.106  -0.804  1.00  0.00     0.130 C 
HETATM    9  C10 UNL     1       0.645   0.347  -0.886  1.00  0.00     0.243 C 
ENDROOT
BRANCH   8  10
HETATM   10  C7  UNL     1      -0.820  -1.494   0.358  1.00  0.00     0.229 C 
HETATM   11  O1  UNL     1      -0.523  -2.248   1.282  1.00  0.00    -0.273 OA
HETATM   12  N3  UNL     1      -2.061  -0.924   0.224  1.00  0.00    -0.330 N 
HETATM   13  C8  UNL     1      -2.532  -0.407   1.314  1.00  0.00     0.175 C 
ATOM     14  H3  UNL     1      -2.570  -0.909  -0.660  1.00  0.00     0.168 HD
BRANCH  13  15
HETATM   15  C9  UNL     1      -3.896   0.252   1.311  1.00  0.00     0.214 C 
HETATM   16  O2  UNL     1      -4.769  -0.007   2.110  1.00  0.00    -0.643 OA
HETATM   17  O3  UNL     1      -4.021   1.181   0.352  1.00  0.00    -0.643 OA
ENDBRANCH  13  15
ENDBRANCH   8  10
TORSDOF 2
