REMARK  6 active torsions:
REMARK  status: ('A' for Active; 'I' for Inactive)
REMARK    1  A    between atoms: C2_2  and  C3_4 
REMARK    2  A    between atoms: C6_7  and  C16_20 
REMARK    3  A    between atoms: C7_8  and  C16_20 
REMARK    4  A    between atoms: C10_11  and  C11_12 
REMARK    5  A    between atoms: C10_11  and  C16_20 
REMARK       I    between atoms: C11_12  and  N1_14 
REMARK    6  A    between atoms: N1_14  and  C12_16 
ROOT
HETATM    1  C3  UNL     1       1.781   0.966   0.445  1.00  0.00     0.036 A 
HETATM    2  C4  UNL     1       2.238   1.807   1.616  1.00  0.00     0.025 C 
HETATM    3  C5  UNL     1       2.460  -0.308   0.317  1.00  0.00     0.000 A 
HETATM    4  C6  UNL     1       1.523  -1.345   1.669  1.00  0.00    -0.005 A 
HETATM    5  C7  UNL     1       2.388  -1.685   0.731  1.00  0.00    -0.005 A 
HETATM    6  C8  UNL     1       1.641  -2.488  -0.214  1.00  0.00     0.009 A 
HETATM    7  C9  UNL     1       0.466  -2.136   0.675  1.00  0.00     0.021 A 
HETATM    8  C10 UNL     1       0.255  -0.994  -0.300  1.00  0.00     0.061 C 
HETATM    9  C15 UNL     1       1.598  -1.164  -0.926  1.00  0.00     0.021 A 
HETATM   10  C16 UNL     1       1.002  -0.239   0.765  1.00  0.00     0.010 A 
ENDROOT
BRANCH   8  11
HETATM   11  C11 UNL     1      -1.036  -0.464  -0.867  1.00  0.00     0.228 C 
HETATM   12  O2  UNL     1      -1.078   0.358  -1.783  1.00  0.00    -0.273 OA
HETATM   13  N1  UNL     1      -2.179  -0.928  -0.233  1.00  0.00    -0.356 N 
ATOM     14  H1  UNL     1      -2.172  -1.866   0.169  1.00  0.00     0.162 HD
BRANCH  13  15
HETATM   15  C12 UNL     1      -3.369  -0.138  -0.122  1.00  0.00     0.084 A 
HETATM   16  C13 UNL     1      -4.003   0.617  -1.254  1.00  0.00     0.027 A 
HETATM   17  C14 UNL     1      -4.664  -0.615  -0.713  1.00  0.00     0.027 A 
ENDBRANCH  13  15
ENDBRANCH   8  11
BRANCH   1  18
HETATM   18  C2  UNL     1       1.634   1.766  -0.835  1.00  0.00     0.133 C 
HETATM   19  C1  UNL     1       0.440   2.678  -0.953  1.00  0.00     0.091 C 
HETATM   20  O1  UNL     1       2.527   1.774  -1.685  1.00  0.00    -0.297 OA
ENDBRANCH   1  18
TORSDOF 6
