REMARK  0 active torsions:
REMARK  status: ('A' for Active; 'I' for Inactive)
ROOT
HETATM    1  C1  UNL     1      -0.720  -1.526   1.553  1.00  0.00     0.141 C 
HETATM    2  N1  UNL     1       0.243  -0.397   2.137  1.00  0.00    -0.337 N 
ATOM      3  H1  UNL     1       0.791  -0.528   2.987  1.00  0.00     0.176 HD
HETATM    4  N2  UNL     1       0.274   0.689   1.454  1.00  0.00    -0.142 NA
HETATM    5  C2  UNL     1       1.466   1.465   0.979  1.00  0.00     0.144 C 
HETATM    6  C3  UNL     1       1.642   1.033  -0.575  1.00  0.00     0.013 C 
HETATM    7  C4  UNL     1       2.208  -0.457  -0.456  1.00  0.00     0.017 C 
HETATM    8  C5  UNL     1       1.010  -1.448  -0.316  1.00  0.00     0.039 C 
HETATM    9  C6  UNL     1      -0.610  -1.592  -0.083  1.00  0.00     0.019 C 
HETATM   10  C7  UNL     1      -1.343  -0.236  -1.280  1.00  0.00     0.003 C 
HETATM   11  C8  UNL     1      -2.450   0.592  -0.663  1.00  0.00     0.027 C 
HETATM   12  C9  UNL     1      -1.659   1.409   0.308  1.00  0.00     0.145 C 
HETATM   13  N3  UNL     1      -0.480   0.556   0.496  1.00  0.00    -0.300 N 
HETATM   14  C10 UNL     1       0.281  -0.292  -0.797  1.00  0.00     0.013 C 
HETATM   15  C11 UNL     1       0.192   0.881  -1.556  1.00  0.00     0.043 C 
ENDROOT
TORSDOF 0
