REMARK  4 active torsions:
REMARK  status: ('A' for Active; 'I' for Inactive)
REMARK    1  A    between atoms: N1_1  and  C1_5 
REMARK    2  A    between atoms: C1_5  and  C2_6 
REMARK    3  A    between atoms: C5_9  and  C6_10 
REMARK    4  A    between atoms: C8_12  and  C9_13 
ROOT
HETATM    1  C2  UNL     1       1.064  -0.748  -0.168  1.00  0.00     0.053 C 
HETATM    2  C3  UNL     1       1.131   0.596  -0.953  1.00  0.00     0.003 A 
HETATM    3  C4  UNL     1      -0.120   1.574  -1.084  1.00  0.00     0.002 A 
HETATM    4  C5  UNL     1      -1.533   1.276  -0.450  1.00  0.00     0.026 C 
HETATM    5  C9  UNL     1      -0.304  -0.770   0.551  1.00  0.00     0.141 C 
HETATM    6  N2  UNL     1      -1.188  -0.432   1.720  1.00  0.00    -0.060 N 
ATOM      7  H21 UNL     1      -0.867  -0.580   2.677  1.00  0.00     0.278 HD
ATOM      8  H22 UNL     1      -2.015  -0.991   1.928  1.00  0.00     0.278 HD
HETATM    9  C10 UNL     1      -1.324   1.006   1.139  1.00  0.00     0.198 C 
HETATM   10  C11 UNL     1       0.168   0.908   1.138  1.00  0.00     0.058 C 
HETATM   11  C12 UNL     1       0.827   1.628   0.037  1.00  0.00     0.004 A 
ENDROOT
BRANCH   1  12
HETATM   12  C1  UNL     1       2.254  -1.044   0.760  1.00  0.00     0.237 C 
BRANCH  12  13
HETATM   13  N1  UNL     1       3.481  -1.342   0.016  1.00  0.00    -0.079 N 
ATOM     14  H13 UNL     1       3.334  -2.103  -0.647  1.00  0.00     0.274 HD
ATOM     15  H12 UNL     1       3.704  -0.594  -0.641  1.00  0.00     0.274 HD
ATOM     16  H11 UNL     1       4.270  -1.538   0.632  1.00  0.00     0.274 HD
ENDBRANCH  12  13
ENDBRANCH   1  12
BRANCH   5  17
HETATM   17  C8  UNL     1      -1.381  -1.118  -0.555  1.00  0.00     0.027 A 
HETATM   18  C6  UNL     1      -2.071   0.068  -1.139  1.00  0.00    -0.001 A 
HETATM   19  C7  UNL     1      -2.888  -0.994  -0.462  1.00  0.00     0.013 A 
ENDBRANCH   5  17
TORSDOF 4
