REMARK  0 active torsions:
REMARK  status: ('A' for Active; 'I' for Inactive)
ROOT
HETATM    1  C1  UNL     1       1.858  -1.125   0.074  1.00  0.00     0.273 C 
HETATM    2  N1  UNL     1       1.276   0.249  -0.077  1.00  0.00    -0.062 N 
HETATM    3  C2  UNL     1       2.422   1.253  -0.205  1.00  0.00     0.273 C 
HETATM    4  C3  UNL     1       0.270   0.501  -1.207  1.00  0.00     0.240 A 
HETATM    5  C4  UNL     1      -0.978  -0.241  -1.315  1.00  0.00     0.175 A 
HETATM    6  N2  UNL     1      -0.921  -1.690  -1.261  1.00  0.00    -0.062 N 
ATOM      7  H21 UNL     1       0.009  -2.083  -1.410  1.00  0.00     0.278 HD
ATOM      8  H22 UNL     1      -1.363  -2.160  -2.051  1.00  0.00     0.278 HD
HETATM    9  C5  UNL     1      -1.493  -1.995  -0.001  1.00  0.00     0.245 C 
HETATM   10  C6  UNL     1      -1.766  -0.585   0.526  1.00  0.00     0.014 A 
HETATM   11  C7  UNL     1      -0.950   1.009  -0.457  1.00  0.00     0.043 A 
HETATM   12  C8  UNL     1      -0.459   1.694   0.780  1.00  0.00     0.044 C 
HETATM   13  C9  UNL     1      -1.450   0.629   0.434  1.00  0.00     0.021 A 
HETATM   14  C10 UNL     1      -0.791  -0.208   1.566  1.00  0.00     0.041 A 
HETATM   15  C11 UNL     1       0.531   0.623   1.200  1.00  0.00     0.201 C 
ENDROOT
TORSDOF 0
