REMARK  3 active torsions:
REMARK  status: ('A' for Active; 'I' for Inactive)
REMARK    1  A    between atoms: N1_2  and  C2_4 
REMARK    2  A    between atoms: C2_4  and  S2_6 
REMARK    3  A    between atoms: S2_6  and  N2_7 
ROOT
HETATM    1  N2  UNL     1      -2.147  -1.542  -0.060  1.00  0.00    -0.309 N 
HETATM    2  C3  UNL     1      -1.603  -1.096   1.289  1.00  0.00     0.082 C 
HETATM    3  C4  UNL     1      -0.456  -1.927   2.100  1.00  0.00     0.117 C 
HETATM    4  C5  UNL     1       0.813  -1.877   1.270  1.00  0.00     0.205 C 
HETATM    5  C6  UNL     1       0.386  -2.667   0.111  1.00  0.00     0.116 C 
HETATM    6  C7  UNL     1       1.116  -1.780  -0.841  1.00  0.00     0.137 C 
HETATM    7  C8  UNL     1       0.001  -1.837  -1.902  1.00  0.00     0.090 C 
HETATM    8  C9  UNL     1      -1.424  -1.196  -1.360  1.00  0.00     0.080 C 
HETATM    9  O1  UNL     1       2.283  -2.557  -0.470  1.00  0.00    -0.223 OA
HETATM   10  O2  UNL     1       2.095  -2.516   1.202  1.00  0.00    -0.199 OA
HETATM   11  C10 UNL     1       1.489  -0.331  -0.302  1.00  0.00     0.099 C 
HETATM   12  C11 UNL     1       3.030  -0.035  -0.234  1.00  0.00     0.041 C 
HETATM   13  C12 UNL     1       3.514   1.038   0.767  1.00  0.00     0.004 C 
HETATM   14  C13 UNL     1       2.532   2.117   1.204  1.00  0.00     0.004 C 
HETATM   15  C14 UNL     1       1.942   2.977   0.087  1.00  0.00    -0.019 C 
HETATM   16  C15 UNL     1       2.878   4.134  -0.283  1.00  0.00     0.010 C 
HETATM   17  C16 UNL     1       1.559   2.208  -1.176  1.00  0.00     0.007 C 
HETATM   18  C17 UNL     1       0.789   0.895  -0.966  1.00  0.00     0.042 C 
HETATM   19  O3  UNL     1       1.016  -0.473   1.033  1.00  0.00    -0.338 OA
ENDROOT
BRANCH   1  20
HETATM   20  S2  UNL     1      -3.339  -2.743  -0.082  1.00  0.00     0.021 SA
BRANCH  20  21
HETATM   21  C2  UNL     1      -4.801  -1.811   0.288  1.00  0.00     0.155 C 
HETATM   22  S1  UNL     1      -6.052  -2.436   1.195  1.00  0.00    -0.051 SA
BRANCH  21  23
HETATM   23  N1  UNL     1      -4.724  -0.561  -0.268  1.00  0.00    -0.379 N 
HETATM   24  C1  UNL     1      -5.611   0.552  -0.029  1.00  0.00     0.147 C 
ATOM     25  H1  UNL     1      -3.957  -0.400  -0.921  1.00  0.00     0.160 HD
ENDBRANCH  21  23
ENDBRANCH  20  21
ENDBRANCH   1  20
TORSDOF 3
