REMARK  4 active torsions:
REMARK  status: ('A' for Active; 'I' for Inactive)
REMARK    1  A    between atoms: C2_2  and  C3_3 
REMARK    2  A    between atoms: C3_3  and  C4_4 
REMARK    3  A    between atoms: C4_4  and  O1_5 
REMARK    4  A    between atoms: O1_5  and  C5_6 
ROOT
HETATM    1  C5  UNL     1      -0.454   2.527  -0.489  1.00  0.00     0.103 C 
HETATM    2  C6  UNL     1       0.233   1.876  -1.508  1.00  0.00     0.047 C 
HETATM    3  C7  UNL     1       1.085   0.811  -1.202  1.00  0.00    -0.043 C 
HETATM    4  C8  UNL     1       1.331   0.405   0.139  1.00  0.00    -0.004 C 
HETATM    5  C9  UNL     1       0.694   1.128   1.183  1.00  0.00     0.014 A 
HETATM    6  C10 UNL     1       0.539   1.026   2.598  1.00  0.00     0.040 A 
HETATM    7  C11 UNL     1      -0.234   2.086   3.009  1.00  0.00     0.143 A 
HETATM    8  O2  UNL     1      -0.678   2.778   1.935  1.00  0.00    -0.319 OA
HETATM    9  C12 UNL     1      -0.138   2.193   0.830  1.00  0.00     0.119 A 
HETATM   10  C13 UNL     1       2.019  -0.904   0.354  1.00  0.00     0.006 C 
HETATM   11  C14 UNL     1       2.832  -1.207   1.396  1.00  0.00     0.018 C 
HETATM   12  C15 UNL     1       3.444  -0.260   2.392  1.00  0.00     0.069 C 
HETATM   13  N1  UNL     1       3.175  -2.525   1.624  1.00  0.00    -0.349 N 
ATOM     14  H1  UNL     1       3.804  -2.716   2.404  1.00  0.00     0.166 HD
HETATM   15  C16 UNL     1       2.739  -3.602   0.886  1.00  0.00     0.122 C 
HETATM   16  S1  UNL     1       3.019  -5.133   1.516  1.00  0.00    -0.059 SA
HETATM   17  C17 UNL     1       2.085  -3.267  -0.411  1.00  0.00     0.089 C 
HETATM   18  C18 UNL     1       1.781  -4.302  -1.346  1.00  0.00     0.103 C 
HETATM   19  N2  UNL     1       1.506  -5.104  -2.133  1.00  0.00    -0.191 NA
HETATM   20  C19 UNL     1       1.798  -1.971  -0.662  1.00  0.00    -0.021 C 
HETATM   21  C20 UNL     1       1.268  -1.499  -2.014  1.00  0.00     0.046 C 
HETATM   22  C21 UNL     1       1.638  -0.044  -2.312  1.00  0.00     0.044 C 
ENDROOT
BRANCH   1  23
HETATM   23  O1  UNL     1      -1.538   3.324  -0.776  1.00  0.00    -0.348 OA
BRANCH  23  24
HETATM   24  C4  UNL     1      -2.674   2.506  -1.145  1.00  0.00     0.176 C 
BRANCH  24  25
HETATM   25  C3  UNL     1      -3.197   1.630   0.004  1.00  0.00     0.026 C 
BRANCH  25  26
HETATM   26  C2  UNL     1      -4.475   0.865  -0.345  1.00  0.00    -0.002 C 
HETATM   27  C1  UNL     1      -4.212  -0.339  -1.237  1.00  0.00     0.005 C 
ENDBRANCH  25  26
ENDBRANCH  24  25
ENDBRANCH  23  24
ENDBRANCH   1  23
TORSDOF 4
