REMARK  5 active torsions:
REMARK  status: ('A' for Active; 'I' for Inactive)
REMARK    1  A    between atoms: C2_2  and  C3_3 
REMARK    2  A    between atoms: C3_3  and  C6_6 
REMARK    3  A    between atoms: C7_7  and  C8_8 
REMARK    4  A    between atoms: C8_8  and  C9_10 
REMARK    5  A    between atoms: C10_11  and  O2_12 
ROOT
HETATM    1  C9  UNL     1      -0.259  -1.627  -0.283  1.00  0.00     0.084 C 
HETATM    2  C10 UNL     1       0.257  -2.932  -0.364  1.00  0.00     0.091 C 
HETATM    3  C11 UNL     1       1.641  -3.131  -0.434  1.00  0.00     0.009 C 
HETATM    4  C12 UNL     1       2.268  -4.475  -0.214  1.00  0.00     0.054 C 
HETATM    5  C13 UNL     1       2.438  -1.982  -0.568  1.00  0.00     0.120 C 
HETATM    6  C14 UNL     1       1.911  -0.758  -0.915  1.00  0.00     0.138 C 
HETATM    7  C15 UNL     1       0.656  -0.569  -0.369  1.00  0.00     0.123 C 
HETATM    8  O3  UNL     1       0.539   0.451   0.585  1.00  0.00    -0.335 OA
HETATM    9  C16 UNL     1       1.887   0.840   1.016  1.00  0.00     0.188 C 
HETATM   10  C17 UNL     1       2.579  -0.268   1.864  1.00  0.00     0.040 C 
HETATM   11  C18 UNL     1       3.329  -1.360   1.530  1.00  0.00     0.049 C 
HETATM   12  C19 UNL     1       3.984  -2.198   2.593  1.00  0.00     0.076 C 
HETATM   13  O4  UNL     1       3.584  -1.867   0.234  1.00  0.00    -0.312 OA
HETATM   14  C20 UNL     1       2.657   1.339  -0.234  1.00  0.00     0.090 C 
HETATM   15  C21 UNL     1       1.917   2.480  -0.956  1.00  0.00     0.049 C 
HETATM   16  C22 UNL     1       4.064   1.838   0.120  1.00  0.00     0.049 C 
HETATM   17  O5  UNL     1       2.798   0.259  -1.171  1.00  0.00    -0.332 OA
ENDROOT
BRANCH   1  18
HETATM   18  C8  UNL     1      -1.695  -1.394   0.013  1.00  0.00     0.187 C 
HETATM   19  O1  UNL     1      -2.369  -2.297   0.508  1.00  0.00    -0.287 OA
BRANCH  18  20
HETATM   20  C7  UNL     1      -2.292  -0.093  -0.392  1.00  0.00     0.053 C 
HETATM   21  C6  UNL     1      -3.572   0.229  -0.127  1.00  0.00    -0.010 C 
BRANCH  21  22
HETATM   22  C3  UNL     1      -4.248   1.551  -0.503  1.00  0.00    -0.013 C 
HETATM   23  C4  UNL     1      -5.269   1.928   0.592  1.00  0.00     0.023 C 
HETATM   24  C5  UNL     1      -5.031   1.340  -1.813  1.00  0.00     0.023 C 
BRANCH  22  25
HETATM   25  C2  UNL     1      -3.214   2.675  -0.572  1.00  0.00    -0.024 C 
HETATM   26  C1  UNL     1      -2.828   3.388  -1.640  1.00  0.00     0.008 C 
ENDBRANCH  22  25
ENDBRANCH  21  22
ENDBRANCH  18  20
ENDBRANCH   1  18
BRANCH   2  27
HETATM   27  O2  UNL     1      -0.542  -4.037  -0.209  1.00  0.00    -0.359 OA
ATOM     28  H2  UNL     1      -0.193  -4.919  -0.264  1.00  0.00     0.217 HD
ENDBRANCH   2  27
TORSDOF 5
