REMARK  3 active torsions:
REMARK  status: ('A' for Active; 'I' for Inactive)
REMARK    1  A    between atoms: C2_2  and  C3_3 
REMARK    2  A    between atoms: C3_3  and  C4_4 
REMARK    3  A    between atoms: C4_4  and  C5_5 
ROOT
HETATM    1  C5  UNL     1       0.267   0.462  -0.047  1.00  0.00     0.162 C 
HETATM    2  O1  UNL     1       0.007  -0.885  -0.550  1.00  0.00    -0.365 OA
HETATM    3  C6  UNL     1       0.867  -1.030  -1.713  1.00  0.00     0.219 C 
HETATM    4  C7  UNL     1       2.131  -0.088  -1.542  1.00  0.00     0.184 C 
HETATM    5  C8  UNL     1       2.930  -0.898  -0.467  1.00  0.00     0.091 C 
HETATM    6  C9  UNL     1       2.299  -0.753   0.896  1.00  0.00    -0.009 C 
HETATM    7  C10 UNL     1       2.448  -1.668   1.858  1.00  0.00     0.194 C 
HETATM    8  F1  UNL     1       1.863  -1.558   3.062  1.00  0.00    -0.219 F 
HETATM    9  C11 UNL     1       1.494   0.534   0.932  1.00  0.00     0.156 C 
HETATM   10  C12 UNL     1       1.144   1.047   2.329  1.00  0.00     0.058 C 
HETATM   11  O2  UNL     1       2.456   1.493   0.389  1.00  0.00    -0.220 OA
HETATM   12  O3  UNL     1       2.575   1.290  -1.118  1.00  0.00    -0.218 OA
HETATM   13  C13 UNL     1       0.918   0.846  -1.334  1.00  0.00     0.204 C 
HETATM   14  O4  UNL     1       0.457   1.641  -2.159  1.00  0.00    -0.291 OA
ENDROOT
BRANCH   1  15
HETATM   15  C4  UNL     1      -1.000   1.253   0.289  1.00  0.00     0.050 C 
BRANCH  15  16
HETATM   16  C3  UNL     1      -2.230   0.941  -0.580  1.00  0.00     0.003 C 
BRANCH  16  17
HETATM   17  C2  UNL     1      -3.030  -0.259  -0.066  1.00  0.00    -0.004 C 
HETATM   18  C1  UNL     1      -4.159  -0.630  -1.013  1.00  0.00     0.005 C 
ENDBRANCH  16  17
ENDBRANCH  15  16
ENDBRANCH   1  15
TORSDOF 3
