REMARK  10 active torsions:
REMARK  status: ('A' for Active; 'I' for Inactive)
REMARK    1  A    between atoms: C2_2  and  C3_3 
REMARK    2  A    between atoms: C3_3  and  N1_4 
REMARK       I    between atoms: N1_4  and  C4_6 
REMARK    3  A    between atoms: C4_6  and  C5_8 
REMARK    4  A    between atoms: C12_15  and  C13_16 
REMARK       I    between atoms: C13_16  and  N2_18 
REMARK    5  A    between atoms: N2_18  and  C14_20 
REMARK    6  A    between atoms: C14_20  and  C15_21 
REMARK    7  A    between atoms: C14_20  and  C23_32 
REMARK    8  A    between atoms: C15_21  and  N3_22 
REMARK       I    between atoms: N3_22  and  C16_24 
REMARK    9  A    between atoms: C16_24  and  C17_26 
REMARK   10  A    between atoms: C23_32  and  C24_33 
ROOT
HETATM    1  C13 UNL     1       2.501  -0.397  -1.503  1.00  0.00     0.224 C 
HETATM    2  O2  UNL     1       3.020  -0.174  -2.601  1.00  0.00    -0.273 OA
HETATM    3  N2  UNL     1       2.010   0.626  -0.712  1.00  0.00    -0.354 N 
ATOM      4  H2  UNL     1       1.803   0.454   0.272  1.00  0.00     0.162 HD
ENDROOT
BRANCH   3   5
HETATM    5  C14 UNL     1       1.788   1.944  -1.279  1.00  0.00     0.103 C 
BRANCH   5   6
HETATM    6  C15 UNL     1       0.557   1.920  -2.237  1.00  0.00     0.147 C 
BRANCH   6   7
HETATM    7  N3  UNL     1      -0.696   1.560  -1.581  1.00  0.00    -0.359 N 
HETATM    8  C16 UNL     1      -1.797   1.150  -2.294  1.00  0.00     0.221 C 
HETATM    9  O3  UNL     1      -1.763   0.900  -3.498  1.00  0.00    -0.273 OA
ATOM     10  H3  UNL     1      -0.756   1.614  -0.564  1.00  0.00     0.162 HD
BRANCH   8  11
HETATM   11  C17 UNL     1      -3.100   1.050  -1.500  1.00  0.00     0.078 C 
HETATM   12  C18 UNL     1      -2.998   0.071  -0.320  1.00  0.00     0.014 C 
HETATM   13  C19 UNL     1      -3.950   0.393   0.833  1.00  0.00     0.001 C 
HETATM   14  C20 UNL     1      -5.218   1.101   0.369  1.00  0.00     0.000 C 
HETATM   15  C21 UNL     1      -4.927   2.408  -0.367  1.00  0.00     0.001 C 
HETATM   16  C22 UNL     1      -3.557   2.440  -1.046  1.00  0.00     0.014 C 
ENDBRANCH   8  11
ENDBRANCH   6   7
ENDBRANCH   5   6
BRANCH   5  17
HETATM   17  C23 UNL     1       1.632   3.054  -0.213  1.00  0.00     0.035 C 
BRANCH  17  18
HETATM   18  C24 UNL     1       2.729   3.243   0.884  1.00  0.00    -0.050 C 
HETATM   19  C25 UNL     1       2.926   4.758   1.110  1.00  0.00     0.014 C 
HETATM   20  C26 UNL     1       4.091   2.631   0.538  1.00  0.00     0.014 C 
HETATM   21  C27 UNL     1       2.247   2.637   2.219  1.00  0.00     0.014 C 
ENDBRANCH  17  18
ENDBRANCH   5  17
ENDBRANCH   3   5
BRANCH   1  22
HETATM   22  C12 UNL     1       2.331  -1.822  -0.919  1.00  0.00     0.104 C 
HETATM   23  C5  UNL     1       1.027  -2.436  -0.297  1.00  0.00     0.058 C 
HETATM   24  C6  UNL     1       0.526  -2.222  -1.739  1.00  0.00     0.030 C 
HETATM   25  C10 UNL     1       1.337  -3.996  -0.196  1.00  0.00     0.005 C 
HETATM   26  C7  UNL     1       1.979  -3.063  -2.065  1.00  0.00    -0.025 C 
HETATM   27  C8  UNL     1       1.014  -4.230  -2.569  1.00  0.00     0.011 C 
HETATM   28  C11 UNL     1       2.632  -4.035  -0.988  1.00  0.00     0.016 C 
HETATM   29  C9  UNL     1       0.473  -4.793  -1.205  1.00  0.00     0.007 C 
BRANCH  23  30
HETATM   30  C4  UNL     1       0.290  -1.745   0.859  1.00  0.00     0.228 C 
HETATM   31  N1  UNL     1      -0.735  -2.466   1.432  1.00  0.00    -0.357 N 
ATOM     32  H1  UNL     1      -0.962  -3.384   1.049  1.00  0.00     0.162 HD
HETATM   33  O1  UNL     1       0.569  -0.598   1.231  1.00  0.00    -0.273 OA
BRANCH  31  34
HETATM   34  C3  UNL     1      -1.502  -1.973   2.555  1.00  0.00     0.149 C 
BRANCH  34  35
HETATM   35  C2  UNL     1      -1.078  -2.747   3.763  1.00  0.00    -0.018 C 
HETATM   36  C1  UNL     1      -0.474  -2.221   4.841  1.00  0.00     0.008 C 
ENDBRANCH  34  35
ENDBRANCH  31  34
ENDBRANCH  23  30
ENDBRANCH   1  22
TORSDOF 10
