REMARK  3 active torsions:
REMARK  status: ('A' for Active; 'I' for Inactive)
REMARK    1  A    between atoms: C2_2  and  C3_3 
REMARK    2  A    between atoms: C3_3  and  C4_4 
REMARK    3  A    between atoms: C4_4  and  C5_5 
ROOT
HETATM    1  C5  UNL     1      -0.034   0.158   0.030  1.00  0.00     0.036 C 
HETATM    2  C6  UNL     1      -1.251  -0.761  -0.634  1.00  0.00     0.061 C 
HETATM    3  C7  UNL     1      -2.066  -1.658   0.311  1.00  0.00     0.011 C 
HETATM    4  C8  UNL     1      -3.134  -2.311  -0.590  1.00  0.00     0.006 C 
HETATM    5  C9  UNL     1      -3.068  -1.607  -1.952  1.00  0.00     0.075 C 
HETATM    6  C10 UNL     1      -2.414  -0.258  -1.640  1.00  0.00     0.234 C 
HETATM    7  O1  UNL     1      -3.490   0.522  -1.034  1.00  0.00    -0.195 OA
HETATM    8  O2  UNL     1      -3.743   1.772  -1.823  1.00  0.00    -0.199 OA
HETATM    9  C11 UNL     1      -2.716   2.783  -1.515  1.00  0.00     0.368 C 
HETATM   10  O3  UNL     1      -2.511   3.136  -0.057  1.00  0.00    -0.339 OA
HETATM   11  C12 UNL     1      -1.709   1.914  -0.042  1.00  0.00     0.236 C 
HETATM   12  C13 UNL     1      -0.339   1.690   0.482  1.00  0.00     0.128 C 
HETATM   13  C14 UNL     1      -0.298   1.989   1.976  1.00  0.00     0.052 C 
HETATM   14  O4  UNL     1       0.565   2.595  -0.197  1.00  0.00    -0.223 OA
HETATM   15  O5  UNL     1      -0.183   3.192  -1.324  1.00  0.00    -0.188 OA
HETATM   16  C15 UNL     1      -1.274   2.259  -1.506  1.00  0.00     0.309 C 
HETATM   17  O6  UNL     1      -0.843   1.223  -2.439  1.00  0.00    -0.186 OA
HETATM   18  O7  UNL     1      -1.940   0.357  -2.819  1.00  0.00    -0.194 OA
ENDROOT
BRANCH   1  19
HETATM   19  C4  UNL     1       0.755  -0.675   1.083  1.00  0.00     0.018 C 
BRANCH  19  20
HETATM   20  C3  UNL     1       2.303  -0.601   0.969  1.00  0.00    -0.040 C 
HETATM   21  C16 UNL     1       2.962  -0.562   2.394  1.00  0.00     0.009 C 
HETATM   22  C17 UNL     1       4.013   0.417   1.848  1.00  0.00     0.002 C 
HETATM   23  C18 UNL     1       3.028   0.765   0.721  1.00  0.00     0.009 C 
BRANCH  20  24
HETATM   24  C2  UNL     1       2.897  -1.792   0.167  1.00  0.00     0.005 C 
HETATM   25  C1  UNL     1       2.525  -1.779  -1.305  1.00  0.00     0.006 C 
ENDBRANCH  20  24
ENDBRANCH  19  20
ENDBRANCH   1  19
TORSDOF 3
