REMARK  4 active torsions:
REMARK  status: ('A' for Active; 'I' for Inactive)
REMARK    1  A    between atoms: C16_20  and  N2_21 
REMARK       I    between atoms: N2_21  and  C17_23 
REMARK       I    between atoms: C17_23  and  N3_25 
REMARK    2  A    between atoms: N3_25  and  C18_27 
REMARK    3  A    between atoms: C18_27  and  C19_28 
REMARK    4  A    between atoms: C19_28  and  O2_29 
ROOT
HETATM    1  C1  UNL     1      -2.118  -1.267   3.145  1.00  0.00     0.020 C 
HETATM    2  C2  UNL     1      -1.058  -0.476   2.354  1.00  0.00    -0.017 C 
HETATM    3  C3  UNL     1      -0.252   0.309   3.421  1.00  0.00     0.020 C 
HETATM    4  C4  UNL     1      -1.674   0.509   1.369  1.00  0.00     0.025 C 
HETATM    5  C5  UNL     1      -2.418   1.809   1.055  1.00  0.00     0.238 C 
HETATM    6  N1  UNL     1      -2.501   1.711  -0.527  1.00  0.00    -0.070 N 
ATOM      7  H11 UNL     1      -2.160   2.531  -1.028  1.00  0.00     0.277 HD
ATOM      8  H12 UNL     1      -3.445   1.747  -0.912  1.00  0.00     0.277 HD
HETATM    9  C6  UNL     1      -1.759   0.454  -0.803  1.00  0.00     0.190 C 
HETATM   10  C7  UNL     1      -2.379  -0.281   0.320  1.00  0.00     0.040 C 
HETATM   11  C8  UNL     1      -1.338  -0.480  -1.943  1.00  0.00     0.020 C 
HETATM   12  C9  UNL     1       0.209  -0.349  -2.105  1.00  0.00     0.017 C 
HETATM   13  C10 UNL     1       1.084  -1.158  -1.087  1.00  0.00     0.039 C 
HETATM   14  C11 UNL     1       0.762  -2.629  -1.317  1.00  0.00     0.054 C 
HETATM   15  C12 UNL     1      -0.661  -2.856  -0.842  1.00  0.00     0.108 C 
HETATM   16  F1  UNL     1      -0.969  -4.169  -1.124  1.00  0.00    -0.243 F 
HETATM   17  C13 UNL     1      -1.635  -2.005  -1.738  1.00  0.00     0.050 C 
HETATM   18  C14 UNL     1      -0.675  -2.765   0.725  1.00  0.00     0.080 C 
HETATM   19  C15 UNL     1      -0.039  -1.511   1.446  1.00  0.00    -0.045 C 
HETATM   20  C16 UNL     1       1.114  -0.914   0.494  1.00  0.00     0.021 C 
ENDROOT
BRANCH  20  21
HETATM   21  N2  UNL     1       1.641   0.366   0.960  1.00  0.00    -0.312 N 
HETATM   22  C17 UNL     1       2.693   0.939   0.297  1.00  0.00     0.320 C 
HETATM   23  O1  UNL     1       3.848   0.651   0.550  1.00  0.00    -0.247 OA
HETATM   24  N3  UNL     1       2.271   1.874  -0.600  1.00  0.00    -0.341 N 
ATOM     25  H3  UNL     1       1.274   2.001  -0.771  1.00  0.00     0.164 HD
ATOM     26  H2  UNL     1       1.230   0.828   1.771  1.00  0.00     0.170 HD
BRANCH  24  27
HETATM   27  C18 UNL     1       3.234   2.686  -1.310  1.00  0.00     0.150 C 
BRANCH  27  28
HETATM   28  C19 UNL     1       2.593   3.466  -2.452  1.00  0.00     0.183 C 
BRANCH  28  29
HETATM   29  O2  UNL     1       3.569   4.259  -3.113  1.00  0.00    -0.399 OA
ATOM     30  H2  UNL     1       3.170   4.745  -3.825  1.00  0.00     0.209 HD
ENDBRANCH  28  29
ENDBRANCH  27  28
ENDBRANCH  24  27
ENDBRANCH  20  21
TORSDOF 4
