REMARK  3 active torsions:
REMARK  status: ('A' for Active; 'I' for Inactive)
REMARK    1  A    between atoms: C5_5  and  N1_6 
REMARK       I    between atoms: N1_6  and  C6_8 
REMARK    2  A    between atoms: C6_8  and  C7_10 
REMARK       I    between atoms: N2_15  and  C12_16 
REMARK    3  A    between atoms: C12_16  and  C13_18 
ROOT
HETATM    1  C7  UNL     1       0.802  -2.380   1.440  1.00  0.00     0.158 C 
HETATM    2  C8  UNL     1       1.788  -3.396   0.864  1.00  0.00     0.031 C 
HETATM    3  C9  UNL     1       0.918  -4.180  -0.101  1.00  0.00     0.022 C 
HETATM    4  C10 UNL     1       0.056  -3.082  -0.725  1.00  0.00     0.063 C 
HETATM    5  C11 UNL     1      -1.150  -3.673  -1.448  1.00  0.00     0.027 C 
HETATM    6  N2  UNL     1      -0.189  -2.121   0.361  1.00  0.00    -0.235 NA
HETATM    7  C12 UNL     1      -1.505  -2.001   0.819  1.00  0.00     0.209 C 
HETATM    8  O2  UNL     1      -1.997  -2.842   1.569  1.00  0.00    -0.279 OA
ENDROOT
BRANCH   1   9
HETATM    9  C6  UNL     1       1.357  -1.017   1.913  1.00  0.00     0.236 C 
HETATM   10  N1  UNL     1       2.459  -0.526   1.232  1.00  0.00    -0.355 N 
ATOM     11  H1  UNL     1       3.384  -0.938   1.355  1.00  0.00     0.162 HD
HETATM   12  O1  UNL     1       0.721  -0.308   2.690  1.00  0.00    -0.272 OA
BRANCH  10  13
HETATM   13  C5  UNL     1       2.248   0.601   0.333  1.00  0.00     0.084 C 
HETATM   14  C4  UNL     1       2.112   1.947   1.050  1.00  0.00     0.025 C 
HETATM   15  C3  UNL     1       1.850   3.067   0.043  1.00  0.00     0.006 C 
HETATM   16  C2  UNL     1       2.919   3.127  -1.057  1.00  0.00    -0.019 C 
HETATM   17  C1  UNL     1       2.539   4.165  -2.110  1.00  0.00     0.010 C 
HETATM   18  C23 UNL     1       3.123   1.761  -1.724  1.00  0.00     0.006 C 
HETATM   19  C22 UNL     1       3.379   0.665  -0.698  1.00  0.00     0.025 C 
ENDBRANCH  10  13
ENDBRANCH   1   9
BRANCH   7  20
HETATM   20  C13 UNL     1      -2.247  -0.707   0.415  1.00  0.00     0.038 C 
HETATM   21  C14 UNL     1      -3.760  -0.975   0.263  1.00  0.00     0.024 C 
HETATM   22  C15 UNL     1      -4.437   0.206   0.307  1.00  0.00    -0.007 C 
HETATM   23  C16 UNL     1      -4.722   0.889   1.671  1.00  0.00     0.010 C 
HETATM   24  C19 UNL     1      -3.681   1.531  -0.124  1.00  0.00     0.012 C 
HETATM   25  C17 UNL     1      -3.258   1.426   1.391  1.00  0.00    -0.007 C 
HETATM   26  C18 UNL     1      -2.111   0.372   1.552  1.00  0.00     0.024 C 
HETATM   27  C20 UNL     1      -2.488   1.353  -1.073  1.00  0.00     0.088 C 
HETATM   28 CL1  UNL     1      -2.988   1.639  -2.760  1.00  0.00    -0.125 Cl
HETATM   29  C21 UNL     1      -1.831  -0.041  -0.919  1.00  0.00     0.039 C 
ENDBRANCH   7  20
TORSDOF 3
