REMARK  2 active torsions:
REMARK  status: ('A' for Active; 'I' for Inactive)
REMARK    1  A    between atoms: C4_5  and  C5_6 
REMARK       I    between atoms: C5_6  and  N1_8 
REMARK    2  A    between atoms: C23_27  and  C24_28 
REMARK       I    between atoms: C24_28  and  N2_29 
ROOT
HETATM    1  C1  UNL     1       0.092   0.897   2.848  1.00  0.00     0.052 C 
HETATM    2  C2  UNL     1      -0.762   0.265   1.735  1.00  0.00     0.106 C 
HETATM    3  F1  UNL     1      -1.578  -0.524   2.497  1.00  0.00    -0.243 F 
HETATM    4  C3  UNL     1       0.166  -0.576   0.834  1.00  0.00     0.063 C 
HETATM    5  C4  UNL     1      -0.000  -0.503  -0.729  1.00  0.00     0.052 C 
HETATM    6  C11 UNL     1      -0.100   1.064  -1.379  1.00  0.00     0.005 C 
HETATM    7  C12 UNL     1      -1.409   1.657  -2.107  1.00  0.00     0.007 C 
HETATM    8  C13 UNL     1      -2.796   1.513  -1.335  1.00  0.00     0.011 C 
HETATM    9  C14 UNL     1      -2.557   0.428  -0.267  1.00  0.00    -0.025 C 
HETATM   10  C15 UNL     1      -3.360  -0.889   0.340  1.00  0.00    -0.000 C 
HETATM   11  C16 UNL     1      -2.592  -2.169   0.802  1.00  0.00     0.011 C 
HETATM   12  C17 UNL     1      -1.843  -2.633  -0.460  1.00  0.00    -0.008 C 
HETATM   13  C18 UNL     1      -3.110  -2.807  -1.318  1.00  0.00     0.010 C 
HETATM   14  C19 UNL     1      -3.607  -1.375  -1.105  1.00  0.00    -0.004 C 
HETATM   15  C20 UNL     1      -2.324  -0.624  -1.458  1.00  0.00     0.005 C 
HETATM   16  C21 UNL     1      -1.121  -1.479  -1.238  1.00  0.00     0.013 C 
HETATM   17  C22 UNL     1      -1.708   1.186   0.942  1.00  0.00     0.047 C 
HETATM   18  C23 UNL     1      -0.932   2.487   0.515  1.00  0.00     0.086 C 
HETATM   19  C25 UNL     1       0.288   2.136  -0.347  1.00  0.00     0.020 C 
ENDROOT
BRANCH   5  20
HETATM   20  C5  UNL     1       1.361  -1.083  -1.250  1.00  0.00     0.231 C 
HETATM   21  O1  UNL     1       1.460  -2.203  -1.740  1.00  0.00    -0.272 OA
HETATM   22  N1  UNL     1       2.424  -0.227  -1.071  1.00  0.00    -0.334 N 
HETATM   23  C6  UNL     1       3.568  -0.691  -0.688  1.00  0.00    -0.011 C 
ATOM     24  H1  UNL     1       2.309   0.772  -1.240  1.00  0.00     0.168 HD
HETATM   25  C7  UNL     1       4.699   0.267  -0.411  1.00  0.00     0.052 C 
HETATM   26  C10 UNL     1       3.952  -2.123  -0.412  1.00  0.00     0.052 C 
HETATM   27  C8  UNL     1       5.600  -0.588   0.466  1.00  0.00     0.006 C 
HETATM   28  C9  UNL     1       5.440  -1.993  -0.100  1.00  0.00     0.006 C 
ENDBRANCH   5  20
BRANCH  18  29
HETATM   29  C24 UNL     1      -0.570   3.462   1.636  1.00  0.00     0.220 C 
HETATM   30  N2  UNL     1      -1.605   3.847   2.436  1.00  0.00    -0.370 N 
ATOM     31  H22 UNL     1      -2.538   3.462   2.289  1.00  0.00     0.159 HD
ATOM     32  H21 UNL     1      -1.364   4.497   3.184  1.00  0.00     0.159 HD
HETATM   33  O2  UNL     1       0.551   3.925   1.813  1.00  0.00    -0.273 OA
ENDBRANCH  18  29
TORSDOF 2
