REMARK  17 active torsions:
REMARK  status: ('A' for Active; 'I' for Inactive)
REMARK    1  A    between atoms: N1_2  and  C2_5 
REMARK    2  A    between atoms: C2_5  and  C3_6 
REMARK    3  A    between atoms: C3_6  and  N2_7 
REMARK    4  A    between atoms: N2_7  and  C4_10 
REMARK    5  A    between atoms: C4_10  and  C5_11 
REMARK    6  A    between atoms: C5_11  and  O1_12 
REMARK    7  A    between atoms: C6_14  and  C7_15 
REMARK    8  A    between atoms: C7_15  and  C8_16 
REMARK    9  A    between atoms: C13_21  and  O2_22 
REMARK   10  A    between atoms: C18_28  and  O3_29 
REMARK   11  A    between atoms: C19_31  and  C20_32 
REMARK   12  A    between atoms: C20_32  and  O4_33 
REMARK   13  A    between atoms: C21_35  and  O5_36 
REMARK   14  A    between atoms: C26_42  and  C27_43 
REMARK   15  A    between atoms: C27_43  and  O6_44 
REMARK   16  A    between atoms: C27_43  and  C28_46 
REMARK   17  A    between atoms: C28_46  and  O7_49 
ROOT
HETATM    1  C5  UNL     1      -0.794  -1.064   0.426  1.00  0.00     0.113 C 
HETATM    2  C6  UNL     1      -2.256  -0.613  -0.156  1.00  0.00     0.061 C 
HETATM    3  C12 UNL     1      -3.353   0.188   0.644  1.00  0.00     0.053 C 
HETATM    4  C13 UNL     1      -3.001   1.127   1.823  1.00  0.00     0.125 C 
HETATM    5  C14 UNL     1      -1.955   2.198   1.462  1.00  0.00     0.038 C 
HETATM    6  C15 UNL     1      -1.444   3.446   2.458  1.00  0.00     0.008 C 
HETATM    7  C16 UNL     1      -2.440   4.627   2.210  1.00  0.00     0.022 C 
HETATM    8  C17 UNL     1      -1.665   3.158   3.971  1.00  0.00     0.022 C 
HETATM    9  C18 UNL     1       0.174   4.111   2.207  1.00  0.00     0.059 C 
HETATM   10  C19 UNL     1       1.569   3.706   1.220  1.00  0.00     0.008 C 
HETATM   11  C21 UNL     1       2.143   2.173   0.723  1.00  0.00     0.097 C 
HETATM   12  C22 UNL     1       3.598   2.155   0.160  1.00  0.00     0.044 C 
HETATM   13  C23 UNL     1       3.884   0.695  -0.253  1.00  0.00     0.008 C 
HETATM   14  C24 UNL     1       2.556  -0.126  -0.205  1.00  0.00    -0.003 C 
HETATM   15  C25 UNL     1       2.637  -1.037   1.035  1.00  0.00     0.011 C 
HETATM   16  C26 UNL     1       1.406   0.938  -0.382  1.00  0.00     0.045 C 
HETATM   17  C31 UNL     1      -0.222   0.498   0.057  1.00  0.00     0.076 C 
HETATM   18  C32 UNL     1      -1.374   0.308  -1.105  1.00  0.00     0.152 C 
HETATM   19  O8  UNL     1      -1.574   0.692  -2.236  1.00  0.00    -0.296 OA
HETATM   20  C33 UNL     1      -0.643   1.694   0.930  1.00  0.00    -0.022 C 
HETATM   21  C34 UNL     1      -0.534   2.882  -0.150  1.00  0.00     0.016 C 
HETATM   22  C35 UNL     1       0.030   1.232   2.273  1.00  0.00     0.016 C 
ENDROOT
BRANCH   1  23
HETATM   23  C4  UNL     1      -0.152  -2.278  -0.318  1.00  0.00     0.272 C 
BRANCH  23  24
HETATM   24  N2  UNL     1      -0.331  -3.526   0.456  1.00  0.00    -0.071 N 
ATOM     25  H22 UNL     1      -1.211  -3.518   0.971  1.00  0.00     0.277 HD
ATOM     26  H21 UNL     1       0.317  -3.568   1.243  1.00  0.00     0.277 HD
BRANCH  24  27
HETATM   27  C3  UNL     1      -0.220  -4.725  -0.390  1.00  0.00     0.259 C 
BRANCH  27  28
HETATM   28  C2  UNL     1       1.168  -4.962  -1.022  1.00  0.00     0.259 C 
BRANCH  28  29
HETATM   29  N1  UNL     1       2.254  -4.773  -0.053  1.00  0.00    -0.077 N 
HETATM   30  C1  UNL     1       3.550  -5.007  -0.678  1.00  0.00     0.267 C 
ATOM     31  H12 UNL     1       2.125  -5.352   0.777  1.00  0.00     0.276 HD
ATOM     32  H11 UNL     1       2.209  -3.856   0.391  1.00  0.00     0.276 HD
ENDBRANCH  28  29
ENDBRANCH  27  28
ENDBRANCH  24  27
ENDBRANCH  23  24
ENDBRANCH   1  23
BRANCH   1  33
HETATM   33  O1  UNL     1      -0.833  -1.403   1.834  1.00  0.00    -0.386 OA
ATOM     34  H1  UNL     1      -1.223  -0.665   2.287  1.00  0.00     0.210 HD
ENDBRANCH   1  33
BRANCH   2  35
HETATM   35  C7  UNL     1      -3.021  -1.630  -1.077  1.00  0.00     0.048 C 
BRANCH  35  36
HETATM   36  C8  UNL     1      -3.558  -2.816  -0.325  1.00  0.00    -0.023 C 
HETATM   37  C9  UNL     1      -3.894  -4.016  -0.846  1.00  0.00    -0.091 C 
HETATM   38  C10 UNL     1      -3.736  -4.421  -2.286  1.00  0.00     0.042 C 
HETATM   39  C11 UNL     1      -4.497  -5.087   0.027  1.00  0.00     0.042 C 
ENDBRANCH  35  36
ENDBRANCH   2  35
BRANCH  16  40
HETATM   40  C27 UNL     1       1.355   1.401  -1.976  1.00  0.00     0.165 C 
BRANCH  40  41
HETATM   41  O6  UNL     1       2.166   2.581  -2.165  1.00  0.00    -0.392 OA
ATOM     42  H6  UNL     1       2.137   2.846  -3.077  1.00  0.00     0.210 HD
ENDBRANCH  40  41
BRANCH  40  43
HETATM   43  C28 UNL     1       1.675   0.458  -3.205  1.00  0.00     0.077 C 
HETATM   44  C29 UNL     1       1.052  -0.937  -3.257  1.00  0.00     0.048 C 
HETATM   45  C30 UNL     1       1.253   1.171  -4.513  1.00  0.00     0.048 C 
BRANCH  43  46
HETATM   46  O7  UNL     1       3.106   0.350  -3.299  1.00  0.00    -0.388 OA
ATOM     47  H7  UNL     1       3.298  -0.216  -4.037  1.00  0.00     0.210 HD
ENDBRANCH  43  46
ENDBRANCH  40  43
ENDBRANCH  16  40
BRANCH   4  48
HETATM   48  O2  UNL     1      -2.785   0.319   2.962  1.00  0.00    -0.395 OA
ATOM     49  H2  UNL     1      -2.569   0.895   3.686  1.00  0.00     0.210 HD
ENDBRANCH   4  48
BRANCH  11  50
HETATM   50  O5  UNL     1       2.463   1.567   2.018  1.00  0.00    -0.384 OA
ATOM     51  H5  UNL     1       2.782   0.716   1.742  1.00  0.00     0.211 HD
ENDBRANCH  11  50
BRANCH  10  52
HETATM   52  C20 UNL     1       1.774   4.914   0.235  1.00  0.00     0.204 C 
BRANCH  52  53
HETATM   53  O4  UNL     1       3.040   4.948  -0.401  1.00  0.00    -0.396 OA
ATOM     54  H4  UNL     1       3.164   5.678  -0.996  1.00  0.00     0.209 HD
ENDBRANCH  52  53
ENDBRANCH  10  52
BRANCH   9  55
HETATM   55  O3  UNL     1       0.708   4.455   3.507  1.00  0.00    -0.364 OA
ATOM     56  H3  UNL     1       1.578   4.812   3.372  1.00  0.00     0.217 HD
ENDBRANCH   9  55
TORSDOF 17
