REMARK  1 active torsions:
REMARK  status: ('A' for Active; 'I' for Inactive)
REMARK    1  A    between atoms: C7_7  and  C9_9 
REMARK       I    between atoms: C9_9  and  N1_10 
ROOT
HETATM    1  C1  UNL     1      -2.744  -0.139  -0.032  1.00  0.00     0.015 C 
HETATM    2  C2  UNL     1      -1.229  -0.414  -0.167  1.00  0.00    -0.038 C 
HETATM    3  C3  UNL     1      -1.110  -1.879  -0.610  1.00  0.00     0.015 C 
HETATM    4  C4  UNL     1      -0.423   0.869  -0.734  1.00  0.00     0.012 C 
HETATM    5  C5  UNL     1      -0.593   1.437   0.742  1.00  0.00     0.013 C 
HETATM    6  C6  UNL     1      -0.179  -0.062   0.977  1.00  0.00     0.012 C 
HETATM    7  C7  UNL     1       0.932   0.246  -0.185  1.00  0.00     0.046 C 
HETATM    8  C8  UNL     1       1.584  -0.766  -1.131  1.00  0.00     0.026 C 
ENDROOT
BRANCH   7   9
HETATM    9  C9  UNL     1       2.102   1.254   0.256  1.00  0.00     0.224 C 
HETATM   10  N1  UNL     1       2.721   0.912   1.428  1.00  0.00    -0.369 N 
ATOM     11  H12 UNL     1       2.406   0.085   1.935  1.00  0.00     0.159 HD
ATOM     12  H11 UNL     1       3.464   1.552   1.708  1.00  0.00     0.159 HD
HETATM   13  O1  UNL     1       2.482   2.251  -0.355  1.00  0.00    -0.273 OA
ENDBRANCH   7   9
TORSDOF 1
