REMARK  1 active torsions:
REMARK  status: ('A' for Active; 'I' for Inactive)
REMARK    1  A    between atoms: C1_2  and  C2_4 
ROOT
HETATM    1  C2  UNL     1      -0.609   0.030  -0.084  1.00  0.00     0.056 C 
HETATM    2  C3  UNL     1      -0.584  -1.511  -0.214  1.00  0.00     0.026 C 
HETATM    3  C4  UNL     1       0.947  -1.290  -0.279  1.00  0.00    -0.007 C 
HETATM    4  C5  UNL     1       1.345  -0.774   1.092  1.00  0.00     0.011 C 
HETATM    5  C6  UNL     1       0.504   0.477   0.918  1.00  0.00     0.006 C 
HETATM    6  C7  UNL     1       1.130   1.233  -0.288  1.00  0.00     0.012 C 
HETATM    7  C8  UNL     1       0.606   0.010  -1.069  1.00  0.00     0.009 C 
ENDROOT
BRANCH   1   8
HETATM    8  C1  UNL     1      -1.869   0.842  -0.381  1.00  0.00     0.182 C 
HETATM    9  O1  UNL     1      -2.440   0.981  -1.456  1.00  0.00    -0.647 OA
HETATM   10  O2  UNL     1      -2.379   1.466   0.707  1.00  0.00    -0.647 OA
ENDBRANCH   1   8
TORSDOF 1
