REMARK  2 active torsions:
REMARK  status: ('A' for Active; 'I' for Inactive)
REMARK    1  A    between atoms: C1_4  and  O1_5 
REMARK    2  A    between atoms: C1_4  and  C2_7 
ROOT
HETATM    1  C2  UNL     1       1.380   0.091   0.563  1.00  0.00     0.115 C 
HETATM    2  C3  UNL     1       0.953   0.863   1.766  1.00  0.00     0.046 C 
HETATM    3  C4  UNL     1      -0.508   0.922   1.406  1.00  0.00    -0.001 C 
HETATM    4  C5  UNL     1      -0.635   1.913   0.042  1.00  0.00     0.006 C 
HETATM    5  C6  UNL     1      -0.943   1.104  -1.274  1.00  0.00     0.013 C 
HETATM    6  C7  UNL     1      -1.080  -0.271  -0.750  1.00  0.00     0.007 C 
HETATM    7  C8  UNL     1      -1.618  -1.579  -1.144  1.00  0.00     0.070 C 
HETATM    8 BR1  UNL     1      -0.668  -2.454  -2.549  1.00  0.00    -0.090 Br
HETATM    9  C9  UNL     1      -1.438  -2.091   0.335  1.00  0.00     0.029 C 
HETATM   10  C10 UNL     1      -1.039  -0.703   1.256  1.00  0.00    -0.002 C 
HETATM   11  C11 UNL     1      -2.147  -0.062   0.445  1.00  0.00     0.079 C 
HETATM   12 BR2  UNL     1      -4.045  -0.626   0.510  1.00  0.00    -0.089 Br
HETATM   13  C12 UNL     1       0.084  -0.723   0.205  1.00  0.00     0.093 C 
HETATM   14  C13 UNL     1       1.208  -1.876   0.097  1.00  0.00     0.232 C 
HETATM   15  O2  UNL     1       1.483  -2.922  -0.431  1.00  0.00    -0.273 OA
HETATM   16  N2  UNL     1       1.986  -1.196   0.978  1.00  0.00    -0.342 N 
ATOM     17  H2  UNL     1       2.701  -1.464   1.654  1.00  0.00     0.163 HD
ENDROOT
BRANCH   1  18
HETATM   18  C1  UNL     1       2.270   0.809  -0.517  1.00  0.00     0.139 C 
HETATM   19  N1  UNL     1       3.029   1.812  -0.266  1.00  0.00    -0.382 N 
ATOM     20  H12 UNL     1       3.606   2.278  -0.966  1.00  0.00     0.158 HD
ATOM     21  H11 UNL     1       3.048   2.218   0.670  1.00  0.00     0.158 HD
BRANCH  18  22
HETATM   22  O1  UNL     1       2.245   0.275  -1.749  1.00  0.00    -0.348 OA
ATOM     23  H1  UNL     1       1.683  -0.468  -1.935  1.00  0.00     0.219 HD
ENDBRANCH  18  22
ENDBRANCH   1  18
TORSDOF 2
