REMARK  4 active torsions:
REMARK  status: ('A' for Active; 'I' for Inactive)
REMARK    1  A    between atoms: C2_2  and  C4_4 
REMARK    2  A    between atoms: C4_4  and  C5_6 
REMARK    3  A    between atoms: C5_6  and  C6_7 
REMARK    4  A    between atoms: C6_7  and  C7_8 
ROOT
HETATM    1  C7  UNL     1      -0.163  -1.400   0.977  1.00  0.00     0.273 C 
HETATM    2  O2  UNL     1       0.523  -2.455   0.276  1.00  0.00    -0.289 OA
HETATM    3  C8  UNL     1       0.837  -2.147  -1.023  1.00  0.00     0.269 C 
HETATM    4  O3  UNL     1       0.021  -2.296  -1.929  1.00  0.00    -0.264 OA
HETATM    5  C9  UNL     1       2.343  -1.679  -1.173  1.00  0.00     0.050 C 
HETATM    6  C10 UNL     1       3.196  -2.812  -1.755  1.00  0.00     0.026 C 
HETATM    7  C11 UNL     1       2.960  -1.053   0.094  1.00  0.00     0.062 C 
HETATM    8  C12 UNL     1       2.893   0.359  -0.548  1.00  0.00     0.116 C 
HETATM    9  C13 UNL     1       2.632  -0.322  -1.901  1.00  0.00     0.062 C 
HETATM   10  O4  UNL     1       4.124   1.061  -0.281  1.00  0.00    -0.225 OA
HETATM   11  O5  UNL     1       3.889   1.514   1.118  1.00  0.00    -0.199 OA
HETATM   12  C14 UNL     1       2.460   1.824   1.168  1.00  0.00     0.211 C 
HETATM   13  C15 UNL     1       2.270   3.199   1.781  1.00  0.00     0.083 C 
HETATM   14  O6  UNL     1       1.610   0.807   1.865  1.00  0.00    -0.321 OA
HETATM   15  C16 UNL     1       0.653   0.934   0.764  1.00  0.00     0.283 C 
HETATM   16  O7  UNL     1      -0.087  -0.186   0.272  1.00  0.00    -0.330 OA
HETATM   17  C17 UNL     1       1.775   1.381  -0.157  1.00  0.00     0.099 C 
HETATM   18  C18 UNL     1       1.421   2.460  -1.162  1.00  0.00     0.029 C 
ENDROOT
BRANCH   1  19
HETATM   19  C6  UNL     1      -1.628  -1.826   1.132  1.00  0.00     0.069 C 
BRANCH  19  20
HETATM   20  C5  UNL     1      -2.498  -0.793   1.840  1.00  0.00     0.083 C 
BRANCH  20  21
HETATM   21  C4  UNL     1      -3.111   0.228   0.893  1.00  0.00     0.130 C 
HETATM   22  O1  UNL     1      -2.622   1.355   0.784  1.00  0.00    -0.298 OA
BRANCH  21  23
HETATM   23  C2  UNL     1      -4.351  -0.193   0.103  1.00  0.00     0.047 C 
HETATM   24  C1  UNL     1      -5.431   0.880   0.226  1.00  0.00     0.017 C 
HETATM   25  C3  UNL     1      -4.009  -0.431  -1.363  1.00  0.00     0.017 C 
ENDBRANCH  21  23
ENDBRANCH  20  21
ENDBRANCH  19  20
ENDBRANCH   1  19
TORSDOF 4
