REMARK  8 active torsions:
REMARK  status: ('A' for Active; 'I' for Inactive)
REMARK    1  A    between atoms: C2_2  and  C3_3 
REMARK    2  A    between atoms: C3_3  and  N1_4 
REMARK       I    between atoms: N1_4  and  C4_6 
REMARK    3  A    between atoms: C4_6  and  C5_8 
REMARK    4  A    between atoms: C10_13  and  C11_14 
REMARK    5  A    between atoms: C11_14  and  O2_15 
REMARK    6  A    between atoms: C23_28  and  C24_29 
REMARK       I    between atoms: C24_29  and  N2_31 
REMARK    7  A    between atoms: C27_34  and  C28_35 
REMARK       I    between atoms: C28_35  and  N3_37 
REMARK    8  A    between atoms: N3_37  and  C29_39 
ROOT
HETATM    1  C5  UNL     1      -2.800  -0.506  -2.061  1.00  0.00     0.086 C 
HETATM    2  C6  UNL     1      -1.649  -1.314  -2.686  1.00  0.00     0.020 C 
HETATM    3  C7  UNL     1      -1.282  -2.354  -1.668  1.00  0.00     0.002 C 
HETATM    4  C8  UNL     1      -2.595  -2.709  -0.896  1.00  0.00     0.000 C 
HETATM    5  C9  UNL     1      -1.584  -3.190   0.238  1.00  0.00     0.018 C 
HETATM    6  C10 UNL     1      -0.526  -2.106  -0.268  1.00  0.00    -0.011 C 
HETATM    7  C12 UNL     1      -0.535  -0.790   0.594  1.00  0.00    -0.002 C 
HETATM    8  C13 UNL     1      -0.054   0.516  -0.019  1.00  0.00     0.011 C 
HETATM    9  C14 UNL     1      -0.663   1.820   0.648  1.00  0.00    -0.000 C 
HETATM   10  C15 UNL     1      -1.720   2.445  -0.255  1.00  0.00     0.006 C 
HETATM   11  C16 UNL     1      -2.989   1.747   0.162  1.00  0.00     0.011 C 
HETATM   12  C17 UNL     1      -2.625   0.709   1.260  1.00  0.00    -0.028 C 
HETATM   13  C18 UNL     1      -4.018   0.094   1.467  1.00  0.00     0.011 C 
HETATM   14  C19 UNL     1      -4.472  -0.899   0.188  1.00  0.00     0.011 C 
HETATM   15  C20 UNL     1      -3.626  -1.486  -1.145  1.00  0.00    -0.028 C 
HETATM   16  C21 UNL     1      -4.787  -2.097  -1.993  1.00  0.00     0.016 C 
HETATM   17  C22 UNL     1      -1.873  -0.617   1.228  1.00  0.00     0.015 C 
HETATM   18  C23 UNL     1      -1.539   1.609   1.957  1.00  0.00     0.090 C 
ENDROOT
BRANCH  18  19
HETATM   19  C24 UNL     1      -0.750   1.105   3.178  1.00  0.00     0.225 C 
HETATM   20  O3  UNL     1      -1.314   0.358   3.990  1.00  0.00    -0.273 OA
HETATM   21  N2  UNL     1       0.569   1.489   3.387  1.00  0.00    -0.352 N 
HETATM   22  C25 UNL     1       1.262   2.683   2.900  1.00  0.00     0.126 C 
HETATM   23  C34 UNL     1       1.378   0.662   4.284  1.00  0.00     0.126 C 
HETATM   24  C26 UNL     1       2.483   2.304   2.026  1.00  0.00     0.034 C 
HETATM   25  C27 UNL     1       2.967   0.870   2.327  1.00  0.00     0.081 C 
HETATM   26  C33 UNL     1       2.845   0.602   3.833  1.00  0.00     0.034 C 
BRANCH  25  27
HETATM   27  C28 UNL     1       4.375   0.563   1.834  1.00  0.00     0.222 C 
HETATM   28  O4  UNL     1       5.377   0.843   2.499  1.00  0.00    -0.273 OA
HETATM   29  N3  UNL     1       4.417  -0.085   0.607  1.00  0.00    -0.353 N 
ATOM     30  H3  UNL     1       3.627   0.039  -0.026  1.00  0.00     0.163 HD
BRANCH  29  31
HETATM   31  C29 UNL     1       5.539  -0.947   0.159  1.00  0.00     0.022 C 
HETATM   32  C30 UNL     1       5.513  -2.249   0.978  1.00  0.00     0.037 C 
HETATM   33  C31 UNL     1       5.344  -1.287  -1.327  1.00  0.00     0.037 C 
HETATM   34  C32 UNL     1       6.919  -0.283   0.278  1.00  0.00     0.037 C 
ENDBRANCH  29  31
ENDBRANCH  25  27
ENDBRANCH  18  19
BRANCH   6  35
HETATM   35  C11 UNL     1       0.875  -2.752  -0.192  1.00  0.00     0.174 C 
BRANCH  35  36
HETATM   36  O2  UNL     1       1.867  -1.890  -0.739  1.00  0.00    -0.400 OA
ATOM     37  H2  UNL     1       2.729  -2.287  -0.692  1.00  0.00     0.209 HD
ENDBRANCH  35  36
ENDBRANCH   6  35
BRANCH   1  38
HETATM   38  C4  UNL     1      -3.445   0.242  -3.247  1.00  0.00     0.222 C 
HETATM   39  N1  UNL     1      -3.186   1.588  -3.258  1.00  0.00    -0.357 N 
ATOM     40  H1  UNL     1      -3.011   2.046  -2.364  1.00  0.00     0.162 HD
HETATM   41  O1  UNL     1      -3.997  -0.319  -4.188  1.00  0.00    -0.273 OA
BRANCH  39  42
HETATM   42  C3  UNL     1      -3.144   2.397  -4.446  1.00  0.00     0.149 C 
BRANCH  42  43
HETATM   43  C2  UNL     1      -2.032   3.399  -4.239  1.00  0.00    -0.018 C 
HETATM   44  C1  UNL     1      -0.767   3.067  -3.935  1.00  0.00     0.008 C 
ENDBRANCH  42  43
ENDBRANCH  39  42
ENDBRANCH   1  38
TORSDOF 8
