REMARK  6 active torsions:
REMARK  status: ('A' for Active; 'I' for Inactive)
REMARK       I    between atoms: C1_2  and  N1_3 
REMARK       I    between atoms: C1_2  and  N2_12 
REMARK    1  A    between atoms: N1_3  and  C2_5 
REMARK    2  A    between atoms: N2_12  and  C9_14 
REMARK    3  A    between atoms: C20_27  and  C21_28 
REMARK    4  A    between atoms: C21_28  and  S1_29 
REMARK    5  A    between atoms: S1_29  and  N4_32 
REMARK    6  A    between atoms: C24_35  and  N5_36 
ROOT
HETATM    1  C9  UNL     1      -2.156   1.403  -0.190  1.00  0.00     0.005 C 
HETATM    2  C10 UNL     1      -3.343   1.983  -1.084  1.00  0.00     0.093 C 
HETATM    3  C11 UNL     1      -4.069   3.058  -0.353  1.00  0.00    -0.036 C 
HETATM    4  C12 UNL     1      -5.091   2.895   0.572  1.00  0.00     0.095 C 
HETATM    5  N3  UNL     1      -4.702   3.712   1.625  1.00  0.00    -0.369 N 
ATOM      6  H3  UNL     1      -5.231   3.951   2.464  1.00  0.00     0.165 HD
HETATM    7  C13 UNL     1      -3.431   4.127   1.272  1.00  0.00     0.009 C 
HETATM    8  C14 UNL     1      -3.525   4.336  -0.089  1.00  0.00     0.033 C 
HETATM    9  C15 UNL     1      -2.231   3.809   2.081  1.00  0.00     0.062 C 
HETATM   10  C16 UNL     1      -0.965   3.543   1.218  1.00  0.00     0.006 C 
HETATM   11  C17 UNL     1       0.186   3.292   2.219  1.00  0.00     0.006 C 
HETATM   12  C18 UNL     1       0.275   1.786   2.296  1.00  0.00     0.002 C 
HETATM   13  C19 UNL     1       0.183   1.394   0.833  1.00  0.00     0.017 C 
HETATM   14  C20 UNL     1      -0.879   2.325   0.168  1.00  0.00     0.017 C 
ENDROOT
BRANCH  14  15
HETATM   15  C21 UNL     1      -0.442   2.828  -1.255  1.00  0.00     0.179 C 
BRANCH  15  16
HETATM   16  S1  UNL     1       1.182   3.423  -1.663  1.00  0.00     0.229 S 
HETATM   17  O2  UNL     1       1.571   4.413  -0.682  1.00  0.00    -0.206 OA
HETATM   18  O3  UNL     1       1.172   3.760  -3.071  1.00  0.00    -0.206 OA
BRANCH  16  19
HETATM   19  N4  UNL     1       2.201   2.100  -1.515  1.00  0.00    -0.311 N 
HETATM   20  C22 UNL     1       1.945   0.855  -2.266  1.00  0.00     0.137 C 
HETATM   21  C23 UNL     1       2.526  -0.299  -1.443  1.00  0.00     0.056 C 
HETATM   22  C24 UNL     1       4.012  -0.085  -1.080  1.00  0.00     0.226 C 
HETATM   23  C30 UNL     1       4.293   1.350  -0.580  1.00  0.00     0.056 C 
HETATM   24  C31 UNL     1       3.655   2.389  -1.495  1.00  0.00     0.137 C 
BRANCH  22  25
HETATM   25  N5  UNL     1       4.421  -1.161  -0.150  1.00  0.00     0.093 N 
HETATM   26  C25 UNL     1       5.793  -1.634  -0.387  1.00  0.00     0.273 C 
HETATM   27  C26 UNL     1       6.382  -2.435   0.789  1.00  0.00     0.030 C 
HETATM   28  C27 UNL     1       5.299  -3.193   1.544  1.00  0.00     0.003 C 
HETATM   29  C28 UNL     1       4.210  -2.240   2.044  1.00  0.00     0.030 C 
HETATM   30  C29 UNL     1       4.175  -0.915   1.271  1.00  0.00     0.273 C 
ENDBRANCH  22  25
ENDBRANCH  16  19
ENDBRANCH  15  16
ENDBRANCH  14  15
BRANCH   1  31
HETATM   31  N2  UNL     1      -2.674   0.615   0.945  1.00  0.00    -0.315 N 
HETATM   32  C1  UNL     1      -3.269  -0.592   0.644  1.00  0.00     0.320 C 
HETATM   33  O1  UNL     1      -4.476  -0.746   0.768  1.00  0.00    -0.247 OA
HETATM   34  N1  UNL     1      -2.380  -1.528   0.191  1.00  0.00    -0.338 N 
ATOM     35  H1  UNL     1      -1.588  -1.767   0.788  1.00  0.00     0.164 HD
ATOM     36  H2  UNL     1      -2.596   0.947   1.906  1.00  0.00     0.170 HD
BRANCH  34  37
HETATM   37  C2  UNL     1      -2.497  -2.205  -1.096  1.00  0.00     0.086 C 
HETATM   38  C3  UNL     1      -1.442  -3.314  -1.248  1.00  0.00     0.025 C 
HETATM   39  C4  UNL     1      -1.563  -4.498  -0.295  1.00  0.00     0.002 C 
HETATM   40  C5  UNL     1      -2.868  -5.277  -0.423  1.00  0.00     0.000 C 
HETATM   41  C6  UNL     1      -4.045  -4.553   0.218  1.00  0.00     0.000 C 
HETATM   42  C7  UNL     1      -4.745  -3.543  -0.680  1.00  0.00     0.002 C 
HETATM   43  C8  UNL     1      -3.891  -2.639  -1.564  1.00  0.00     0.025 C 
ENDBRANCH  34  37
ENDBRANCH   1  31
TORSDOF 6
