REMARK  9 active torsions:
REMARK  status: ('A' for Active; 'I' for Inactive)
REMARK    1  A    between atoms: C2_2  and  S1_3 
REMARK    2  A    between atoms: S1_3  and  O3_6 
REMARK    3  A    between atoms: O3_6  and  C3_7 
REMARK    4  A    between atoms: C3_7  and  C4_8 
REMARK    5  A    between atoms: C4_8  and  C5_9 
REMARK    6  A    between atoms: C6_10  and  C7_11 
REMARK    7  A    between atoms: C6_10  and  C8_14 
REMARK    8  A    between atoms: C11_17  and  C17_25 
REMARK    9  A    between atoms: C15_21  and  O6_22 
ROOT
HETATM    1  C5  UNL     1       0.582  -1.129   0.446  1.00  0.00     0.020 C 
HETATM    2  C6  UNL     1       1.907  -1.101  -0.422  1.00  0.00     0.064 C 
HETATM    3  C8  UNL     1       2.909  -0.499   0.635  1.00  0.00     0.046 A 
HETATM    4  C9  UNL     1       3.550   0.824   0.229  1.00  0.00     0.007 A 
HETATM    5  C10 UNL     1       2.917   1.634  -0.841  1.00  0.00     0.005 C 
HETATM    6  C11 UNL     1       1.848   1.171  -1.758  1.00  0.00    -0.002 C 
HETATM    7  C12 UNL     1       1.096   2.421  -1.177  1.00  0.00     0.016 C 
HETATM    8  C13 UNL     1       1.531   1.830   0.159  1.00  0.00    -0.017 A 
HETATM    9  C14 UNL     1       2.609   1.606   1.156  1.00  0.00     0.036 A 
HETATM   10  C15 UNL     1       1.941   0.322   1.504  1.00  0.00     0.077 A 
HETATM   11  C16 UNL     1       0.724   0.484   0.444  1.00  0.00     0.010 A 
HETATM   12  C17 UNL     1       1.114   0.005  -1.128  1.00  0.00     0.023 C 
ENDROOT
BRANCH   1  13
HETATM   13  C4  UNL     1      -0.752  -1.768   0.015  1.00  0.00     0.034 C 
BRANCH  13  14
HETATM   14  C3  UNL     1      -1.867  -1.392   0.988  1.00  0.00     0.190 C 
BRANCH  14  15
HETATM   15  O3  UNL     1      -3.102  -1.680   0.355  1.00  0.00    -0.276 OA
BRANCH  15  16
HETATM   16  S1  UNL     1      -4.482  -1.073   0.968  1.00  0.00     0.264 S 
HETATM   17  O1  UNL     1      -4.211  -0.407   2.226  1.00  0.00    -0.199 OA
HETATM   18  O2  UNL     1      -5.506  -2.088   0.854  1.00  0.00    -0.199 OA
BRANCH  16  19
HETATM   19  C2  UNL     1      -4.769   0.159  -0.295  1.00  0.00     0.166 C 
HETATM   20  C1  UNL     1      -3.822   1.339  -0.200  1.00  0.00     0.023 C 
ENDBRANCH  16  19
ENDBRANCH  15  16
ENDBRANCH  14  15
ENDBRANCH  13  14
ENDBRANCH   1  13
BRANCH   2  21
HETATM   21  C7  UNL     1       2.298  -2.400  -1.154  1.00  0.00     0.183 C 
HETATM   22  O4  UNL     1       2.024  -3.538  -0.784  1.00  0.00    -0.647 OA
HETATM   23  O5  UNL     1       2.992  -2.200  -2.304  1.00  0.00    -0.647 OA
ENDBRANCH   2  21
BRANCH  10  24
HETATM   24  O6  UNL     1       1.698  -0.010   2.869  1.00  0.00    -0.388 OA
ATOM     25  H6  UNL     1       1.100   0.497   3.406  1.00  0.00     0.210 HD
ENDBRANCH  10  24
TORSDOF 9
