REMARK  2 active torsions:
REMARK  status: ('A' for Active; 'I' for Inactive)
REMARK    1  A    between atoms: N4_10  and  C5_11 
REMARK    2  A    between atoms: N5_17  and  C11_19 
ROOT
HETATM    1  C1  UNL     1       0.432  -0.842   1.912  1.00  0.00     0.110 C 
HETATM    2  C2  UNL     1       1.742  -0.971   1.646  1.00  0.00     0.153 C 
HETATM    3  N1  UNL     1       2.327  -1.486   0.482  1.00  0.00    -0.202 N 
HETATM    4  N2  UNL     1       1.527  -2.451  -0.129  1.00  0.00    -0.261 N 
ATOM      5  H2  UNL     1       1.588  -3.459   0.016  1.00  0.00     0.191 HD
HETATM    6  C3  UNL     1       0.687  -1.842  -0.918  1.00  0.00     0.167 C 
HETATM    7  N3  UNL     1       1.178  -1.172  -2.024  1.00  0.00    -0.333 N 
ATOM      8  H3  UNL     1       0.733  -1.142  -2.941  1.00  0.00     0.168 HD
HETATM    9  C4  UNL     1       2.290  -0.589  -1.714  1.00  0.00     0.204 C 
HETATM   10  N4  UNL     1       2.938  -0.661  -0.485  1.00  0.00    -0.262 N 
HETATM   11  C10 UNL     1      -0.654  -1.403  -0.272  1.00  0.00     0.147 C 
HETATM   12  N5  UNL     1      -1.631  -1.286  -1.109  1.00  0.00    -0.369 N 
ATOM     13  H5  UNL     1      -1.570  -1.717  -2.031  1.00  0.00     0.161 HD
HETATM   14  N6  UNL     1      -0.648  -1.066   1.081  1.00  0.00    -0.348 N 
ATOM     15  H6  UNL     1      -1.566  -0.972   1.516  1.00  0.00     0.167 HD
ENDROOT
BRANCH  12  16
HETATM   16  C11 UNL     1      -2.822  -0.535  -0.730  1.00  0.00     0.083 C 
HETATM   17  C12 UNL     1      -3.875  -1.449  -0.099  1.00  0.00     0.025 C 
HETATM   18  C13 UNL     1      -5.300  -0.902  -0.258  1.00  0.00     0.002 C 
HETATM   19  C14 UNL     1      -5.337   0.609  -0.488  1.00  0.00     0.000 C 
HETATM   20  C15 UNL     1      -4.579   1.006  -1.752  1.00  0.00     0.002 C 
HETATM   21  C16 UNL     1      -3.345   0.143  -2.006  1.00  0.00     0.025 C 
ENDBRANCH  12  16
BRANCH  10  22
HETATM   22  C5  UNL     1       3.947   0.349  -0.161  1.00  0.00     0.111 C 
HETATM   23  C6  UNL     1       4.853   0.072   1.045  1.00  0.00     0.027 C 
HETATM   24  C7  UNL     1       4.690   1.289   1.964  1.00  0.00     0.002 C 
HETATM   25  C8  UNL     1       4.220   2.414   1.048  1.00  0.00     0.002 C 
HETATM   26  C9  UNL     1       3.270   1.704   0.107  1.00  0.00     0.027 C 
ENDBRANCH  10  22
TORSDOF 2
