REMARK  1 active torsions:
REMARK  status: ('A' for Active; 'I' for Inactive)
REMARK    1  A    between atoms: N1_1  and  C1_5 
ROOT
HETATM    1  C1  UNL     1       0.995   0.531  -0.070  1.00  0.00     0.128 C 
HETATM    2  C2  UNL     1      -0.010   1.645  -0.322  1.00  0.00     0.039 C 
HETATM    3  C3  UNL     1      -1.475   1.215  -0.362  1.00  0.00     0.003 C 
HETATM    4  C4  UNL     1      -1.882   0.055   0.541  1.00  0.00     0.005 C 
HETATM    5  C5  UNL     1      -1.067  -1.218   0.304  1.00  0.00    -0.010 C 
HETATM    6  C6  UNL     1      -0.456  -1.432  -1.107  1.00  0.00     0.012 C 
HETATM    7  C7  UNL     1       0.893  -0.948  -0.563  1.00  0.00     0.026 C 
HETATM    8  C8  UNL     1       0.384  -1.317   0.850  1.00  0.00    -0.002 C 
HETATM    9  C9  UNL     1       1.005  -0.024   1.384  1.00  0.00     0.044 C 
ENDROOT
BRANCH   1  10
HETATM   10  N1  UNL     1       2.363   0.988  -0.362  1.00  0.00    -0.070 N 
ATOM     11  H13 UNL     1       2.443   1.362  -1.308  1.00  0.00     0.275 HD
ATOM     12  H12 UNL     1       2.598   1.834   0.158  1.00  0.00     0.275 HD
ATOM     13  H11 UNL     1       3.037   0.241  -0.193  1.00  0.00     0.275 HD
ENDBRANCH   1  10
TORSDOF 1
