REMARK  10 active torsions:
REMARK  status: ('A' for Active; 'I' for Inactive)
REMARK    1  A    between atoms: C3_3  and  C19_29 
REMARK    2  A    between atoms: C4_6  and  C5_7 
REMARK    3  A    between atoms: C5_7  and  C6_8 
REMARK    4  A    between atoms: C6_8  and  C7_9 
REMARK    5  A    between atoms: C7_9  and  C8_10 
REMARK    6  A    between atoms: C8_10  and  C9_11 
REMARK    7  A    between atoms: C9_11  and  C10_12 
REMARK    8  A    between atoms: C10_12  and  C11_13 
REMARK    9  A    between atoms: C11_13  and  C12_14 
REMARK   10  A    between atoms: C16_24  and  C17_26 
ROOT
HETATM    1  C7  UNL     1       0.950  -3.287   0.273  1.00  0.00     0.000 C 
ENDROOT
BRANCH   1   2
HETATM    2  C6  UNL     1       1.505  -2.110  -0.534  1.00  0.00     0.002 C 
BRANCH   2   3
HETATM    3  C5  UNL     1       2.281  -1.117   0.350  1.00  0.00     0.027 C 
BRANCH   3   4
HETATM    4  C4  UNL     1       2.342   0.266  -0.318  1.00  0.00     0.104 C 
HETATM    5  N1  UNL     1       1.166   1.099   0.218  1.00  0.00    -0.410 N 
HETATM    6  C3  UNL     1       1.881   2.081   0.709  1.00  0.00     0.090 C 
ATOM      7  H1  UNL     1       0.159   0.939   0.198  1.00  0.00     0.154 HD
HETATM    8  C2  UNL     1       3.158   1.664   1.406  1.00  0.00     0.033 C 
HETATM    9  C1  UNL     1       3.977   2.743   2.092  1.00  0.00     0.014 C 
HETATM   10  C16 UNL     1       3.579   1.197  -0.001  1.00  0.00     0.098 C 
HETATM   11 CL1  UNL     1       5.160   0.458  -0.107  1.00  0.00    -0.113 Cl
BRANCH   6  12
HETATM   12  C19 UNL     1       2.213   3.160  -0.278  1.00  0.00     0.053 A 
HETATM   13  C17 UNL     1       3.475   2.503  -0.857  1.00  0.00     0.133 A 
HETATM   14  F1  UNL     1       4.595   3.327  -0.901  1.00  0.00    -0.240 F 
HETATM   15  C18 UNL     1       2.327   2.905  -1.754  1.00  0.00     0.056 A 
ENDBRANCH   6  12
ENDBRANCH   3   4
ENDBRANCH   2   3
ENDBRANCH   1   2
BRANCH   1  16
HETATM   16  C8  UNL     1      -0.494  -3.045   0.741  1.00  0.00     0.000 C 
BRANCH  16  17
HETATM   17  C9  UNL     1      -1.510  -3.394  -0.354  1.00  0.00     0.000 C 
BRANCH  17  18
HETATM   18  C10 UNL     1      -2.962  -3.176   0.081  1.00  0.00     0.002 C 
BRANCH  18  19
HETATM   19  C11 UNL     1      -3.679  -1.999  -0.599  1.00  0.00     0.043 C 
BRANCH  19  20
HETATM   20  C12 UNL     1      -3.271  -0.612  -0.069  1.00  0.00     0.277 C 
HETATM   21  N2  UNL     1      -4.510   0.193   0.153  1.00  0.00    -0.061 N 
HETATM   22  C13 UNL     1      -4.140   1.515   0.678  1.00  0.00     0.253 C 
ATOM     23  H22 UNL     1      -5.086   0.257  -0.687  1.00  0.00     0.278 HD
ATOM     24  H21 UNL     1      -5.182  -0.287   0.752  1.00  0.00     0.278 HD
HETATM   25  C14 UNL     1      -3.267   2.283  -0.319  1.00  0.00     0.150 C 
HETATM   26  N3  UNL     1      -2.179   1.487  -0.845  1.00  0.00    -0.358 N 
HETATM   27  C15 UNL     1      -2.302   0.129  -1.032  1.00  0.00     0.248 C 
ATOM     28  H3  UNL     1      -1.299   1.944  -1.083  1.00  0.00     0.162 HD
HETATM   29  O1  UNL     1      -1.614  -0.425  -1.886  1.00  0.00    -0.271 OA
ENDBRANCH  19  20
ENDBRANCH  18  19
ENDBRANCH  17  18
ENDBRANCH  16  17
ENDBRANCH   1  16
TORSDOF 10
