REMARK  9 active torsions:
REMARK  status: ('A' for Active; 'I' for Inactive)
REMARK    1  A    between atoms: C2_2  and  C3_3 
REMARK    2  A    between atoms: C3_3  and  C4_4 
REMARK    3  A    between atoms: C6_6  and  C7_7 
REMARK    4  A    between atoms: C7_7  and  C8_8 
REMARK    5  A    between atoms: C15_16  and  O2_17 
REMARK    6  A    between atoms: C16_19  and  O3_20 
REMARK    7  A    between atoms: C20_26  and  O5_27 
REMARK    8  A    between atoms: C22_31  and  O7_32 
REMARK    9  A    between atoms: C24_34  and  O8_35 
ROOT
HETATM    1  C7  UNL     1       0.074  -2.027   1.016  1.00  0.00     0.080 C 
HETATM    2  C10 UNL     1      -1.365  -1.465   0.647  1.00  0.00     0.074 C 
HETATM    3  C11 UNL     1      -1.716  -0.011   0.240  1.00  0.00     0.140 C 
HETATM    4  O1  UNL     1      -2.455   0.297  -0.957  1.00  0.00    -0.372 OA
HETATM    5  C12 UNL     1      -2.970   1.657  -0.979  1.00  0.00     0.082 C 
HETATM    6  C13 UNL     1      -4.099   1.680  -2.020  1.00  0.00     0.048 C 
HETATM    7  C14 UNL     1      -1.837   2.566  -1.478  1.00  0.00     0.048 C 
HETATM    8  C15 UNL     1      -3.560   2.110   0.416  1.00  0.00     0.181 C 
HETATM    9  C16 UNL     1      -2.765   1.572   1.641  1.00  0.00     0.159 C 
HETATM   10  C17 UNL     1      -2.668   0.078   1.451  1.00  0.00     0.084 C 
HETATM   11  C18 UNL     1      -1.818  -1.001   2.099  1.00  0.00     0.104 C 
HETATM   12  C19 UNL     1      -2.323  -2.231   2.812  1.00  0.00     0.213 C 
HETATM   13  O4  UNL     1      -1.090  -2.947   3.049  1.00  0.00    -0.329 OA
HETATM   14  C20 UNL     1      -0.054  -2.025   2.621  1.00  0.00     0.294 C 
HETATM   15  O6  UNL     1      -0.613  -0.730   2.828  1.00  0.00    -0.317 OA
ENDROOT
BRANCH   1  16
HETATM   16  C6  UNL     1       1.176  -1.103   0.427  1.00  0.00    -0.038 A 
HETATM   17  C5  UNL     1       1.179  -0.756  -0.940  1.00  0.00     0.018 A 
HETATM   18  C4  UNL     1       2.167   0.070  -1.513  1.00  0.00    -0.018 A 
HETATM   19  C24 UNL     1       3.188   0.584  -0.700  1.00  0.00     0.108 A 
HETATM   20  C22 UNL     1       3.223   0.252   0.657  1.00  0.00     0.102 A 
HETATM   21  C21 UNL     1       2.228  -0.575   1.205  1.00  0.00     0.048 A 
BRANCH  18  22
HETATM   22  C3  UNL     1       2.125   0.365  -2.996  1.00  0.00     0.068 C 
BRANCH  22  23
HETATM   23  C2  UNL     1       2.911  -0.633  -3.798  1.00  0.00    -0.032 C 
HETATM   24  C1  UNL     1       2.395  -1.383  -4.781  1.00  0.00     0.007 C 
ENDBRANCH  22  23
ENDBRANCH  18  22
BRANCH  19  25
HETATM   25  O8  UNL     1       4.146   1.349  -1.318  1.00  0.00    -0.353 OA
HETATM   26  C25 UNL     1       4.391   2.599  -0.674  1.00  0.00     0.210 C 
ENDBRANCH  19  25
BRANCH  20  27
HETATM   27  O7  UNL     1       4.305   0.661   1.396  1.00  0.00    -0.353 OA
HETATM   28  C23 UNL     1       3.963   1.267   2.638  1.00  0.00     0.210 C 
ENDBRANCH  20  27
ENDBRANCH   1  16
BRANCH   1  29
HETATM   29  C8  UNL     1       0.232  -3.506   0.549  1.00  0.00     0.019 C 
HETATM   30  C9  UNL     1       0.233  -3.774  -0.952  1.00  0.00     0.006 C 
ENDBRANCH   1  29
BRANCH  14  31
HETATM   31  O5  UNL     1       1.092  -2.291   3.369  1.00  0.00    -0.342 OA
ATOM     32  H5  UNL     1       1.016  -2.290   4.316  1.00  0.00     0.215 HD
ENDBRANCH  14  31
BRANCH   9  33
HETATM   33  O3  UNL     1      -3.477   1.852   2.846  1.00  0.00    -0.392 OA
ATOM     34  H3  UNL     1      -2.992   1.524   3.594  1.00  0.00     0.210 HD
ENDBRANCH   9  33
BRANCH   8  35
HETATM   35  O2  UNL     1      -3.662   3.534   0.533  1.00  0.00    -0.390 OA
ATOM     36  H2  UNL     1      -4.017   3.806   1.371  1.00  0.00     0.210 HD
ENDBRANCH   8  35
TORSDOF 9
