REMARK  9 active torsions:
REMARK  status: ('A' for Active; 'I' for Inactive)
REMARK    1  A    between atoms: O1_2  and  C2_3 
REMARK    2  A    between atoms: C2_3  and  C4_5 
REMARK    3  A    between atoms: C4_5  and  O2_6 
REMARK    4  A    between atoms: C4_5  and  C5_8 
REMARK    5  A    between atoms: C5_8  and  N1_9 
REMARK    6  A    between atoms: N1_9  and  C6_11 
REMARK    7  A    between atoms: C6_11  and  C7_13 
REMARK    8  A    between atoms: C13_19  and  C25_33 
REMARK    9  A    between atoms: C16_22  and  O3_23 
ROOT
HETATM    1  C7  UNL     1       0.762   1.224   1.310  1.00  0.00     0.079 C 
HETATM    2  C8  UNL     1      -0.292   2.405   1.484  1.00  0.00     0.053 C 
HETATM    3  C9  UNL     1      -1.577   1.609   1.357  1.00  0.00     0.070 C 
HETATM    4  C10 UNL     1      -2.844   1.604   2.187  1.00  0.00     0.039 C 
HETATM    5  C11 UNL     1      -3.252   0.051   2.328  1.00  0.00     0.009 C 
HETATM    6  C12 UNL     1      -2.517  -1.033   1.359  1.00  0.00     0.005 C 
HETATM    7  C13 UNL     1      -0.796  -1.208   1.422  1.00  0.00    -0.010 C 
HETATM    8  C14 UNL     1      -0.588  -2.363   2.451  1.00  0.00     0.018 C 
HETATM    9  C15 UNL     1      -0.172  -1.666   0.109  1.00  0.00     0.044 C 
HETATM   10  C16 UNL     1      -0.607  -0.807  -1.063  1.00  0.00     0.124 C 
HETATM   11  C17 UNL     1      -1.981  -0.130  -0.876  1.00  0.00     0.034 C 
HETATM   12  C18 UNL     1      -3.009  -0.989  -0.119  1.00  0.00    -0.033 C 
HETATM   13  C19 UNL     1      -3.132  -2.442  -0.666  1.00  0.00     0.016 C 
HETATM   14  C20 UNL     1      -4.434  -0.414  -0.382  1.00  0.00     0.010 C 
HETATM   15  C21 UNL     1      -4.627   1.083  -0.253  1.00  0.00     0.002 C 
HETATM   16  C22 UNL     1      -3.404   1.912  -0.634  1.00  0.00     0.012 C 
HETATM   17  C23 UNL     1      -1.958   1.331  -0.274  1.00  0.00    -0.006 C 
HETATM   18  C24 UNL     1      -1.076   2.213  -1.233  1.00  0.00     0.019 C 
HETATM   19  C25 UNL     1       0.045   0.006   1.957  1.00  0.00     0.142 C 
HETATM   20  O4  UNL     1      -1.057   0.702   2.382  1.00  0.00    -0.372 OA
ENDROOT
BRANCH   1  21
HETATM   21  C6  UNL     1       2.125   1.457   1.991  1.00  0.00     0.080 C 
HETATM   22  S1  UNL     1       2.343   2.334   3.412  1.00  0.00    -0.065 SA
BRANCH  21  23
HETATM   23  N1  UNL     1       3.260   0.865   1.513  1.00  0.00    -0.381 N 
ATOM     24  H1  UNL     1       4.091   1.023   2.083  1.00  0.00     0.160 HD
BRANCH  23  25
HETATM   25  C5  UNL     1       3.490   0.042   0.322  1.00  0.00     0.154 C 
BRANCH  25  26
HETATM   26  C4  UNL     1       4.518   0.674  -0.640  1.00  0.00     0.164 C 
BRANCH  26  27
HETATM   27  C2  UNL     1       4.999  -0.367  -1.690  1.00  0.00     0.147 C 
HETATM   28  C3  UNL     1       5.952   0.239  -2.721  1.00  0.00     0.042 C 
BRANCH  27  29
HETATM   29  O1  UNL     1       3.862  -0.904  -2.381  1.00  0.00    -0.388 OA
HETATM   30  C1  UNL     1       3.980  -2.292  -2.660  1.00  0.00     0.202 C 
ENDBRANCH  27  29
ENDBRANCH  26  27
BRANCH  26  31
HETATM   31  O2  UNL     1       3.917   1.818  -1.258  1.00  0.00    -0.391 OA
ATOM     32  H2  UNL     1       3.623   2.454  -0.616  1.00  0.00     0.210 HD
ENDBRANCH  26  31
ENDBRANCH  25  26
ENDBRANCH  23  25
ENDBRANCH  21  23
ENDBRANCH   1  21
BRANCH  10  33
HETATM   33  O3  UNL     1      -0.653  -1.649  -2.223  1.00  0.00    -0.395 OA
ATOM     34  H3  UNL     1      -0.925  -1.111  -2.957  1.00  0.00     0.210 HD
ENDBRANCH  10  33
TORSDOF 9
