REMARK  11 active torsions:
REMARK  status: ('A' for Active; 'I' for Inactive)
REMARK    1  A    between atoms: C2_2  and  C3_3 
REMARK    2  A    between atoms: C3_3  and  N1_4 
REMARK       I    between atoms: N1_4  and  C4_6 
REMARK       I    between atoms: C4_6  and  N2_8 
REMARK    3  A    between atoms: C5_9  and  O2_10 
REMARK    4  A    between atoms: C9_15  and  C10_16 
REMARK    5  A    between atoms: C10_16  and  N3_17 
REMARK       I    between atoms: N3_17  and  C11_19 
REMARK    6  A    between atoms: C11_19  and  C12_21 
REMARK    7  A    between atoms: C12_21  and  C13_22 
REMARK    8  A    between atoms: C13_22  and  C14_23 
REMARK    9  A    between atoms: C14_23  and  N4_24 
REMARK   10  A    between atoms: C18_35  and  C19_36 
REMARK   11  A    between atoms: C19_36  and  N7_37 
ROOT
HETATM    1  N1  UNL     1      -3.517  -0.833   0.097  1.00  0.00    -0.343 N 
ATOM      2  H1  UNL     1      -3.330  -0.930   1.095  1.00  0.00     0.164 HD
HETATM    3  C4  UNL     1      -2.690  -1.420  -0.812  1.00  0.00     0.320 C 
HETATM    4  O1  UNL     1      -2.959  -1.540  -2.006  1.00  0.00    -0.247 OA
HETATM    5  N2  UNL     1      -1.467  -1.763  -0.292  1.00  0.00    -0.301 N 
HETATM    6  C5  UNL     1      -0.939  -1.439   1.017  1.00  0.00     0.230 C 
HETATM    7  C6  UNL     1       0.457  -2.019   0.908  1.00  0.00     0.053 C 
HETATM    8  C7  UNL     1       0.214  -3.240  -0.032  1.00  0.00     0.025 C 
HETATM    9  C8  UNL     1      -0.493  -2.424  -1.131  1.00  0.00     0.117 C 
HETATM   10  C9  UNL     1       0.699  -1.522  -1.579  1.00  0.00     0.088 C 
HETATM   11  C15 UNL     1       1.401  -2.221  -2.764  1.00  0.00     0.231 C 
HETATM   12  O4  UNL     1       1.597  -1.693  -3.862  1.00  0.00    -0.273 OA
HETATM   13  N6  UNL     1       1.763  -3.526  -2.556  1.00  0.00    -0.360 N 
ATOM     14  H6  UNL     1       1.623  -4.188  -3.319  1.00  0.00     0.162 HD
HETATM   15  C16 UNL     1       2.329  -4.021  -1.326  1.00  0.00     0.128 C 
HETATM   16  C17 UNL     1       1.744  -3.232  -0.183  1.00  0.00     0.022 C 
HETATM   17  C18 UNL     1       1.512  -1.639  -0.261  1.00  0.00     0.018 C 
ENDROOT
BRANCH  10  18
HETATM   18  C10 UNL     1       0.322  -0.105  -2.058  1.00  0.00     0.144 C 
BRANCH  18  19
HETATM   19  N3  UNL     1      -0.408   0.780  -1.157  1.00  0.00    -0.360 N 
HETATM   20  C11 UNL     1      -0.410   2.134  -1.457  1.00  0.00     0.217 C 
HETATM   21  O3  UNL     1       0.293   2.594  -2.365  1.00  0.00    -0.274 OA
ATOM     22  H3  UNL     1      -0.897   0.417  -0.339  1.00  0.00     0.162 HD
BRANCH  20  23
HETATM   23  C12 UNL     1      -1.315   3.015  -0.605  1.00  0.00     0.104 C 
BRANCH  23  24
HETATM   24  C13 UNL     1      -0.545   4.212  -0.039  1.00  0.00     0.030 C 
BRANCH  24  25
HETATM   25  C14 UNL     1       0.335   3.833   1.163  1.00  0.00     0.139 C 
BRANCH  25  26
HETATM   26  N4  UNL     1       1.728   4.303   0.957  1.00  0.00    -0.343 N 
HETATM   27  N5  UNL     1       2.659   3.699   1.539  1.00  0.00    -0.349 N 
ATOM     28  H52 UNL     1       2.447   2.902   2.139  1.00  0.00     0.176 HD
ATOM     29  H51 UNL     1       3.616   4.022   1.397  1.00  0.00     0.176 HD
ATOM     30  H4  UNL     1       1.923   5.102   0.354  1.00  0.00     0.179 HD
ENDBRANCH  25  26
ENDBRANCH  24  25
ENDBRANCH  23  24
ENDBRANCH  20  23
ENDBRANCH  18  19
ENDBRANCH  10  18
BRANCH  17  31
HETATM   31  C19 UNL     1       2.889  -0.975  -0.115  1.00  0.00     0.247 C 
BRANCH  31  32
HETATM   32  N7  UNL     1       3.142   0.329   0.624  1.00  0.00    -0.078 N 
HETATM   33  C20 UNL     1       4.508   0.324   1.304  1.00  0.00     0.271 C 
HETATM   34  C21 UNL     1       3.221   1.498  -0.362  1.00  0.00     0.271 C 
HETATM   35  C22 UNL     1       2.124   0.689   1.688  1.00  0.00     0.271 C 
ENDBRANCH  31  32
ENDBRANCH  17  31
BRANCH   6  36
HETATM   36  O2  UNL     1      -1.678  -2.150   1.991  1.00  0.00    -0.376 OA
ATOM     37  H2  UNL     1      -1.332  -1.937   2.850  1.00  0.00     0.212 HD
ENDBRANCH   6  36
BRANCH   1  38
HETATM   38  C3  UNL     1      -4.660  -0.072  -0.353  1.00  0.00     0.124 C 
BRANCH  38  39
HETATM   39  C2  UNL     1      -5.690   0.055   0.767  1.00  0.00     0.015 C 
HETATM   40  C1  UNL     1      -5.234   0.766   2.031  1.00  0.00     0.006 C 
ENDBRANCH  38  39
ENDBRANCH   1  38
TORSDOF 11
