REMARK  4 active torsions:
REMARK  status: ('A' for Active; 'I' for Inactive)
REMARK    1  A    between atoms: C4_4  and  O1_5 
REMARK    2  A    between atoms: C10_12  and  C15_17 
REMARK    3  A    between atoms: C16_19  and  O4_20 
REMARK    4  A    between atoms: O4_20  and  C17_21 
ROOT
HETATM    1  C1  UNL     1      -1.421  -2.860  -1.649  1.00  0.00     0.036 C 
HETATM    2  C2  UNL     1      -2.151  -1.741  -0.987  1.00  0.00    -0.022 C 
HETATM    3  C3  UNL     1      -1.651  -0.796  -0.171  1.00  0.00    -0.007 C 
HETATM    4  C4  UNL     1      -2.536   0.340   0.431  1.00  0.00     0.208 C 
HETATM    5  C6  UNL     1      -1.632   1.087   1.467  1.00  0.00     0.296 C 
HETATM    6  O2  UNL     1      -0.856   2.344   1.414  1.00  0.00    -0.345 OA
HETATM    7  C7  UNL     1       0.393   2.102   0.730  1.00  0.00     0.088 C 
HETATM    8  C8  UNL     1      -0.283   2.167  -0.756  1.00  0.00     0.067 C 
HETATM    9  C9  UNL     1      -0.019   1.019  -1.644  1.00  0.00    -0.017 C 
HETATM   10  C10 UNL     1       0.644   0.161  -0.866  1.00  0.00    -0.036 C 
HETATM   11  C11 UNL     1       2.188   0.533  -0.866  1.00  0.00     0.014 C 
HETATM   12  C12 UNL     1       2.867   0.109  -2.191  1.00  0.00     0.015 C 
HETATM   13  C13 UNL     1       2.537   2.103  -0.578  1.00  0.00     0.011 C 
HETATM   14  C14 UNL     1       1.610   2.981   0.396  1.00  0.00     0.041 C 
HETATM   15  C15 UNL     1      -0.242  -0.567   0.340  1.00  0.00     0.163 C 
HETATM   16  O3  UNL     1      -0.716   0.047   1.622  1.00  0.00    -0.333 OA
HETATM   17  C16 UNL     1       0.814  -1.340   1.131  1.00  0.00     0.312 C 
HETATM   18  O6  UNL     1       1.745  -0.316   1.652  1.00  0.00    -0.354 OA
HETATM   19  C19 UNL     1       1.278   1.060   1.850  1.00  0.00     0.209 C 
ENDROOT
BRANCH  17  20
HETATM   20  O4  UNL     1       1.549  -2.283   0.334  1.00  0.00    -0.286 OA
BRANCH  20  21
HETATM   21  C17 UNL     1       1.470  -3.615   0.511  1.00  0.00     0.257 C 
HETATM   22  C18 UNL     1       0.603  -4.136   1.617  1.00  0.00     0.126 C 
HETATM   23  O5  UNL     1       2.082  -4.383  -0.232  1.00  0.00    -0.266 OA
ENDBRANCH  20  21
ENDBRANCH  17  20
BRANCH   4  24
HETATM   24  O1  UNL     1      -3.211   1.115  -0.541  1.00  0.00    -0.381 OA
HETATM   25  C5  UNL     1      -4.243   1.907   0.036  1.00  0.00     0.202 C 
ENDBRANCH   4  24
TORSDOF 4
