REMARK  3 active torsions:
REMARK  status: ('A' for Active; 'I' for Inactive)
REMARK    1  A    between atoms: C2_2  and  S1_3 
REMARK    2  A    between atoms: S1_3  and  C3_4 
REMARK    3  A    between atoms: C5_8  and  O1_9 
ROOT
HETATM    1  C3  UNL     1       1.755  -0.814   0.647  1.00  0.00     0.081 C 
HETATM    2  N1  UNL     1       0.758  -1.281   1.300  1.00  0.00    -0.355 N 
ATOM      3  H1  UNL     1       0.712  -2.276   1.522  1.00  0.00     0.166 HD
HETATM    4  C4  UNL     1      -0.329  -0.372   1.733  1.00  0.00     0.047 C 
HETATM    5  C5  UNL     1      -1.587  -0.630   0.836  1.00  0.00     0.306 C 
HETATM    6  O2  UNL     1      -1.202  -0.914  -0.503  1.00  0.00    -0.350 OA
HETATM    7  C7  UNL     1      -1.177   0.094  -1.518  1.00  0.00     0.130 C 
HETATM    8  C8  UNL     1       0.185   0.555  -1.958  1.00  0.00     0.074 C 
HETATM    9  C9  UNL     1       0.138   1.903  -1.136  1.00  0.00     0.171 C 
HETATM   10  C10 UNL     1      -1.405   1.539  -1.233  1.00  0.00     0.074 C 
HETATM   11  C11 UNL     1      -0.139   2.672   0.231  1.00  0.00     0.059 C 
HETATM   12  C12 UNL     1      -0.764   2.232   1.564  1.00  0.00     0.020 C 
HETATM   13  C13 UNL     1       0.099   1.090   2.079  1.00  0.00     0.045 C 
HETATM   14  C14 UNL     1       1.485   1.522   1.600  1.00  0.00     0.069 C 
HETATM   15  C15 UNL     1       2.049   0.680   0.477  1.00  0.00     0.287 C 
HETATM   16  N2  UNL     1       1.471   1.604  -0.533  1.00  0.00     0.115 N 
HETATM   17  C16 UNL     1       1.322   2.599   0.521  1.00  0.00     0.239 C 
ENDROOT
BRANCH   1  18
HETATM   18  S1  UNL     1       3.071  -1.923   0.282  1.00  0.00    -0.115 SA
BRANCH  18  19
HETATM   19  C2  UNL     1       2.789  -2.279  -1.465  1.00  0.00     0.076 C 
HETATM   20  C1  UNL     1       1.578  -3.165  -1.689  1.00  0.00     0.016 C 
ENDBRANCH  18  19
ENDBRANCH   1  18
BRANCH   5  21
HETATM   21  O1  UNL     1      -2.263  -1.786   1.374  1.00  0.00    -0.361 OA
HETATM   22  C6  UNL     1      -3.486  -2.058   0.709  1.00  0.00     0.205 C 
ENDBRANCH   5  21
TORSDOF 3
