REMARK  15 active torsions:
REMARK  status: ('A' for Active; 'I' for Inactive)
REMARK    1  A    between atoms: N1_1  and  C1_4 
REMARK    2  A    between atoms: C1_4  and  N2_5 
REMARK    3  A    between atoms: C1_4  and  C10_26 
REMARK    4  A    between atoms: N2_5  and  O1_7 
REMARK    5  A    between atoms: O1_7  and  C2_8 
REMARK    6  A    between atoms: C2_8  and  C3_9 
REMARK    7  A    between atoms: C3_9  and  S1_10 
REMARK    8  A    between atoms: S1_10  and  C4_11 
REMARK    9  A    between atoms: C4_11  and  C5_12 
REMARK   10  A    between atoms: C7_15  and  O3_16 
REMARK   11  A    between atoms: C9_19  and  O4_20 
REMARK   12  A    between atoms: N3_23  and  O6_24 
REMARK   13  A    between atoms: C12_28  and  N4_29 
REMARK   14  A    between atoms: N4_29  and  C13_31 
REMARK   15  A    between atoms: C13_31  and  C14_32 
ROOT
HETATM    1  C1  UNL     1      -1.729  -3.470   0.231  1.00  0.00     0.119 C 
ENDROOT
BRANCH   1   2
HETATM    2  N1  UNL     1      -2.277  -3.279  -0.931  1.00  0.00    -0.386 N 
ATOM      3  H12 UNL     1      -3.173  -2.794  -0.965  1.00  0.00     0.157 HD
ATOM      4  H11 UNL     1      -1.851  -3.623  -1.792  1.00  0.00     0.157 HD
ENDBRANCH   1   2
BRANCH   1   5
HETATM    5  N2  UNL     1      -2.307  -3.003   1.400  1.00  0.00    -0.253 N 
ATOM      6  H2  UNL     1      -2.721  -3.589   2.125  1.00  0.00     0.195 HD
BRANCH   5   7
HETATM    7  O1  UNL     1      -2.236  -1.596   1.436  1.00  0.00    -0.278 OA
BRANCH   7   8
HETATM    8  C2  UNL     1      -3.566  -1.071   1.475  1.00  0.00     0.211 C 
BRANCH   8   9
HETATM    9  C3  UNL     1      -3.680   0.072   0.465  1.00  0.00     0.103 C 
BRANCH   9  10
HETATM   10  S1  UNL     1      -3.068   1.703   1.043  1.00  0.00    -0.162 SA
BRANCH  10  11
HETATM   11  C4  UNL     1      -1.254   1.476   0.987  1.00  0.00     0.114 C 
BRANCH  11  12
HETATM   12  C5  UNL     1      -0.655   1.974  -0.299  1.00  0.00     0.008 C 
HETATM   13  C6  UNL     1      -1.071   1.595  -1.543  1.00  0.00     0.287 C 
HETATM   14  O2  UNL     1       0.049   1.430  -2.427  1.00  0.00    -0.330 OA
HETATM   15  N3  UNL     1      -2.055   2.628  -2.082  1.00  0.00    -0.036 NA
HETATM   16  C7  UNL     1       0.578   2.755  -2.671  1.00  0.00     0.296 C 
HETATM   17  C8  UNL     1      -0.056   3.761  -1.678  1.00  0.00     0.259 C 
HETATM   18  C9  UNL     1      -0.063   3.340  -0.387  1.00  0.00     0.086 C 
HETATM   19  O5  UNL     1      -1.397   3.967  -2.137  1.00  0.00    -0.259 OA
BRANCH  16  20
HETATM   20  O3  UNL     1       1.987   2.765  -2.534  1.00  0.00    -0.368 OA
ATOM     21  H3  UNL     1       2.334   3.635  -2.694  1.00  0.00     0.212 HD
ENDBRANCH  16  20
BRANCH  18  22
HETATM   22  O4  UNL     1      -0.456   4.180   0.635  1.00  0.00    -0.362 OA
ATOM     23  H4  UNL     1      -0.079   5.050   0.579  1.00  0.00     0.217 HD
ENDBRANCH  18  22
BRANCH  15  24
HETATM   24  O6  UNL     1      -2.408   2.294  -3.341  1.00  0.00    -0.286 OA
ATOM     25  H6  UNL     1      -3.021   2.937  -3.677  1.00  0.00     0.239 HD
ENDBRANCH  15  24
ENDBRANCH  11  12
ENDBRANCH  10  11
ENDBRANCH   9  10
ENDBRANCH   8   9
ENDBRANCH   7   8
ENDBRANCH   5   7
ENDBRANCH   1   5
BRANCH   1  26
HETATM   26  C10 UNL     1      -0.381  -4.200   0.282  1.00  0.00     0.171 C 
HETATM   27  C11 UNL     1       0.755  -3.291  -0.131  1.00  0.00     0.082 C 
HETATM   28  C12 UNL     1       1.045  -2.639   1.199  1.00  0.00     0.198 C 
HETATM   29  N8  UNL     1       0.758  -3.716   2.167  1.00  0.00    -0.317 N 
HETATM   30  N9  UNL     1      -0.067  -4.540   1.686  1.00  0.00    -0.327 N 
ATOM     31  H8  UNL     1       1.170  -3.784   3.097  1.00  0.00     0.182 HD
ATOM     32  H9  UNL     1      -0.462  -5.331   2.195  1.00  0.00     0.180 HD
BRANCH  28  33
HETATM   33  N4  UNL     1       2.434  -2.193   1.286  1.00  0.00    -0.375 N 
ATOM     34  H4  UNL     1       3.205  -2.787   1.592  1.00  0.00     0.161 HD
BRANCH  33  35
HETATM   35  C13 UNL     1       2.572  -0.961   0.931  1.00  0.00     0.120 C 
BRANCH  35  36
HETATM   36  C14 UNL     1       3.882  -0.263   0.989  1.00  0.00     0.117 C 
HETATM   37  N5  UNL     1       4.853  -0.604   1.778  1.00  0.00    -0.237 N 
HETATM   38  O7  UNL     1       5.900   0.337   1.555  1.00  0.00    -0.155 OA
ATOM     39  H5  UNL     1       4.865  -1.389   2.429  1.00  0.00     0.197 HD
HETATM   40  N6  UNL     1       5.459   1.363   0.710  1.00  0.00    -0.224 N 
HETATM   41  C15 UNL     1       4.271   0.940   0.213  1.00  0.00     0.151 C 
ATOM     42  H6  UNL     1       5.933   2.244   0.510  1.00  0.00     0.198 HD
HETATM   43  N7  UNL     1       3.572   1.398  -0.762  1.00  0.00    -0.382 N 
ATOM     44  H72 UNL     1       2.678   1.080  -1.136  1.00  0.00     0.157 HD
ATOM     45  H71 UNL     1       3.839   2.225  -1.296  1.00  0.00     0.157 HD
ENDBRANCH  35  36
ENDBRANCH  33  35
ENDBRANCH  28  33
ENDBRANCH   1  26
TORSDOF 15
