REMARK  7 active torsions:
REMARK  status: ('A' for Active; 'I' for Inactive)
REMARK    1  A    between atoms: O1_2  and  C2_3 
REMARK    2  A    between atoms: C8_9  and  O2_10 
REMARK    3  A    between atoms: C10_13  and  N1_14 
REMARK    4  A    between atoms: C14_18  and  O3_19 
REMARK    5  A    between atoms: O3_19  and  C15_20 
REMARK    6  A    between atoms: C15_20  and  C16_22 
REMARK    7  A    between atoms: C20_29  and  N3_30 
ROOT
HETATM    1  C2  UNL     1       1.653   3.274  -0.284  1.00  0.00     0.126 C 
HETATM    2  C3  UNL     1       3.063   3.066   0.303  1.00  0.00     0.033 C 
HETATM    3  C4  UNL     1       3.702   1.980  -0.576  1.00  0.00     0.013 C 
HETATM    4  C5  UNL     1       2.549   1.146  -1.042  1.00  0.00    -0.028 A 
HETATM    5  C6  UNL     1       2.721   0.130  -2.172  1.00  0.00     0.019 C 
HETATM    6  C7  UNL     1       1.413  -0.687  -2.170  1.00  0.00     0.037 C 
HETATM    7  C8  UNL     1       0.849  -2.130  -1.988  1.00  0.00     0.092 C 
HETATM    8  C9  UNL     1       1.838  -2.929  -1.164  1.00  0.00     0.077 C 
HETATM    9  C10 UNL     1       2.079  -1.910  -0.023  1.00  0.00     0.237 C 
HETATM   10  C13 UNL     1       1.171  -0.740  -0.576  1.00  0.00     0.032 C 
HETATM   11  C14 UNL     1      -0.147  -1.446  -0.950  1.00  0.00     0.178 C 
HETATM   12  C21 UNL     1       1.466   0.647  -0.092  1.00  0.00     0.015 A 
HETATM   13  C22 UNL     1       1.287   1.933  -0.866  1.00  0.00     0.029 A 
ENDROOT
BRANCH  11  14
HETATM   14  O3  UNL     1      -1.209  -0.618  -1.480  1.00  0.00    -0.312 OA
BRANCH  14  15
HETATM   15  C15 UNL     1      -2.437  -1.176  -1.362  1.00  0.00     0.265 C 
HETATM   16  O4  UNL     1      -2.894  -1.915  -2.224  1.00  0.00    -0.265 OA
BRANCH  15  17
HETATM   17  C16 UNL     1      -3.111  -0.823  -0.048  1.00  0.00     0.119 C 
HETATM   18  C17 UNL     1      -2.612   0.508   0.552  1.00  0.00     0.044 C 
HETATM   19  C18 UNL     1      -3.586   1.113   1.564  1.00  0.00     0.233 C 
HETATM   20  N2  UNL     1      -4.383   0.088   2.227  1.00  0.00    -0.073 N 
HETATM   21  C19 UNL     1      -5.256  -0.611   1.269  1.00  0.00     0.265 C 
ATOM     22  H22 UNL     1      -3.796  -0.566   2.746  1.00  0.00     0.277 HD
ATOM     23  H21 UNL     1      -4.915   0.473   3.007  1.00  0.00     0.277 HD
HETATM   24  C20 UNL     1      -4.646  -0.855  -0.144  1.00  0.00     0.222 C 
BRANCH  24  25
HETATM   25  N3  UNL     1      -5.207   0.099  -1.114  1.00  0.00    -0.073 N 
ATOM     26  H33 UNL     1      -4.881   1.045  -0.915  1.00  0.00     0.274 HD
ATOM     27  H32 UNL     1      -4.788  -0.038  -2.034  1.00  0.00     0.274 HD
ATOM     28  H31 UNL     1      -6.225   0.078  -1.178  1.00  0.00     0.274 HD
ENDBRANCH  24  25
ENDBRANCH  15  17
ENDBRANCH  14  15
ENDBRANCH  11  14
BRANCH   7  29
HETATM   29  O2  UNL     1       0.315  -2.830  -3.115  1.00  0.00    -0.387 OA
ATOM     30  H2  UNL     1      -0.028  -3.709  -3.004  1.00  0.00     0.210 HD
ENDBRANCH   7  29
BRANCH   9  31
HETATM   31  N1  UNL     1       1.686  -2.270   1.359  1.00  0.00     0.085 N 
HETATM   32  C11 UNL     1       1.634  -3.707   1.633  1.00  0.00     0.309 C 
HETATM   33  C12 UNL     1       2.587  -1.644   2.337  1.00  0.00     0.309 C 
ENDBRANCH   9  31
BRANCH   1  34
HETATM   34  O1  UNL     1       0.691   3.630   0.700  1.00  0.00    -0.390 OA
HETATM   35  C1  UNL     1       0.839   4.968   1.153  1.00  0.00     0.202 C 
ENDBRANCH   1  34
TORSDOF 7
