REMARK  6 active torsions:
REMARK  status: ('A' for Active; 'I' for Inactive)
REMARK    1  A    between atoms: C3_4  and  O2_5 
REMARK    2  A    between atoms: O2_5  and  C4_6 
REMARK    3  A    between atoms: C11_13  and  C12_14 
REMARK    4  A    between atoms: C18_23  and  O5_24 
REMARK    5  A    between atoms: C19_26  and  O6_27 
REMARK    6  A    between atoms: C20_29  and  O7_30 
ROOT
HETATM    1  C4  UNL     1      -0.042  -0.220   1.685  1.00  0.00     0.143 C 
HETATM    2  C5  UNL     1      -0.605  -1.575   2.165  1.00  0.00     0.034 C 
HETATM    3  C6  UNL     1      -1.894  -2.085   1.519  1.00  0.00     0.002 C 
HETATM    4  C7  UNL     1      -1.724  -2.735   0.144  1.00  0.00     0.000 C 
HETATM    5  C8  UNL     1      -2.959  -2.545  -0.747  1.00  0.00     0.000 C 
HETATM    6  C9  UNL     1      -2.799  -1.468  -1.827  1.00  0.00     0.001 C 
HETATM    7  C10 UNL     1      -2.187  -0.144  -1.361  1.00  0.00     0.012 C 
HETATM    8  C11 UNL     1      -3.018   0.614  -0.324  1.00  0.00     0.054 C 
HETATM    9  C13 UNL     1      -2.173   1.419   0.677  1.00  0.00     0.036 C 
HETATM   10  C14 UNL     1      -1.116   2.404   0.135  1.00  0.00     0.081 C 
HETATM   11  C15 UNL     1      -1.306   3.869   0.561  1.00  0.00     0.117 C 
HETATM   12  C16 UNL     1      -0.750   3.414   1.923  1.00  0.00     0.202 C 
HETATM   13  O4  UNL     1      -0.716   3.839   3.051  1.00  0.00    -0.280 OA
HETATM   14  N1  UNL     1      -0.374   2.202   1.401  1.00  0.00    -0.240 NA
HETATM   15  C17 UNL     1      -1.087   0.928   1.734  1.00  0.00     0.102 C 
ENDROOT
BRANCH   1  16
HETATM   16  O2  UNL     1       0.519  -0.221   0.389  1.00  0.00    -0.352 OA
BRANCH  16  17
HETATM   17  C3  UNL     1       1.700  -0.967   0.153  1.00  0.00     0.292 C 
HETATM   18  O1  UNL     1       1.977  -0.807  -1.253  1.00  0.00    -0.351 OA
HETATM   19  C2  UNL     1       2.668   0.425  -1.490  1.00  0.00     0.152 C 
HETATM   20  C1  UNL     1       2.481   0.820  -2.945  1.00  0.00     0.042 C 
HETATM   21  C20 UNL     1       4.136   0.223  -1.068  1.00  0.00     0.178 C 
HETATM   22  C19 UNL     1       4.204  -0.676   0.185  1.00  0.00     0.183 C 
HETATM   23  C18 UNL     1       2.924  -0.560   1.022  1.00  0.00     0.204 C 
BRANCH  21  24
HETATM   24  O7  UNL     1       4.909  -0.383  -2.112  1.00  0.00    -0.390 OA
ATOM     25  H7  UNL     1       5.814  -0.508  -1.852  1.00  0.00     0.210 HD
ENDBRANCH  21  24
BRANCH  22  26
HETATM   26  O6  UNL     1       5.341  -0.390   1.022  1.00  0.00    -0.390 OA
ATOM     27  H6  UNL     1       6.134  -0.462   0.504  1.00  0.00     0.210 HD
ENDBRANCH  22  26
BRANCH  23  28
HETATM   28  O5  UNL     1       3.029  -1.409   2.180  1.00  0.00    -0.388 OA
ATOM     29  H5  UNL     1       3.777  -1.160   2.711  1.00  0.00     0.210 HD
ENDBRANCH  23  28
ENDBRANCH  16  17
ENDBRANCH   1  16
BRANCH   8  30
HETATM   30  C12 UNL     1      -4.016   1.528  -1.025  1.00  0.00     0.236 C 
HETATM   31  O3  UNL     1      -4.024   1.787  -2.225  1.00  0.00    -0.306 OA
ENDBRANCH   8  30
TORSDOF 6
