REMARK  3 active torsions:
REMARK  status: ('A' for Active; 'I' for Inactive)
REMARK    1  A    between atoms: C2_3  and  N2_4 
REMARK       I    between atoms: N2_4  and  C3_6 
REMARK    2  A    between atoms: C3_6  and  C4_8 
REMARK    3  A    between atoms: C10_16  and  C11_17 
ROOT
HETATM    1  N1  UNL     1       4.794   2.847   1.961  1.00  0.00    -0.195 NA
HETATM    2  C1  UNL     1       4.199   2.102   1.305  1.00  0.00     0.091 C 
HETATM    3  C2  UNL     1       3.500   1.125   0.483  1.00  0.00     0.122 C 
HETATM    4  C15 UNL     1       4.123  -0.313   0.524  1.00  0.00     0.047 C 
HETATM    5  C16 UNL     1       4.842  -0.024  -0.804  1.00  0.00     0.007 C 
HETATM    6  C17 UNL     1       3.863   1.141  -1.041  1.00  0.00     0.047 C 
ENDROOT
BRANCH   3   7
HETATM    7  N2  UNL     1       2.045   1.042   0.809  1.00  0.00    -0.338 N 
HETATM    8  C3  UNL     1       1.067   1.653   0.041  1.00  0.00     0.228 C 
HETATM    9  O1  UNL     1       1.295   2.686  -0.580  1.00  0.00    -0.273 OA
ATOM     10  H2  UNL     1       1.759   0.513   1.633  1.00  0.00     0.164 HD
BRANCH   8  11
HETATM   11  C4  UNL     1      -0.225   0.743  -0.101  1.00  0.00     0.043 C 
HETATM   12  C5  UNL     1      -1.430   1.207  -0.907  1.00  0.00     0.028 C 
HETATM   13  C6  UNL     1      -1.583  -0.413  -1.247  1.00  0.00    -0.034 C 
HETATM   14  C7  UNL     1      -2.910  -0.478  -1.957  1.00  0.00     0.052 C 
HETATM   15  C12 UNL     1      -1.642  -1.546  -0.196  1.00  0.00     0.030 C 
HETATM   16  C14 UNL     1      -0.045  -0.238  -1.409  1.00  0.00     0.028 C 
HETATM   17  C8  UNL     1      -4.010  -0.302  -0.827  1.00  0.00     0.115 C 
HETATM   18 CL1  UNL     1      -5.177  -1.679  -0.973  1.00  0.00    -0.102 Cl
HETATM   19 CL2  UNL     1      -4.969   1.192  -1.183  1.00  0.00    -0.102 Cl
HETATM   20  C9  UNL     1      -3.498  -0.210   0.690  1.00  0.00     0.062 C 
HETATM   21  C10 UNL     1      -2.068  -0.786   1.027  1.00  0.00     0.053 C 
HETATM   22  C13 UNL     1      -0.905   0.274   1.251  1.00  0.00     0.040 C 
BRANCH  21  23
HETATM   23  C11 UNL     1      -2.141  -1.661   2.274  1.00  0.00     0.182 C 
HETATM   24  O2  UNL     1      -2.307  -1.248   3.406  1.00  0.00    -0.647 OA
HETATM   25  O3  UNL     1      -1.995  -2.979   2.055  1.00  0.00    -0.647 OA
ENDBRANCH  21  23
ENDBRANCH   8  11
ENDBRANCH   3   7
TORSDOF 3
