REMARK  7 active torsions:
REMARK  status: ('A' for Active; 'I' for Inactive)
REMARK    1  A    between atoms: C2_2  and  O1_3 
REMARK    2  A    between atoms: O1_3  and  C3_4 
REMARK       I    between atoms: C3_4  and  N1_6 
REMARK    3  A    between atoms: C6_9  and  O3_10 
REMARK    4  A    between atoms: O3_10  and  C7_11 
REMARK       I    between atoms: C7_11  and  N2_13 
REMARK    5  A    between atoms: N2_13  and  C8_15 
REMARK    6  A    between atoms: C15_22  and  C16_23 
REMARK    7  A    between atoms: C16_23  and  O6_25 
ROOT
HETATM    1  C7  UNL     1       0.741   0.030  -0.610  1.00  0.00     0.361 C 
HETATM    2  O4  UNL     1       1.813  -0.492  -0.363  1.00  0.00    -0.238 OA
HETATM    3  N2  UNL     1      -0.350  -0.356   0.116  1.00  0.00    -0.331 N 
ATOM      4  H2  UNL     1      -0.334  -0.232   1.128  1.00  0.00     0.165 HD
ENDROOT
BRANCH   3   5
HETATM    5  C8  UNL     1      -1.561  -0.950  -0.513  1.00  0.00     0.110 A 
HETATM    6  C9  UNL     1      -2.118  -2.092   0.401  1.00  0.00     0.019 A 
HETATM    7  C10 UNL     1      -2.050  -3.497  -0.178  1.00  0.00     0.034 C 
HETATM    8  C18 UNL     1      -3.460  -1.354   0.497  1.00  0.00     0.020 A 
HETATM    9  C11 UNL     1      -3.281  -3.864  -0.944  1.00  0.00    -0.030 C 
HETATM   10  C12 UNL     1      -4.359  -3.091  -1.153  1.00  0.00    -0.026 C 
HETATM   11  C13 UNL     1      -4.454  -1.723  -0.601  1.00  0.00     0.015 A 
HETATM   12  C14 UNL     1      -3.893  -0.590  -1.482  1.00  0.00     0.031 A 
HETATM   13  C15 UNL     1      -2.905  -0.196  -0.353  1.00  0.00     0.074 A 
BRANCH  13  14
HETATM   14  C16 UNL     1      -2.913   1.259   0.137  1.00  0.00     0.269 C 
HETATM   15  O5  UNL     1      -2.525   2.224  -0.526  1.00  0.00    -0.264 OA
BRANCH  14  16
HETATM   16  O6  UNL     1      -3.395   1.381   1.410  1.00  0.00    -0.326 OA
HETATM   17  C17 UNL     1      -3.273   2.696   1.946  1.00  0.00     0.213 C 
ENDBRANCH  14  16
ENDBRANCH  13  14
ENDBRANCH   3   5
BRANCH   1  18
HETATM   18  O3  UNL     1       0.488   1.021  -1.484  1.00  0.00    -0.298 OA
BRANCH  18  19
HETATM   19  C6  UNL     1       1.558   1.874  -1.994  1.00  0.00     0.136 C 
HETATM   20  C5  UNL     1       1.710   3.114  -1.104  1.00  0.00     0.053 C 
HETATM   21  C4  UNL     1       2.385   2.795   0.230  1.00  0.00     0.130 C 
HETATM   22  N1  UNL     1       3.407   1.769   0.114  1.00  0.00    -0.328 N 
HETATM   23  C3  UNL     1       3.697   1.000   1.239  1.00  0.00     0.362 C 
HETATM   24  C20 UNL     1       3.977   1.540  -1.207  1.00  0.00     0.130 C 
HETATM   25  O2  UNL     1       3.302   1.279   2.369  1.00  0.00    -0.238 OA
HETATM   26  C19 UNL     1       2.918   1.208  -2.271  1.00  0.00     0.053 C 
BRANCH  23  27
HETATM   27  O1  UNL     1       4.436  -0.109   0.952  1.00  0.00    -0.304 OA
BRANCH  27  28
HETATM   28  C2  UNL     1       4.651  -1.042   2.026  1.00  0.00     0.176 C 
HETATM   29  C1  UNL     1       3.373  -1.746   2.469  1.00  0.00     0.034 C 
ENDBRANCH  27  28
ENDBRANCH  23  27
ENDBRANCH  18  19
ENDBRANCH   1  18
TORSDOF 7
