REMARK  5 active torsions:
REMARK  status: ('A' for Active; 'I' for Inactive)
REMARK    1  A    between atoms: O1_2  and  C2_3 
REMARK    2  A    between atoms: C6_7  and  O2_8 
REMARK    3  A    between atoms: C13_15  and  C15_17 
REMARK    4  A    between atoms: C15_17  and  O3_18 
REMARK    5  A    between atoms: O3_18  and  S1_19 
ROOT
HETATM    1  C2  UNL     1       2.107   0.093  -0.528  1.00  0.00     0.137 C 
HETATM    2  C3  UNL     1       1.443   0.447   0.852  1.00  0.00     0.056 C 
HETATM    3  C4  UNL     1      -0.015   0.006   1.246  1.00  0.00     0.034 C 
HETATM    4  C5  UNL     1      -0.815  -1.279   0.738  1.00  0.00     0.046 C 
HETATM    5  C6  UNL     1      -0.090  -2.418  -0.061  1.00  0.00     0.065 C 
HETATM    6  C8  UNL     1       1.389  -2.254   0.157  1.00  0.00     0.050 C 
HETATM    7  C9  UNL     1       1.581  -1.240  -0.996  1.00  0.00    -0.010 C 
HETATM    8  C10 UNL     1       0.228  -0.759  -1.772  1.00  0.00     0.020 C 
HETATM    9  C11 UNL     1      -0.071  -2.243  -1.615  1.00  0.00     0.022 C 
HETATM   10  C12 UNL     1       1.452  -2.320  -2.161  1.00  0.00     0.020 C 
HETATM   11  C13 UNL     1      -0.794   1.340   1.365  1.00  0.00     0.085 C 
HETATM   12  C14 UNL     1      -1.835   1.275   2.492  1.00  0.00     0.049 C 
HETATM   13  O6  UNL     1       0.198   2.311   1.764  1.00  0.00    -0.367 OA
HETATM   14  C17 UNL     1       1.513   1.936   1.296  1.00  0.00     0.061 C 
HETATM   15  C18 UNL     1       2.444   2.105   2.510  1.00  0.00     0.046 C 
HETATM   16  C19 UNL     1       1.930   2.952   0.232  1.00  0.00     0.046 C 
ENDROOT
BRANCH  11  17
HETATM   17  C15 UNL     1      -1.474   1.897   0.096  1.00  0.00     0.228 C 
BRANCH  17  18
HETATM   18  O3  UNL     1      -2.589   1.112  -0.288  1.00  0.00    -0.273 OA
BRANCH  18  19
HETATM   19  S1  UNL     1      -3.846   1.872  -0.985  1.00  0.00     0.261 S 
HETATM   20  C16 UNL     1      -4.828   0.425  -1.289  1.00  0.00     0.194 C 
HETATM   21  O4  UNL     1      -4.508   2.678   0.015  1.00  0.00    -0.199 OA
HETATM   22  O5  UNL     1      -3.406   2.412  -2.253  1.00  0.00    -0.199 OA
ENDBRANCH  18  19
ENDBRANCH  17  18
ENDBRANCH  11  17
BRANCH   1  23
HETATM   23  O1  UNL     1       3.521   0.013  -0.318  1.00  0.00    -0.389 OA
HETATM   24  C1  UNL     1       4.268   0.089  -1.525  1.00  0.00     0.202 C 
ENDBRANCH   1  23
BRANCH   5  25
HETATM   25  O2  UNL     1      -0.478  -3.732   0.319  1.00  0.00    -0.385 OA
HETATM   26  C7  UNL     1      -1.826  -4.074   0.033  1.00  0.00     0.202 C 
ENDBRANCH   5  25
TORSDOF 5
