REMARK  5 active torsions:
REMARK  status: ('A' for Active; 'I' for Inactive)
REMARK    1  A    between atoms: C2_2  and  S1_3 
REMARK    2  A    between atoms: S1_3  and  C3_4 
REMARK    3  A    between atoms: C3_4  and  N2_8 
REMARK    4  A    between atoms: N2_8  and  C4_10 
REMARK    5  A    between atoms: C15_24  and  O2_25 
ROOT
HETATM    1  C4  UNL     1      -0.460  -0.700   0.601  1.00  0.00     0.129 C 
HETATM    2  C5  UNL     1       0.877  -1.552   0.842  1.00  0.00     0.036 C 
HETATM    3  C6  UNL     1       2.246  -1.217   0.051  1.00  0.00    -0.009 C 
HETATM    4  C7  UNL     1       3.277  -2.285   0.483  1.00  0.00     0.010 C 
HETATM    5  C8  UNL     1       2.958   0.238   0.180  1.00  0.00     0.025 C 
HETATM    6  C9  UNL     1       2.589   1.266  -1.018  1.00  0.00     0.020 C 
HETATM    7  C10 UNL     1       1.441   2.342  -0.804  1.00  0.00     0.068 C 
HETATM    8  C11 UNL     1      -0.039   1.774  -0.708  1.00  0.00     0.067 C 
HETATM    9  C12 UNL     1      -0.019   0.739   0.412  1.00  0.00     0.010 C 
HETATM   10  N3  UNL     1       0.408   1.308   1.732  1.00  0.00    -0.359 N 
ATOM     11  H3  UNL     1      -0.131   1.313   2.598  1.00  0.00     0.165 HD
HETATM   12  C13 UNL     1       1.603   1.794   1.554  1.00  0.00     0.085 C 
HETATM   13  C14 UNL     1       1.736   2.906   0.555  1.00  0.00     0.178 C 
HETATM   14  O1  UNL     1       2.010   4.044   0.874  1.00  0.00    -0.291 OA
HETATM   15  C15 UNL     1       2.820   0.885   1.593  1.00  0.00     0.176 C 
ENDROOT
BRANCH   1  16
HETATM   16  N2  UNL     1      -1.258  -1.274  -0.491  1.00  0.00    -0.361 N 
ATOM     17  H2  UNL     1      -0.905  -2.059  -1.038  1.00  0.00     0.162 HD
BRANCH  16  18
HETATM   18  C3  UNL     1      -2.486  -0.732  -0.758  1.00  0.00     0.134 C 
HETATM   19  N1  UNL     1      -2.684   0.183  -1.636  1.00  0.00    -0.380 N 
ATOM     20  H12 UNL     1      -3.599   0.587  -1.835  1.00  0.00     0.158 HD
ATOM     21  H11 UNL     1      -1.918   0.552  -2.200  1.00  0.00     0.158 HD
BRANCH  18  22
HETATM   22  S1  UNL     1      -3.798  -1.365   0.208  1.00  0.00    -0.095 SA
BRANCH  22  23
HETATM   23  C2  UNL     1      -5.175  -1.542  -0.967  1.00  0.00     0.078 C 
HETATM   24  C1  UNL     1      -6.184  -0.413  -0.792  1.00  0.00     0.016 C 
ENDBRANCH  22  23
ENDBRANCH  18  22
ENDBRANCH  16  18
ENDBRANCH   1  16
BRANCH  15  25
HETATM   25  O2  UNL     1       3.980   1.643   1.884  1.00  0.00    -0.389 OA
ATOM     26  H2  UNL     1       3.896   2.037   2.744  1.00  0.00     0.210 HD
ENDBRANCH  15  25
TORSDOF 5
