REMARK  8 active torsions:
REMARK  status: ('A' for Active; 'I' for Inactive)
REMARK    1  A    between atoms: C2_2  and  C3_3 
REMARK    2  A    between atoms: C3_3  and  C4_4 
REMARK    3  A    between atoms: C4_4  and  C5_5 
REMARK    4  A    between atoms: C5_5  and  N1_6 
REMARK    5  A    between atoms: C8_9  and  O1_10 
REMARK    6  A    between atoms: C9_12  and  O2_13 
REMARK    7  A    between atoms: C16_20  and  O3_21 
REMARK    8  A    between atoms: C17_23  and  O4_24 
ROOT
HETATM    1  N1  UNL     1       1.327  -0.847   0.801  1.00  0.00     0.095 N 
HETATM    2  C6  UNL     1       0.756  -2.118   1.441  1.00  0.00     0.290 C 
HETATM    3  C7  UNL     1      -0.631  -1.597   0.967  1.00  0.00     0.074 C 
HETATM    4  C8  UNL     1      -1.320  -0.620   1.952  1.00  0.00     0.162 C 
HETATM    5  C9  UNL     1      -1.940   0.539   1.150  1.00  0.00     0.158 C 
HETATM    6  C11 UNL     1      -1.923   0.175  -0.350  1.00  0.00     0.060 C 
HETATM    7  C12 UNL     1      -0.461   0.141  -0.878  1.00  0.00     0.029 C 
HETATM    8  C13 UNL     1      -0.510  -0.070  -2.405  1.00  0.00     0.007 C 
HETATM    9  C14 UNL     1      -1.300  -1.315  -2.833  1.00  0.00     0.004 C 
HETATM   10  C15 UNL     1      -2.631  -1.491  -2.100  1.00  0.00     0.041 C 
HETATM   11  C16 UNL     1      -2.567  -1.229  -0.581  1.00  0.00     0.091 C 
HETATM   12  C17 UNL     1      -1.715  -2.347   0.177  1.00  0.00     0.168 C 
HETATM   13  C18 UNL     1       0.254  -1.038  -0.212  1.00  0.00     0.243 C 
ENDROOT
BRANCH   1  14
HETATM   14  C5  UNL     1       2.663  -1.151   0.270  1.00  0.00     0.273 C 
BRANCH  14  15
HETATM   15  C4  UNL     1       3.574   0.085   0.247  1.00  0.00     0.030 C 
BRANCH  15  16
HETATM   16  C3  UNL     1       3.125   1.192  -0.713  1.00  0.00     0.001 C 
BRANCH  16  17
HETATM   17  C2  UNL     1       2.470   2.385  -0.011  1.00  0.00    -0.005 C 
HETATM   18  C1  UNL     1       3.475   3.259   0.727  1.00  0.00     0.005 C 
ENDBRANCH  16  17
ENDBRANCH  15  16
ENDBRANCH  14  15
ENDBRANCH   1  14
BRANCH   4  19
HETATM   19  O1  UNL     1      -0.442  -0.131   2.971  1.00  0.00    -0.392 OA
ATOM     20  H1  UNL     1      -0.865   0.468   3.575  1.00  0.00     0.210 HD
ENDBRANCH   4  19
BRANCH  12  21
HETATM   21  O4  UNL     1      -2.507  -3.148   1.051  1.00  0.00    -0.392 OA
ATOM     22  H4  UNL     1      -3.177  -3.612   0.563  1.00  0.00     0.210 HD
ENDBRANCH  12  21
BRANCH   5  23
HETATM   23  O2  UNL     1      -1.170   1.735   1.375  1.00  0.00    -0.388 OA
HETATM   24  C10 UNL     1      -1.947   2.920   1.258  1.00  0.00     0.202 C 
ENDBRANCH   5  23
BRANCH  11  25
HETATM   25  O3  UNL     1      -3.903  -1.188  -0.071  1.00  0.00    -0.387 OA
ATOM     26  H3  UNL     1      -4.295  -2.042  -0.212  1.00  0.00     0.210 HD
ENDBRANCH  11  25
TORSDOF 8
