REMARK  14 active torsions:
REMARK  status: ('A' for Active; 'I' for Inactive)
REMARK    1  A    between atoms: C3_4  and  O2_5 
REMARK    2  A    between atoms: C4_7  and  O3_8 
REMARK    3  A    between atoms: C10_17  and  O6_18 
REMARK    4  A    between atoms: C11_20  and  O7_21 
REMARK    5  A    between atoms: O7_21  and  N1_22 
REMARK    6  A    between atoms: C12_25  and  O8_26 
REMARK    7  A    between atoms: C13_28  and  O9_29 
REMARK    8  A    between atoms: C14_31  and  O10_32 
REMARK    9  A    between atoms: C14_31  and  C15_34 
REMARK   10  A    between atoms: C15_34  and  N2_35 
REMARK       I    between atoms: N2_35  and  C16_37 
REMARK   11  A    between atoms: C16_37  and  C17_39 
REMARK   12  A    between atoms: C17_39  and  C18_40 
REMARK   13  A    between atoms: C17_39  and  N3_42 
REMARK   14  A    between atoms: N3_42  and  O13_43 
ROOT
HETATM    1  C1  UNL     1       1.044  -0.396  -2.130  1.00  0.00     0.053 C 
HETATM    2  C2  UNL     1       0.145  -0.702  -0.930  1.00  0.00     0.133 A 
HETATM    3  O1  UNL     1      -1.099  -1.221  -1.466  1.00  0.00    -0.333 OA
HETATM    4  C3  UNL     1      -2.309  -0.530  -1.221  1.00  0.00     0.226 C 
HETATM    5  C4  UNL     1      -2.365   0.974  -1.667  1.00  0.00     0.199 C 
HETATM    6  C5  UNL     1      -2.404   1.563  -0.276  1.00  0.00     0.073 C 
HETATM    7  C6  UNL     1      -2.705   3.005  -0.000  1.00  0.00     0.196 C 
HETATM    8  O4  UNL     1      -3.378   3.063   1.278  1.00  0.00    -0.320 OA
HETATM    9  C7  UNL     1      -3.882   1.825   1.622  1.00  0.00     0.271 C 
HETATM   10  O5  UNL     1      -4.446   1.616   2.684  1.00  0.00    -0.264 OA
HETATM   11  C8  UNL     1      -3.621   0.838   0.422  1.00  0.00     0.099 C 
HETATM   12  C9  UNL     1      -4.999   0.591  -0.209  1.00  0.00     0.030 C 
HETATM   13  C10 UNL     1      -2.559  -0.341   0.309  1.00  0.00     0.171 C 
HETATM   14  C11 UNL     1      -1.473   0.682   0.730  1.00  0.00     0.175 C 
HETATM   15  C12 UNL     1      -0.005   0.436   0.142  1.00  0.00     0.158 A 
HETATM   16  C13 UNL     1       0.767  -0.466   1.174  1.00  0.00     0.198 A 
HETATM   17  C14 UNL     1       0.832  -1.665   0.175  1.00  0.00     0.136 A 
ENDROOT
BRANCH  17  18
HETATM   18  O10 UNL     1      -0.051  -2.780   0.547  1.00  0.00    -0.382 OA
ATOM     19  H10 UNL     1       0.352  -3.345   1.195  1.00  0.00     0.210 HD
ENDBRANCH  17  18
BRANCH  17  20
HETATM   20  C15 UNL     1       2.260  -2.295   0.185  1.00  0.00     0.166 C 
BRANCH  20  21
HETATM   21  N2  UNL     1       3.102  -1.889  -0.921  1.00  0.00    -0.356 N 
HETATM   22  C16 UNL     1       4.320  -1.276  -0.951  1.00  0.00     0.246 C 
HETATM   23  O11 UNL     1       4.885  -1.223  -2.050  1.00  0.00    -0.271 OA
ATOM     24  H2  UNL     1       2.715  -2.099  -1.841  1.00  0.00     0.162 HD
BRANCH  22  25
HETATM   25  C17 UNL     1       4.959  -0.686   0.310  1.00  0.00     0.258 C 
BRANCH  25  26
HETATM   26  C18 UNL     1       6.324  -1.321   0.514  1.00  0.00     0.264 C 
HETATM   27  O12 UNL     1       6.847  -1.468   1.617  1.00  0.00    -0.304 OA
ENDBRANCH  25  26
BRANCH  25  28
HETATM   28  N3  UNL     1       5.189   0.779   0.140  1.00  0.00    -0.082 NA
BRANCH  28  29
HETATM   29  O13 UNL     1       3.881   1.414   0.089  1.00  0.00    -0.295 OA
ATOM     30  H13 UNL     1       4.027   2.346  -0.019  1.00  0.00     0.238 HD
ENDBRANCH  28  29
ENDBRANCH  25  28
ENDBRANCH  22  25
ENDBRANCH  20  21
ENDBRANCH  17  20
BRANCH  16  31
HETATM   31  O9  UNL     1       2.004   0.097   1.672  1.00  0.00    -0.389 OA
ATOM     32  H9  UNL     1       2.470  -0.448   2.295  1.00  0.00     0.210 HD
ENDBRANCH  16  31
BRANCH  15  33
HETATM   33  O8  UNL     1       0.690   1.677  -0.191  1.00  0.00    -0.380 OA
ATOM     34  H8  UNL     1       0.599   2.365   0.457  1.00  0.00     0.211 HD
ENDBRANCH  15  33
BRANCH   4  35
HETATM   35  O2  UNL     1      -3.347  -1.292  -1.801  1.00  0.00    -0.361 OA
ATOM     36  H2  UNL     1      -4.159  -0.828  -1.636  1.00  0.00     0.213 HD
ENDBRANCH   4  35
BRANCH  14  37
HETATM   37  O7  UNL     1      -1.424   1.167   2.112  1.00  0.00    -0.268 OA
BRANCH  37  38
HETATM   38  N1  UNL     1      -1.863   0.130   3.038  1.00  0.00    -0.310 N 
ATOM     39  H12 UNL     1      -2.161  -0.801   2.748  1.00  0.00     0.184 HD
ATOM     40  H11 UNL     1      -1.829   0.468   4.000  1.00  0.00     0.184 HD
ENDBRANCH  37  38
ENDBRANCH  14  37
BRANCH   5  41
HETATM   41  O3  UNL     1      -1.242   1.495  -2.345  1.00  0.00    -0.389 OA
ATOM     42  H3  UNL     1      -1.276   2.405  -2.615  1.00  0.00     0.210 HD
ENDBRANCH   5  41
BRANCH  13  43
HETATM   43  O6  UNL     1      -2.740  -1.570   1.027  1.00  0.00    -0.380 OA
ATOM     44  H6  UNL     1      -2.892  -1.455   1.958  1.00  0.00     0.211 HD
ENDBRANCH  13  43
TORSDOF 14
