REMARK  2 active torsions:
REMARK  status: ('A' for Active; 'I' for Inactive)
REMARK       I    between atoms: C2_2  and  N1_4 
REMARK    1  A    between atoms: N1_4  and  C3_6 
REMARK    2  A    between atoms: C9_15  and  C10_16 
REMARK       I    between atoms: C10_16  and  N4_18 
ROOT
HETATM    1  C3  UNL     1       2.274   0.153  -0.360  1.00  0.00     0.041 C 
HETATM    2  C4  UNL     1       2.898   1.238  -1.123  1.00  0.00     0.051 C 
HETATM    3  C5  UNL     1       1.812   2.205  -0.729  1.00  0.00     0.120 C 
HETATM    4  N2  UNL     1       0.657   1.774   0.634  1.00  0.00    -0.400 N 
HETATM    5  C6  UNL     1       0.904   1.904   2.064  1.00  0.00     0.108 A 
HETATM    6  C7  UNL     1       1.969   2.733   1.565  1.00  0.00     0.106 A 
HETATM    7  N3  UNL     1       0.774   3.856   0.697  1.00  0.00    -0.413 N 
ATOM      8  H3  UNL     1       0.817   4.870   0.803  1.00  0.00     0.153 HD
HETATM    9  C8  UNL     1      -0.497   3.045  -0.368  1.00  0.00     0.135 C 
HETATM   10  C9  UNL     1      -0.488   1.121  -0.593  1.00  0.00     0.074 C 
HETATM   11  C16 UNL     1       0.734   0.069  -1.155  1.00  0.00     0.054 C 
HETATM   12  C17 UNL     1      -0.151   0.628   0.795  1.00  0.00     0.105 C 
HETATM   13  C18 UNL     1       1.172   0.439   1.854  1.00  0.00     0.042 A 
HETATM   14  C19 UNL     1       2.473   0.877   1.133  1.00  0.00     0.046 A 
ENDROOT
BRANCH  10  15
HETATM   15  C10 UNL     1      -1.812   0.720  -1.199  1.00  0.00     0.212 C 
HETATM   16  O2  UNL     1      -2.267   1.259  -2.205  1.00  0.00    -0.279 OA
HETATM   17  N4  UNL     1      -2.380  -0.409  -0.611  1.00  0.00    -0.253 NA
HETATM   18  C11 UNL     1      -2.619  -1.542  -1.492  1.00  0.00     0.098 C 
HETATM   19  C15 UNL     1      -3.505  -0.130   0.273  1.00  0.00     0.098 C 
HETATM   20  C12 UNL     1      -2.869  -2.803  -0.667  1.00  0.00     0.015 C 
HETATM   21  C13 UNL     1      -4.009  -2.596   0.332  1.00  0.00     0.002 C 
HETATM   22  C14 UNL     1      -3.795  -1.332   1.165  1.00  0.00     0.015 C 
ENDBRANCH  10  15
BRANCH   1  23
HETATM   23  N1  UNL     1       3.042  -1.072  -0.411  1.00  0.00    -0.352 N 
HETATM   24  C2  UNL     1       2.617  -2.244   0.170  1.00  0.00     0.214 C 
HETATM   25  C1  UNL     1       3.582  -3.384  -0.005  1.00  0.00     0.117 C 
HETATM   26  O1  UNL     1       1.568  -2.370   0.791  1.00  0.00    -0.274 OA
ATOM     27  H1  UNL     1       3.938  -1.066  -0.899  1.00  0.00     0.163 HD
ENDBRANCH   1  23
TORSDOF 2
