REMARK  3 active torsions:
REMARK  status: ('A' for Active; 'I' for Inactive)
REMARK    1  A    between atoms: O1_2  and  C2_3 
REMARK    2  A    between atoms: C2_3  and  O2_4 
REMARK    3  A    between atoms: C19_23  and  O4_24 
ROOT
HETATM    1  C2  UNL     1       2.749   0.082   0.123  1.00  0.00     0.172 C 
HETATM    2  C3  UNL     1       1.782   1.039  -0.601  1.00  0.00     0.060 C 
HETATM    3  C4  UNL     1       0.507   0.328  -1.104  1.00  0.00     0.024 C 
HETATM    4  C5  UNL     1       0.628  -1.099  -1.725  1.00  0.00     0.174 C 
HETATM    5  O3  UNL     1       0.918  -2.156  -0.794  1.00  0.00    -0.377 OA
HETATM    6  C6  UNL     1       0.314  -1.812   0.459  1.00  0.00     0.096 C 
HETATM    7  C7  UNL     1      -1.216  -2.291   0.214  1.00  0.00     0.045 C 
HETATM    8  C8  UNL     1      -2.544  -1.352   0.075  1.00  0.00    -0.016 C 
HETATM    9  C9  UNL     1      -3.734  -2.338  -0.042  1.00  0.00     0.010 C 
HETATM   10  C10 UNL     1      -2.688  -0.310  -1.143  1.00  0.00     0.005 C 
HETATM   11  C11 UNL     1      -2.314   1.254  -1.094  1.00  0.00     0.006 C 
HETATM   12  C12 UNL     1      -1.306   1.740  -0.043  1.00  0.00    -0.005 C 
HETATM   13  C13 UNL     1      -0.156   2.787  -0.201  1.00  0.00    -0.009 C 
HETATM   14  C14 UNL     1      -0.453   4.074   0.560  1.00  0.00     0.011 C 
HETATM   15  C15 UNL     1       1.122   2.006   0.452  1.00  0.00     0.004 C 
HETATM   16  C16 UNL     1       0.423   0.995   1.369  1.00  0.00     0.003 C 
HETATM   17  C17 UNL     1      -0.418   0.581   0.189  1.00  0.00     0.002 C 
HETATM   18  C18 UNL     1       1.110  -0.271   1.947  1.00  0.00     0.034 C 
HETATM   19  C19 UNL     1       0.428  -1.735   2.052  1.00  0.00     0.158 C 
HETATM   20  C20 UNL     1       1.928  -0.956   0.903  1.00  0.00     0.092 C 
ENDROOT
BRANCH   1  21
HETATM   21  O1  UNL     1       3.861  -0.483  -0.547  1.00  0.00    -0.359 OA
HETATM   22  C1  UNL     1       3.774  -0.915  -1.880  1.00  0.00     0.205 C 
ENDBRANCH   1  21
BRANCH   1  23
HETATM   23  O2  UNL     1       3.464   0.866   1.088  1.00  0.00    -0.364 OA
ATOM     24  H2  UNL     1       2.718   1.245   1.538  1.00  0.00     0.213 HD
ENDBRANCH   1  23
BRANCH  19  25
HETATM   25  O4  UNL     1      -0.789  -1.687   2.838  1.00  0.00    -0.392 OA
ATOM     26  H4  UNL     1      -0.721  -1.641   3.784  1.00  0.00     0.210 HD
ENDBRANCH  19  25
TORSDOF 3
