REMARK  4 active torsions:
REMARK  status: ('A' for Active; 'I' for Inactive)
REMARK    1  A    between atoms: C2_2  and  C3_3 
REMARK    2  A    between atoms: C13_16  and  C16_21 
REMARK    3  A    between atoms: C15_18  and  O4_19 
REMARK    4  A    between atoms: C16_21  and  S1_22 
ROOT
HETATM    1  C3  UNL     1      -2.993  -0.763  -0.373  1.00  0.00     0.154 C 
HETATM    2  C4  UNL     1      -3.159  -1.406   0.988  1.00  0.00     0.120 C 
HETATM    3  C5  UNL     1      -1.870  -1.030   1.627  1.00  0.00     0.192 C 
HETATM    4  O1  UNL     1      -1.640  -1.216   2.818  1.00  0.00    -0.292 OA
HETATM    5  C6  UNL     1      -0.872  -0.477   0.599  1.00  0.00     0.234 C 
HETATM    6  O2  UNL     1      -1.592  -0.668  -0.637  1.00  0.00    -0.339 OA
HETATM    7  O3  UNL     1      -0.746   1.012   1.008  1.00  0.00    -0.340 OA
HETATM    8  C7  UNL     1       0.327   1.945   0.457  1.00  0.00     0.164 C 
HETATM    9  C8  UNL     1       0.256   1.956  -1.069  1.00  0.00     0.062 C 
HETATM   10  C9  UNL     1       0.881   0.676  -1.480  1.00  0.00    -0.019 C 
HETATM   11  C10 UNL     1       1.234  -0.163  -0.500  1.00  0.00    -0.059 C 
HETATM   12  C11 UNL     1       0.970  -0.295   1.418  1.00  0.00     0.035 C 
HETATM   13  C12 UNL     1       2.228   0.392   1.706  1.00  0.00     0.037 C 
HETATM   14  C13 UNL     1       3.132  -0.234   0.648  1.00  0.00     0.020 C 
HETATM   15  C14 UNL     1       3.275   1.278   0.125  1.00  0.00     0.048 C 
HETATM   16  C15 UNL     1       1.956   1.755   1.003  1.00  0.00     0.089 C 
HETATM   17  C16 UNL     1       2.082  -1.232  -0.138  1.00  0.00     0.045 C 
HETATM   18  C18 UNL     1       0.532  -1.419   0.598  1.00  0.00     0.088 C 
ENDROOT
BRANCH   1  19
HETATM   19  C2  UNL     1      -3.609   0.605  -0.488  1.00  0.00    -0.005 C 
HETATM   20  C1  UNL     1      -4.505   0.958  -1.420  1.00  0.00     0.009 C 
ENDBRANCH   1  19
BRANCH  17  21
HETATM   21  S1  UNL     1       2.683  -2.461  -1.236  1.00  0.00    -0.158 SA
HETATM   22  C17 UNL     1       1.144  -2.955  -2.034  1.00  0.00     0.091 C 
ENDBRANCH  17  21
BRANCH  16  23
HETATM   23  O4  UNL     1       2.254   2.905   1.843  1.00  0.00    -0.387 OA
ATOM     24  H4  UNL     1       3.149   2.801   2.143  1.00  0.00     0.210 HD
ENDBRANCH  16  23
TORSDOF 4
