REMARK  6 active torsions:
REMARK  status: ('A' for Active; 'I' for Inactive)
REMARK    1  A    between atoms: C2_2  and  C4_4 
REMARK    2  A    between atoms: C15_16  and  C16_17 
REMARK    3  A    between atoms: C16_17  and  O2_18 
REMARK    4  A    between atoms: C16_17  and  C17_20 
REMARK    5  A    between atoms: C17_20  and  C18_21 
REMARK    6  A    between atoms: C18_21  and  O3_22 
ROOT
HETATM    1  C4  UNL     1       2.501   0.763   0.103  1.00  0.00    -0.011 C 
HETATM    2  C5  UNL     1       2.476  -0.768  -0.055  1.00  0.00     0.021 C 
HETATM    3  C6  UNL     1       1.746   1.536  -1.008  1.00  0.00    -0.070 C 
HETATM    4  C7  UNL     1       1.370   1.167  -2.255  1.00  0.00     0.003 C 
HETATM    5  C8  UNL     1      -0.019   1.301  -2.568  1.00  0.00    -0.003 C 
HETATM    6  C9  UNL     1      -1.088   1.099  -2.062  1.00  0.00    -0.014 C 
HETATM    7  C10 UNL     1      -1.658   0.637  -0.850  1.00  0.00     0.013 A 
HETATM    8  C11 UNL     1      -2.078   1.634   0.192  1.00  0.00     0.009 A 
HETATM    9  C12 UNL     1      -1.341   1.507   1.514  1.00  0.00     0.038 C 
HETATM   10  C13 UNL     1      -0.078   0.592   1.451  1.00  0.00     0.128 C 
HETATM   11  O1  UNL     1      -0.327  -0.667   0.795  1.00  0.00    -0.379 OA
HETATM   12  C14 UNL     1      -1.262  -0.697  -0.321  1.00  0.00     0.142 C 
HETATM   13  C15 UNL     1      -2.784  -0.913   0.026  1.00  0.00     0.050 C 
HETATM   14  C19 UNL     1      -3.009   0.537  -0.308  1.00  0.00     0.015 A 
HETATM   15  C20 UNL     1       1.240   1.330   0.999  1.00  0.00     0.031 C 
HETATM   16  C21 UNL     1       1.094   2.495  -0.024  1.00  0.00     0.043 C 
ENDROOT
BRANCH  13  17
HETATM   17  C16 UNL     1      -3.580  -1.950  -0.778  1.00  0.00     0.127 C 
BRANCH  17  18
HETATM   18  O2  UNL     1      -3.502  -1.658  -2.179  1.00  0.00    -0.395 OA
ATOM     19  H2  UNL     1      -3.995  -2.300  -2.677  1.00  0.00     0.210 HD
ENDBRANCH  17  18
BRANCH  17  20
HETATM   20  C17 UNL     1      -3.091  -3.386  -0.540  1.00  0.00     0.058 C 
BRANCH  20  21
HETATM   21  C18 UNL     1      -3.341  -3.912   0.869  1.00  0.00     0.166 C 
BRANCH  21  22
HETATM   22  O3  UNL     1      -4.735  -3.918   1.142  1.00  0.00    -0.401 OA
ATOM     23  H3  UNL     1      -4.891  -4.246   2.020  1.00  0.00     0.209 HD
ENDBRANCH  21  22
ENDBRANCH  20  21
ENDBRANCH  17  20
ENDBRANCH  13  17
BRANCH   1  24
HETATM   24  C2  UNL     1       3.952   1.234   0.458  1.00  0.00    -0.010 C 
HETATM   25  C1  UNL     1       4.099   2.706   0.846  1.00  0.00     0.010 C 
HETATM   26  C3  UNL     1       4.934   0.951  -0.691  1.00  0.00     0.010 C 
ENDBRANCH   1  24
TORSDOF 6
