REMARK  10 active torsions:
REMARK  status: ('A' for Active; 'I' for Inactive)
REMARK    1  A    between atoms: C4_4  and  C5_5 
REMARK    2  A    between atoms: C5_5  and  C6_6 
REMARK    3  A    between atoms: C6_6  and  C7_7 
REMARK    4  A    between atoms: C9_9  and  C10_10 
REMARK    5  A    between atoms: C10_10  and  S1_11 
REMARK    6  A    between atoms: S1_11  and  C11_12 
REMARK    7  A    between atoms: C11_12  and  C12_13 
REMARK    8  A    between atoms: C15_17  and  O2_18 
REMARK    9  A    between atoms: C17_21  and  O3_22 
REMARK   10  A    between atoms: C22_30  and  O5_31 
ROOT
HETATM    1  C12 UNL     1       0.336  -2.564   1.553  1.00  0.00     0.272 C 
HETATM    2  O1  UNL     1      -0.385  -1.504   0.948  1.00  0.00    -0.351 OA
HETATM    3  C13 UNL     1       0.354  -0.524   0.232  1.00  0.00     0.171 C 
HETATM    4  C14 UNL     1       1.300   0.328   1.029  1.00  0.00     0.055 C 
HETATM    5  C15 UNL     1       1.040   1.829   1.105  1.00  0.00     0.133 C 
HETATM    6  C16 UNL     1       2.133   2.307   0.167  1.00  0.00     0.058 C 
HETATM    7  C17 UNL     1       3.386   1.497   0.661  1.00  0.00     0.074 C 
HETATM    8  C18 UNL     1       3.771   0.848   2.063  1.00  0.00     0.083 C 
HETATM    9  C19 UNL     1       3.481  -0.802   2.370  1.00  0.00     0.063 C 
HETATM   10  N1  UNL     1       3.256  -1.986   1.433  1.00  0.00    -0.369 N 
HETATM   11  C20 UNL     1       4.466  -2.789   1.254  1.00  0.00     0.151 C 
HETATM   12  C21 UNL     1       2.262  -2.208   0.262  1.00  0.00     0.263 C 
HETATM   13  O4  UNL     1       1.287  -3.165   0.690  1.00  0.00    -0.333 OA
HETATM   14  C22 UNL     1       1.382  -1.080  -0.716  1.00  0.00     0.136 C 
HETATM   15  C23 UNL     1       2.247   0.174  -1.230  1.00  0.00     0.008 C 
HETATM   16  C24 UNL     1       3.275  -0.306  -2.265  1.00  0.00     0.020 C 
HETATM   17  C25 UNL     1       2.729   0.299   0.163  1.00  0.00     0.042 C 
HETATM   18  C26 UNL     1       1.871   1.727  -1.363  1.00  0.00    -0.028 C 
HETATM   19  C27 UNL     1       0.482   1.982  -1.973  1.00  0.00     0.016 C 
HETATM   20  C28 UNL     1       2.813   2.521  -2.321  1.00  0.00     0.016 C 
ENDROOT
BRANCH   1  21
HETATM   21  C11 UNL     1      -0.656  -3.647   2.022  1.00  0.00     0.135 C 
BRANCH  21  22
HETATM   22  S1  UNL     1      -1.662  -4.388   0.668  1.00  0.00    -0.161 SA
BRANCH  22  23
HETATM   23  C10 UNL     1      -3.082  -3.245   0.669  1.00  0.00     0.101 C 
BRANCH  23  24
HETATM   24  C9  UNL     1      -3.461  -2.924  -0.748  1.00  0.00    -0.014 C 
HETATM   25  C7  UNL     1      -3.641  -1.705  -1.300  1.00  0.00    -0.086 C 
HETATM   26  C8  UNL     1      -4.032  -1.574  -2.749  1.00  0.00     0.043 C 
BRANCH  25  27
HETATM   27  C6  UNL     1      -3.444  -0.393  -0.572  1.00  0.00     0.037 C 
BRANCH  27  28
HETATM   28  C5  UNL     1      -4.763   0.245  -0.124  1.00  0.00     0.031 C 
BRANCH  28  29
HETATM   29  C4  UNL     1      -4.506   1.407   0.800  1.00  0.00    -0.024 C 
HETATM   30  C2  UNL     1      -4.384   2.707   0.474  1.00  0.00    -0.091 C 
HETATM   31  C1  UNL     1      -4.101   3.738   1.535  1.00  0.00     0.042 C 
HETATM   32  C3  UNL     1      -4.473   3.260  -0.921  1.00  0.00     0.042 C 
ENDBRANCH  28  29
ENDBRANCH  27  28
ENDBRANCH  25  27
ENDBRANCH  23  24
ENDBRANCH  22  23
ENDBRANCH  21  22
ENDBRANCH   1  21
BRANCH  14  33
HETATM   33  O5  UNL     1       0.756  -1.747  -1.810  1.00  0.00    -0.382 OA
ATOM     34  H5  UNL     1       1.405  -2.098  -2.408  1.00  0.00     0.211 HD
ENDBRANCH  14  33
BRANCH   5  35
HETATM   35  O2  UNL     1      -0.268   2.220   0.784  1.00  0.00    -0.395 OA
ATOM     36  H2  UNL     1      -0.430   3.155   0.831  1.00  0.00     0.210 HD
ENDBRANCH   5  35
BRANCH   7  37
HETATM   37  O3  UNL     1       4.563   1.869  -0.020  1.00  0.00    -0.389 OA
ATOM     38  H3  UNL     1       5.320   1.379   0.279  1.00  0.00     0.210 HD
ENDBRANCH   7  37
TORSDOF 10
