REMARK  1 active torsions:
REMARK  status: ('A' for Active; 'I' for Inactive)
REMARK    1  A    between atoms: O1_1  and  C1_3 
ROOT
HETATM    1  C1  UNL     1      -1.621   0.290   0.576  1.00  0.00     0.236 C 
HETATM    2  C2  UNL     1      -1.845  -0.224  -0.832  1.00  0.00     0.297 C 
HETATM    3  O2  UNL     1      -1.021  -1.401  -1.115  1.00  0.00    -0.358 OA
HETATM    4  C3  UNL     1      -0.111  -1.883  -0.052  1.00  0.00     0.178 C 
HETATM    5  C4  UNL     1       1.027  -0.879   0.345  1.00  0.00     0.048 C 
HETATM    6  C5  UNL     1       1.319   0.736   1.026  1.00  0.00     0.132 C 
HETATM    7  C6  UNL     1       2.200   0.805  -0.252  1.00  0.00     0.043 C 
HETATM    8  C7  UNL     1       0.912   0.094  -0.809  1.00  0.00     0.062 C 
HETATM    9  C8  UNL     1      -0.338   0.922  -0.210  1.00  0.00     0.202 C 
HETATM   10  O3  UNL     1       0.259   1.747   0.777  1.00  0.00    -0.346 OA
HETATM   11  O4  UNL     1      -1.308   1.176  -1.269  1.00  0.00    -0.319 OA
ENDROOT
BRANCH   1  12
HETATM   12  O1  UNL     1      -2.593   1.245   1.098  1.00  0.00    -0.385 OA
ATOM     13  H1  UNL     1      -2.453   1.567   1.981  1.00  0.00     0.210 HD
ENDBRANCH   1  12
TORSDOF 1
