REMARK  1 active torsions:
REMARK  status: ('A' for Active; 'I' for Inactive)
REMARK    1  A    between atoms: O1_1  and  C1_3 
ROOT
HETATM    1  C1  UNL     1      -2.001   0.090   0.061  1.00  0.00     0.324 C 
HETATM    2  O2  UNL     1      -1.711  -1.246   0.508  1.00  0.00    -0.345 OA
HETATM    3  C2  UNL     1      -0.278  -1.332   0.463  1.00  0.00     0.194 C 
HETATM    4  C3  UNL     1       0.242  -1.352  -1.004  1.00  0.00     0.158 C 
HETATM    5  C4  UNL     1       1.744  -1.157  -0.836  1.00  0.00     0.038 C 
HETATM    6  C5  UNL     1       1.782  -0.077   0.251  1.00  0.00     0.049 C 
HETATM    7  C6  UNL     1       0.308   0.044   0.673  1.00  0.00     0.153 C 
HETATM    8  O3  UNL     1       0.102   0.881   1.779  1.00  0.00    -0.347 OA
HETATM    9  C7  UNL     1      -0.109   2.173   1.153  1.00  0.00     0.343 C 
HETATM   10  O4  UNL     1      -0.413   2.014  -0.254  1.00  0.00    -0.324 OA
HETATM   11  C8  UNL     1      -0.608   0.625  -0.371  1.00  0.00     0.252 C 
HETATM   12  O5  UNL     1      -0.233  -0.075  -1.575  1.00  0.00    -0.340 OA
ENDROOT
BRANCH   1  13
HETATM   13  O1  UNL     1      -2.924   0.050  -1.017  1.00  0.00    -0.366 OA
ATOM     14  H1  UNL     1      -3.116   0.932  -1.312  1.00  0.00     0.212 HD
ENDBRANCH   1  13
TORSDOF 1
