REMARK  10 active torsions:
REMARK  status: ('A' for Active; 'I' for Inactive)
REMARK    1  A    between atoms: N1_2  and  C2_3 
REMARK    2  A    between atoms: C2_3  and  C3_4 
REMARK    3  A    between atoms: C3_4  and  C4_5 
REMARK    4  A    between atoms: C4_5  and  C5_6 
REMARK    5  A    between atoms: C6_7  and  C7_8 
REMARK    6  A    between atoms: C7_8  and  C8_9 
REMARK    7  A    between atoms: C11_14  and  O1_15 
REMARK    8  A    between atoms: C17_22  and  C18_23 
REMARK    9  A    between atoms: C18_23  and  C19_24 
REMARK   10  A    between atoms: C19_24  and  O2_25 
ROOT
HETATM    1  C8  UNL     1      -1.353  -1.844   0.810  1.00  0.00    -0.010 C 
HETATM    2  C9  UNL     1      -1.088  -0.618   1.333  1.00  0.00     0.014 C 
HETATM    3  C10 UNL     1      -2.049   0.558   1.160  1.00  0.00     0.112 C 
HETATM    4  N2  UNL     1      -1.861   1.664   0.154  1.00  0.00    -0.388 N 
ATOM      5  H2  UNL     1      -1.154   2.386   0.289  1.00  0.00     0.156 HD
HETATM    6  C11 UNL     1      -2.807   1.664  -1.127  1.00  0.00     0.218 C 
HETATM    7  C12 UNL     1      -3.497   0.280  -1.611  1.00  0.00     0.040 C 
HETATM    8  C13 UNL     1      -4.587  -0.611  -1.046  1.00  0.00     0.015 C 
HETATM    9  C14 UNL     1      -3.931  -1.365   0.161  1.00  0.00     0.007 C 
HETATM   10  C15 UNL     1      -2.522  -1.904  -0.203  1.00  0.00     0.037 C 
HETATM   11  C16 UNL     1      -2.486  -0.532  -0.930  1.00  0.00     0.014 C 
HETATM   12  C17 UNL     1      -3.293  -0.093   0.701  1.00  0.00    -0.006 C 
ENDROOT
BRANCH   1  13
HETATM   13  C7  UNL     1      -0.313  -2.837   0.848  1.00  0.00    -0.120 C 
BRANCH  13  14
HETATM   14  C6  UNL     1       0.740  -3.395   0.719  1.00  0.00     0.064 C 
HETATM   15  C5  UNL     1       2.039  -3.613   0.367  1.00  0.00     0.059 C 
BRANCH  15  16
HETATM   16  C4  UNL     1       3.146  -3.417  -0.125  1.00  0.00    -0.154 C 
BRANCH  16  17
HETATM   17  C3  UNL     1       4.307  -2.843  -0.799  1.00  0.00     0.112 C 
BRANCH  17  18
HETATM   18  C2  UNL     1       3.954  -1.494  -1.464  1.00  0.00     0.248 C 
BRANCH  18  19
HETATM   19  N1  UNL     1       4.013  -0.269  -0.511  1.00  0.00    -0.070 N 
HETATM   20  C1  UNL     1       3.167  -0.511   0.745  1.00  0.00     0.272 C 
HETATM   21  C20 UNL     1       5.447   0.162  -0.172  1.00  0.00     0.237 C 
HETATM   22  C21 UNL     1       5.309   1.629   0.183  1.00  0.00     0.029 C 
HETATM   23  C22 UNL     1       4.253   2.156  -0.771  1.00  0.00     0.029 C 
HETATM   24  C23 UNL     1       3.449   0.955  -1.257  1.00  0.00     0.237 C 
ENDBRANCH  18  19
ENDBRANCH  17  18
ENDBRANCH  16  17
ENDBRANCH  15  16
ENDBRANCH  13  14
ENDBRANCH   1  13
BRANCH  12  25
HETATM   25  C18 UNL     1      -4.544   0.418   1.548  1.00  0.00     0.038 C 
BRANCH  25  26
HETATM   26  C19 UNL     1      -4.601   1.902   1.884  1.00  0.00     0.165 C 
BRANCH  26  27
HETATM   27  O2  UNL     1      -3.997   2.093   3.158  1.00  0.00    -0.401 OA
ATOM     28  H2  UNL     1      -4.033   3.019   3.368  1.00  0.00     0.209 HD
ENDBRANCH  26  27
ENDBRANCH  25  26
ENDBRANCH  12  25
BRANCH   6  29
HETATM   29  O1  UNL     1      -3.792   2.672  -1.119  1.00  0.00    -0.377 OA
ATOM     30  H1  UNL     1      -4.356   2.672  -1.883  1.00  0.00     0.212 HD
ENDBRANCH   6  29
TORSDOF 10
