REMARK  5 active torsions:
REMARK  status: ('A' for Active; 'I' for Inactive)
REMARK    1  A    between atoms: C6_6  and  C7_7 
REMARK       I    between atoms: C7_7  and  N1_9 
REMARK    2  A    between atoms: C12_15  and  N2_16 
REMARK    3  A    between atoms: N2_16  and  C13_18 
REMARK    4  A    between atoms: C16_24  and  C17_25 
REMARK    5  A    between atoms: C21_29  and  O2_30 
ROOT
HETATM    1  C1  UNL     1       0.841  -1.736   3.186  1.00  0.00     0.015 C 
HETATM    2  C2  UNL     1       0.616  -1.638   1.872  1.00  0.00    -0.076 C 
HETATM    3  C3  UNL     1      -0.164  -2.638   1.008  1.00  0.00     0.050 C 
HETATM    4  C4  UNL     1       0.663  -2.683  -0.269  1.00  0.00     0.004 C 
HETATM    5  C5  UNL     1       2.215  -2.621  -0.111  1.00  0.00     0.026 C 
HETATM    6  C6  UNL     1       2.090  -1.072  -0.114  1.00  0.00     0.054 C 
HETATM    7  C9  UNL     1       1.233  -0.499   1.042  1.00  0.00     0.042 C 
HETATM    8  C10 UNL     1       0.132  -0.024  -0.027  1.00  0.00    -0.020 C 
HETATM    9  C11 UNL     1      -1.128   0.115   0.868  1.00  0.00     0.044 C 
HETATM   10  C12 UNL     1      -2.174  -0.845   0.370  1.00  0.00     0.058 C 
HETATM   11  C14 UNL     1      -2.498  -0.351  -1.088  1.00  0.00     0.034 C 
HETATM   12  C15 UNL     1      -1.379   0.290  -1.966  1.00  0.00     0.009 C 
HETATM   13  C16 UNL     1      -0.124   0.903  -1.242  1.00  0.00     0.003 C 
HETATM   14  C21 UNL     1      -1.665  -2.349   0.585  1.00  0.00     0.154 C 
HETATM   15  C22 UNL     1       0.757  -1.280  -0.882  1.00  0.00     0.019 C 
ENDROOT
BRANCH  10  16
HETATM   16  N2  UNL     1      -3.383  -0.644   1.208  1.00  0.00    -0.375 N 
ATOM     17  H2  UNL     1      -3.253  -0.237   2.134  1.00  0.00     0.161 HD
BRANCH  16  18
HETATM   18  C13 UNL     1      -4.653  -0.962   0.832  1.00  0.00     0.169 C 
HETATM   19  N3  UNL     1      -5.722  -0.606   1.441  1.00  0.00    -0.396 N 
ATOM     20  H32 UNL     1      -5.593  -0.036   2.277  1.00  0.00     0.156 HD
ATOM     21  H31 UNL     1      -6.673  -0.844   1.159  1.00  0.00     0.156 HD
ENDBRANCH  16  18
ENDBRANCH  10  16
BRANCH  14  22
HETATM   22  O2  UNL     1      -2.450  -3.011   1.604  1.00  0.00    -0.392 OA
ATOM     23  H2  UNL     1      -3.349  -2.838   1.351  1.00  0.00     0.210 HD
ENDBRANCH  14  22
BRANCH  13  24
HETATM   24  C17 UNL     1      -0.129   2.462  -1.026  1.00  0.00    -0.047 C 
HETATM   25  C18 UNL     1      -1.501   3.124  -0.775  1.00  0.00     0.015 C 
HETATM   26  C19 UNL     1       0.828   2.881   0.102  1.00  0.00     0.015 C 
HETATM   27  C20 UNL     1       0.409   3.113  -2.337  1.00  0.00     0.015 C 
ENDBRANCH  13  24
BRANCH   6  28
HETATM   28  C7  UNL     1       3.243  -0.213  -0.689  1.00  0.00     0.227 C 
HETATM   29  O1  UNL     1       3.289   0.209  -1.845  1.00  0.00    -0.273 OA
HETATM   30  N1  UNL     1       4.231   0.060   0.235  1.00  0.00    -0.365 N 
HETATM   31  C8  UNL     1       5.346   0.925  -0.069  1.00  0.00     0.149 C 
ATOM     32  H1  UNL     1       4.172  -0.363   1.161  1.00  0.00     0.161 HD
ENDBRANCH   6  28
TORSDOF 5
