REMARK  8 active torsions:
REMARK  status: ('A' for Active; 'I' for Inactive)
REMARK    1  A    between atoms: C2_2  and  O1_3 
REMARK    2  A    between atoms: O1_3  and  C3_4 
REMARK    3  A    between atoms: C3_4  and  C4_6 
REMARK    4  A    between atoms: N3_25  and  C18_27 
REMARK    5  A    between atoms: C18_27  and  C19_28 
REMARK    6  A    between atoms: C19_28  and  C20_29 
REMARK    7  A    between atoms: C20_29  and  C21_30 
REMARK    8  A    between atoms: C21_30  and  C22_31 
ROOT
HETATM    1  C4  UNL     1      -2.312   0.853   0.874  1.00  0.00     0.068 A 
HETATM    2  C5  UNL     1      -1.908   1.960   1.622  1.00  0.00     0.107 A 
HETATM    3  N1  UNL     1      -0.622   1.762   2.085  1.00  0.00    -0.362 N 
ATOM      4  H1  UNL     1      -0.078   2.418   2.645  1.00  0.00     0.165 HD
HETATM    5  C6  UNL     1      -0.210   0.538   1.663  1.00  0.00     0.072 A 
HETATM    6  C7  UNL     1      -1.246  -0.046   0.954  1.00  0.00     0.022 A 
HETATM    7  C8  UNL     1      -0.909  -1.402   0.672  1.00  0.00    -0.002 A 
HETATM    8  C9  UNL     1      -1.680  -2.390   0.161  1.00  0.00    -0.039 C 
HETATM    9  C10 UNL     1      -2.128  -2.346  -1.252  1.00  0.00     0.032 C 
HETATM   10  C11 UNL     1      -1.435  -3.090  -2.153  1.00  0.00     0.036 C 
HETATM   11 CL1  UNL     1      -1.842  -3.095  -3.825  1.00  0.00    -0.084 Cl
HETATM   12  C12 UNL     1      -0.196  -3.789  -1.744  1.00  0.00     0.049 C 
HETATM   13  C13 UNL     1      -0.017  -4.003  -0.417  1.00  0.00     0.014 C 
HETATM   14  C14 UNL     1      -1.244  -3.809   0.450  1.00  0.00     0.096 C 
HETATM   15  N2  UNL     1       1.196  -3.795   0.240  1.00  0.00    -0.368 N 
ATOM     16  H2  UNL     1       1.952  -4.476   0.169  1.00  0.00     0.165 HD
HETATM   17  C15 UNL     1       1.351  -2.622   1.004  1.00  0.00     0.102 C 
HETATM   18  C16 UNL     1       0.477  -1.615   1.222  1.00  0.00     0.020 A 
HETATM   19  C17 UNL     1       0.941  -0.308   1.827  1.00  0.00     0.068 A 
HETATM   20  N3  UNL     1       2.116  -0.100   2.285  1.00  0.00    -0.387 N 
ATOM     21  H3  UNL     1       2.740  -0.904   2.342  1.00  0.00     0.159 HD
ENDROOT
BRANCH  20  22
HETATM   22  C18 UNL     1       2.640   1.171   2.729  1.00  0.00     0.120 C 
BRANCH  22  23
HETATM   23  C19 UNL     1       4.048   1.332   2.143  1.00  0.00     0.020 C 
BRANCH  23  24
HETATM   24  C20 UNL     1       4.089   2.076   0.802  1.00  0.00     0.002 C 
BRANCH  24  25
HETATM   25  C21 UNL     1       3.352   1.364  -0.338  1.00  0.00     0.011 C 
BRANCH  25  26
HETATM   26  C22 UNL     1       3.514   2.151  -1.624  1.00  0.00     0.085 C 
HETATM   27 BR1  UNL     1       2.567   1.295  -3.088  1.00  0.00    -0.097 Br
ENDBRANCH  25  26
ENDBRANCH  24  25
ENDBRANCH  23  24
ENDBRANCH  22  23
ENDBRANCH  20  22
BRANCH   1  28
HETATM   28  C3  UNL     1      -3.591   0.763   0.199  1.00  0.00     0.295 C 
HETATM   29  O2  UNL     1      -4.674   0.780   0.778  1.00  0.00    -0.259 OA
BRANCH  28  30
HETATM   30  O1  UNL     1      -3.435   0.872  -1.146  1.00  0.00    -0.318 OA
BRANCH  30  31
HETATM   31  C2  UNL     1      -4.212   1.939  -1.704  1.00  0.00     0.174 C 
HETATM   32  C1  UNL     1      -4.617   1.585  -3.116  1.00  0.00     0.034 C 
ENDBRANCH  30  31
ENDBRANCH  28  30
ENDBRANCH   1  28
TORSDOF 8
