REMARK  5 active torsions:
REMARK  status: ('A' for Active; 'I' for Inactive)
REMARK    1  A    between atoms: O1_2  and  C2_3 
REMARK    2  A    between atoms: C2_3  and  O2_4 
REMARK    3  A    between atoms: C2_3  and  C3_6 
REMARK    4  A    between atoms: N7_23  and  C7_24 
REMARK    5  A    between atoms: C7_24  and  C8_25 
ROOT
HETATM    1  C3  UNL     1      -0.970  -1.107  -0.052  1.00  0.00     0.171 C 
HETATM    2  N1  UNL     1      -1.946  -0.753   0.776  1.00  0.00    -0.173 N 
ATOM      3  H1  UNL     1      -2.287  -1.355   1.525  1.00  0.00     0.185 HD
HETATM    4  C4  UNL     1      -2.456   0.507   0.528  1.00  0.00     0.713 C 
HETATM    5  N2  UNL     1      -2.470   0.899  -0.707  1.00  0.00    -0.020 N 
ATOM      6  H2  UNL     1      -3.257   1.068  -1.333  1.00  0.00     0.203 HD
HETATM    7  C5  UNL     1      -1.135   1.021  -0.928  1.00  0.00     0.715 C 
HETATM    8  N3  UNL     1      -0.545   2.151  -0.689  1.00  0.00    -0.020 N 
ATOM      9  H3  UNL     1       0.421   2.334  -0.961  1.00  0.00     0.203 HD
HETATM   10  C6  UNL     1      -1.325   3.089  -0.038  1.00  0.00     0.705 C 
HETATM   11  N4  UNL     1      -1.200   4.277  -0.521  1.00  0.00    -0.233 N 
ATOM     12  H41 UNL     1      -1.775   4.969  -0.041  1.00  0.00     0.174 HD
ATOM     13  H42 UNL     1      -0.625   4.478  -1.339  1.00  0.00     0.174 HD
HETATM   14  N5  UNL     1      -2.117   2.812   1.089  1.00  0.00    -0.118 N 
ATOM     15  H5  UNL     1      -2.426   3.599   1.659  1.00  0.00     0.206 HD
HETATM   16  N6  UNL     1      -2.520   1.496   1.490  1.00  0.00    -0.117 N 
ATOM     17  H6  UNL     1      -2.838   1.300   2.439  1.00  0.00     0.206 HD
HETATM   18  N7  UNL     1      -0.486  -0.189  -1.010  1.00  0.00    -0.158 N 
ENDROOT
BRANCH  18  19
HETATM   19  C7  UNL     1       0.849  -0.240  -1.595  1.00  0.00     0.226 C 
BRANCH  19  20
HETATM   20  C8  UNL     1       1.928   0.036  -0.560  1.00  0.00     0.108 C 
HETATM   21  N8  UNL     1       2.740  -0.903  -0.213  1.00  0.00    -0.296 N 
HETATM   22  C9  UNL     1       3.710  -0.630   0.712  1.00  0.00     0.329 C 
ATOM     23  H8  UNL     1       2.661  -1.834  -0.621  1.00  0.00     0.172 HD
HETATM   24  O3  UNL     1       4.501  -1.480   1.106  1.00  0.00    -0.246 OA
HETATM   25  N9  UNL     1       3.790   0.636   1.207  1.00  0.00    -0.260 N 
HETATM   26  C10 UNL     1       2.890   1.604   0.920  1.00  0.00     0.329 C 
ATOM     27  H9  UNL     1       4.568   0.866   1.825  1.00  0.00     0.175 HD
HETATM   28  O4  UNL     1       2.866   2.673   1.519  1.00  0.00    -0.246 OA
HETATM   29  N10 UNL     1       1.997   1.294  -0.051  1.00  0.00    -0.296 N 
ATOM     30  H10 UNL     1       1.368   2.015  -0.405  1.00  0.00     0.172 HD
ENDBRANCH  19  20
ENDBRANCH  18  19
BRANCH   1  31
HETATM   31  C2  UNL     1      -0.378  -2.533   0.108  1.00  0.00     0.326 C 
BRANCH  31  32
HETATM   32  O1  UNL     1      -1.319  -3.571  -0.076  1.00  0.00    -0.359 OA
HETATM   33  C1  UNL     1      -1.732  -3.704  -1.427  1.00  0.00     0.205 C 
ENDBRANCH  31  32
BRANCH  31  34
HETATM   34  O2  UNL     1       0.099  -2.633   1.441  1.00  0.00    -0.365 OA
ATOM     35  H2  UNL     1       0.732  -1.935   1.565  1.00  0.00     0.213 HD
ENDBRANCH  31  34
ENDBRANCH   1  31
TORSDOF 5
