REMARK  1 active torsions:
REMARK  status: ('A' for Active; 'I' for Inactive)
REMARK    1  A    between atoms: O1_2  and  C2_3 
ROOT
HETATM    1  C2  UNL     1       1.491  -0.793  -0.802  1.00  0.00     0.134 C 
HETATM    2  C3  UNL     1       0.555   0.356  -0.974  1.00  0.00     0.032 C 
HETATM    3  C4  UNL     1       0.227   1.303   0.142  1.00  0.00     0.020 C 
HETATM    4  C5  UNL     1      -0.731   2.401  -0.228  1.00  0.00     0.081 C 
HETATM    5  C6  UNL     1      -1.257   2.274   1.291  1.00  0.00     0.030 C 
HETATM    6  C7  UNL     1      -0.292   0.974   1.517  1.00  0.00     0.001 C 
HETATM    7  C8  UNL     1      -0.946  -0.529   1.546  1.00  0.00     0.030 C 
HETATM    8  C9  UNL     1      -1.839  -0.785   0.277  1.00  0.00     0.020 C 
HETATM    9  C10 UNL     1      -0.805  -0.667  -0.995  1.00  0.00    -0.009 C 
HETATM   10  C11 UNL     1      -1.501   0.475  -1.895  1.00  0.00     0.124 C 
HETATM   11  N1  UNL     1      -1.788   1.840  -1.199  1.00  0.00    -0.416 N 
ATOM     12  H1  UNL     1      -2.653   2.349  -1.382  1.00  0.00     0.153 HD
HETATM   13  C12 UNL     1       0.357  -1.625  -0.219  1.00  0.00     0.065 C 
HETATM   14  C13 UNL     1       0.094  -1.637   1.318  1.00  0.00     0.124 C 
HETATM   15 CL1  UNL     1       1.492  -1.518   2.399  1.00  0.00    -0.101 Cl
HETATM   16 CL2  UNL     1      -0.649  -3.258   1.732  1.00  0.00    -0.101 Cl
ENDROOT
BRANCH   1  17
HETATM   17  O1  UNL     1       2.686  -0.520  -0.054  1.00  0.00    -0.390 OA
HETATM   18  C1  UNL     1       3.735  -1.473  -0.173  1.00  0.00     0.202 C 
ENDBRANCH   1  17
TORSDOF 1
