REMARK  5 active torsions:
REMARK  status: ('A' for Active; 'I' for Inactive)
REMARK    1  A    between atoms: N1_1  and  C1_4 
REMARK    2  A    between atoms: N6_19  and  C8_20 
REMARK    3  A    between atoms: C8_20  and  C9_21 
REMARK    4  A    between atoms: C13_25  and  O1_26 
REMARK    5  A    between atoms: N8_38  and  O3_40 
ROOT
HETATM    1  C1  UNL     1       3.720   0.611  -1.299  1.00  0.00     0.090 C 
HETATM    2  N2  UNL     1       3.488   1.672  -2.175  1.00  0.00    -0.353 N 
ATOM      3  H2  UNL     1       4.189   1.988  -2.845  1.00  0.00     0.166 HD
HETATM    4  C2  UNL     1       2.229   2.274  -2.073  1.00  0.00     0.122 C 
HETATM    5  C3  UNL     1       1.207   1.528  -1.562  1.00  0.00     0.087 C 
HETATM    6  C4  UNL     1       1.467   0.046  -1.628  1.00  0.00     0.057 C 
HETATM    7  N3  UNL     1       1.081  -0.583  -2.793  1.00  0.00    -0.353 N 
ATOM      8  H3  UNL     1       0.743  -0.047  -3.592  1.00  0.00     0.166 HD
HETATM    9  C5  UNL     1       1.160  -1.878  -2.842  1.00  0.00     0.182 C 
HETATM   10  N4  UNL     1       1.470  -2.893  -1.938  1.00  0.00    -0.335 N 
ATOM     11  H4  UNL     1       2.250  -3.529  -2.102  1.00  0.00     0.168 HD
HETATM   12  C6  UNL     1       0.692  -3.000  -0.832  1.00  0.00     0.152 C 
HETATM   13  N5  UNL     1      -0.111  -4.114  -0.788  1.00  0.00    -0.335 N 
ATOM     14  H5  UNL     1      -0.135  -4.887  -1.453  1.00  0.00     0.168 HD
HETATM   15  C7  UNL     1      -0.836  -3.969   0.288  1.00  0.00     0.186 C 
HETATM   16  N6  UNL     1      -0.531  -2.804   0.924  1.00  0.00    -0.324 N 
HETATM   17  C17 UNL     1       0.594  -2.245   0.333  1.00  0.00     0.154 C 
HETATM   18  N7  UNL     1       1.159  -1.195   0.977  1.00  0.00    -0.338 N 
ATOM     19  H7  UNL     1       0.920  -1.053   1.958  1.00  0.00     0.167 HD
HETATM   20  C18 UNL     1       1.986  -0.356   0.426  1.00  0.00     0.076 C 
HETATM   21  C19 UNL     1       2.576  -0.336  -0.943  1.00  0.00     0.159 C 
HETATM   22  C20 UNL     1       2.120   0.945   1.222  1.00  0.00     0.164 C 
HETATM   23  N8  UNL     1       2.910   0.921   2.248  1.00  0.00    -0.250 N 
ATOM     24  H8  UNL     1       3.442   0.104   2.548  1.00  0.00     0.196 HD
HETATM   25  N9  UNL     1       1.329   2.011   0.808  1.00  0.00    -0.282 N 
ATOM     26  H9  UNL     1       1.289   2.840   1.401  1.00  0.00     0.188 HD
HETATM   27  N10 UNL     1       0.578   2.011  -0.387  1.00  0.00    -0.296 N 
ATOM     28  H10 UNL     1      -0.385   2.347  -0.405  1.00  0.00     0.187 HD
ENDROOT
BRANCH  16  29
HETATM   29  C8  UNL     1      -1.277  -2.229   2.017  1.00  0.00     0.164 C 
BRANCH  29  30
HETATM   30  C9  UNL     1      -2.671  -1.679   1.650  1.00  0.00     0.151 C 
HETATM   31  C10 UNL     1      -2.938  -0.296   2.276  1.00  0.00     0.075 C 
HETATM   32  C11 UNL     1      -2.842   0.556   1.074  1.00  0.00    -0.020 A 
HETATM   33  C12 UNL     1      -2.794   1.939   0.970  1.00  0.00     0.046 A 
HETATM   34  C16 UNL     1      -2.902  -0.245  -0.054  1.00  0.00     0.075 A 
HETATM   35  C13 UNL     1      -2.867   2.486  -0.310  1.00  0.00     0.066 A 
HETATM   36  C14 UNL     1      -2.986   1.680  -1.452  1.00  0.00     0.039 A 
HETATM   37  C15 UNL     1      -2.994   0.289  -1.322  1.00  0.00     0.040 A 
HETATM   38  O2  UNL     1      -2.902  -1.586   0.219  1.00  0.00    -0.343 OA
BRANCH  35  39
HETATM   39  O1  UNL     1      -2.833   3.839  -0.498  1.00  0.00    -0.361 OA
ATOM     40  H1  UNL     1      -2.883   4.212  -1.370  1.00  0.00     0.217 HD
ENDBRANCH  35  39
ENDBRANCH  29  30
ENDBRANCH  16  29
BRANCH   1  41
HETATM   41  N1  UNL     1       4.901   0.562  -0.767  1.00  0.00    -0.388 N 
ATOM     42  H12 UNL     1       5.665   1.194  -1.005  1.00  0.00     0.157 HD
ATOM     43  H11 UNL     1       5.071  -0.214  -0.127  1.00  0.00     0.157 HD
ENDBRANCH   1  41
BRANCH  23  44
HETATM   44  O3  UNL     1       2.938   2.168   2.893  1.00  0.00    -0.288 OA
ATOM     45  H3  UNL     1       3.517   2.150   3.646  1.00  0.00     0.244 HD
ENDBRANCH  23  44
TORSDOF 5
