REMARK  7 active torsions:
REMARK  status: ('A' for Active; 'I' for Inactive)
REMARK    1  A    between atoms: C2_2  and  C4_4 
REMARK    2  A    between atoms: C4_4  and  O1_5 
REMARK    3  A    between atoms: C4_4  and  C5_7 
REMARK    4  A    between atoms: C7_9  and  C23_31 
REMARK    5  A    between atoms: C10_15  and  O5_16 
REMARK    6  A    between atoms: O5_16  and  C11_17 
REMARK    7  A    between atoms: C24_32  and  O8_33 
ROOT
HETATM    1  C5  UNL     1       2.905  -0.778   0.999  1.00  0.00     0.056 C 
HETATM    2  C6  UNL     1       2.066  -1.558   2.108  1.00  0.00     0.082 C 
HETATM    3  C7  UNL     1       1.143  -0.438   2.618  1.00  0.00     0.209 C 
HETATM    4  O2  UNL     1       0.862   0.627   3.509  1.00  0.00    -0.199 OA
HETATM    5  O3  UNL     1       0.920   2.007   2.478  1.00  0.00    -0.218 OA
HETATM    6  C8  UNL     1       0.920   1.493   1.100  1.00  0.00     0.175 C 
HETATM    7  C9  UNL     1       2.381   0.683   1.123  1.00  0.00     0.175 C 
HETATM    8  O4  UNL     1       2.372   0.382   2.487  1.00  0.00    -0.343 OA
HETATM    9  C10 UNL     1       0.463   0.910  -0.287  1.00  0.00     0.173 C 
HETATM   10  C15 UNL     1      -0.002  -0.545   0.104  1.00  0.00     0.067 C 
HETATM   11  C16 UNL     1      -1.308  -1.140  -0.426  1.00  0.00     0.162 C 
HETATM   12  O6  UNL     1      -2.409  -0.258  -0.563  1.00  0.00    -0.348 OA
HETATM   13  C17 UNL     1      -3.564  -1.012  -0.183  1.00  0.00     0.158 C 
HETATM   14  C18 UNL     1      -4.293  -1.482  -1.437  1.00  0.00     0.078 C 
HETATM   15  C19 UNL     1      -4.473  -0.124   0.658  1.00  0.00     0.078 C 
HETATM   16  O7  UNL     1      -3.160  -2.166   0.571  1.00  0.00    -0.348 OA
HETATM   17  C20 UNL     1      -1.743  -2.083   0.681  1.00  0.00     0.159 C 
HETATM   18  C21 UNL     1      -1.313  -1.432   2.020  1.00  0.00     0.030 C 
HETATM   19  C22 UNL     1      -0.977  -2.503   3.057  1.00  0.00     0.014 C 
HETATM   20  C23 UNL     1      -0.171  -0.458   1.644  1.00  0.00     0.062 C 
HETATM   21  C24 UNL     1      -0.598   0.972   1.606  1.00  0.00     0.176 C 
ENDROOT
BRANCH   1  22
HETATM   22  C4  UNL     1       3.451  -1.484  -0.259  1.00  0.00     0.152 C 
BRANCH  22  23
HETATM   23  C2  UNL     1       2.703  -1.592  -1.565  1.00  0.00    -0.064 C 
HETATM   24  C1  UNL     1       1.973  -2.679  -1.877  1.00  0.00     0.016 C 
HETATM   25  C3  UNL     1       2.934  -0.525  -2.608  1.00  0.00     0.045 C 
ENDBRANCH  22  23
BRANCH  22  26
HETATM   26  O1  UNL     1       4.710  -0.878  -0.592  1.00  0.00    -0.391 OA
ATOM     27  H1  UNL     1       5.181  -0.810   0.230  1.00  0.00     0.210 HD
ENDBRANCH  22  26
ENDBRANCH   1  22
BRANCH   9  28
HETATM   28  O5  UNL     1      -0.539   1.642  -0.980  1.00  0.00    -0.372 OA
BRANCH  28  29
HETATM   29  C11 UNL     1      -0.218   2.854  -1.667  1.00  0.00     0.051 C 
HETATM   30  C12 UNL     1       0.546   3.857  -0.799  1.00  0.00     0.045 C 
HETATM   31  C13 UNL     1      -1.579   3.461  -2.042  1.00  0.00     0.045 C 
HETATM   32  C14 UNL     1       0.549   2.550  -2.958  1.00  0.00     0.045 C 
ENDBRANCH  28  29
ENDBRANCH   9  28
BRANCH  21  33
HETATM   33  O8  UNL     1      -1.246   1.419   2.813  1.00  0.00    -0.391 OA
ATOM     34  H8  UNL     1      -2.103   1.125   3.099  1.00  0.00     0.210 HD
ENDBRANCH  21  33
TORSDOF 7
