REMARK  7 active torsions:
REMARK  status: ('A' for Active; 'I' for Inactive)
REMARK    1  A    between atoms: O1_2  and  C2_3 
REMARK    2  A    between atoms: C2_3  and  C3_5 
REMARK    3  A    between atoms: C6_8  and  O3_9 
REMARK    4  A    between atoms: C9_13  and  O4_14 
REMARK    5  A    between atoms: C10_16  and  O5_17 
REMARK    6  A    between atoms: C21_29  and  O7_30 
REMARK    7  A    between atoms: O7_30  and  C22_31 
ROOT
HETATM    1  C3  UNL     1      -0.697   1.394  -0.618  1.00  0.00     0.098 C 
HETATM    2  C4  UNL     1      -1.681   1.578  -1.790  1.00  0.00     0.018 C 
HETATM    3  C5  UNL     1      -2.939   0.744  -1.684  1.00  0.00     0.033 C 
HETATM    4  C6  UNL     1      -2.716  -0.705  -1.255  1.00  0.00     0.130 C 
HETATM    5  C7  UNL     1      -1.517  -0.994  -0.213  1.00  0.00     0.022 C 
HETATM    6  C8  UNL     1      -1.216  -2.519  -0.343  1.00  0.00     0.021 C 
HETATM    7  C9  UNL     1      -2.247  -0.737   1.198  1.00  0.00     0.159 C 
HETATM    8  C10 UNL     1      -1.496  -0.676   2.536  1.00  0.00     0.159 C 
HETATM    9  C12 UNL     1      -0.428  -1.726   2.569  1.00  0.00     0.070 C 
HETATM   10  C13 UNL     1       0.500  -1.710   3.777  1.00  0.00     0.178 C 
HETATM   11  O6  UNL     1       1.476  -0.958   3.032  1.00  0.00    -0.384 OA
HETATM   12  C14 UNL     1       0.832  -1.325   1.759  1.00  0.00     0.135 C 
HETATM   13  C15 UNL     1       0.971  -0.123   0.778  1.00  0.00     0.036 C 
HETATM   14  C16 UNL     1       2.571   0.044   0.419  1.00  0.00    -0.041 C 
HETATM   15  C17 UNL     1       3.555  -0.919   1.170  1.00  0.00     0.015 C 
HETATM   16  C18 UNL     1       3.071   1.453   0.832  1.00  0.00     0.015 C 
HETATM   17  C19 UNL     1       2.885  -0.200  -1.065  1.00  0.00     0.012 C 
HETATM   18  C20 UNL     1       1.914  -1.203  -1.656  1.00  0.00     0.034 C 
HETATM   19  C21 UNL     1       0.606  -0.451  -1.850  1.00  0.00     0.142 C 
HETATM   20  C24 UNL     1      -0.139  -0.099  -0.473  1.00  0.00     0.018 C 
ENDROOT
BRANCH   1  21
HETATM   21  C2  UNL     1       0.304   2.533  -0.776  1.00  0.00     0.263 C 
HETATM   22  O2  UNL     1       1.078   2.666  -1.714  1.00  0.00    -0.265 OA
BRANCH  21  23
HETATM   23  O1  UNL     1       0.141   3.438   0.232  1.00  0.00    -0.326 OA
HETATM   24  C1  UNL     1       0.832   4.671   0.045  1.00  0.00     0.213 C 
ENDBRANCH  21  23
ENDBRANCH   1  21
BRANCH  19  25
HETATM   25  O7  UNL     1      -0.211  -1.136  -2.809  1.00  0.00    -0.315 OA
BRANCH  25  26
HETATM   26  C22 UNL     1      -0.209  -0.781  -4.121  1.00  0.00     0.255 C 
HETATM   27  C23 UNL     1       1.119  -0.528  -4.768  1.00  0.00     0.126 C 
HETATM   28  O8  UNL     1      -1.263  -0.749  -4.749  1.00  0.00    -0.266 OA
ENDBRANCH  25  26
ENDBRANCH  19  25
BRANCH   4  29
HETATM   29  O3  UNL     1      -2.747  -1.581  -2.382  1.00  0.00    -0.395 OA
ATOM     30  H3  UNL     1      -2.608  -2.482  -2.115  1.00  0.00     0.210 HD
ENDBRANCH   4  29
BRANCH   7  31
HETATM   31  O4  UNL     1      -3.024   0.476   1.174  1.00  0.00    -0.392 OA
ATOM     32  H4  UNL     1      -3.455   0.628   2.007  1.00  0.00     0.210 HD
ENDBRANCH   7  31
BRANCH   8  33
HETATM   33  O5  UNL     1      -2.477  -1.000   3.550  1.00  0.00    -0.388 OA
HETATM   34  C11 UNL     1      -2.614  -0.023   4.573  1.00  0.00     0.202 C 
ENDBRANCH   8  33
TORSDOF 7
