REMARK  9 active torsions:
REMARK  status: ('A' for Active; 'I' for Inactive)
REMARK    1  A    between atoms: O1_2  and  C2_3 
REMARK    2  A    between atoms: C7_9  and  O3_10 
REMARK    3  A    between atoms: O3_10  and  C8_11 
REMARK    4  A    between atoms: C10_13  and  N1_14 
REMARK    5  A    between atoms: C11_18  and  O4_19 
REMARK    6  A    between atoms: C11_18  and  C12_21 
REMARK    7  A    between atoms: C16_25  and  O5_26 
REMARK    8  A    between atoms: C17_28  and  N2_29 
REMARK    9  A    between atoms: N2_29  and  C18_32 
ROOT
HETATM    1  C8  UNL     1      -0.466  -0.717   0.858  1.00  0.00     0.157 C 
HETATM    2  C9  UNL     1      -1.796  -0.273   1.502  1.00  0.00     0.070 C 
HETATM    3  C10 UNL     1      -3.001  -0.595   0.627  1.00  0.00     0.223 C 
HETATM    4  C11 UNL     1      -2.871  -0.074  -0.835  1.00  0.00     0.121 C 
HETATM    5  C16 UNL     1      -1.524  -0.543  -1.484  1.00  0.00     0.188 C 
HETATM    6  C17 UNL     1      -0.584  -1.362  -0.550  1.00  0.00     0.246 C 
ENDROOT
BRANCH   1   7
HETATM    7  O3  UNL     1       0.395   0.416   0.727  1.00  0.00    -0.377 OA
BRANCH   7   8
HETATM    8  C7  UNL     1       1.156   0.763   1.877  1.00  0.00     0.136 C 
HETATM    9  C6  UNL     1       2.327  -0.264   2.191  1.00  0.00     0.051 C 
HETATM   10  C5  UNL     1       3.620   0.300   2.968  1.00  0.00     0.134 C 
HETATM   11  C23 UNL     1       3.146   0.282   1.071  1.00  0.00     0.031 C 
HETATM   12  O2  UNL     1       4.915   0.195   2.248  1.00  0.00    -0.379 OA
HETATM   13  C22 UNL     1       3.113   1.588   2.337  1.00  0.00     0.031 C 
HETATM   14  C4  UNL     1       4.579   0.450   0.872  1.00  0.00     0.129 C 
HETATM   15  C3  UNL     1       4.425   1.915   0.225  1.00  0.00     0.065 C 
HETATM   16  C2  UNL     1       2.808   2.549   0.275  1.00  0.00     0.130 C 
HETATM   17  C21 UNL     1       1.960   2.089   1.601  1.00  0.00     0.051 C 
BRANCH  16  18
HETATM   18  O1  UNL     1       2.027   2.237  -0.878  1.00  0.00    -0.390 OA
HETATM   19  C1  UNL     1       2.547   2.717  -2.105  1.00  0.00     0.202 C 
ENDBRANCH  16  18
ENDBRANCH   7   8
ENDBRANCH   1   7
BRANCH   6  20
HETATM   20  N2  UNL     1      -1.017  -2.785  -0.459  1.00  0.00    -0.062 N 
ATOM     21  H22 UNL     1      -1.355  -3.005   0.478  1.00  0.00     0.278 HD
ATOM     22  H21 UNL     1      -1.877  -2.940  -0.986  1.00  0.00     0.278 HD
BRANCH  20  23
HETATM   23  C18 UNL     1       0.036  -3.731  -0.876  1.00  0.00     0.178 C 
HETATM   24  C19 UNL     1      -0.578  -5.136  -0.907  1.00  0.00     0.039 C 
HETATM   25  C20 UNL     1       1.246  -3.721   0.061  1.00  0.00     0.039 C 
ENDBRANCH  20  23
ENDBRANCH   6  20
BRANCH   3  26
HETATM   26  N1  UNL     1      -4.314  -0.283   1.236  1.00  0.00    -0.072 N 
ATOM     27  H13 UNL     1      -4.402  -0.745   2.141  1.00  0.00     0.274 HD
ATOM     28  H12 UNL     1      -4.343   0.693   1.531  1.00  0.00     0.274 HD
ATOM     29  H11 UNL     1      -5.121  -0.499   0.650  1.00  0.00     0.274 HD
ENDBRANCH   3  26
BRANCH   5  30
HETATM   30  O5  UNL     1      -1.795  -1.326  -2.670  1.00  0.00    -0.390 OA
ATOM     31  H5  UNL     1      -0.978  -1.610  -3.063  1.00  0.00     0.210 HD
ENDBRANCH   5  30
BRANCH   4  32
HETATM   32  O4  UNL     1      -3.950  -0.774  -1.533  1.00  0.00    -0.384 OA
ATOM     33  H4  UNL     1      -3.871  -0.456  -2.425  1.00  0.00     0.210 HD
ENDBRANCH   4  32
BRANCH   4  34
HETATM   34  C12 UNL     1      -3.094   1.456  -1.115  1.00  0.00    -0.008 A 
HETATM   35  C13 UNL     1      -3.765   1.740  -2.451  1.00  0.00     0.018 C 
HETATM   36  C14 UNL     1      -1.994   2.447  -0.747  1.00  0.00     0.013 A 
HETATM   37  C15 UNL     1      -3.299   2.505  -0.025  1.00  0.00     0.013 A 
ENDBRANCH   4  34
TORSDOF 9
