REMARK  6 active torsions:
REMARK  status: ('A' for Active; 'I' for Inactive)
REMARK    1  A    between atoms: N1_2  and  O1_3 
REMARK    2  A    between atoms: N1_2  and  C2_5 
REMARK    3  A    between atoms: C7_13  and  C8_14 
REMARK    4  A    between atoms: C11_19  and  C12_20 
REMARK    5  A    between atoms: C12_20  and  O2_21 
REMARK    6  A    between atoms: N5_27  and  C15_28 
ROOT
HETATM    1  C8  UNL     1      -0.053  -0.766  -0.172  1.00  0.00     0.044 A 
HETATM    2  N3  UNL     1       0.731   0.042  -0.986  1.00  0.00    -0.354 N 
ATOM      3  H3  UNL     1       0.390   0.713  -1.674  1.00  0.00     0.166 HD
HETATM    4  C9  UNL     1       2.028  -0.221  -0.703  1.00  0.00     0.079 A 
HETATM    5  C10 UNL     1       2.090  -1.167   0.295  1.00  0.00     0.067 A 
HETATM    6  C11 UNL     1       0.779  -1.525   0.654  1.00  0.00     0.020 A 
HETATM    7  N4  UNL     1       3.318  -1.579   0.756  1.00  0.00    -0.362 N 
ATOM      8  H4  UNL     1       3.422  -2.313   1.456  1.00  0.00     0.162 HD
HETATM    9  C13 UNL     1       4.428  -0.909   0.187  1.00  0.00     0.218 C 
HETATM   10  C14 UNL     1       4.858   0.378   0.444  1.00  0.00     0.107 C 
HETATM   11  N5  UNL     1       4.183   1.146  -0.576  1.00  0.00    -0.351 N 
HETATM   12  C16 UNL     1       3.382   0.207  -1.181  1.00  0.00     0.235 C 
HETATM   13  N6  UNL     1       4.335  -0.771  -1.221  1.00  0.00    -0.372 N 
ATOM     14  H6  UNL     1       4.812  -1.238  -1.992  1.00  0.00     0.158 HD
ENDROOT
BRANCH   1  15
HETATM   15  C7  UNL     1      -1.445  -0.764  -0.415  1.00  0.00     0.046 C 
HETATM   16  C6  UNL     1      -2.297   0.259  -0.213  1.00  0.00     0.024 C 
HETATM   17  C2  UNL     1      -3.646   0.257  -0.814  1.00  0.00     0.084 C 
HETATM   18  C4  UNL     1      -2.160   1.600   0.419  1.00  0.00     0.055 C 
HETATM   19  C3  UNL     1      -4.165   1.486  -0.694  1.00  0.00     0.121 C 
HETATM   20  N2  UNL     1      -3.276   2.312  -0.043  1.00  0.00    -0.362 N 
ATOM     21  H2  UNL     1      -3.412   3.315   0.087  1.00  0.00     0.165 HD
HETATM   22  C5  UNL     1      -1.327   2.100   1.338  1.00  0.00     0.115 C 
HETATM   23 CL1  UNL     1      -0.106   1.312   2.226  1.00  0.00    -0.095 Cl
BRANCH  17  24
HETATM   24  N1  UNL     1      -4.321  -0.781  -1.528  1.00  0.00    -0.263 N 
HETATM   25  C1  UNL     1      -5.630  -1.271  -1.091  1.00  0.00     0.185 C 
BRANCH  24  26
HETATM   26  O1  UNL     1      -3.756  -1.278  -2.487  1.00  0.00    -0.287 OA
ATOM     27  H1  UNL     1      -2.907  -0.960  -2.770  1.00  0.00     0.244 HD
ENDBRANCH  24  26
ENDBRANCH  17  24
ENDBRANCH   1  15
BRANCH   6  28
HETATM   28  C12 UNL     1       0.393  -2.537   1.676  1.00  0.00     0.207 C 
BRANCH  28  29
HETATM   29  O2  UNL     1       1.271  -2.491   2.805  1.00  0.00    -0.396 OA
ATOM     30  H2  UNL     1       1.025  -3.137   3.457  1.00  0.00     0.209 HD
ENDBRANCH  28  29
ENDBRANCH   6  28
BRANCH  11  31
HETATM   31  C15 UNL     1       4.015   2.579  -0.623  1.00  0.00     0.239 C 
HETATM   32 CL2  UNL     1       2.786   3.050   0.547  1.00  0.00    -0.109 Cl
ENDBRANCH  11  31
TORSDOF 6
