REMARK  1 active torsions:
REMARK  status: ('A' for Active; 'I' for Inactive)
REMARK    1  A    between atoms: C3_3  and  O1_4 
ROOT
HETATM    1  C1  UNL     1      -1.961  -0.371  -2.369  1.00  0.00     0.015 C 
HETATM    2  C2  UNL     1      -1.570  -0.201  -1.247  1.00  0.00    -0.076 C 
HETATM    3  C3  UNL     1      -1.129   0.004   0.120  1.00  0.00     0.156 C 
HETATM    4  C4  UNL     1      -0.352  -1.180   0.756  1.00  0.00     0.063 C 
HETATM    5  C5  UNL     1       0.711  -0.188   1.250  1.00  0.00     0.033 C 
HETATM    6  C6  UNL     1       2.003  -0.186   0.431  1.00  0.00     0.011 C 
HETATM    7  C7  UNL     1       1.306   0.657  -0.648  1.00  0.00     0.048 C 
HETATM    8  C8  UNL     1       0.133   0.892   0.324  1.00  0.00     0.149 C 
HETATM    9  F1  UNL     1      -0.029   2.135   0.823  1.00  0.00    -0.238 F 
ENDROOT
BRANCH   3  10
HETATM   10  O1  UNL     1      -2.291   0.410   0.885  1.00  0.00    -0.374 OA
ATOM     11  H1  UNL     1      -2.002   0.544   1.780  1.00  0.00     0.212 HD
ENDBRANCH   3  10
TORSDOF 1
