REMARK  1 active torsions:
REMARK  status: ('A' for Active; 'I' for Inactive)
REMARK    1  A    between atoms: O1_1  and  C1_3 
ROOT
HETATM    1  C1  UNL     1       0.625   1.181  -0.157  1.00  0.00     0.130 C 
HETATM    2  C2  UNL     1      -0.235   0.587   0.971  1.00  0.00     0.022 C 
HETATM    3  C3  UNL     1      -1.705   0.557   0.549  1.00  0.00     0.008 C 
HETATM    4  C4  UNL     1      -1.693  -0.327  -0.701  1.00  0.00     0.006 C 
HETATM    5  C5  UNL     1      -0.332  -1.019  -0.641  1.00  0.00     0.002 C 
HETATM    6  C6  UNL     1       0.955  -0.125  -0.868  1.00  0.00     0.053 C 
HETATM    7  C7  UNL     1       1.587  -1.043   0.230  1.00  0.00     0.181 C 
HETATM    8  F1  UNL     1       1.946  -2.288  -0.168  1.00  0.00    -0.248 F 
HETATM    9  C8  UNL     1       0.160  -0.895   0.831  1.00  0.00     0.031 C 
ENDROOT
BRANCH   1  10
HETATM   10  O1  UNL     1       1.800   1.788   0.351  1.00  0.00    -0.395 OA
ATOM     11  H1  UNL     1       2.331   2.155  -0.346  1.00  0.00     0.210 HD
ENDBRANCH   1  10
TORSDOF 1
