REMARK  2 active torsions:
REMARK  status: ('A' for Active; 'I' for Inactive)
REMARK    1  A    between atoms: O1_1  and  C1_3 
REMARK    2  A    between atoms: C6_8  and  C7_9 
ROOT
HETATM    1  C1  UNL     1       1.595   0.042   0.604  1.00  0.00     0.163 C 
HETATM    2  C2  UNL     1       0.913   0.540  -0.700  1.00  0.00     0.030 C 
HETATM    3  C3  UNL     1      -0.471   1.129  -0.336  1.00  0.00     0.005 C 
HETATM    4  C4  UNL     1      -1.128  -0.071  -1.077  1.00  0.00    -0.001 C 
HETATM    5  C5  UNL     1      -2.090  -0.169   0.132  1.00  0.00     0.014 C 
HETATM    6  C6  UNL     1      -0.872   0.342   0.950  1.00  0.00     0.034 C 
HETATM    7  C7  UNL     1       0.252  -0.727   0.818  1.00  0.00     0.138 C 
HETATM    8  F1  UNL     1       0.202  -1.841   1.564  1.00  0.00    -0.239 F 
HETATM    9  C8  UNL     1       0.173  -0.830  -0.731  1.00  0.00     0.040 C 
ENDROOT
BRANCH   1  10
HETATM   10  O1  UNL     1       2.791  -0.747   0.421  1.00  0.00    -0.392 OA
ATOM     11  H1  UNL     1       3.208  -1.052   1.218  1.00  0.00     0.210 HD
ENDBRANCH   1  10
TORSDOF 2
