REMARK  13 active torsions:
REMARK  status: ('A' for Active; 'I' for Inactive)
REMARK    1  A    between atoms: C2_2  and  N1_3 
REMARK    2  A    between atoms: N1_3  and  N2_5 
REMARK    3  A    between atoms: C3_7  and  N3_8 
REMARK    4  A    between atoms: C3_7  and  C7_19 
REMARK    5  A    between atoms: N3_8  and  N4_10 
REMARK    6  A    between atoms: C4_12  and  C5_13 
REMARK    7  A    between atoms: C4_12  and  C6_16 
REMARK    8  A    between atoms: C5_13  and  O1_14 
REMARK    9  A    between atoms: N6_26  and  N7_27 
REMARK   10  A    between atoms: C11_30  and  C12_31 
REMARK   11  A    between atoms: C12_31  and  N8_32 
REMARK   12  A    between atoms: C16_48  and  O5_49 
REMARK   13  A    between atoms: N14_53  and  N15_54 
ROOT
HETATM    1  C7  UNL     1      -1.786   1.816   0.104  1.00  0.00     0.110 C 
HETATM    2  C8  UNL     1      -1.883   1.575  -1.216  1.00  0.00     0.092 C 
HETATM    3  C9  UNL     1      -0.983   2.059  -2.269  1.00  0.00     0.200 C 
HETATM    4  O4  UNL     1      -1.283   2.880  -3.116  1.00  0.00    -0.286 OA
HETATM    5  C10 UNL     1       0.374   1.440  -2.225  1.00  0.00     0.107 C 
HETATM    6  N5  UNL     1       0.467   0.190  -2.567  1.00  0.00    -0.297 N 
ATOM      7  H5  UNL     1      -0.274  -0.277  -3.090  1.00  0.00     0.182 HD
HETATM    8  N6  UNL     1       1.605  -0.471  -2.193  1.00  0.00    -0.121 NA
HETATM    9  C11 UNL     1       1.935  -0.549  -0.703  1.00  0.00     0.220 C 
HETATM   10  N13 UNL     1       2.131   0.758   0.054  1.00  0.00    -0.365 N 
ATOM     11  H13 UNL     1       2.835   0.881   0.782  1.00  0.00     0.161 HD
HETATM   12  C15 UNL     1       1.250   1.778  -0.345  1.00  0.00     0.112 C 
HETATM   13  C16 UNL     1       1.365   2.344  -1.559  1.00  0.00     0.228 C 
HETATM   14  C17 UNL     1       0.571   2.658   0.654  1.00  0.00     0.291 C 
HETATM   15  O6  UNL     1       1.291   3.388   1.345  1.00  0.00    -0.264 OA
HETATM   16  N14 UNL     1      -0.831   2.565   0.809  1.00  0.00    -0.222 N 
ENDROOT
BRANCH   1  17
HETATM   17  C3  UNL     1      -2.985   1.260   0.885  1.00  0.00     0.164 C 
HETATM   18  N2  UNL     1      -4.132   1.201   0.245  1.00  0.00    -0.287 N 
ATOM     19  H2  UNL     1      -4.222   1.511  -0.723  1.00  0.00     0.188 HD
BRANCH  18  20
HETATM   20  N1  UNL     1      -5.189   0.708   0.934  1.00  0.00    -0.335 N 
ATOM     21  H1  UNL     1      -5.252   0.762   1.951  1.00  0.00     0.180 HD
BRANCH  20  22
HETATM   22  C2  UNL     1      -6.234   0.092   0.116  1.00  0.00     0.135 C 
HETATM   23  C1  UNL     1      -5.869  -1.319  -0.314  1.00  0.00     0.028 C 
ENDBRANCH  20  22
ENDBRANCH  18  20
BRANCH  17  24
HETATM   24  N3  UNL     1      -2.856   0.907   2.244  1.00  0.00    -0.282 N 
ATOM     25  H3  UNL     1      -2.525   1.594   2.921  1.00  0.00     0.188 HD
BRANCH  24  26
HETATM   26  N4  UNL     1      -3.180  -0.377   2.659  1.00  0.00    -0.295 N 
HETATM   27  C4  UNL     1      -2.185  -1.197   2.857  1.00  0.00     0.125 C 
ATOM     28  H4  UNL     1      -4.148  -0.665   2.802  1.00  0.00     0.187 HD
BRANCH  27  29
HETATM   29  C5  UNL     1      -0.710  -0.887   2.682  1.00  0.00     0.230 C 
BRANCH  29  30
HETATM   30  O1  UNL     1       0.181  -1.946   2.973  1.00  0.00    -0.395 OA
ATOM     31  H1  UNL     1       1.104  -1.752   2.863  1.00  0.00     0.209 HD
ENDBRANCH  29  30
ENDBRANCH  27  29
BRANCH  27  32
HETATM   32  C6  UNL     1      -2.528  -2.582   3.364  1.00  0.00     0.226 C 
HETATM   33  O2  UNL     1      -2.387  -2.907   4.527  1.00  0.00    -0.643 OA
HETATM   34  O3  UNL     1      -3.024  -3.379   2.413  1.00  0.00    -0.643 OA
ENDBRANCH  27  32
ENDBRANCH  24  26
ENDBRANCH  17  24
ENDBRANCH   1  17
BRANCH  16  35
HETATM   35  N15 UNL     1      -1.345   3.409   1.842  1.00  0.00    -0.335 N 
ATOM     36 2H15 UNL     1      -2.357   3.342   1.954  1.00  0.00     0.177 HD
ATOM     37 1H15 UNL     1      -0.651   3.953   2.354  1.00  0.00     0.177 HD
ENDBRANCH  16  35
BRANCH  13  38
HETATM   38  O5  UNL     1       2.617   2.369  -2.179  1.00  0.00    -0.383 OA
ATOM     39  H5  UNL     1       3.246   2.942  -1.757  1.00  0.00     0.211 HD
ENDBRANCH  13  38
BRANCH   8  40
HETATM   40  N7  UNL     1       1.495  -1.785  -2.740  1.00  0.00    -0.344 NA
ATOM     41  H72 UNL     1       1.275  -1.733  -3.735  1.00  0.00     0.172 HD
ATOM     42  H71 UNL     1       2.343  -2.278  -2.461  1.00  0.00     0.172 HD
ENDBRANCH   8  40
BRANCH   9  43
HETATM   43  C12 UNL     1       3.177  -1.438  -0.381  1.00  0.00     0.213 C 
BRANCH  43  44
HETATM   44  N8  UNL     1       4.383  -0.902  -1.006  1.00  0.00    -0.106 N 
HETATM   45  N9  UNL     1       5.384  -0.290  -0.236  1.00  0.00    -0.115 N 
HETATM   46  C13 UNL     1       6.541  -0.230  -1.003  1.00  0.00     0.705 C 
ATOM     47  H9  UNL     1       5.280   0.051   0.720  1.00  0.00     0.206 HD
HETATM   48  N10 UNL     1       7.630   0.409  -0.797  1.00  0.00    -0.233 N 
HETATM   49  N11 UNL     1       6.255  -1.002  -2.100  1.00  0.00    -0.020 N 
ATOM     50 2H10 UNL     1       7.843   0.983   0.019  1.00  0.00     0.174 HD
ATOM     51 1H10 UNL     1       8.479   0.453  -1.360  1.00  0.00     0.174 HD
HETATM   52  C14 UNL     1       4.961  -1.459  -2.147  1.00  0.00     0.707 C 
ATOM     53  H11 UNL     1       6.945  -1.218  -2.820  1.00  0.00     0.203 HD
HETATM   54  N12 UNL     1       4.423  -2.236  -3.017  1.00  0.00    -0.233 N 
ATOM     55 2H12 UNL     1       3.462  -2.575  -3.052  1.00  0.00     0.174 HD
ATOM     56 1H12 UNL     1       4.846  -2.643  -3.851  1.00  0.00     0.174 HD
ENDBRANCH  43  44
ENDBRANCH   9  43
TORSDOF 13
