REMARK  1 active torsions:
REMARK  status: ('A' for Active; 'I' for Inactive)
REMARK    1  A    between atoms: C4_4  and  N1_5 
ROOT
HETATM    1  N1  UNL     1       0.524   0.335   0.578  1.00  0.00    -0.403 N 
HETATM    2  C5  UNL     1       0.003   1.182   1.675  1.00  0.00     0.118 C 
HETATM    3  C6  UNL     1      -1.475   1.690   1.542  1.00  0.00     0.029 C 
HETATM    4  C7  UNL     1      -2.245   0.955   0.412  1.00  0.00    -0.029 C 
HETATM    5  C8  UNL     1      -2.431  -0.493   1.058  1.00  0.00     0.011 C 
HETATM    6  C9  UNL     1      -1.652  -1.488   0.200  1.00  0.00     0.008 C 
HETATM    7  C10 UNL     1      -1.249  -0.636  -0.985  1.00  0.00     0.013 C 
HETATM    8  C11 UNL     1      -0.165   0.445  -0.703  1.00  0.00     0.088 C 
HETATM    9  C12 UNL     1      -1.121   1.616  -0.617  1.00  0.00     0.018 C 
HETATM   10  C13 UNL     1      -2.180   1.601  -1.707  1.00  0.00     0.013 C 
HETATM   11  C14 UNL     1      -2.479   0.277  -1.052  1.00  0.00     0.001 C 
ENDROOT
BRANCH   1  12
HETATM   12  C4  UNL     1       1.965   0.089   0.655  1.00  0.00     0.079 C 
HETATM   13  C3  UNL     1       2.231  -1.393   0.953  1.00  0.00     0.025 C 
HETATM   14  C2  UNL     1       2.240  -2.074  -0.410  1.00  0.00     0.002 C 
HETATM   15  C1  UNL     1       2.754  -1.020  -1.388  1.00  0.00     0.002 C 
HETATM   16  C15 UNL     1       2.818   0.292  -0.605  1.00  0.00     0.025 C 
ENDBRANCH   1  12
TORSDOF 1
