REMARK  3 active torsions:
REMARK  status: ('A' for Active; 'I' for Inactive)
REMARK    1  A    between atoms: C2_2  and  O1_3 
REMARK    2  A    between atoms: C2_2  and  C3_5 
REMARK    3  A    between atoms: C3_5  and  C4_6 
ROOT
HETATM    1  C4  UNL     1      -1.133  -0.119  -1.133  1.00  0.00     0.000 C 
HETATM    2  C5  UNL     1      -0.387   1.227  -0.883  1.00  0.00    -0.009 C 
HETATM    3  C6  UNL     1       0.078   1.581   0.557  1.00  0.00     0.010 C 
HETATM    4  C7  UNL     1       1.270   0.743   1.086  1.00  0.00    -0.005 C 
HETATM    5  C8  UNL     1       2.504   0.627   0.120  1.00  0.00    -0.005 C 
HETATM    6  C9  UNL     1       3.392  -0.641   0.415  1.00  0.00     0.006 C 
HETATM    7  C10 UNL     1       2.494  -1.861  -0.052  1.00  0.00     0.011 C 
HETATM    8  C11 UNL     1       1.199  -1.098  -0.359  1.00  0.00    -0.028 C 
HETATM    9  C12 UNL     1      -0.365  -1.322  -0.532  1.00  0.00    -0.000 C 
HETATM   10  C13 UNL     1      -0.505  -1.419   0.989  1.00  0.00     0.011 C 
HETATM   11  C14 UNL     1       0.836  -0.706   1.137  1.00  0.00    -0.000 C 
HETATM   12  C15 UNL     1       1.811   0.126  -1.127  1.00  0.00    -0.001 C 
HETATM   13  C16 UNL     1       0.871   1.144  -1.728  1.00  0.00     0.011 C 
ENDROOT
BRANCH   1  14
HETATM   14  C3  UNL     1      -2.659  -0.155  -0.872  1.00  0.00     0.068 C 
BRANCH  14  15
HETATM   15  C2  UNL     1      -3.248   0.616   0.283  1.00  0.00     0.034 C 
HETATM   16  C1  UNL     1      -3.865   0.038   1.322  1.00  0.00     0.045 C 
BRANCH  15  17
HETATM   17  O1  UNL     1      -3.206   1.987   0.152  1.00  0.00    -0.366 OA
ATOM     18  H1  UNL     1      -2.768   2.397  -0.585  1.00  0.00     0.217 HD
ENDBRANCH  15  17
ENDBRANCH  14  15
ENDBRANCH   1  14
TORSDOF 3
