REMARK  6 active torsions:
REMARK  status: ('A' for Active; 'I' for Inactive)
REMARK    1  A    between atoms: C6_8  and  C7_9 
REMARK    2  A    between atoms: C12_14  and  C13_15 
REMARK    3  A    between atoms: N1_16  and  N2_18 
REMARK    4  A    between atoms: N2_18  and  C14_20 
REMARK    5  A    between atoms: N3_32  and  C26_33 
REMARK    6  A    between atoms: C26_33  and  C27_34 
ROOT
HETATM    1  N2  UNL     1      -0.156   0.691   1.030  1.00  0.00    -0.301 N 
ATOM      2  H2  UNL     1       0.008  -0.301   0.857  1.00  0.00     0.187 HD
ENDROOT
BRANCH   1   3
HETATM    3  N1  UNL     1       0.725   1.666   0.674  1.00  0.00    -0.315 N 
HETATM    4  C13 UNL     1       1.575   1.313  -0.231  1.00  0.00     0.085 C 
ATOM      5  H1  UNL     1       0.714   2.598   1.088  1.00  0.00     0.185 HD
BRANCH   4   6
HETATM    6  C12 UNL     1       2.620   2.316  -0.663  1.00  0.00     0.030 C 
HETATM    7  C11 UNL     1       2.518   2.584  -2.159  1.00  0.00     0.011 C 
HETATM    8  C10 UNL     1       3.365   1.493  -2.802  1.00  0.00     0.009 C 
HETATM    9  C9  UNL     1       4.482   1.202  -1.799  1.00  0.00     0.014 C 
HETATM   10  C8  UNL     1       4.612  -0.242  -1.451  1.00  0.00    -0.014 C 
HETATM   11  C31 UNL     1       4.069   1.857  -0.463  1.00  0.00     0.006 C 
HETATM   12  C7  UNL     1       4.519  -0.442  -0.128  1.00  0.00    -0.045 C 
HETATM   13  C32 UNL     1       4.330   0.825   0.643  1.00  0.00     0.045 C 
BRANCH  12  14
HETATM   14  C6  UNL     1       4.588  -1.748   0.509  1.00  0.00     0.047 A 
HETATM   15  C1  UNL     1       3.455  -2.339   1.078  1.00  0.00     0.130 A 
HETATM   16  F1  UNL     1       2.279  -1.690   1.081  1.00  0.00    -0.205 F 
HETATM   17  C2  UNL     1       3.507  -3.618   1.628  1.00  0.00     0.043 A 
HETATM   18  C3  UNL     1       4.708  -4.329   1.627  1.00  0.00     0.006 A 
HETATM   19  C4  UNL     1       5.850  -3.749   1.079  1.00  0.00     0.043 A 
HETATM   20  C5  UNL     1       5.783  -2.472   0.525  1.00  0.00     0.130 A 
HETATM   21  F2  UNL     1       6.904  -1.947   0.003  1.00  0.00    -0.205 F 
ENDBRANCH  12  14
ENDBRANCH   4   6
ENDBRANCH   1   3
BRANCH   1  22
HETATM   22  C14 UNL     1      -1.318   1.185   1.662  1.00  0.00     0.054 C 
HETATM   23  C15 UNL     1      -1.936   2.385   1.231  1.00  0.00     0.032 C 
HETATM   24  C16 UNL     1      -3.279   2.624   1.589  1.00  0.00     0.014 C 
HETATM   25  C17 UNL     1      -3.862   1.694   2.443  1.00  0.00    -0.029 C 
HETATM   26  C18 UNL     1      -2.938   1.168   3.304  1.00  0.00     0.022 C 
HETATM   27  C23 UNL     1      -4.963   0.767   1.994  1.00  0.00    -0.050 C 
HETATM   28  C19 UNL     1      -2.089   0.412   2.529  1.00  0.00    -0.023 C 
HETATM   29  C20 UNL     1      -2.613  -0.988   2.166  1.00  0.00     0.053 C 
HETATM   30  C21 UNL     1      -3.935  -1.314   2.955  1.00  0.00     0.038 C 
HETATM   31  C30 UNL     1      -2.758  -1.308   0.627  1.00  0.00     0.282 C 
HETATM   32  C22 UNL     1      -5.135  -0.464   2.548  1.00  0.00    -0.018 C 
HETATM   33  N3  UNL     1      -3.399  -0.404  -0.375  1.00  0.00     0.089 N 
HETATM   34  C25 UNL     1      -4.875  -0.272  -0.312  1.00  0.00     0.277 C 
HETATM   35  C24 UNL     1      -5.458   0.877   0.574  1.00  0.00     0.069 C 
BRANCH  33  36
HETATM   36  C26 UNL     1      -2.998  -0.837  -1.729  1.00  0.00     0.277 C 
BRANCH  36  37
HETATM   37  C27 UNL     1      -2.401   0.330  -2.464  1.00  0.00     0.014 A 
HETATM   38  C28 UNL     1      -2.272   0.271  -3.968  1.00  0.00     0.007 A 
HETATM   39  C29 UNL     1      -1.042   0.188  -3.109  1.00  0.00     0.007 A 
ENDBRANCH  36  37
ENDBRANCH  33  36
ENDBRANCH   1  22
TORSDOF 6
