REMARK  1 active torsions:
REMARK  status: ('A' for Active; 'I' for Inactive)
REMARK    1  A    between atoms: C6_12  and  C7_13 
ROOT
HETATM    1  C1  UNL     1       5.529   1.580  -2.133  1.00  0.00     0.161 C 
HETATM    2  N1  UNL     1       4.419   1.006  -1.392  1.00  0.00    -0.304 N 
HETATM    3  C2  UNL     1       3.739  -0.114  -1.930  1.00  0.00     0.261 C 
HETATM    4  O1  UNL     1       4.184  -0.655  -2.948  1.00  0.00    -0.267 OA
HETATM    5  C3  UNL     1       2.489  -0.767  -1.343  1.00  0.00     0.061 C 
HETATM    6  C4  UNL     1       1.999  -1.880  -2.034  1.00  0.00     0.107 C 
HETATM    7  N2  UNL     1       0.809  -2.517  -1.818  1.00  0.00    -0.351 N 
ATOM      8  H2  UNL     1       0.515  -3.357  -2.317  1.00  0.00     0.166 HD
HETATM    9  C5  UNL     1       0.070  -1.911  -0.873  1.00  0.00     0.117 C 
HETATM   10  N3  UNL     1      -1.260  -2.159  -0.664  1.00  0.00    -0.341 N 
ATOM     11  H3  UNL     1      -1.783  -2.948  -1.045  1.00  0.00     0.167 HD
HETATM   12  C6  UNL     1      -1.777  -1.170   0.144  1.00  0.00     0.046 C 
HETATM   13  C15 UNL     1      -0.694  -0.537   0.738  1.00  0.00     0.046 C 
HETATM   14  C16 UNL     1       0.449  -0.875  -0.035  1.00  0.00     0.024 C 
HETATM   15  C17 UNL     1       1.719  -0.311  -0.236  1.00  0.00     0.022 C 
HETATM   16  C18 UNL     1       2.118   0.861   0.522  1.00  0.00     0.046 C 
HETATM   17  C19 UNL     1       2.664   0.759   1.793  1.00  0.00     0.030 C 
HETATM   18  C20 UNL     1       3.914   1.360   1.970  1.00  0.00     0.006 C 
HETATM   19  C21 UNL     1       4.585   1.838   0.837  1.00  0.00     0.049 C 
HETATM   20  C22 UNL     1       3.876   1.801  -0.362  1.00  0.00     0.110 C 
HETATM   21  N5  UNL     1       2.560   1.774  -0.328  1.00  0.00    -0.342 N 
ATOM     22  H5  UNL     1       1.958   2.380  -0.886  1.00  0.00     0.167 HD
ENDROOT
BRANCH  12  23
HETATM   23  C7  UNL     1      -3.163  -0.724   0.082  1.00  0.00     0.007 A 
HETATM   24  C8  UNL     1      -3.693  -0.316  -1.165  1.00  0.00     0.015 A 
HETATM   25  C9  UNL     1      -4.977   0.262  -1.285  1.00  0.00     0.002 A 
HETATM   26  C10 UNL     1      -5.771   0.427  -0.158  1.00  0.00     0.018 A 
HETATM   27  C11 UNL     1      -5.237   0.021   1.052  1.00  0.00     0.049 A 
HETATM   28  C12 UNL     1      -3.959  -0.513   1.188  1.00  0.00     0.060 A 
HETATM   29  C14 UNL     1      -5.838   0.090   2.381  1.00  0.00     0.259 A 
HETATM   30  C13 UNL     1      -3.737  -0.724   2.627  1.00  0.00     0.260 A 
HETATM   31  O2  UNL     1      -2.739  -1.161   3.152  1.00  0.00    -0.267 OA
HETATM   32  N4  UNL     1      -4.881  -0.318   3.251  1.00  0.00    -0.289 N 
ATOM     33  H4  UNL     1      -5.003  -0.321   4.264  1.00  0.00     0.172 HD
HETATM   34  O3  UNL     1      -6.984   0.425   2.610  1.00  0.00    -0.267 OA
ENDBRANCH  12  23
TORSDOF 1
