REMARK  9 active torsions:
REMARK  status: ('A' for Active; 'I' for Inactive)
REMARK    1  A    between atoms: C2_3  and  N2_4 
REMARK    2  A    between atoms: C2_3  and  O3_17 
REMARK       I    between atoms: N2_4  and  C3_6 
REMARK    3  A    between atoms: C3_6  and  C4_8 
REMARK    4  A    between atoms: C4_8  and  C5_9 
REMARK    5  A    between atoms: C5_9  and  C6_10 
REMARK       I    between atoms: C6_10  and  N3_12 
REMARK    6  A    between atoms: O3_17  and  C10_18 
REMARK    7  A    between atoms: C10_18  and  C11_19 
REMARK    8  A    between atoms: C12_20  and  C13_21 
REMARK    9  A    between atoms: C13_21  and  N4_22 
ROOT
HETATM    1  N1  UNL     1      -2.384  -0.617  -5.925  1.00  0.00    -0.193 NA
HETATM    2  C1  UNL     1      -2.087  -0.007  -4.982  1.00  0.00     0.113 C 
HETATM    3  C2  UNL     1      -1.669   0.749  -3.780  1.00  0.00     0.333 C 
ENDROOT
BRANCH   3   4
HETATM    4  N2  UNL     1      -2.763   0.984  -2.863  1.00  0.00    -0.323 N 
HETATM    5  C3  UNL     1      -2.607   1.985  -1.932  1.00  0.00     0.220 C 
HETATM    6  O1  UNL     1      -1.754   2.861  -2.040  1.00  0.00    -0.274 OA
ATOM      7  H2  UNL     1      -3.618   0.429  -2.905  1.00  0.00     0.166 HD
BRANCH   5   8
HETATM    8  C4  UNL     1      -3.561   1.942  -0.759  1.00  0.00     0.112 C 
BRANCH   8   9
HETATM    9  C5  UNL     1      -2.771   1.729   0.530  1.00  0.00     0.112 C 
BRANCH   9  10
HETATM   10  C6  UNL     1      -3.707   1.732   1.717  1.00  0.00     0.220 C 
HETATM   11  O2  UNL     1      -3.924   2.773   2.335  1.00  0.00    -0.273 OA
HETATM   12  N3  UNL     1      -4.361   0.552   2.023  1.00  0.00    -0.343 N 
HETATM   13  C7  UNL     1      -3.899  -0.775   1.645  1.00  0.00     0.137 C 
HETATM   14  C9  UNL     1      -5.240   0.545   3.176  1.00  0.00     0.199 C 
HETATM   15  C8  UNL     1      -5.030  -1.761   1.894  1.00  0.00     0.095 C 
HETATM   16  S1  UNL     1      -5.824  -1.153   3.401  1.00  0.00    -0.148 SA
ENDBRANCH   9  10
ENDBRANCH   8   9
ENDBRANCH   5   8
ENDBRANCH   3   4
BRANCH   3  17
HETATM   17  O3  UNL     1      -0.749  -0.040  -3.034  1.00  0.00    -0.349 OA
BRANCH  17  18
HETATM   18  C10 UNL     1       0.532   0.565  -2.895  1.00  0.00     0.211 C 
BRANCH  18  19
HETATM   19  C11 UNL     1       1.024   0.225  -1.513  1.00  0.00    -0.022 C 
HETATM   20  C12 UNL     1       1.489  -1.068  -1.187  1.00  0.00    -0.032 C 
HETATM   21  C18 UNL     1       2.232  -1.179  -0.002  1.00  0.00     0.013 C 
HETATM   22  C19 UNL     1       2.143  -0.145   0.903  1.00  0.00    -0.065 C 
HETATM   23  C20 UNL     1       1.151   0.803   0.805  1.00  0.00     0.046 C 
HETATM   24  C28 UNL     1       3.337   0.632   1.464  1.00  0.00     0.037 C 
HETATM   25  C21 UNL     1       1.087   1.224  -0.506  1.00  0.00    -0.045 C 
HETATM   26  C27 UNL     1       1.188   1.674   2.033  1.00  0.00     0.019 C 
HETATM   27  C22 UNL     1       1.800   2.563  -0.796  1.00  0.00     0.152 C 
HETATM   28  N5  UNL     1       3.109   2.742  -0.097  1.00  0.00    -0.408 N 
HETATM   29  C23 UNL     1       3.154   3.882   0.819  1.00  0.00     0.117 C 
HETATM   30  C29 UNL     1       3.890   1.541   0.294  1.00  0.00     0.126 C 
HETATM   31  C24 UNL     1       3.910   3.680   2.133  1.00  0.00     0.020 C 
HETATM   32  C25 UNL     1       3.292   2.679   3.115  1.00  0.00     0.007 C 
HETATM   33  C26 UNL     1       2.614   1.417   2.576  1.00  0.00    -0.004 C 
BRANCH  20  34
HETATM   34  C13 UNL     1       1.403  -2.273  -2.101  1.00  0.00     0.156 C 
BRANCH  34  35
HETATM   35  N4  UNL     1       1.258  -3.485  -1.308  1.00  0.00    -0.404 N 
HETATM   36  C14 UNL     1       1.836  -4.709  -1.833  1.00  0.00     0.143 C 
HETATM   37  C15 UNL     1       1.204  -5.979  -1.221  1.00  0.00     0.187 C 
HETATM   38  O4  UNL     1       0.959  -5.859   0.183  1.00  0.00    -0.388 OA
HETATM   39  C16 UNL     1       0.219  -4.679   0.527  1.00  0.00     0.187 C 
HETATM   40  C17 UNL     1      -0.014  -3.685  -0.628  1.00  0.00     0.143 C 
ENDBRANCH  34  35
ENDBRANCH  20  34
ENDBRANCH  18  19
ENDBRANCH  17  18
ENDBRANCH   3  17
TORSDOF 9
