REMARK  2 active torsions:
REMARK  status: ('A' for Active; 'I' for Inactive)
REMARK    1  A    between atoms: C8_9  and  C9_10 
REMARK    2  A    between atoms: C9_10  and  O1_11 
ROOT
HETATM    1  C1  UNL     1      -1.185   1.946   0.142  1.00  0.00     0.016 C 
HETATM    2  C2  UNL     1      -0.558   0.564   0.104  1.00  0.00    -0.028 C 
HETATM    3  C3  UNL     1      -0.902  -0.213  -1.166  1.00  0.00     0.040 C 
HETATM    4  C4  UNL     1      -0.274  -1.602  -1.039  1.00  0.00     0.273 C 
HETATM    5  N1  UNL     1       0.028  -1.963   0.356  1.00  0.00     0.094 N 
HETATM    6  C5  UNL     1      -1.212  -1.752   1.163  1.00  0.00     0.280 C 
HETATM    7  C6  UNL     1      -0.767  -0.304   1.400  1.00  0.00     0.056 C 
HETATM    8  C7  UNL     1       0.662  -0.854   1.150  1.00  0.00     0.236 C 
HETATM    9  C8  UNL     1       0.967   0.495   0.456  1.00  0.00     0.052 C 
ENDROOT
BRANCH   9  10
HETATM   10  C9  UNL     1       2.086   0.595  -0.564  1.00  0.00     0.171 C 
BRANCH  10  11
HETATM   11  O1  UNL     1       2.056   1.897  -1.139  1.00  0.00    -0.400 OA
ATOM     12  H1  UNL     1       2.757   1.960  -1.778  1.00  0.00     0.209 HD
ENDBRANCH  10  11
ENDBRANCH   9  10
TORSDOF 2
