REMARK  3 active torsions:
REMARK  status: ('A' for Active; 'I' for Inactive)
REMARK    1  A    between atoms: C9_10  and  O2_11 
REMARK    2  A    between atoms: C10_13  and  O3_14 
REMARK    3  A    between atoms: O3_14  and  O4_15 
ROOT
HETATM    1  C1  UNL     1       2.527   1.160  -0.895  1.00  0.00     0.049 C 
HETATM    2  C2  UNL     1       1.372   0.429  -0.248  1.00  0.00     0.098 C 
HETATM    3  C3  UNL     1       1.428  -1.158  -0.443  1.00  0.00     0.042 C 
HETATM    4  C4  UNL     1       0.095  -1.799   0.137  1.00  0.00     0.023 C 
HETATM    5  C5  UNL     1      -0.844  -0.627   0.141  1.00  0.00     0.072 C 
HETATM    6  C6  UNL     1      -2.182  -0.163   0.683  1.00  0.00     0.023 C 
HETATM    7  C7  UNL     1      -1.810   1.403   0.550  1.00  0.00     0.048 C 
HETATM    8  C8  UNL     1      -0.224   1.422  -0.041  1.00  0.00     0.154 C 
HETATM    9  O1  UNL     1      -0.652   1.168  -1.420  1.00  0.00    -0.341 OA
HETATM   10  C9  UNL     1      -1.055  -0.180  -1.417  1.00  0.00     0.272 C 
HETATM   11  C10 UNL     1      -0.042   0.408   1.082  1.00  0.00     0.244 C 
HETATM   12  O5  UNL     1       1.405   0.532   1.162  1.00  0.00    -0.335 OA
ENDROOT
BRANCH  11  13
HETATM   13  O3  UNL     1      -0.521   0.534   2.457  1.00  0.00    -0.198 OA
BRANCH  13  14
HETATM   14  O4  UNL     1       0.100  -0.560   3.201  1.00  0.00    -0.247 OA
ATOM     15  H4  UNL     1      -0.211  -0.478   4.095  1.00  0.00     0.253 HD
ENDBRANCH  13  14
ENDBRANCH  11  13
BRANCH  10  16
HETATM   16  O2  UNL     1      -0.355  -0.880  -2.415  1.00  0.00    -0.370 OA
ATOM     17  H2  UNL     1      -0.478  -0.620  -3.321  1.00  0.00     0.212 HD
ENDBRANCH  10  16
TORSDOF 3
