REMARK  3 active torsions:
REMARK  status: ('A' for Active; 'I' for Inactive)
REMARK    1  A    between atoms: C2_2  and  C3_3 
REMARK    2  A    between atoms: C2_2  and  N1_7 
REMARK    3  A    between atoms: C3_3  and  C4_4 
ROOT
HETATM    1  N1  UNL     1       0.658  -0.046   0.585  1.00  0.00     0.103 N 
HETATM    2  C7  UNL     1       1.614  -0.825   1.405  1.00  0.00     0.308 A 
HETATM    3  C8  UNL     1       2.744  -0.474   0.417  1.00  0.00     0.249 A 
HETATM    4  N2  UNL     1       3.519   0.700   0.846  1.00  0.00    -0.065 N 
ATOM      5  H21 UNL     1       4.490   0.799   0.549  1.00  0.00     0.277 HD
ATOM      6  H22 UNL     1       3.800   0.788   1.822  1.00  0.00     0.277 HD
HETATM    7  C9  UNL     1       2.491   1.610   0.297  1.00  0.00     0.270 C 
HETATM    8  C10 UNL     1       1.737   0.411  -0.303  1.00  0.00     0.281 A 
ENDROOT
BRANCH   1   9
HETATM    9  C2  UNL     1      -0.342  -0.901  -0.090  1.00  0.00     0.220 C 
HETATM   10  C1  UNL     1       0.184  -2.000  -1.031  1.00  0.00     0.043 C 
BRANCH   9  11
HETATM   11  C3  UNL     1      -1.357  -0.017  -0.860  1.00  0.00     0.040 C 
BRANCH  11  12
HETATM   12  C4  UNL     1      -2.163   0.874   0.047  1.00  0.00    -0.013 A 
HETATM   13  C5  UNL     1      -3.488   1.421  -0.418  1.00  0.00     0.005 A 
HETATM   14  C6  UNL     1      -3.444   0.378   0.665  1.00  0.00     0.005 A 
ENDBRANCH  11  12
ENDBRANCH   9  11
ENDBRANCH   1   9
TORSDOF 3
