REMARK  2 active torsions:
REMARK  status: ('A' for Active; 'I' for Inactive)
REMARK    1  A    between atoms: N1_4  and  C4_5 
REMARK    2  A    between atoms: N2_6  and  C5_8 
ROOT
HETATM    1  C4  UNL     1       0.481  -0.906   0.322  1.00  0.00     0.174 C 
HETATM    2  N2  UNL     1      -0.220  -0.192  -0.492  1.00  0.00    -0.377 N 
ATOM      3  H2  UNL     1       0.173   0.219  -1.339  1.00  0.00     0.161 HD
ENDROOT
BRANCH   2   4
HETATM    4  C5  UNL     1      -1.613  -0.016  -0.113  1.00  0.00     0.035 A 
HETATM    5  C6  UNL     1      -1.840   0.943   1.044  1.00  0.00     0.032 C 
HETATM    6  C7  UNL     1      -3.292   1.397   0.914  1.00  0.00     0.007 C 
HETATM    7  C8  UNL     1      -3.603   1.339  -0.580  1.00  0.00    -0.007 C 
HETATM    8  C9  UNL     1      -4.490   0.155  -1.042  1.00  0.00     0.010 C 
HETATM    9  C12 UNL     1      -2.408   0.631  -1.251  1.00  0.00     0.022 A 
HETATM   10  C10 UNL     1      -3.235  -0.633  -1.444  1.00  0.00    -0.005 A 
HETATM   11  C11 UNL     1      -2.473  -1.302  -0.288  1.00  0.00     0.036 A 
ENDBRANCH   2   4
BRANCH   1  12
HETATM   12  N1  UNL     1       1.807  -1.219   0.174  1.00  0.00    -0.373 N 
HETATM   13  C3  UNL     1       2.639  -0.521  -0.819  1.00  0.00     0.155 C 
HETATM   14  C2  UNL     1       3.491   0.554  -0.114  1.00  0.00     0.135 C 
HETATM   15  C1  UNL     1       4.449   1.220  -1.092  1.00  0.00     0.041 C 
HETATM   16  O1  UNL     1       4.287  -0.032   0.940  1.00  0.00    -0.383 OA
HETATM   17  C14 UNL     1       3.447  -0.671   1.915  1.00  0.00     0.188 C 
HETATM   18  C13 UNL     1       2.593  -1.778   1.278  1.00  0.00     0.149 C 
ENDBRANCH   1  12
TORSDOF 2
