REMARK  1 active torsions:
REMARK  status: ('A' for Active; 'I' for Inactive)
REMARK    1  A    between atoms: C2_2  and  N1_3 
ROOT
HETATM    1  C1  UNL     1       2.601   1.183   0.502  1.00  0.00     0.046 C 
HETATM    2  C2  UNL     1       1.764  -0.064   0.153  1.00  0.00     0.129 C 
HETATM    3  C3  UNL     1       1.254   0.002  -1.297  1.00  0.00     0.082 C 
HETATM    4  C4  UNL     1      -0.196  -0.466  -1.366  1.00  0.00     0.111 C 
HETATM    5  F1  UNL     1      -0.421  -0.953  -2.622  1.00  0.00    -0.242 F 
HETATM    6  C5  UNL     1      -0.400  -1.615  -0.374  1.00  0.00     0.067 C 
HETATM    7  C6  UNL     1      -1.045  -1.129   0.930  1.00  0.00     0.048 C 
HETATM    8  C7  UNL     1      -2.520  -1.019   0.340  1.00  0.00     0.024 C 
HETATM    9  C8  UNL     1      -2.602   0.026  -0.784  1.00  0.00     0.009 C 
HETATM   10  C9  UNL     1      -1.238   0.658  -1.119  1.00  0.00     0.027 C 
HETATM   11  C10 UNL     1      -0.835   1.693  -0.044  1.00  0.00     0.026 C 
HETATM   12  C11 UNL     1      -0.247   1.096   1.233  1.00  0.00     0.088 C 
HETATM   13  C12 UNL     1       0.538  -0.224   1.134  1.00  0.00     0.058 C 
HETATM   14  S1  UNL     1      -1.415   0.197   2.269  1.00  0.00     0.029 S 
HETATM   15  O1  UNL     1      -0.730  -0.244   3.527  1.00  0.00    -0.257 OA
ENDROOT
BRANCH   2  16
HETATM   16  N1  UNL     1       2.705  -1.187   0.334  1.00  0.00    -0.070 N 
ATOM     17  H13 UNL     1       3.570  -1.100  -0.199  1.00  0.00     0.275 HD
ATOM     18  H12 UNL     1       3.146  -1.221   1.253  1.00  0.00     0.275 HD
ATOM     19  H11 UNL     1       2.151  -2.012   0.103  1.00  0.00     0.275 HD
ENDBRANCH   2  16
TORSDOF 1
