REMARK  4 active torsions:
REMARK  status: ('A' for Active; 'I' for Inactive)
REMARK    1  A    between atoms: N1_2  and  C2_3 
REMARK    2  A    between atoms: N1_2  and  C3_6 
REMARK    3  A    between atoms: C2_3  and  O1_4 
REMARK    4  A    between atoms: C3_6  and  C4_7 
ROOT
HETATM    1  C4  UNL     1      -0.558   0.087  -0.272  1.00  0.00    -0.013 C 
HETATM    2  C5  UNL     1      -0.710  -1.446  -0.361  1.00  0.00     0.011 C 
HETATM    3  C6  UNL     1       0.375  -2.262   0.301  1.00  0.00     0.002 C 
HETATM    4  C7  UNL     1       1.713  -2.255  -0.399  1.00  0.00     0.026 C 
HETATM    5  C8  UNL     1       2.489  -0.935  -0.603  1.00  0.00     0.060 C 
HETATM    6  C9  UNL     1       3.781  -1.450  -1.171  1.00  0.00     0.070 C 
HETATM    7  N2  UNL     1       4.778  -1.852  -1.610  1.00  0.00    -0.196 NA
HETATM    8  C10 UNL     1       1.801   0.092  -1.524  1.00  0.00     0.010 C 
HETATM    9  C11 UNL     1       0.368   0.615  -1.399  1.00  0.00     0.017 C 
HETATM   10  C12 UNL     1       2.869   1.077  -1.035  1.00  0.00     0.017 C 
HETATM   11  C13 UNL     1       2.962   0.413   0.382  1.00  0.00    -0.018 C 
HETATM   12  C14 UNL     1       2.053   1.641   1.014  1.00  0.00     0.016 C 
HETATM   13  C15 UNL     1       1.177   0.659   1.737  1.00  0.00    -0.012 C 
HETATM   14  C16 UNL     1      -0.247   0.547   1.182  1.00  0.00     0.016 C 
HETATM   15  C17 UNL     1       2.420  -0.228   1.682  1.00  0.00     0.016 C 
ENDROOT
BRANCH   1  16
HETATM   16  C3  UNL     1      -1.984   0.730  -0.654  1.00  0.00     0.284 C 
BRANCH  16  17
HETATM   17  N1  UNL     1      -3.134   0.330   0.194  1.00  0.00     0.107 N 
HETATM   18  C1  UNL     1      -4.034  -0.561  -0.554  1.00  0.00     0.312 C 
BRANCH  17  19
HETATM   19  C2  UNL     1      -3.909   1.494   0.614  1.00  0.00     0.436 C 
BRANCH  19  20
HETATM   20  O1  UNL     1      -3.185   2.208   1.591  1.00  0.00    -0.373 OA
ATOM     21  H1  UNL     1      -3.689   2.965   1.864  1.00  0.00     0.211 HD
ENDBRANCH  19  20
ENDBRANCH  17  19
ENDBRANCH  16  17
ENDBRANCH   1  16
TORSDOF 4
