REMARK  10 active torsions:
REMARK  status: ('A' for Active; 'I' for Inactive)
REMARK    1  A    between atoms: C3_4  and  C4_5 
REMARK    2  A    between atoms: C5_7  and  O1_8 
REMARK    3  A    between atoms: C13_17  and  N2_18 
REMARK    4  A    between atoms: N2_18  and  S1_20 
REMARK    5  A    between atoms: S1_20  and  C14_23 
REMARK    6  A    between atoms: C14_23  and  C15_24 
REMARK    7  A    between atoms: C15_24  and  N3_25 
REMARK    8  A    between atoms: N4_28  and  C17_29 
REMARK    9  A    between atoms: C17_29  and  C18_30 
REMARK   10  A    between atoms: C22_36  and  C23_37 
ROOT
HETATM    1  S1  UNL     1      -1.169  -1.861   2.721  1.00  0.00     0.228 S 
HETATM    2  O2  UNL     1      -1.322  -1.009   3.882  1.00  0.00    -0.206 OA
HETATM    3  O3  UNL     1      -0.556  -3.165   2.806  1.00  0.00    -0.206 OA
ENDROOT
BRANCH   1   4
HETATM    4  N2  UNL     1      -0.304  -1.000   1.544  1.00  0.00    -0.314 N 
ATOM      5  H2  UNL     1      -0.623  -0.929   0.578  1.00  0.00     0.172 HD
BRANCH   4   6
HETATM    6  C13 UNL     1       0.944  -0.359   2.013  1.00  0.00     0.105 C 
HETATM    7  C10 UNL     1       1.274   1.010   1.185  1.00  0.00     0.018 C 
HETATM    8  C9  UNL     1       2.706   0.813   1.629  1.00  0.00     0.035 C 
HETATM    9  C11 UNL     1       1.903   2.459   0.820  1.00  0.00     0.043 C 
HETATM   10  C8  UNL     1       2.879  -0.484   0.925  1.00  0.00    -0.013 C 
HETATM   11  C12 UNL     1       3.361   1.943   0.933  1.00  0.00     0.228 C 
HETATM   12  C3  UNL     1       4.287  -0.972   1.143  1.00  0.00     0.035 C 
HETATM   13  C7  UNL     1       2.409  -1.011  -0.505  1.00  0.00     0.014 C 
HETATM   14  C24 UNL     1       2.210  -1.393   1.902  1.00  0.00     0.054 C 
HETATM   15  C2  UNL     1       4.926   0.139   0.150  1.00  0.00     0.286 C 
HETATM   16  C5  UNL     1       3.311  -2.308   1.036  1.00  0.00     0.075 C 
HETATM   17  N1  UNL     1       4.014   1.331  -0.245  1.00  0.00     0.090 N 
HETATM   18  C1  UNL     1       4.784   2.343  -0.966  1.00  0.00     0.310 C 
HETATM   19  C6  UNL     1       2.836  -2.449  -0.378  1.00  0.00     0.040 C 
BRANCH  12  20
HETATM   20  C4  UNL     1       5.071  -0.973   2.456  1.00  0.00     0.100 C 
HETATM   21 BR1  UNL     1       6.723  -1.966   2.161  1.00  0.00    -0.096 Br
ENDBRANCH  12  20
BRANCH  16  22
HETATM   22  O1  UNL     1       3.709  -3.537   1.639  1.00  0.00    -0.388 OA
ATOM     23  H1  UNL     1       3.150  -4.303   1.578  1.00  0.00     0.210 HD
ENDBRANCH  16  22
ENDBRANCH   4   6
ENDBRANCH   1   4
BRANCH   1  24
HETATM   24  C14 UNL     1      -2.752  -2.010   1.921  1.00  0.00     0.183 C 
BRANCH  24  25
HETATM   25  C15 UNL     1      -3.275  -0.648   1.511  1.00  0.00     0.145 C 
BRANCH  25  26
HETATM   26  N3  UNL     1      -3.448  -0.499   0.069  1.00  0.00    -0.317 N 
HETATM   27  C16 UNL     1      -4.697  -0.532  -0.527  1.00  0.00     0.322 C 
HETATM   28  O4  UNL     1      -5.696  -1.053  -0.050  1.00  0.00    -0.247 OA
HETATM   29  N4  UNL     1      -4.642   0.237  -1.709  1.00  0.00    -0.313 N 
HETATM   30  C19 UNL     1      -3.380   1.026  -1.702  1.00  0.00     0.059 C 
HETATM   31  C20 UNL     1      -2.837   1.307  -3.107  1.00  0.00     0.041 C 
HETATM   32  C21 UNL     1      -3.576   2.380  -0.976  1.00  0.00     0.041 C 
HETATM   33  C22 UNL     1      -2.461   0.131  -0.818  1.00  0.00     0.223 C 
BRANCH  29  34
HETATM   34  C17 UNL     1      -5.929   0.784  -2.131  1.00  0.00     0.241 C 
BRANCH  34  35
HETATM   35  C18 UNL     1      -5.957   1.423  -3.501  1.00  0.00     0.191 C 
HETATM   36  O5  UNL     1      -6.062   2.623  -3.684  1.00  0.00    -0.647 OA
HETATM   37  O6  UNL     1      -5.875   0.534  -4.521  1.00  0.00    -0.647 OA
ENDBRANCH  34  35
ENDBRANCH  29  34
BRANCH  33  38
HETATM   38  C23 UNL     1      -1.651  -0.897  -1.629  1.00  0.00     0.410 C 
HETATM   39  F1  UNL     1      -2.416  -1.619  -2.475  1.00  0.00    -0.169 F 
HETATM   40  F2  UNL     1      -1.022  -1.780  -0.812  1.00  0.00    -0.169 F 
HETATM   41  F3  UNL     1      -0.682  -0.295  -2.357  1.00  0.00    -0.169 F 
ENDBRANCH  33  38
ENDBRANCH  25  26
ENDBRANCH  24  25
ENDBRANCH   1  24
TORSDOF 10
