REMARK  11 active torsions:
REMARK  status: ('A' for Active; 'I' for Inactive)
REMARK    1  A    between atoms: S1_2  and  C2_3 
REMARK    2  A    between atoms: C6_9  and  C7_10 
REMARK    3  A    between atoms: C7_10  and  O1_11 
REMARK    4  A    between atoms: C7_10  and  C8_13 
REMARK    5  A    between atoms: C11_16  and  C12_17 
REMARK    6  A    between atoms: C12_17  and  O2_19 
REMARK    7  A    between atoms: O2_19  and  C14_20 
REMARK    8  A    between atoms: C14_20  and  C15_22 
REMARK    9  A    between atoms: C15_22  and  N2_23 
REMARK   10  A    between atoms: C15_22  and  C25_34 
REMARK   11  A    between atoms: N2_23  and  C16_25 
ROOT
HETATM    1  C12 UNL     1       0.569  -0.049  -3.095  1.00  0.00     0.132 C 
HETATM    2  C13 UNL     1       0.552   0.922  -4.274  1.00  0.00     0.040 C 
ENDROOT
BRANCH   1   3
HETATM    3  C11 UNL     1       1.490   0.335  -1.919  1.00  0.00     0.015 C 
HETATM    4  C10 UNL     1       2.970   0.156  -2.237  1.00  0.00     0.007 C 
HETATM    5  C9  UNL     1       3.838   0.272  -0.974  1.00  0.00     0.008 C 
HETATM    6  C8  UNL     1       3.195   1.092   0.166  1.00  0.00     0.019 C 
HETATM    7  C29 UNL     1       2.328   2.229  -0.394  1.00  0.00     0.008 C 
HETATM    8  C28 UNL     1       1.220   1.735  -1.333  1.00  0.00     0.007 C 
BRANCH   6   9
HETATM    9  C7  UNL     1       4.183   1.633   1.241  1.00  0.00     0.158 C 
BRANCH   9  10
HETATM   10  C6  UNL     1       3.872   1.062   2.610  1.00  0.00     0.004 A 
HETATM   11  C2  UNL     1       4.204  -0.231   3.036  1.00  0.00     0.078 A 
HETATM   12  N1  UNL     1       3.836  -0.730   4.246  1.00  0.00    -0.360 N 
HETATM   13  C3  UNL     1       3.111   0.051   5.064  1.00  0.00     0.089 A 
ATOM     14  H1  UNL     1       4.104  -1.674   4.526  1.00  0.00     0.166 HD
HETATM   15  C4  UNL     1       2.732   1.335   4.740  1.00  0.00     0.018 A 
HETATM   16  C5  UNL     1       3.113   1.840   3.501  1.00  0.00     0.014 A 
BRANCH  11  17
HETATM   17  S1  UNL     1       5.131  -1.379   2.034  1.00  0.00    -0.116 SA
HETATM   18  C1  UNL     1       4.117  -2.845   2.332  1.00  0.00     0.097 C 
ENDBRANCH  11  17
ENDBRANCH   9  10
BRANCH   9  19
HETATM   19  O1  UNL     1       5.549   1.424   0.897  1.00  0.00    -0.390 OA
ATOM     20  H1  UNL     1       5.744   1.782   0.039  1.00  0.00     0.210 HD
ENDBRANCH   9  19
ENDBRANCH   6   9
ENDBRANCH   1   3
BRANCH   1  21
HETATM   21  O2  UNL     1      -0.744  -0.190  -2.512  1.00  0.00    -0.314 OA
BRANCH  21  22
HETATM   22  C14 UNL     1      -1.456  -1.276  -2.921  1.00  0.00     0.282 C 
HETATM   23  O3  UNL     1      -1.281  -1.832  -4.000  1.00  0.00    -0.263 OA
BRANCH  22  24
HETATM   24  C15 UNL     1      -2.457  -1.788  -1.856  1.00  0.00     0.184 C 
BRANCH  24  25
HETATM   25  N2  UNL     1      -2.242  -1.231  -0.492  1.00  0.00    -0.382 N 
ATOM     26  H2  UNL     1      -1.488  -1.590   0.094  1.00  0.00     0.160 HD
BRANCH  25  27
HETATM   27  C16 UNL     1      -3.063  -0.230  -0.024  1.00  0.00    -0.012 C 
HETATM   28  C17 UNL     1      -2.867   1.066  -0.375  1.00  0.00     0.039 C 
HETATM   29  C18 UNL     1      -2.508   2.080   0.824  1.00  0.00    -0.004 C 
HETATM   30  C23 UNL     1      -4.147   2.009  -0.552  1.00  0.00    -0.004 C 
HETATM   31  C19 UNL     1      -3.336   1.752   2.094  1.00  0.00     0.010 C 
HETATM   32  C24 UNL     1      -3.161   3.108  -0.111  1.00  0.00     0.010 C 
HETATM   33  C20 UNL     1      -4.544   0.889   1.648  1.00  0.00    -0.009 C 
HETATM   34  C21 UNL     1      -3.992  -0.481   1.149  1.00  0.00     0.057 C 
HETATM   35  C22 UNL     1      -5.240   1.630   0.476  1.00  0.00     0.010 C 
ENDBRANCH  25  27
ENDBRANCH  24  25
BRANCH  24  36
HETATM   36  C25 UNL     1      -2.389  -3.349  -1.813  1.00  0.00     0.010 C 
HETATM   37  C26 UNL     1      -3.470  -3.974  -0.919  1.00  0.00     0.012 C 
HETATM   38  C27 UNL     1      -1.000  -3.866  -1.409  1.00  0.00     0.012 C 
ENDBRANCH  24  36
ENDBRANCH  22  24
ENDBRANCH  21  22
ENDBRANCH   1  21
TORSDOF 11
