REMARK  7 active torsions:
REMARK  status: ('A' for Active; 'I' for Inactive)
REMARK    1  A    between atoms: O1_2  and  C2_3 
REMARK    2  A    between atoms: C2_3  and  C3_5 
REMARK    3  A    between atoms: C3_5  and  N1_6 
REMARK    4  A    between atoms: C3_5  and  C15_25 
REMARK       I    between atoms: N1_6  and  C4_8 
REMARK    5  A    between atoms: C4_8  and  C5_10 
REMARK    6  A    between atoms: C9_14  and  N2_15 
REMARK       I    between atoms: N2_15  and  C10_17 
REMARK    7  A    between atoms: C10_17  and  C11_19 
ROOT
HETATM    1  N1  UNL     1       1.097  -1.058  -0.198  1.00  0.00    -0.342 N 
ATOM      2  H1  UNL     1       0.125  -1.281  -0.414  1.00  0.00     0.163 HD
HETATM    3  C4  UNL     1       1.425  -0.280   0.898  1.00  0.00     0.223 C 
HETATM    4  O3  UNL     1       2.478  -0.445   1.512  1.00  0.00    -0.273 OA
ENDROOT
BRANCH   3   5
HETATM    5  C5  UNL     1       0.399   0.845   1.177  1.00  0.00     0.084 C 
HETATM    6  C6  UNL     1       0.515   1.633   2.507  1.00  0.00     0.019 C 
HETATM    7  C7  UNL     1      -0.832   1.060   2.962  1.00  0.00    -0.005 C 
HETATM    8  C8  UNL     1      -2.048   1.960   2.712  1.00  0.00     0.030 C 
HETATM    9  C14 UNL     1      -1.029   0.438   1.581  1.00  0.00     0.026 C 
HETATM   10  C9  UNL     1      -2.058   1.535   1.227  1.00  0.00     0.090 C 
BRANCH  10  11
HETATM   11  N2  UNL     1      -3.349   1.020   0.757  1.00  0.00    -0.356 N 
HETATM   12  C10 UNL     1      -3.464   0.235  -0.365  1.00  0.00     0.224 C 
HETATM   13  O4  UNL     1      -2.531  -0.104  -1.080  1.00  0.00    -0.273 OA
ATOM     14  H2  UNL     1      -4.192   1.253   1.282  1.00  0.00     0.162 HD
BRANCH  12  15
HETATM   15  C11 UNL     1      -4.839  -0.245  -0.603  1.00  0.00     0.110 A 
HETATM   16  C12 UNL     1      -5.375  -0.459  -1.999  1.00  0.00     0.050 A 
HETATM   17  C13 UNL     1      -5.900   0.667  -1.161  1.00  0.00     0.088 A 
HETATM   18 BR1  UNL     1      -5.510   2.446  -1.724  1.00  0.00    -0.072 Br
HETATM   19 BR2  UNL     1      -7.654   0.508  -0.413  1.00  0.00    -0.072 Br
ENDBRANCH  12  15
ENDBRANCH  10  11
ENDBRANCH   3   5
BRANCH   1  20
HETATM   20  C3  UNL     1       2.192  -1.551  -1.038  1.00  0.00     0.234 C 
BRANCH  20  21
HETATM   21  C2  UNL     1       3.124  -2.638  -0.462  1.00  0.00     0.287 C 
HETATM   22  O2  UNL     1       4.211  -2.931  -0.950  1.00  0.00    -0.262 OA
BRANCH  21  23
HETATM   23  O1  UNL     1       2.542  -3.330   0.561  1.00  0.00    -0.325 OA
HETATM   24  C1  UNL     1       3.320  -4.393   1.124  1.00  0.00     0.213 C 
ENDBRANCH  21  23
ENDBRANCH  20  21
BRANCH  20  25
HETATM   25  C15 UNL     1       2.902  -0.373  -1.702  1.00  0.00     0.044 A 
HETATM   26  C16 UNL     1       4.070   0.181  -1.189  1.00  0.00     0.069 A 
HETATM   27  C17 UNL     1       4.566   1.336  -1.779  1.00  0.00     0.119 A 
HETATM   28  F1  UNL     1       5.681   1.896  -1.294  1.00  0.00    -0.206 F 
HETATM   29  C18 UNL     1       3.918   1.931  -2.846  1.00  0.00     0.059 A 
HETATM   30  C19 UNL     1       2.765   1.332  -3.293  1.00  0.00     0.091 A 
HETATM   31  N3  UNL     1       2.239   0.213  -2.744  1.00  0.00    -0.367 N 
ATOM     32  H3  UNL     1       1.369  -0.184  -3.099  1.00  0.00     0.165 HD
ENDBRANCH  20  25
ENDBRANCH   1  20
TORSDOF 7
