REMARK  7 active torsions:
REMARK  status: ('A' for Active; 'I' for Inactive)
REMARK    1  A    between atoms: C5_6  and  C6_7 
REMARK       I    between atoms: C6_7  and  N1_9 
REMARK    2  A    between atoms: N1_9  and  C7_11 
REMARK    3  A    between atoms: C7_11  and  C8_12 
REMARK    4  A    between atoms: C7_11  and  C9_14 
REMARK       I    between atoms: C9_14  and  N2_16 
REMARK    5  A    between atoms: C11_21  and  C12_22 
REMARK    6  A    between atoms: C19_33  and  C20_34 
REMARK    7  A    between atoms: C20_34  and  O5_36 
ROOT
HETATM    1  C7  UNL     1       1.472  -3.262   0.080  1.00  0.00     0.186 C 
ENDROOT
BRANCH   1   2
HETATM    2  N1  UNL     1       1.888  -1.975  -0.500  1.00  0.00    -0.347 N 
HETATM    3  C6  UNL     1       2.573  -1.005   0.190  1.00  0.00     0.225 C 
HETATM    4  O2  UNL     1       3.293  -1.281   1.143  1.00  0.00    -0.273 OA
ATOM      5  H1  UNL     1       1.653  -1.792  -1.476  1.00  0.00     0.163 HD
BRANCH   3   6
HETATM    6  C5  UNL     1       2.183   0.405  -0.299  1.00  0.00     0.118 C 
HETATM    7  C4  UNL     1       3.221   1.516  -0.554  1.00  0.00     0.158 C 
HETATM    8  O1  UNL     1       4.216   1.870   0.440  1.00  0.00    -0.372 OA
HETATM    9  C19 UNL     1       2.227   2.490   0.068  1.00  0.00     0.113 C 
HETATM   10  C3  UNL     1       3.220   2.601   1.197  1.00  0.00     0.172 C 
HETATM   11  C2  UNL     1       2.258   1.718   1.965  1.00  0.00    -0.053 C 
HETATM   12  C1  UNL     1       2.157   1.345   3.242  1.00  0.00     0.017 C 
HETATM   13  C18 UNL     1       1.480   1.334   0.721  1.00  0.00     0.056 C 
BRANCH   9  14
HETATM   14  C20 UNL     1       1.511   3.570  -0.686  1.00  0.00     0.273 C 
HETATM   15  O4  UNL     1       1.455   4.754  -0.374  1.00  0.00    -0.264 OA
BRANCH  14  16
HETATM   16  O5  UNL     1       0.852   3.035  -1.762  1.00  0.00    -0.326 OA
HETATM   17  C21 UNL     1       0.019   3.917  -2.519  1.00  0.00     0.213 C 
ENDBRANCH  14  16
ENDBRANCH   9  14
ENDBRANCH   3   6
ENDBRANCH   1   2
BRANCH   1  18
HETATM   18  C8  UNL     1       0.949  -3.147   1.517  1.00  0.00     0.120 C 
HETATM   19 BR1  UNL     1       2.061  -4.169   2.750  1.00  0.00    -0.094 Br
ENDBRANCH   1  18
BRANCH   1  20
HETATM   20  C9  UNL     1       0.314  -3.852  -0.774  1.00  0.00     0.246 C 
HETATM   21  O3  UNL     1      -0.267  -4.882  -0.442  1.00  0.00    -0.271 OA
HETATM   22  N2  UNL     1       0.024  -3.201  -1.959  1.00  0.00    -0.310 N 
HETATM   23  C10 UNL     1      -0.823  -2.224  -1.917  1.00  0.00     0.132 A 
ATOM     24  H2  UNL     1       0.463  -3.481  -2.836  1.00  0.00     0.170 HD
HETATM   25  N3  UNL     1      -1.290  -1.752  -0.697  1.00  0.00    -0.328 N 
HETATM   26  C17 UNL     1      -1.248  -1.513  -3.175  1.00  0.00     0.093 A 
HETATM   27  C11 UNL     1      -2.079  -0.720  -0.694  1.00  0.00     0.123 A 
ATOM     28  H3  UNL     1      -1.020  -2.205   0.176  1.00  0.00     0.169 HD
HETATM   29  N4  UNL     1      -2.488  -0.049  -1.819  1.00  0.00    -0.351 N 
HETATM   30  C16 UNL     1      -2.057  -0.455  -3.050  1.00  0.00     0.117 A 
ATOM     31  H4  UNL     1      -3.113   0.752  -1.736  1.00  0.00     0.166 HD
HETATM   32 CL1  UNL     1      -0.669  -2.040  -4.696  1.00  0.00    -0.079 Cl
BRANCH  27  33
HETATM   33  C12 UNL     1      -2.660  -0.118   0.650  1.00  0.00     0.161 C 
HETATM   34  F1  UNL     1      -2.130   1.127   0.795  1.00  0.00    -0.234 F 
HETATM   35  C13 UNL     1      -4.215  -0.160   0.778  1.00  0.00     0.052 C 
HETATM   36  C14 UNL     1      -4.027  -0.431   2.279  1.00  0.00     0.007 C 
HETATM   37  C15 UNL     1      -2.634  -0.992   1.939  1.00  0.00     0.052 C 
ENDBRANCH  27  33
ENDBRANCH   1  20
TORSDOF 7
