REMARK  10 active torsions:
REMARK  status: ('A' for Active; 'I' for Inactive)
REMARK    1  A    between atoms: C2_2  and  C3_3 
REMARK    2  A    between atoms: C4_4  and  O1_5 
REMARK    3  A    between atoms: O1_5  and  C5_6 
REMARK    4  A    between atoms: C5_6  and  C6_7 
REMARK    5  A    between atoms: C14_16  and  O3_17 
REMARK    6  A    between atoms: C16_20  and  C17_21 
REMARK    7  A    between atoms: C17_21  and  C18_22 
REMARK    8  A    between atoms: C18_22  and  C19_23 
REMARK    9  A    between atoms: C23_30  and  O4_31 
REMARK   10  A    between atoms: C23_30  and  C24_33 
ROOT
HETATM    1  C3  UNL     1       2.330   1.109  -0.671  1.00  0.00     0.077 C 
HETATM    2  C4  UNL     1       1.906  -0.474  -0.426  1.00  0.00     0.162 C 
HETATM    3  C12 UNL     1       1.022  -0.666   0.861  1.00  0.00     0.159 C 
HETATM    4  O2  UNL     1       1.359   0.533   1.507  1.00  0.00    -0.366 OA
HETATM    5  C13 UNL     1       0.388   1.426   0.849  1.00  0.00     0.123 C 
HETATM    6  C14 UNL     1      -0.854   0.921   1.725  1.00  0.00     0.163 C 
HETATM    7  C15 UNL     1      -0.538  -0.384   0.761  1.00  0.00     0.056 C 
HETATM    8  C16 UNL     1      -0.602   0.656  -0.352  1.00  0.00     0.035 C 
HETATM    9  C23 UNL     1       1.299   2.250  -0.044  1.00  0.00     0.104 C 
ENDROOT
BRANCH   8  10
HETATM   10  C17 UNL     1      -1.861   1.246  -1.028  1.00  0.00     0.010 C 
BRANCH  10  11
HETATM   11  C18 UNL     1      -2.879   0.160  -1.411  1.00  0.00     0.033 C 
BRANCH  11  12
HETATM   12  C19 UNL     1      -3.994  -0.042  -0.382  1.00  0.00     0.186 C 
HETATM   13  C20 UNL     1      -4.911   1.164  -0.211  1.00  0.00     0.034 C 
HETATM   14  C21 UNL     1      -6.212   0.572   0.316  1.00  0.00     0.029 C 
HETATM   15  C22 UNL     1      -6.126  -0.917   0.009  1.00  0.00     0.233 C 
HETATM   16  N1  UNL     1      -4.940  -1.070  -0.830  1.00  0.00    -0.071 N 
ATOM     17  H12 UNL     1      -5.140  -1.031  -1.829  1.00  0.00     0.277 HD
ATOM     18  H11 UNL     1      -4.552  -2.013  -0.819  1.00  0.00     0.277 HD
ENDBRANCH  11  12
ENDBRANCH  10  11
ENDBRANCH   8  10
BRANCH   6  19
HETATM   19  O3  UNL     1      -2.119   1.593   1.690  1.00  0.00    -0.392 OA
ATOM     20  H3  UNL     1      -2.856   1.293   2.210  1.00  0.00     0.210 HD
ENDBRANCH   6  19
BRANCH   9  21
HETATM   21  O4  UNL     1       0.575   2.874  -1.125  1.00  0.00    -0.385 OA
ATOM     22  H4  UNL     1      -0.015   3.527  -0.766  1.00  0.00     0.210 HD
ENDBRANCH   9  21
BRANCH   9  23
HETATM   23  C24 UNL     1       2.032   3.397   0.729  1.00  0.00     0.016 C 
HETATM   24  C25 UNL     1       2.872   2.972   1.940  1.00  0.00     0.012 C 
HETATM   25  C26 UNL     1       1.061   4.495   1.208  1.00  0.00     0.012 C 
ENDBRANCH   9  23
BRANCH   1  26
HETATM   26  C2  UNL     1       2.642   1.318  -2.141  1.00  0.00    -0.027 C 
HETATM   27  C1  UNL     1       3.878   1.469  -2.632  1.00  0.00     0.007 C 
ENDBRANCH   1  26
BRANCH   2  28
HETATM   28  O1  UNL     1       3.153  -1.184  -0.228  1.00  0.00    -0.378 OA
BRANCH  28  29
HETATM   29  C5  UNL     1       3.332  -2.302  -1.093  1.00  0.00     0.207 C 
BRANCH  29  30
HETATM   30  C6  UNL     1       2.909  -3.571  -0.401  1.00  0.00    -0.035 A 
HETATM   31  C7  UNL     1       3.642  -4.040   0.699  1.00  0.00     0.009 A 
HETATM   32  C8  UNL     1       3.290  -5.233   1.331  1.00  0.00     0.001 A 
HETATM   33  C9  UNL     1       2.196  -5.965   0.873  1.00  0.00     0.000 A 
HETATM   34  C10 UNL     1       1.448  -5.499  -0.208  1.00  0.00     0.001 A 
HETATM   35  C11 UNL     1       1.801  -4.305  -0.844  1.00  0.00     0.009 A 
ENDBRANCH  29  30
ENDBRANCH  28  29
ENDBRANCH   2  28
TORSDOF 10
