REMARK  4 active torsions:
REMARK  status: ('A' for Active; 'I' for Inactive)
REMARK    1  A    between atoms: C2_2  and  C3_3 
REMARK    2  A    between atoms: C3_3  and  C4_4 
REMARK    3  A    between atoms: C4_4  and  C5_5 
REMARK    4  A    between atoms: C14_14  and  O1_15 
ROOT
HETATM    1  C5  UNL     1      -1.304   0.618   0.770  1.00  0.00    -0.010 C 
HETATM    2  C6  UNL     1      -0.854  -0.338   1.964  1.00  0.00     0.010 C 
HETATM    3  C7  UNL     1      -0.115  -1.729   1.778  1.00  0.00    -0.010 C 
HETATM    4  C8  UNL     1      -1.111  -2.785   1.302  1.00  0.00     0.011 C 
HETATM    5  C9  UNL     1       1.236  -1.718   0.990  1.00  0.00    -0.034 C 
HETATM    6  C10 UNL     1       2.102  -0.445   1.607  1.00  0.00     0.015 C 
HETATM    7  C11 UNL     1       3.263  -1.087   0.923  1.00  0.00    -0.005 C 
HETATM    8  C12 UNL     1       2.596  -2.417   1.451  1.00  0.00     0.015 C 
HETATM    9  C13 UNL     1       3.110  -0.770  -0.604  1.00  0.00     0.033 C 
HETATM   10  C14 UNL     1       2.326  -1.909  -1.282  1.00  0.00     0.064 C 
HETATM   11  C15 UNL     1       1.173  -2.458  -0.415  1.00  0.00     0.048 C 
HETATM   12  C16 UNL     1       1.999  -0.840  -2.390  1.00  0.00     0.048 C 
HETATM   13  C17 UNL     1       1.901   0.236  -1.236  1.00  0.00    -0.030 C 
HETATM   14  C18 UNL     1       2.324   1.659  -1.672  1.00  0.00     0.010 C 
HETATM   15  C19 UNL     1       1.661   2.789  -0.833  1.00  0.00     0.001 C 
HETATM   16  C20 UNL     1       0.139   2.630  -0.507  1.00  0.00     0.005 C 
HETATM   17  C21 UNL     1      -0.051   1.235   0.090  1.00  0.00    -0.010 C 
HETATM   18  C22 UNL     1       0.372   0.306  -1.030  1.00  0.00     0.015 C 
ENDROOT
BRANCH   1  19
HETATM   19  C4  UNL     1      -2.287   1.689   1.305  1.00  0.00     0.005 C 
BRANCH  19  20
HETATM   20  C3  UNL     1      -3.720   1.480   0.791  1.00  0.00     0.000 C 
BRANCH  20  21
HETATM   21  C2  UNL     1      -3.853   1.795  -0.703  1.00  0.00    -0.005 C 
HETATM   22  C1  UNL     1      -5.279   1.604  -1.198  1.00  0.00     0.005 C 
ENDBRANCH  20  21
ENDBRANCH  19  20
ENDBRANCH   1  19
BRANCH  10  23
HETATM   23  O1  UNL     1       3.133  -3.005  -1.766  1.00  0.00    -0.389 OA
ATOM     24  H1  UNL     1       2.649  -3.708  -2.184  1.00  0.00     0.210 HD
ENDBRANCH  10  23
TORSDOF 4
