REMARK  2 active torsions:
REMARK  status: ('A' for Active; 'I' for Inactive)
REMARK    1  A    between atoms: O1_2  and  C2_3 
REMARK    2  A    between atoms: C2_3  and  C3_5 
ROOT
HETATM    1  C3  UNL     1       2.917  -0.848  -0.086  1.00  0.00     0.288 C 
HETATM    2  N1  UNL     1       2.788   0.183  -1.077  1.00  0.00    -0.328 N 
ATOM      3  H1  UNL     1       3.608   0.587  -1.530  1.00  0.00     0.165 HD
HETATM    4  C4  UNL     1       1.514   0.606  -1.394  1.00  0.00     0.266 C 
HETATM    5  O3  UNL     1       1.288   0.979  -2.542  1.00  0.00    -0.270 OA
HETATM    6  C5  UNL     1       0.436   0.433  -0.286  1.00  0.00     0.258 C 
HETATM    7  N2  UNL     1      -0.318  -0.831  -0.571  1.00  0.00    -0.103 NA
HETATM    8  N3  UNL     1      -1.739  -0.551  -0.831  1.00  0.00    -0.093 NA
HETATM    9  C6  UNL     1      -2.112   0.708  -0.206  1.00  0.00     0.287 C 
HETATM   10  N4  UNL     1      -2.704   0.401   1.103  1.00  0.00    -0.005 N 
ATOM     11  H41 UNL     1      -2.216   0.803   1.904  1.00  0.00     0.284 HD
ATOM     12  H42 UNL     1      -2.604  -0.567   1.407  1.00  0.00     0.284 HD
HETATM   13  C7  UNL     1      -4.128   0.871   0.917  1.00  0.00     0.252 C 
HETATM   14  C8  UNL     1      -4.990   0.844   2.153  1.00  0.00     0.081 C 
HETATM   15  C9  UNL     1      -3.969   2.233   0.247  1.00  0.00     0.103 C 
HETATM   16  C10 UNL     1      -3.347   1.377  -0.823  1.00  0.00     0.175 C 
HETATM   17  N5  UNL     1      -4.249   0.626  -1.378  1.00  0.00    -0.290 N 
ATOM     18  H5  UNL     1      -4.471   0.448  -2.358  1.00  0.00     0.188 HD
HETATM   19  O4  UNL     1      -4.835   0.125  -0.161  1.00  0.00    -0.244 OA
HETATM   20  S1  UNL     1      -0.733   1.811  -0.247  1.00  0.00    -0.061 SA
HETATM   21  C11 UNL     1       1.114   0.294   1.110  1.00  0.00     0.266 C 
HETATM   22  O5  UNL     1       0.636   0.692   2.176  1.00  0.00    -0.270 OA
HETATM   23  N6  UNL     1       2.344  -0.328   1.124  1.00  0.00    -0.328 N 
ATOM     24  H6  UNL     1       2.853  -0.420   2.003  1.00  0.00     0.165 HD
ENDROOT
BRANCH   1  25
HETATM   25  C2  UNL     1       4.308  -1.552  -0.001  1.00  0.00     0.301 C 
HETATM   26  O2  UNL     1       4.675  -2.216   0.968  1.00  0.00    -0.261 OA
BRANCH  25  27
HETATM   27  O1  UNL     1       4.977  -1.485  -1.192  1.00  0.00    -0.323 OA
HETATM   28  C1  UNL     1       6.184  -2.271  -1.319  1.00  0.00     0.213 C 
ENDBRANCH  25  27
ENDBRANCH   1  25
TORSDOF 2
