REMARK  2 active torsions:
REMARK  status: ('A' for Active; 'I' for Inactive)
REMARK    1  A    between atoms: C4_7  and  C5_8 
REMARK    2  A    between atoms: C5_8  and  N2_9 
ROOT
HETATM    1  N2  UNL     1      -0.859   0.806   0.048  1.00  0.00    -0.234 NA
HETATM    2  C6  UNL     1      -0.508   1.064   1.468  1.00  0.00     0.071 C 
HETATM    3  C7  UNL     1       0.588   0.725   2.215  1.00  0.00     0.024 C 
HETATM    4  C8  UNL     1       1.853   0.148   1.726  1.00  0.00    -0.024 C 
HETATM    5  C9  UNL     1       3.099  -0.079   2.297  1.00  0.00     0.009 C 
HETATM    6  C10 UNL     1       4.153  -0.471   1.396  1.00  0.00    -0.012 C 
HETATM    7  C11 UNL     1       3.954  -0.304  -0.013  1.00  0.00     0.064 C 
HETATM    8  C12 UNL     1       3.915  -1.593  -0.838  1.00  0.00    -0.013 C 
HETATM    9  C13 UNL     1       2.782  -2.129  -1.384  1.00  0.00    -0.002 C 
HETATM   10  C14 UNL     1       1.402  -1.543  -1.416  1.00  0.00     0.014 C 
HETATM   11  C15 UNL     1       0.950  -0.642  -0.511  1.00  0.00    -0.003 C 
HETATM   12  C16 UNL     1       1.917  -0.152   0.418  1.00  0.00    -0.007 C 
HETATM   13  C17 UNL     1       2.896   0.502  -0.248  1.00  0.00    -0.035 C 
HETATM   14  C18 UNL     1       2.389   1.416  -1.319  1.00  0.00     0.011 C 
HETATM   15  C19 UNL     1       1.033   1.568  -1.475  1.00  0.00     0.026 C 
HETATM   16  C20 UNL     1       0.121   0.549  -0.768  1.00  0.00     0.029 C 
ENDROOT
BRANCH   1  17
HETATM   17  C5  UNL     1      -1.937  -0.137  -0.049  1.00  0.00     0.089 C 
BRANCH  17  18
HETATM   18  C4  UNL     1      -3.246   0.117  -0.158  1.00  0.00     0.018 A 
HETATM   19  C3  UNL     1      -4.257  -0.911  -0.069  1.00  0.00     0.023 A 
HETATM   20  C2  UNL     1      -5.519  -0.484  -0.184  1.00  0.00     0.038 A 
HETATM   21  C1  UNL     1      -5.575   0.957  -0.451  1.00  0.00     0.068 A 
HETATM   22  N1  UNL     1      -6.621   1.640  -0.726  1.00  0.00    -0.393 N 
HETATM   23  S1  UNL     1      -3.980   1.672  -0.383  1.00  0.00    -0.072 SA
ATOM     24  H12 UNL     1      -7.551   1.223  -0.766  1.00  0.00     0.156 HD
ATOM     25  H11 UNL     1      -6.660   2.642  -0.912  1.00  0.00     0.156 HD
ENDBRANCH  17  18
ENDBRANCH   1  17
TORSDOF 2
