REMARK  2 active torsions:
REMARK  status: ('A' for Active; 'I' for Inactive)
REMARK    1  A    between atoms: C3_4  and  N2_5 
REMARK    2  A    between atoms: N2_5  and  C4_7 
ROOT
HETATM    1  C1  UNL     1       0.630   3.628  -0.300  1.00  0.00     0.144 C 
HETATM    2  N1  UNL     1      -0.075   2.452   0.237  1.00  0.00    -0.183 NA
HETATM    3  C2  UNL     1      -0.501   1.473  -0.709  1.00  0.00     0.146 C 
HETATM    4  C3  UNL     1      -1.402   0.535  -0.272  1.00  0.00     0.124 C 
HETATM    5  C6  UNL     1      -0.921   0.062   1.112  1.00  0.00     0.209 C 
HETATM    6  O2  UNL     1      -1.624  -0.579   1.885  1.00  0.00    -0.288 OA
HETATM    7  C7  UNL     1       0.531   0.467   1.456  1.00  0.00     0.231 C 
HETATM    8  C8  UNL     1       1.298  -0.290   0.603  1.00  0.00     0.096 C 
HETATM    9  S1  UNL     1       1.987  -1.730   1.354  1.00  0.00    -0.112 SA
HETATM   10  C9  UNL     1       3.306  -2.128   0.182  1.00  0.00     0.082 C 
HETATM   11  C10 UNL     1       2.848  -1.982  -1.259  1.00  0.00     0.032 C 
HETATM   12  C11 UNL     1       2.546  -0.527  -1.594  1.00  0.00     0.150 C 
HETATM   13  N6  UNL     1       1.433   0.003  -0.799  1.00  0.00    -0.286 N 
HETATM   14  N7  UNL     1       0.557   0.919  -1.491  1.00  0.00    -0.284 N 
ATOM     15  H7  UNL     1       0.686   1.155  -2.475  1.00  0.00     0.188 HD
HETATM   16  N8  UNL     1       0.537   1.897   1.399  1.00  0.00    -0.326 N 
HETATM   17  C12 UNL     1       0.212   2.591   2.653  1.00  0.00     0.166 C 
ENDROOT
BRANCH   4  18
HETATM   18  N2  UNL     1      -2.063  -0.391  -1.076  1.00  0.00    -0.332 N 
ATOM     19  H2  UNL     1      -2.048  -0.176  -2.073  1.00  0.00     0.168 HD
BRANCH  18  20
HETATM   20  C4  UNL     1      -2.728  -1.540  -0.749  1.00  0.00     0.174 C 
HETATM   21  N3  UNL     1      -2.513  -2.688  -1.325  1.00  0.00    -0.222 N 
HETATM   22  O1  UNL     1      -3.459  -3.600  -0.780  1.00  0.00    -0.153 OA
ATOM     23  H3  UNL     1      -1.805  -2.893  -2.030  1.00  0.00     0.198 HD
HETATM   24  N4  UNL     1      -4.438  -2.907  -0.067  1.00  0.00    -0.222 N 
HETATM   25  C5  UNL     1      -3.915  -1.674   0.164  1.00  0.00     0.167 C 
ATOM     26  H4  UNL     1      -5.353  -3.253   0.220  1.00  0.00     0.198 HD
HETATM   27  N5  UNL     1      -4.346  -0.788   0.993  1.00  0.00    -0.381 N 
ATOM     28  H52 UNL     1      -3.953   0.137   1.166  1.00  0.00     0.157 HD
ATOM     29  H51 UNL     1      -5.151  -0.879   1.612  1.00  0.00     0.157 HD
ENDBRANCH  18  20
ENDBRANCH   4  18
TORSDOF 2
