REMARK  6 active torsions:
REMARK  status: ('A' for Active; 'I' for Inactive)
REMARK    1  A    between atoms: N1_2  and  C3_4 
REMARK    2  A    between atoms: C4_5  and  C15_18 
REMARK    3  A    between atoms: C9_12  and  C21_24 
REMARK    4  A    between atoms: C10_13  and  C11_14 
REMARK    5  A    between atoms: C12_15  and  C18_21 
REMARK    6  A    between atoms: C21_24  and  O1_25 
ROOT
HETATM    1  C3  UNL     1      -0.232   0.764   0.800  1.00  0.00     0.270 C 
HETATM    2  C4  UNL     1      -1.629   0.020   0.804  1.00  0.00     0.028 C 
HETATM    3  C5  UNL     1      -2.611   0.456  -0.302  1.00  0.00     0.037 C 
HETATM    4  C6  UNL     1      -2.267   0.122  -1.753  1.00  0.00     0.276 C 
HETATM    5  N2  UNL     1      -0.928   0.370  -2.243  1.00  0.00     0.124 N 
HETATM    6  C7  UNL     1      -0.509   1.782  -2.209  1.00  0.00     0.544 C 
HETATM    7  N3  UNL     1       0.766   1.806  -1.495  1.00  0.00     0.129 N 
HETATM    8  C8  UNL     1       1.230   3.103  -1.078  1.00  0.00     0.313 C 
HETATM    9  C9  UNL     1       0.737   0.675  -0.555  1.00  0.00     0.254 C 
HETATM   10  C10 UNL     1       0.165  -0.318  -1.568  1.00  0.00     0.274 C 
ENDROOT
BRANCH   1  11
HETATM   11  N1  UNL     1      -0.190   2.125   1.469  1.00  0.00     0.087 N 
HETATM   12  C1  UNL     1       0.043   2.006   2.920  1.00  0.00     0.310 C 
HETATM   13  C2  UNL     1      -1.356   2.985   1.277  1.00  0.00     0.310 C 
ENDBRANCH   1  11
BRANCH   2  14
HETATM   14  C15 UNL     1      -1.625  -1.557   0.928  1.00  0.00     0.001 C 
HETATM   15  C14 UNL     1      -0.786  -2.468   1.909  1.00  0.00     0.011 C 
HETATM   16  C13 UNL     1       0.074  -2.996   0.697  1.00  0.00    -0.000 C 
HETATM   17  C12 UNL     1       1.036  -1.921   0.287  1.00  0.00     0.004 C 
HETATM   18  C16 UNL     1      -1.058  -2.428  -0.206  1.00  0.00    -0.030 C 
HETATM   19  C11 UNL     1       0.018  -1.710  -0.989  1.00  0.00     0.036 C 
HETATM   20  C17 UNL     1      -1.942  -3.468  -0.858  1.00  0.00     0.016 C 
BRANCH  17  21
HETATM   21  C18 UNL     1       2.281  -1.591  -0.461  1.00  0.00     0.028 C 
HETATM   22  C19 UNL     1       3.724  -1.374  -0.065  1.00  0.00     0.011 C 
HETATM   23  C20 UNL     1       3.591   0.003  -0.901  1.00  0.00     0.041 C 
HETATM   24  C21 UNL     1       2.195   0.131  -0.181  1.00  0.00     0.102 C 
BRANCH  24  25
HETATM   25  O1  UNL     1       2.483   0.590   1.187  1.00  0.00    -0.387 OA
ATOM     26  H1  UNL     1       3.348   0.267   1.409  1.00  0.00     0.210 HD
ENDBRANCH  24  25
ENDBRANCH  17  21
ENDBRANCH   2  14
TORSDOF 6
