REMARK  2 active torsions:
REMARK  status: ('A' for Active; 'I' for Inactive)
REMARK    1  A    between atoms: C6_7  and  N2_8 
REMARK       I    between atoms: N2_8  and  C7_10 
REMARK       I    between atoms: C7_10  and  N3_12 
REMARK    2  A    between atoms: N3_12  and  C8_14 
ROOT
HETATM    1  C1  UNL     1       3.351   2.883  -2.065  1.00  0.00     0.222 C 
HETATM    2  N1  UNL     1       2.633   2.310  -1.338  1.00  0.00    -0.458 NA
HETATM    3  C2  UNL     1       1.736   1.647  -0.421  1.00  0.00     0.126 C 
HETATM    4  C3  UNL     1       2.174   2.007   1.019  1.00  0.00     0.054 C 
HETATM    5  C4  UNL     1       1.356   1.380   1.896  1.00  0.00     0.019 C 
HETATM    6  C5  UNL     1      -0.085   1.847   1.865  1.00  0.00     0.032 C 
HETATM    7  C6  UNL     1      -0.682   1.678   0.456  1.00  0.00     0.090 C 
HETATM    8  C12 UNL     1       0.289   2.198  -0.629  1.00  0.00     0.073 C 
HETATM    9  C13 UNL     1       1.508  -0.142   1.944  1.00  0.00     0.278 C 
HETATM   10  N4  UNL     1       2.237  -0.604   0.752  1.00  0.00     0.105 N 
HETATM   11  C14 UNL     1       2.368  -2.069   0.663  1.00  0.00     0.252 C 
HETATM   12  C15 UNL     1       3.828  -2.425   1.008  1.00  0.00     0.039 C 
HETATM   13  C16 UNL     1       4.795  -1.883  -0.054  1.00  0.00     0.032 C 
HETATM   14  C17 UNL     1       4.332  -2.212  -1.483  1.00  0.00     0.272 C 
HETATM   15  N5  UNL     1       2.908  -1.937  -1.767  1.00  0.00     0.092 N 
HETATM   16  C18 UNL     1       2.081  -2.618  -0.756  1.00  0.00     0.308 C 
HETATM   17  C19 UNL     1       2.624  -0.474  -1.747  1.00  0.00     0.311 C 
HETATM   18  C20 UNL     1       1.796   0.048  -0.528  1.00  0.00     0.293 C 
ENDROOT
BRANCH   7  19
HETATM   19  N2  UNL     1      -2.024   2.249   0.386  1.00  0.00    -0.338 N 
HETATM   20  C7  UNL     1      -2.920   1.653  -0.479  1.00  0.00     0.316 C 
HETATM   21  O1  UNL     1      -2.594   0.982  -1.448  1.00  0.00    -0.247 OA
HETATM   22  N3  UNL     1      -4.209   1.788  -0.023  1.00  0.00    -0.339 N 
ATOM     23  H3  UNL     1      -4.401   2.490   0.692  1.00  0.00     0.164 HD
ATOM     24  H2  UNL     1      -2.289   3.055   0.953  1.00  0.00     0.164 HD
BRANCH  22  25
HETATM   25  C8  UNL     1      -5.328   0.964  -0.520  1.00  0.00     0.086 C 
HETATM   26  C9  UNL     1      -6.312   0.557   0.610  1.00  0.00     0.025 C 
HETATM   27  C10 UNL     1      -6.357  -0.858   0.008  1.00  0.00     0.004 C 
HETATM   28  C11 UNL     1      -5.024  -0.547  -0.691  1.00  0.00     0.025 C 
ENDBRANCH  22  25
ENDBRANCH   7  19
TORSDOF 2
