REMARK  3 active torsions:
REMARK  status: ('A' for Active; 'I' for Inactive)
REMARK       I    between atoms: C1_2  and  N1_3 
REMARK       I    between atoms: C1_2  and  N4_22 
REMARK       I    between atoms: N1_3  and  C2_5 
REMARK    1  A    between atoms: C2_5  and  C3_7 
REMARK       I    between atoms: C3_7  and  N2_9 
REMARK       I    between atoms: N3_12  and  C6_13 
REMARK    2  A    between atoms: C6_13  and  C7_15 
REMARK    3  A    between atoms: N4_22  and  C14_24 
ROOT
HETATM    1  O1  UNL     1       2.014   4.085   1.000  1.00  0.00    -0.247 OA
HETATM    2  C1  UNL     1       1.307   3.650   0.101  1.00  0.00     0.323 C 
HETATM    3  N1  UNL     1       0.334   4.399  -0.497  1.00  0.00    -0.271 N 
ATOM      4  H1  UNL     1       0.529   5.149  -1.160  1.00  0.00     0.174 HD
HETATM    5  C2  UNL     1      -0.941   4.035  -0.111  1.00  0.00     0.317 C 
HETATM    6  O2  UNL     1      -1.551   4.463   0.848  1.00  0.00    -0.262 OA
HETATM    7  N4  UNL     1       1.344   2.353  -0.371  1.00  0.00    -0.334 N 
ATOM      8  H4  UNL     1       0.647   2.090  -1.068  1.00  0.00     0.165 HD
ENDROOT
BRANCH   5   9
HETATM    9  C3  UNL     1      -1.556   3.029  -1.109  1.00  0.00     0.312 C 
HETATM   10  O3  UNL     1      -1.045   3.030  -2.233  1.00  0.00    -0.262 OA
HETATM   11  N2  UNL     1      -2.532   2.112  -0.702  1.00  0.00    -0.341 N 
HETATM   12  C4  UNL     1      -2.774   1.006  -1.643  1.00  0.00     0.146 C 
HETATM   13  C13 UNL     1      -2.802   1.839   0.730  1.00  0.00     0.146 C 
HETATM   14  C5  UNL     1      -4.041   0.215  -1.332  1.00  0.00     0.145 C 
HETATM   15  N3  UNL     1      -4.059  -0.170   0.074  1.00  0.00    -0.349 N 
HETATM   16  C6  UNL     1      -3.692  -1.398   0.598  1.00  0.00     0.224 C 
HETATM   17  C12 UNL     1      -4.066   0.985   0.968  1.00  0.00     0.145 C 
HETATM   18  O4  UNL     1      -3.894  -1.676   1.782  1.00  0.00    -0.273 OA
BRANCH  16  19
HETATM   19  C7  UNL     1      -2.910  -2.361  -0.292  1.00  0.00     0.078 C 
HETATM   20  C8  UNL     1      -1.494  -2.537   0.294  1.00  0.00     0.014 C 
HETATM   21  C9  UNL     1      -1.215  -4.036   0.327  1.00  0.00     0.001 C 
HETATM   22  C10 UNL     1      -2.278  -4.660  -0.563  1.00  0.00     0.001 C 
HETATM   23  C11 UNL     1      -3.496  -3.772  -0.342  1.00  0.00     0.014 C 
ENDBRANCH  16  19
ENDBRANCH   5   9
BRANCH   7  24
HETATM   24  C14 UNL     1       2.313   1.309   0.051  1.00  0.00     0.035 C 
HETATM   25  C15 UNL     1       1.656  -0.059  -0.291  1.00  0.00     0.032 C 
HETATM   26  C16 UNL     1       2.368  -1.263   0.355  1.00  0.00     0.012 C 
HETATM   27  C17 UNL     1       3.761  -0.824   0.921  1.00  0.00    -0.040 C 
HETATM   28  C18 UNL     1       3.223   0.051   2.107  1.00  0.00     0.012 C 
HETATM   29  C20 UNL     1       5.139   0.133   0.867  1.00  0.00     0.014 C 
HETATM   30  C22 UNL     1       4.376  -0.964  -0.641  1.00  0.00     0.014 C 
HETATM   31  C19 UNL     1       2.569   1.336   1.578  1.00  0.00     0.032 C 
HETATM   32  C21 UNL     1       4.752   0.506  -0.555  1.00  0.00    -0.011 C 
HETATM   33  C23 UNL     1       3.627   1.533  -0.760  1.00  0.00     0.035 C 
ENDBRANCH   7  24
TORSDOF 3
