REMARK  3 active torsions:
REMARK  status: ('A' for Active; 'I' for Inactive)
REMARK    1  A    between atoms: O1_2  and  C2_3 
REMARK    2  A    between atoms: C3_5  and  O2_6 
REMARK    3  A    between atoms: C17_24  and  O6_25 
ROOT
HETATM    1  C2  UNL     1       2.373  -0.022  -0.703  1.00  0.00     0.232 C 
HETATM    2  S1  UNL     1       1.476   0.390  -2.512  1.00  0.00    -0.070 SA
HETATM    3  C3  UNL     1      -0.381  -0.243  -2.847  1.00  0.00     0.105 C 
HETATM    4  C4  UNL     1      -1.769  -0.047  -1.883  1.00  0.00     0.053 C 
HETATM    5  C5  UNL     1      -1.898   0.286  -0.506  1.00  0.00    -0.004 C 
HETATM    6  C6  UNL     1      -2.048   0.675   1.103  1.00  0.00    -0.001 C 
HETATM    7  C7  UNL     1      -3.119  -0.336   1.552  1.00  0.00     0.024 C 
HETATM    8  C8  UNL     1      -2.630   2.095   1.364  1.00  0.00     0.024 C 
HETATM    9  C9  UNL     1      -0.749   0.501   2.184  1.00  0.00    -0.014 C 
HETATM   10  C10 UNL     1       0.662   0.424   2.106  1.00  0.00     0.017 C 
HETATM   11  C11 UNL     1       1.826   0.249   0.924  1.00  0.00     0.167 C 
HETATM   12  O3  UNL     1       1.519  -1.186   1.012  1.00  0.00    -0.332 OA
HETATM   13  C12 UNL     1       0.374  -1.504   0.242  1.00  0.00     0.162 C 
HETATM   14  C13 UNL     1      -0.456  -2.356   1.210  1.00  0.00     0.078 C 
HETATM   15  C14 UNL     1       0.627  -2.529  -0.853  1.00  0.00     0.078 C 
HETATM   16  O4  UNL     1      -0.302  -0.449  -0.370  1.00  0.00    -0.316 OA
HETATM   17  C15 UNL     1      -0.513   0.963  -0.576  1.00  0.00     0.193 C 
HETATM   18  C16 UNL     1      -1.210   2.209  -1.520  1.00  0.00     0.085 C 
HETATM   19  O5  UNL     1       0.001   1.885   0.386  1.00  0.00    -0.318 OA
HETATM   20  C17 UNL     1       1.367   1.767   0.552  1.00  0.00     0.302 C 
ENDROOT
BRANCH   1  21
HETATM   21  O1  UNL     1       3.228  -1.316  -0.775  1.00  0.00    -0.376 OA
HETATM   22  C1  UNL     1       4.282  -1.310   0.226  1.00  0.00     0.203 C 
ENDBRANCH   1  21
BRANCH   3  23
HETATM   23  O2  UNL     1      -0.202  -1.556  -3.338  1.00  0.00    -0.354 OA
ATOM     24  H2  UNL     1      -1.088  -1.858  -3.498  1.00  0.00     0.218 HD
ENDBRANCH   3  23
BRANCH  20  25
HETATM   25  O6  UNL     1       2.094   2.549  -0.413  1.00  0.00    -0.368 OA
ATOM     26  H6  UNL     1       1.826   3.434  -0.630  1.00  0.00     0.212 HD
ENDBRANCH  20  25
TORSDOF 3
