REMARK  11 active torsions:
REMARK  status: ('A' for Active; 'I' for Inactive)
REMARK    1  A    between atoms: C2_2  and  C4_4 
REMARK    2  A    between atoms: C4_4  and  C5_5 
REMARK    3  A    between atoms: C4_4  and  N4_19 
REMARK    4  A    between atoms: C6_6  and  C7_7 
REMARK    5  A    between atoms: C7_7  and  C8_8 
REMARK    6  A    between atoms: C8_8  and  C9_9 
REMARK       I    between atoms: N4_19  and  C12_21 
REMARK    7  A    between atoms: C12_21  and  C13_23 
REMARK    8  A    between atoms: C13_23  and  C15_25 
REMARK    9  A    between atoms: C15_25  and  N5_26 
REMARK   10  A    between atoms: N6_29  and  C17_30 
REMARK   11  A    between atoms: C17_30  and  C18_31 
ROOT
HETATM    1  C18 UNL     1       2.349  -2.001  -2.269  1.00  0.00    -0.087 C 
HETATM    2  C19 UNL     1       1.513  -2.810  -2.564  1.00  0.00    -0.109 C 
HETATM    3  C20 UNL     1       0.504  -3.791  -2.960  1.00  0.00     0.112 C 
ENDROOT
BRANCH   1   4
HETATM    4  C17 UNL     1       3.393  -1.017  -1.966  1.00  0.00     0.227 C 
BRANCH   4   5
HETATM    5  N6  UNL     1       2.899   0.053  -1.121  1.00  0.00    -0.290 N 
HETATM    6  C16 UNL     1       2.641   1.325  -1.629  1.00  0.00     0.327 C 
HETATM    7  N5  UNL     1       2.192   2.131  -0.569  1.00  0.00    -0.300 N 
HETATM    8  O2  UNL     1       2.824   1.706  -2.769  1.00  0.00    -0.247 OA
HETATM    9  C27 UNL     1       2.143   1.388   0.657  1.00  0.00     0.339 C 
HETATM   10  C21 UNL     1       2.520  -0.026   0.204  1.00  0.00     0.079 C 
HETATM   11  N8  UNL     1       3.173   2.008   1.587  1.00  0.00    -0.046 N 
HETATM   12  C22 UNL     1       2.807  -0.956   1.147  1.00  0.00     0.259 C 
HETATM   13  C23 UNL     1       4.244  -1.195   1.341  1.00  0.00     0.010 C 
HETATM   14  N7  UNL     1       2.350  -0.661   2.465  1.00  0.00    -0.053 N 
HETATM   15  C24 UNL     1       4.606  -0.493   2.436  1.00  0.00     0.006 C 
HETATM   16  C25 UNL     1       3.400   0.114   3.051  1.00  0.00     0.235 C 
HETATM   17  C26 UNL     1       3.170   1.454   2.941  1.00  0.00     0.272 C 
ATOM     18  H72 UNL     1       1.436  -0.210   2.495  1.00  0.00     0.279 HD
ATOM     19  H71 UNL     1       2.091  -1.485   3.008  1.00  0.00     0.279 HD
ATOM     20  H82 UNL     1       3.063   3.022   1.616  1.00  0.00     0.280 HD
ATOM     21  H81 UNL     1       4.106   1.946   1.178  1.00  0.00     0.280 HD
BRANCH   7  22
HETATM   22  C15 UNL     1       1.773   3.519  -0.769  1.00  0.00     0.144 C 
BRANCH  22  23
HETATM   23  C13 UNL     1       0.284   3.871  -0.627  1.00  0.00     0.092 C 
HETATM   24  C14 UNL     1      -0.217   3.990   0.811  1.00  0.00     0.021 C 
BRANCH  23  25
HETATM   25  C12 UNL     1      -0.605   3.033  -1.534  1.00  0.00     0.224 C 
HETATM   26  N4  UNL     1      -1.123   1.876  -0.991  1.00  0.00    -0.342 N 
ATOM     27  H4  UNL     1      -0.770   1.513  -0.106  1.00  0.00     0.164 HD
HETATM   28  O1  UNL     1      -0.803   3.380  -2.695  1.00  0.00    -0.273 OA
BRANCH  26  29
HETATM   29  C4  UNL     1      -2.182   1.185  -1.706  1.00  0.00     0.192 C 
BRANCH  29  30
HETATM   30  C2  UNL     1      -3.499   1.841  -1.298  1.00  0.00    -0.059 C 
HETATM   31  C1  UNL     1      -3.968   1.888  -0.033  1.00  0.00     0.017 C 
HETATM   32  C3  UNL     1      -4.280   2.458  -2.432  1.00  0.00     0.046 C 
ENDBRANCH  29  30
BRANCH  29  33
HETATM   33  C5  UNL     1      -2.211  -0.248  -1.355  1.00  0.00    -0.076 C 
HETATM   34  C6  UNL     1      -2.357  -1.430  -1.170  1.00  0.00    -0.104 C 
BRANCH  34  35
HETATM   35  C7  UNL     1      -2.643  -2.876  -1.066  1.00  0.00     0.100 C 
BRANCH  35  36
HETATM   36  C8  UNL     1      -3.588  -3.220   0.092  1.00  0.00     0.071 C 
BRANCH  36  37
HETATM   37  C9  UNL     1      -2.842  -3.425   1.369  1.00  0.00     0.043 A 
HETATM   38  C10 UNL     1      -2.697  -4.534   2.120  1.00  0.00     0.131 A 
HETATM   39  N1  UNL     1      -1.827  -4.233   3.146  1.00  0.00    -0.200 N 
HETATM   40  C11 UNL     1      -1.421  -2.918   3.087  1.00  0.00     0.675 A 
ATOM     41  H1  UNL     1      -1.523  -4.898   3.857  1.00  0.00     0.183 HD
HETATM   42  N2  UNL     1      -0.607  -2.315   3.869  1.00  0.00    -0.234 N 
HETATM   43  N3  UNL     1      -2.090  -2.428   1.985  1.00  0.00    -0.194 N 
ATOM     44  H22 UNL     1      -0.112  -2.677   4.684  1.00  0.00     0.174 HD
ATOM     45  H21 UNL     1      -0.306  -1.341   3.825  1.00  0.00     0.174 HD
ATOM     46  H3  UNL     1      -2.040  -1.461   1.663  1.00  0.00     0.184 HD
ENDBRANCH  36  37
ENDBRANCH  35  36
ENDBRANCH  34  35
ENDBRANCH  29  33
ENDBRANCH  26  29
ENDBRANCH  23  25
ENDBRANCH  22  23
ENDBRANCH   7  22
ENDBRANCH   4   5
ENDBRANCH   1   4
TORSDOF 11
