REMARK  11 active torsions:
REMARK  status: ('A' for Active; 'I' for Inactive)
REMARK    1  A    between atoms: C2_2  and  N1_3 
REMARK    2  A    between atoms: C2_2  and  O9_32 
REMARK    3  A    between atoms: C4_6  and  C5_7 
REMARK    4  A    between atoms: C6_10  and  C7_11 
REMARK    5  A    between atoms: C7_11  and  O3_12 
REMARK    6  A    between atoms: C7_11  and  O4_14 
REMARK    7  A    between atoms: C12_23  and  O8_24 
REMARK    8  A    between atoms: O9_32  and  N4_33 
REMARK    9  A    between atoms: N4_33  and  O10_34 
REMARK   10  A    between atoms: N5_36  and  N6_38 
REMARK   11  A    between atoms: N6_38  and  N7_39 
ROOT
HETATM    1  N1  UNL     1       0.464   0.378   1.688  1.00  0.00    -0.359 N 
ATOM      2  H1  UNL     1       0.512  -0.373   2.377  1.00  0.00     0.162 HD
HETATM    3  C3  UNL     1      -0.035   0.084   0.533  1.00  0.00     0.073 C 
HETATM    4  C4  UNL     1      -0.319  -1.419   0.243  1.00  0.00     0.103 C 
HETATM    5  C6  UNL     1      -1.106  -2.076  -0.673  1.00  0.00     0.129 C 
HETATM    6  O5  UNL     1      -2.001  -1.517  -1.611  1.00  0.00    -0.284 OA
HETATM    7  C8  UNL     1      -2.920  -0.520  -1.274  1.00  0.00     0.230 C 
HETATM    8  O6  UNL     1      -3.001   0.585  -2.174  1.00  0.00    -0.271 OA
HETATM    9  C9  UNL     1      -2.223   1.681  -1.763  1.00  0.00     0.141 C 
HETATM   10  C10 UNL     1      -1.790   1.629  -0.493  1.00  0.00     0.189 C 
HETATM   11  C11 UNL     1      -2.780   1.025   0.431  1.00  0.00     0.204 C 
HETATM   12  O7  UNL     1      -3.038   1.480   1.537  1.00  0.00    -0.289 OA
HETATM   13  C12 UNL     1      -3.273  -0.312   0.010  1.00  0.00     0.172 C 
HETATM   14  C13 UNL     1      -0.386   1.058  -0.581  1.00  0.00     0.054 C 
HETATM   15  N2  UNL     1       0.524   2.130  -1.020  1.00  0.00    -0.374 N 
ATOM     16  H2  UNL     1       1.312   2.530  -0.510  1.00  0.00     0.161 HD
HETATM   17  C14 UNL     1       0.032   2.497  -2.377  1.00  0.00     0.245 C 
HETATM   18  N3  UNL     1      -1.381   2.250  -2.712  1.00  0.00    -0.357 N 
ATOM     19  H3  UNL     1      -1.740   2.495  -3.635  1.00  0.00     0.163 HD
ENDROOT
BRANCH   1  20
HETATM   20  C2  UNL     1       0.963   1.680   2.096  1.00  0.00     0.251 C 
HETATM   21  C1  UNL     1       0.388   1.985   3.483  1.00  0.00     0.066 C 
BRANCH  20  22
HETATM   22  O9  UNL     1       2.381   1.744   2.265  1.00  0.00    -0.212 OA
BRANCH  22  23
HETATM   23  N4  UNL     1       2.975   1.671   1.007  1.00  0.00    -0.040 N 
HETATM   24  N5  UNL     1       3.219   0.507   0.532  1.00  0.00    -0.179 N 
ATOM     25  H5  UNL     1       3.028  -0.342   1.064  1.00  0.00     0.210 HD
BRANCH  23  26
HETATM   26  O10 UNL     1       3.240   2.776   0.425  1.00  0.00    -0.247 OA
ATOM     27  H10 UNL     1       3.645   2.726  -0.433  1.00  0.00     0.249 HD
ENDBRANCH  23  26
BRANCH  24  28
HETATM   28  N6  UNL     1       3.741   0.465  -0.709  1.00  0.00    -0.010 NA
BRANCH  28  29
HETATM   29  N7  UNL     1       3.234  -0.674  -1.389  1.00  0.00    -0.327 N 
ATOM     30  H72 UNL     1       2.579  -1.345  -0.988  1.00  0.00     0.174 HD
ATOM     31  H71 UNL     1       3.629  -0.706  -2.329  1.00  0.00     0.174 HD
ENDBRANCH  28  29
ENDBRANCH  24  28
ENDBRANCH  22  23
ENDBRANCH  20  22
ENDBRANCH   1  20
BRANCH   4  32
HETATM   32  C5  UNL     1       0.391  -2.335   1.173  1.00  0.00     0.214 C 
HETATM   33  O1  UNL     1      -0.146  -3.047   1.999  1.00  0.00    -0.644 OA
HETATM   34  O2  UNL     1       1.719  -2.318   0.957  1.00  0.00    -0.644 OA
ENDBRANCH   4  32
BRANCH   5  35
HETATM   35  C7  UNL     1      -1.055  -3.592  -0.910  1.00  0.00     0.314 C 
BRANCH  35  36
HETATM   36  O3  UNL     1       0.274  -4.080  -0.900  1.00  0.00    -0.365 OA
ATOM     37  H3  UNL     1       0.306  -5.018  -1.047  1.00  0.00     0.213 HD
ENDBRANCH  35  36
BRANCH  35  38
HETATM   38  O4  UNL     1      -1.828  -4.305   0.025  1.00  0.00    -0.365 OA
ATOM     39  H4  UNL     1      -1.796  -5.243  -0.122  1.00  0.00     0.213 HD
ENDBRANCH  35  38
ENDBRANCH   5  35
BRANCH  13  40
HETATM   40  O8  UNL     1      -3.349  -1.279   0.989  1.00  0.00    -0.353 OA
ATOM     41  H8  UNL     1      -3.598  -1.132   1.894  1.00  0.00     0.218 HD
ENDBRANCH  13  40
TORSDOF 11
