REMARK  15 active torsions:
REMARK  status: ('A' for Active; 'I' for Inactive)
REMARK    1  A    between atoms: C2_2  and  C4_4 
REMARK    2  A    between atoms: C4_4  and  N1_5 
REMARK    3  A    between atoms: C4_4  and  C6_9 
REMARK    4  A    between atoms: C6_9  and  O1_10 
REMARK    5  A    between atoms: C6_9  and  C7_12 
REMARK    6  A    between atoms: C7_12  and  C9_14 
REMARK    7  A    between atoms: C9_14  and  C10_15 
REMARK    8  A    between atoms: C10_15  and  C11_16 
REMARK    9  A    between atoms: C11_16  and  C13_18 
REMARK   10  A    between atoms: C19_25  and  O3_26 
REMARK   11  A    between atoms: O3_26  and  C20_27 
REMARK   12  A    between atoms: C20_27  and  C21_29 
REMARK   13  A    between atoms: C21_29  and  C22_30 
REMARK   14  A    between atoms: C28_36  and  O5_37 
REMARK   15  A    between atoms: C31_41  and  O6_42 
ROOT
HETATM    1  C13 UNL     1       0.820   2.607  -1.881  1.00  0.00     0.089 C 
HETATM    2  C14 UNL     1       2.297   2.474  -1.568  1.00  0.00     0.144 C 
HETATM    3  O2  UNL     1       3.162   2.624  -2.428  1.00  0.00    -0.297 OA
HETATM    4  C15 UNL     1       2.525   2.098  -0.032  1.00  0.00     0.044 C 
HETATM    5  C16 UNL     1       3.934   2.632   0.560  1.00  0.00     0.033 C 
HETATM    6  C17 UNL     1       3.788   1.454   1.527  1.00  0.00    -0.008 C 
HETATM    7  C18 UNL     1       4.470   0.093   1.515  1.00  0.00     0.017 C 
HETATM    8  C19 UNL     1       3.304  -0.452   1.019  1.00  0.00     0.060 C 
HETATM    9  C25 UNL     1       3.229   0.735   0.089  1.00  0.00     0.072 C 
HETATM   10  C26 UNL     1       3.100   1.712   2.874  1.00  0.00     0.017 C 
HETATM   11  C27 UNL     1       2.290   2.990   2.978  1.00  0.00     0.034 C 
HETATM   12  C28 UNL     1       1.273   3.326   1.879  1.00  0.00     0.130 C 
HETATM   13  C29 UNL     1       1.157   2.396   0.641  1.00  0.00     0.024 C 
HETATM   14  C30 UNL     1       0.417   1.110   1.056  1.00  0.00     0.022 C 
HETATM   15  C31 UNL     1       0.371   3.147  -0.508  1.00  0.00     0.141 C 
ENDROOT
BRANCH   1  16
HETATM   16  C11 UNL     1       0.185   1.304  -2.442  1.00  0.00    -0.005 C 
HETATM   17  C12 UNL     1       1.003   0.774  -3.633  1.00  0.00     0.011 C 
BRANCH  16  18
HETATM   18  C10 UNL     1      -1.273   1.524  -2.915  1.00  0.00     0.005 C 
BRANCH  18  19
HETATM   19  C9  UNL     1      -2.352   1.012  -1.948  1.00  0.00     0.007 C 
BRANCH  19  20
HETATM   20  C7  UNL     1      -2.875  -0.409  -2.241  1.00  0.00     0.013 C 
HETATM   21  C8  UNL     1      -1.800  -1.467  -1.989  1.00  0.00     0.012 C 
BRANCH  20  22
HETATM   22  C6  UNL     1      -4.215  -0.721  -1.503  1.00  0.00     0.156 C 
BRANCH  22  23
HETATM   23  C4  UNL     1      -4.421  -0.155  -0.046  1.00  0.00     0.242 C 
BRANCH  23  24
HETATM   24  C2  UNL     1      -3.523  -0.644   1.082  1.00  0.00    -0.060 C 
HETATM   25  C1  UNL     1      -2.928  -1.850   1.120  1.00  0.00     0.016 C 
HETATM   26  C3  UNL     1      -3.329   0.328   2.219  1.00  0.00     0.044 C 
ENDBRANCH  23  24
BRANCH  23  27
HETATM   27  N1  UNL     1      -5.865  -0.222   0.335  1.00  0.00    -0.069 N 
HETATM   28  C5  UNL     1      -6.338  -1.563   0.662  1.00  0.00     0.267 C 
ATOM     29  H12 UNL     1      -6.062   0.422   1.101  1.00  0.00     0.277 HD
ATOM     30  H11 UNL     1      -6.445   0.193  -0.394  1.00  0.00     0.277 HD
ENDBRANCH  23  27
ENDBRANCH  22  23
BRANCH  22  31
HETATM   31  O1  UNL     1      -5.267  -0.158  -2.325  1.00  0.00    -0.393 OA
ATOM     32  H1  UNL     1      -5.143  -0.499  -3.203  1.00  0.00     0.210 HD
ENDBRANCH  22  31
ENDBRANCH  20  22
ENDBRANCH  19  20
ENDBRANCH  18  19
ENDBRANCH  16  18
ENDBRANCH   1  16
BRANCH  15  33
HETATM   33  O6  UNL     1      -1.027   3.113  -0.304  1.00  0.00    -0.394 OA
ATOM     34  H6  UNL     1      -1.304   3.446   0.542  1.00  0.00     0.210 HD
ENDBRANCH  15  33
BRANCH  12  35
HETATM   35  O5  UNL     1       1.575   4.664   1.459  1.00  0.00    -0.395 OA
ATOM     36  H5  UNL     1       0.945   4.872   0.779  1.00  0.00     0.210 HD
ENDBRANCH  12  35
BRANCH   8  37
HETATM   37  O3  UNL     1       2.777  -1.615   0.903  1.00  0.00    -0.283 OA
BRANCH  37  38
HETATM   38  C20 UNL     1       2.944  -2.476   1.974  1.00  0.00     0.264 C 
HETATM   39  O4  UNL     1       3.202  -2.148   3.130  1.00  0.00    -0.265 OA
BRANCH  38  40
HETATM   40  C21 UNL     1       2.727  -3.922   1.567  1.00  0.00     0.115 C 
BRANCH  40  41
HETATM   41  C22 UNL     1       2.855  -4.231   0.063  1.00  0.00    -0.013 C 
HETATM   42  C23 UNL     1       1.521  -4.030  -0.660  1.00  0.00     0.010 C 
HETATM   43  C24 UNL     1       3.329  -5.671  -0.151  1.00  0.00     0.010 C 
ENDBRANCH  40  41
ENDBRANCH  38  40
ENDBRANCH  37  38
ENDBRANCH   8  37
TORSDOF 15
