REMARK  10 active torsions:
REMARK  status: ('A' for Active; 'I' for Inactive)
REMARK    1  A    between atoms: C3_3  and  O1_4 
REMARK    2  A    between atoms: C5_7  and  O2_8 
REMARK    3  A    between atoms: C6_11  and  C7_12 
REMARK    4  A    between atoms: C7_12  and  C8_13 
REMARK    5  A    between atoms: C8_13  and  C9_14 
REMARK    6  A    between atoms: C9_14  and  C10_16 
REMARK    7  A    between atoms: C10_16  and  C11_17 
REMARK    8  A    between atoms: C21_27  and  C23_29 
REMARK    9  A    between atoms: C23_29  and  C24_30 
REMARK   10  A    between atoms: C24_30  and  C25_31 
ROOT
HETATM    1  C11 UNL     1       0.494  -2.009   1.347  1.00  0.00     0.130 C 
HETATM    2  C12 UNL     1       0.562  -1.862  -0.156  1.00  0.00     0.042 C 
HETATM    3  C13 UNL     1       1.825  -1.118  -0.596  1.00  0.00    -0.031 C 
HETATM    4  C14 UNL     1       1.637  -0.746  -2.084  1.00  0.00     0.016 C 
HETATM    5  C15 UNL     1       3.102  -2.164  -0.532  1.00  0.00    -0.003 C 
HETATM    6  C16 UNL     1       3.232  -3.477   0.395  1.00  0.00     0.008 C 
HETATM    7  C17 UNL     1       3.655  -2.922   1.894  1.00  0.00     0.038 C 
HETATM    8  C18 UNL     1       3.055  -1.560   1.654  1.00  0.00     0.062 C 
HETATM    9  C19 UNL     1       3.975  -1.415   0.368  1.00  0.00     0.043 C 
HETATM   10  C20 UNL     1       2.680  -0.108   1.819  1.00  0.00     0.048 C 
HETATM   11  C21 UNL     1       2.012   0.310   0.350  1.00  0.00    -0.033 C 
HETATM   12  C22 UNL     1       0.655   1.063   0.557  1.00  0.00     0.016 C 
HETATM   13  O5  UNL     1       1.762  -2.221   1.909  1.00  0.00    -0.374 OA
ENDROOT
BRANCH   1  14
HETATM   14  C10 UNL     1      -0.413  -3.175   1.756  1.00  0.00     0.110 C 
BRANCH  14  15
HETATM   15  C9  UNL     1      -1.833  -2.692   1.980  1.00  0.00     0.129 C 
HETATM   16  O4  UNL     1      -2.189  -2.269   3.082  1.00  0.00    -0.298 OA
BRANCH  15  17
HETATM   17  C8  UNL     1      -2.801  -2.781   0.814  1.00  0.00     0.081 C 
BRANCH  17  18
HETATM   18  C7  UNL     1      -3.812  -1.625   0.777  1.00  0.00     0.044 C 
BRANCH  18  19
HETATM   19  C6  UNL     1      -3.468  -0.551  -0.274  1.00  0.00     0.155 C 
HETATM   20  C2  UNL     1      -4.447   0.608  -0.267  1.00  0.00    -0.032 C 
HETATM   21  C1  UNL     1      -4.122   1.808   0.250  1.00  0.00     0.019 C 
HETATM   22  C3  UNL     1      -5.782   0.304  -0.903  1.00  0.00     0.153 C 
HETATM   23  C4  UNL     1      -5.560  -0.275  -2.290  1.00  0.00     0.097 C 
HETATM   24  C5  UNL     1      -4.607  -1.455  -2.188  1.00  0.00     0.260 C 
HETATM   25  O3  UNL     1      -3.367  -1.099  -1.595  1.00  0.00    -0.352 OA
BRANCH  22  26
HETATM   26  O1  UNL     1      -6.592   1.470  -1.003  1.00  0.00    -0.391 OA
ATOM     27  H1  UNL     1      -7.432   1.279  -1.403  1.00  0.00     0.210 HD
ENDBRANCH  22  26
BRANCH  24  28
HETATM   28  O2  UNL     1      -4.314  -1.948  -3.483  1.00  0.00    -0.371 OA
ATOM     29  H2  UNL     1      -3.718  -2.685  -3.419  1.00  0.00     0.212 HD
ENDBRANCH  24  28
ENDBRANCH  18  19
ENDBRANCH  17  18
ENDBRANCH  15  17
ENDBRANCH  14  15
ENDBRANCH   1  14
BRANCH  11  30
HETATM   30  C23 UNL     1       2.850   1.400  -0.448  1.00  0.00     0.014 C 
BRANCH  30  31
HETATM   31  C24 UNL     1       3.436   2.561   0.381  1.00  0.00     0.028 C 
BRANCH  31  32
HETATM   32  C25 UNL     1       3.386   3.850  -0.401  1.00  0.00    -0.025 C 
HETATM   33  C26 UNL     1       2.583   4.911  -0.177  1.00  0.00    -0.091 C 
HETATM   34  C27 UNL     1       2.585   6.098  -1.108  1.00  0.00     0.042 C 
HETATM   35  C28 UNL     1       1.601   5.032   0.957  1.00  0.00     0.042 C 
ENDBRANCH  31  32
ENDBRANCH  30  31
ENDBRANCH  11  30
TORSDOF 10
