REMARK  9 active torsions:
REMARK  status: ('A' for Active; 'I' for Inactive)
REMARK    1  A    between atoms: C2_2  and  C3_3 
REMARK    2  A    between atoms: C3_3  and  C4_4 
REMARK    3  A    between atoms: C4_4  and  N1_5 
REMARK    4  A    between atoms: N1_5  and  C5_6 
REMARK    5  A    between atoms: N1_5  and  C7_8 
REMARK    6  A    between atoms: C7_8  and  C8_9 
REMARK    7  A    between atoms: C8_9  and  C9_10 
REMARK    8  A    between atoms: C9_10  and  C10_11 
REMARK    9  A    between atoms: C12_14  and  O2_15 
ROOT
HETATM    1  C10 UNL     1       0.752  -3.121   0.302  1.00  0.00     0.173 C 
HETATM    2  O1  UNL     1       0.625  -3.232  -1.128  1.00  0.00    -0.377 OA
HETATM    3  C11 UNL     1       1.646  -2.546  -1.857  1.00  0.00     0.207 C 
HETATM    4  C12 UNL     1       1.559  -1.039  -1.563  1.00  0.00     0.194 C 
HETATM    5  C13 UNL     1       1.627  -0.793  -0.081  1.00  0.00     0.076 C 
HETATM    6  C14 UNL     1       1.435  -1.834   0.768  1.00  0.00     0.067 C 
HETATM    7  N2  UNL     1       2.183  -1.893   1.937  1.00  0.00    -0.330 N 
ATOM      8  H2  UNL     1       2.608  -2.754   2.283  1.00  0.00     0.168 HD
HETATM    9  C15 UNL     1       2.293  -0.754   2.550  1.00  0.00     0.195 C 
HETATM   10  O3  UNL     1       1.269   0.135   2.599  1.00  0.00    -0.260 OA
HETATM   11  C16 UNL     1       1.308   0.975   1.541  1.00  0.00     0.229 C 
HETATM   12  S1  UNL     1       0.684   2.506   1.777  1.00  0.00    -0.032 SA
HETATM   13  N3  UNL     1       1.939   0.512   0.371  1.00  0.00    -0.280 N 
HETATM   14  C17 UNL     1       3.301   0.965   0.280  1.00  0.00     0.062 A 
HETATM   15  C18 UNL     1       3.622   1.724  -0.852  1.00  0.00     0.071 A 
HETATM   16  C19 UNL     1       4.835   2.367  -0.862  1.00  0.00     0.107 A 
HETATM   17  C20 UNL     1       5.723   2.294   0.198  1.00  0.00     0.106 A 
HETATM   18  C21 UNL     1       5.452   1.536   1.324  1.00  0.00     0.061 A 
HETATM   19  C22 UNL     1       4.227   0.843   1.383  1.00  0.00     0.039 A 
HETATM   20  S2  UNL     1       3.919  -0.159   2.903  1.00  0.00    -0.044 SA
HETATM   21  O4  UNL     1       6.825   3.063  -0.017  1.00  0.00    -0.323 OA
HETATM   22  C23 UNL     1       6.556   3.585  -1.337  1.00  0.00     0.352 A 
HETATM   23  O5  UNL     1       5.277   3.178  -1.865  1.00  0.00    -0.323 OA
ENDROOT
BRANCH   1  24
HETATM   24  C9  UNL     1      -0.689  -3.206   0.900  1.00  0.00     0.040 C 
BRANCH  24  25
HETATM   25  C8  UNL     1      -1.675  -2.283   0.165  1.00  0.00     0.022 C 
BRANCH  25  26
HETATM   26  C7  UNL     1      -3.026  -2.018   0.836  1.00  0.00     0.117 C 
BRANCH  26  27
HETATM   27  N1  UNL     1      -3.699  -1.042  -0.037  1.00  0.00    -0.413 N 
BRANCH  27  28
HETATM   28  C4  UNL     1      -4.224   0.164   0.607  1.00  0.00     0.117 C 
BRANCH  28  29
HETATM   29  C3  UNL     1      -3.076   1.010   1.188  1.00  0.00     0.019 C 
BRANCH  29  30
HETATM   30  C2  UNL     1      -3.452   2.471   1.452  1.00  0.00    -0.003 C 
HETATM   31  C1  UNL     1      -3.236   3.357   0.232  1.00  0.00     0.005 C 
ENDBRANCH  29  30
ENDBRANCH  28  29
ENDBRANCH  27  28
BRANCH  27  32
HETATM   32  C5  UNL     1      -4.569  -1.638  -1.050  1.00  0.00     0.112 C 
HETATM   33  C6  UNL     1      -4.421  -0.864  -2.357  1.00  0.00     0.026 C 
ENDBRANCH  27  32
ENDBRANCH  26  27
ENDBRANCH  25  26
ENDBRANCH  24  25
ENDBRANCH   1  24
BRANCH   4  34
HETATM   34  O2  UNL     1       0.356  -0.476  -2.072  1.00  0.00    -0.387 OA
ATOM     35  H2  UNL     1       0.302   0.455  -1.890  1.00  0.00     0.210 HD
ENDBRANCH   4  34
TORSDOF 9
