REMARK  10 active torsions:
REMARK  status: ('A' for Active; 'I' for Inactive)
REMARK    1  A    between atoms: C2_2  and  O1_3 
REMARK    2  A    between atoms: C2_2  and  C14_17 
REMARK    3  A    between atoms: O1_3  and  C3_4 
REMARK    4  A    between atoms: C3_4  and  C6_7 
REMARK    5  A    between atoms: C6_7  and  C7_8 
REMARK    6  A    between atoms: C7_8  and  C10_11 
REMARK    7  A    between atoms: C22_29  and  C23_30 
REMARK    8  A    between atoms: C23_30  and  O8_31 
REMARK    9  A    between atoms: O8_31  and  C24_32 
REMARK   10  A    between atoms: C24_32  and  O9_34 
ROOT
HETATM    1  C14 UNL     1       0.414   1.714  -1.713  1.00  0.00     0.199 C 
HETATM    2  O4  UNL     1      -0.504   0.763  -2.290  1.00  0.00    -0.317 OA
HETATM    3  C15 UNL     1      -0.087   0.033  -3.297  1.00  0.00     0.186 C 
HETATM    4  C16 UNL     1       1.092  -0.015  -3.985  1.00  0.00     0.073 C 
HETATM    5  C17 UNL     1       1.452  -1.337  -3.600  1.00  0.00    -0.029 C 
HETATM    6  C18 UNL     1       0.262  -2.064  -3.545  1.00  0.00     0.152 C 
HETATM    7  O5  UNL     1      -0.751  -1.153  -3.438  1.00  0.00    -0.300 OA
HETATM    8  C19 UNL     1       2.770  -1.738  -3.053  1.00  0.00     0.075 C 
HETATM    9  C20 UNL     1       3.360  -0.666  -2.114  1.00  0.00     0.166 C 
HETATM   10  O6  UNL     1       3.646   0.607  -2.728  1.00  0.00    -0.352 OA
HETATM   11  C21 UNL     1       3.227   1.543  -1.691  1.00  0.00     0.271 C 
HETATM   12  O7  UNL     1       3.637   0.906  -0.358  1.00  0.00    -0.344 OA
HETATM   13  C22 UNL     1       2.561  -0.121  -0.907  1.00  0.00     0.122 C 
HETATM   14  C26 UNL     1       1.769   1.272  -1.121  1.00  0.00     0.116 C 
ENDROOT
BRANCH   1  15
HETATM   15  C2  UNL     1      -0.442   2.201  -0.528  1.00  0.00     0.074 C 
HETATM   16  C1  UNL     1      -1.231   3.283  -0.652  1.00  0.00     0.049 C 
BRANCH  15  17
HETATM   17  O1  UNL     1      -0.371   1.355   0.583  1.00  0.00    -0.318 OA
BRANCH  17  18
HETATM   18  C3  UNL     1      -1.158   1.443   1.715  1.00  0.00     0.050 C 
HETATM   19  C4  UNL     1      -1.093   2.445   2.605  1.00  0.00     0.002 C 
HETATM   20  C5  UNL     1      -0.143   3.593   2.608  1.00  0.00     0.038 C 
BRANCH  18  21
HETATM   21  C6  UNL     1      -1.794   0.117   2.121  1.00  0.00     0.076 C 
BRANCH  21  22
HETATM   22  C7  UNL     1      -3.099  -0.346   1.421  1.00  0.00    -0.011 C 
HETATM   23  C8  UNL     1      -4.188   0.730   1.573  1.00  0.00     0.018 C 
HETATM   24  C9  UNL     1      -3.590  -1.635   2.133  1.00  0.00     0.018 C 
BRANCH  22  25
HETATM   25  C10 UNL     1      -2.791  -0.593  -0.069  1.00  0.00     0.178 A 
HETATM   26  O2  UNL     1      -1.821  -1.664  -0.248  1.00  0.00    -0.306 OA
HETATM   27  C11 UNL     1      -2.688  -2.394  -0.982  1.00  0.00     0.291 A 
HETATM   28  O3  UNL     1      -2.565  -3.490  -1.475  1.00  0.00    -0.260 OA
HETATM   29  C12 UNL     1      -3.742  -1.403  -0.903  1.00  0.00     0.038 A 
HETATM   30  C13 UNL     1      -4.970  -1.299  -1.402  1.00  0.00     0.028 C 
ENDBRANCH  22  25
ENDBRANCH  21  22
ENDBRANCH  18  21
ENDBRANCH  17  18
ENDBRANCH  15  17
ENDBRANCH   1  15
BRANCH  13  31
HETATM   31  C23 UNL     1       2.095  -1.072   0.173  1.00  0.00     0.212 C 
BRANCH  31  32
HETATM   32  O8  UNL     1       3.223  -1.735   0.747  1.00  0.00    -0.359 OA
BRANCH  32  33
HETATM   33  C24 UNL     1       3.267  -1.669   2.164  1.00  0.00     0.252 C 
HETATM   34  C25 UNL     1       4.441  -0.811   2.619  1.00  0.00     0.070 C 
BRANCH  33  35
HETATM   35  O9  UNL     1       3.417  -2.993   2.643  1.00  0.00    -0.372 OA
ATOM     36  H9  UNL     1       3.446  -2.949   3.592  1.00  0.00     0.212 HD
ENDBRANCH  33  35
ENDBRANCH  32  33
ENDBRANCH  31  32
ENDBRANCH  13  31
TORSDOF 10
