REMARK  3 active torsions:
REMARK  status: ('A' for Active; 'I' for Inactive)
REMARK    1  A    between atoms: N1_2  and  C2_5 
REMARK    2  A    between atoms: C2_5  and  C3_6 
REMARK    3  A    between atoms: C3_6  and  C4_7 
ROOT
HETATM    1  C4  UNL     1      -0.026  -1.301  -0.896  1.00  0.00    -0.030 C 
HETATM    2  C5  UNL     1      -0.861  -2.622  -1.044  1.00  0.00     0.011 C 
HETATM    3  C6  UNL     1      -1.390  -2.391   0.389  1.00  0.00     0.011 C 
HETATM    4  C7  UNL     1      -1.183  -0.843   0.163  1.00  0.00    -0.029 C 
HETATM    5  C8  UNL     1      -2.566  -0.344  -0.348  1.00  0.00     0.011 C 
HETATM    6  C9  UNL     1      -3.623  -0.286   0.761  1.00  0.00     0.001 C 
HETATM    7  C10 UNL     1      -3.154   0.418   2.026  1.00  0.00     0.000 C 
HETATM    8  C11 UNL     1      -1.789  -0.077   2.481  1.00  0.00     0.006 C 
HETATM    9  C12 UNL     1      -0.693  -0.036   1.387  1.00  0.00    -0.001 C 
HETATM   10  C13 UNL     1      -0.141   1.417   1.143  1.00  0.00    -0.009 C 
HETATM   11  C14 UNL     1      -0.983   2.459   0.386  1.00  0.00     0.010 C 
HETATM   12  C15 UNL     1      -0.419   3.002  -0.929  1.00  0.00    -0.013 C 
HETATM   13  C16 UNL     1       1.029   3.418  -0.727  1.00  0.00     0.009 C 
HETATM   14  C17 UNL     1       1.851   2.166  -0.454  1.00  0.00    -0.013 C 
HETATM   15  C18 UNL     1       1.856   1.292  -1.715  1.00  0.00     0.009 C 
HETATM   16  C19 UNL     1       0.488   0.945  -2.312  1.00  0.00    -0.013 C 
HETATM   17  C20 UNL     1      -0.562   2.063  -2.136  1.00  0.00     0.009 C 
HETATM   18  C21 UNL     1      -0.034  -0.516  -2.236  1.00  0.00     0.015 C 
HETATM   19  C22 UNL     1       1.380   1.502   0.850  1.00  0.00     0.010 C 
ENDROOT
BRANCH   1  20
HETATM   20  C3  UNL     1       1.440  -1.738  -0.543  1.00  0.00     0.037 C 
BRANCH  20  21
HETATM   21  C2  UNL     1       1.679  -2.748   0.588  1.00  0.00     0.232 C 
BRANCH  21  22
HETATM   22  N1  UNL     1       3.088  -3.154   0.705  1.00  0.00    -0.079 N 
HETATM   23  C1  UNL     1       3.950  -2.088   1.200  1.00  0.00     0.266 C 
ATOM     24  H12 UNL     1       3.436  -3.521  -0.181  1.00  0.00     0.276 HD
ATOM     25  H11 UNL     1       3.179  -3.992   1.280  1.00  0.00     0.276 HD
ENDBRANCH  21  22
ENDBRANCH  20  21
ENDBRANCH   1  20
TORSDOF 3
