REMARK  3 active torsions:
REMARK  status: ('A' for Active; 'I' for Inactive)
REMARK    1  A    between atoms: O1_2  and  C2_3 
REMARK    2  A    between atoms: C2_3  and  N1_5 
REMARK    3  A    between atoms: C21_30  and  C22_31 
ROOT
HETATM    1  N1  UNL     1      -4.324  -0.112   0.589  1.00  0.00    -0.314 N 
ATOM      2  H1  UNL     1      -4.946  -0.187  -0.216  1.00  0.00     0.170 HD
HETATM    3  C3  UNL     1      -3.374   0.805   0.568  1.00  0.00     0.107 C 
HETATM    4  C4  UNL     1      -3.543   1.769  -0.733  1.00  0.00     0.046 C 
HETATM    5  C5  UNL     1      -2.716   2.329  -1.681  1.00  0.00    -0.002 C 
HETATM    6  C6  UNL     1      -1.234   2.172  -1.860  1.00  0.00     0.098 C 
HETATM    7  C7  UNL     1      -0.160   3.068  -2.139  1.00  0.00     0.064 C 
HETATM    8  C8  UNL     1       0.399   3.407  -0.740  1.00  0.00    -0.030 C 
HETATM    9  C9  UNL     1       1.228   3.930   0.242  1.00  0.00     0.013 C 
HETATM   10  C10 UNL     1       0.373   3.719   1.464  1.00  0.00    -0.068 C 
HETATM   11  C11 UNL     1       0.426   3.132   2.704  1.00  0.00     0.045 C 
HETATM   12  C12 UNL     1      -1.080   2.448   3.210  1.00  0.00     0.036 C 
HETATM   13  C13 UNL     1      -2.080   3.554   3.200  1.00  0.00     0.022 C 
HETATM   14  C14 UNL     1      -2.120   3.263   1.875  1.00  0.00     0.046 C 
HETATM   15  C15 UNL     1      -2.020   1.894   2.323  1.00  0.00    -0.002 C 
HETATM   16  N2  UNL     1      -2.373   0.843   1.589  1.00  0.00    -0.349 N 
ATOM     17  H2  UNL     1      -1.877  -0.029   1.774  1.00  0.00     0.167 HD
HETATM   18  C16 UNL     1      -0.964   3.481   0.953  1.00  0.00     0.069 C 
HETATM   19  C17 UNL     1      -0.517   2.623   0.059  1.00  0.00     0.005 C 
HETATM   20  N3  UNL     1      -0.872   1.528  -0.679  1.00  0.00    -0.271 NA
HETATM   21  C18 UNL     1       0.018   0.387  -0.978  1.00  0.00     0.081 C 
HETATM   22  C19 UNL     1       0.126  -0.723   0.097  1.00  0.00     0.078 C 
HETATM   23  C20 UNL     1       1.321  -1.397  -0.454  1.00  0.00     0.018 C 
HETATM   24  N4  UNL     1       1.878  -2.601  -0.248  1.00  0.00    -0.362 N 
ATOM     25  H4  UNL     1       1.436  -3.418   0.174  1.00  0.00     0.165 HD
HETATM   26  C21 UNL     1       3.173  -2.509  -0.725  1.00  0.00     0.013 C 
HETATM   27  C25 UNL     1       3.281  -1.357  -1.516  1.00  0.00     0.035 C 
HETATM   28  C26 UNL     1       2.098  -0.643  -1.299  1.00  0.00    -0.024 C 
HETATM   29  C27 UNL     1       1.501   0.718  -1.476  1.00  0.00     0.061 C 
HETATM   30  C28 UNL     1       1.545   1.401  -2.834  1.00  0.00    -0.019 C 
HETATM   31  C29 UNL     1       0.792   2.491  -3.123  1.00  0.00    -0.019 C 
ENDROOT
BRANCH   1  32
HETATM   32  C2  UNL     1      -4.514  -0.969   1.643  1.00  0.00     0.215 C 
HETATM   33  S1  UNL     1      -4.503  -0.697   3.300  1.00  0.00    -0.033 SA
BRANCH  32  34
HETATM   34  O1  UNL     1      -4.853  -2.245   1.297  1.00  0.00    -0.332 OA
HETATM   35  C1  UNL     1      -5.113  -2.558  -0.080  1.00  0.00     0.212 C 
ENDBRANCH  32  34
ENDBRANCH   1  32
BRANCH  26  36
HETATM   36  C22 UNL     1       4.234  -3.457  -0.265  1.00  0.00     0.027 C 
HETATM   37  C23 UNL     1       4.047  -4.850  -0.863  1.00  0.00     0.016 C 
HETATM   38  C24 UNL     1       4.255  -3.485   1.272  1.00  0.00     0.016 C 
ENDBRANCH  26  36
TORSDOF 3
