REMARK  1 active torsions:
REMARK  status: ('A' for Active; 'I' for Inactive)
REMARK    1  A    between atoms: N1_15  and  O1_16 
ROOT
HETATM    1  C1  UNL     1      -4.600   1.542  -0.672  1.00  0.00     0.026 C 
HETATM    2  C2  UNL     1      -3.561   0.856  -0.175  1.00  0.00    -0.006 C 
HETATM    3  C3  UNL     1      -3.648   0.409   1.291  1.00  0.00    -0.026 C 
HETATM    4  C4  UNL     1      -4.082  -0.994   1.523  1.00  0.00     0.012 C 
HETATM    5  C5  UNL     1      -3.293  -2.042   1.837  1.00  0.00     0.002 C 
HETATM    6  C6  UNL     1      -1.857  -1.879   2.082  1.00  0.00     0.013 C 
HETATM    7  C7  UNL     1      -1.196  -1.066   1.217  1.00  0.00    -0.014 C 
HETATM    8  C8  UNL     1      -1.154  -1.516  -0.181  1.00  0.00    -0.013 A 
HETATM    9  C9  UNL     1      -0.537  -2.751  -0.467  1.00  0.00     0.013 A 
HETATM   10  C10 UNL     1      -0.538  -3.279  -1.758  1.00  0.00     0.001 A 
HETATM   11  C11 UNL     1      -1.170  -2.586  -2.784  1.00  0.00     0.001 A 
HETATM   12  C12 UNL     1      -1.758  -1.349  -2.522  1.00  0.00     0.014 A 
HETATM   13  C13 UNL     1      -1.738  -0.801  -1.224  1.00  0.00     0.005 A 
HETATM   14  C14 UNL     1      -2.292   0.569  -1.099  1.00  0.00     0.079 C 
HETATM   15  N1  UNL     1      -1.702   1.479  -1.897  1.00  0.00    -0.245 N 
HETATM   16  C15 UNL     1      -0.232   2.002  -1.635  1.00  0.00     0.190 C 
HETATM   17  C16 UNL     1      -0.427   3.099  -0.837  1.00  0.00     0.009 C 
HETATM   18  C17 UNL     1      -1.071   2.661   0.455  1.00  0.00     0.029 C 
HETATM   19  C18 UNL     1      -0.521   1.483   0.885  1.00  0.00     0.053 C 
HETATM   20  C19 UNL     1      -1.044   0.338   1.615  1.00  0.00     0.007 C 
HETATM   21  C20 UNL     1      -1.596   0.826   2.725  1.00  0.00     0.146 C 
HETATM   22  C21 UNL     1      -3.066   1.157   2.323  1.00  0.00     0.015 C 
HETATM   23  N2  UNL     1      -0.635   1.716   3.325  1.00  0.00    -0.330 N 
ATOM     24  H2  UNL     1      -0.890   2.344   4.087  1.00  0.00     0.165 HD
HETATM   25  C22 UNL     1       0.812   1.671   2.752  1.00  0.00     0.328 C 
HETATM   26  O2  UNL     1       1.800   1.750   3.473  1.00  0.00    -0.246 OA
HETATM   27  N3  UNL     1       0.746   1.608   1.314  1.00  0.00    -0.261 N 
HETATM   28  C23 UNL     1       1.519   1.197   0.198  1.00  0.00     0.082 A 
HETATM   29  C24 UNL     1       2.776   0.564   0.102  1.00  0.00     0.020 A 
HETATM   30  C25 UNL     1       3.757   0.192   1.037  1.00  0.00     0.017 A 
HETATM   31  C26 UNL     1       4.907  -0.473   0.604  1.00  0.00     0.008 A 
HETATM   32  C27 UNL     1       5.084  -0.806  -0.738  1.00  0.00    -0.060 A 
HETATM   33  C28 UNL     1       6.327  -1.549  -1.133  1.00  0.00     0.048 C 
HETATM   34  C29 UNL     1       4.107  -0.461  -1.685  1.00  0.00     0.037 A 
HETATM   35  C30 UNL     1       2.964   0.228  -1.246  1.00  0.00     0.045 A 
HETATM   36  N4  UNL     1       1.871   0.681  -1.972  1.00  0.00    -0.355 N 
ATOM     37  H4  UNL     1       1.760   0.585  -2.981  1.00  0.00     0.166 HD
HETATM   38  C31 UNL     1       0.966   1.274  -1.138  1.00  0.00     0.067 A 
ENDROOT
BRANCH  15  39
HETATM   39  O1  UNL     1      -2.467   2.210  -2.632  1.00  0.00    -0.286 OA
ATOM     40  H1  UNL     1      -2.051   2.852  -3.195  1.00  0.00     0.244 HD
ENDBRANCH  15  39
TORSDOF 1
