REMARK  3 active torsions:
REMARK  status: ('A' for Active; 'I' for Inactive)
REMARK    1  A    between atoms: C7_7  and  O1_8 
REMARK    2  A    between atoms: C11_13  and  C12_14 
REMARK    3  A    between atoms: C26_32  and  C27_33 
ROOT
HETATM    1  C1  UNL     1       6.083  -0.204   0.762  1.00  0.00     0.017 C 
HETATM    2  C2  UNL     1       5.178  -0.480   0.032  1.00  0.00    -0.081 C 
HETATM    3  C3  UNL     1       4.114  -0.743  -0.900  1.00  0.00     0.013 C 
HETATM    4  C4  UNL     1       4.564  -0.921  -2.332  1.00  0.00     0.060 C 
HETATM    5  C5  UNL     1       2.815  -0.745  -0.480  1.00  0.00     0.027 C 
HETATM    6  C6  UNL     1       1.642  -0.859  -1.602  1.00  0.00     0.101 C 
HETATM    7  C7  UNL     1       0.308  -0.336  -1.062  1.00  0.00     0.097 C 
HETATM    8  C8  UNL     1       0.776   1.071  -0.502  1.00  0.00     0.085 C 
HETATM    9  C9  UNL     1       0.507   0.869   0.949  1.00  0.00    -0.017 C 
HETATM   10  C10 UNL     1       1.318  -0.108   1.594  1.00  0.00     0.062 C 
HETATM   11  C11 UNL     1       0.683  -0.850   2.622  1.00  0.00     0.040 C 
HETATM   12  N1  UNL     1      -0.665  -0.666   2.913  1.00  0.00    -0.358 N 
ATOM     13  H1  UNL     1      -1.085  -1.151   3.706  1.00  0.00     0.165 HD
HETATM   14  C15 UNL     1      -1.432   0.167   2.136  1.00  0.00     0.045 C 
HETATM   15  C16 UNL     1      -2.744  -0.047   1.735  1.00  0.00     0.166 C 
HETATM   16  N2  UNL     1      -2.759  -0.457   0.438  1.00  0.00    -0.378 N 
ATOM     17  H2  UNL     1      -3.205  -1.319   0.124  1.00  0.00     0.160 HD
HETATM   18  C17 UNL     1      -2.106   0.418  -0.409  1.00  0.00     0.029 C 
HETATM   19  C18 UNL     1      -1.758   1.556   0.276  1.00  0.00     0.105 C 
HETATM   20  C19 UNL     1      -2.869   2.080   0.936  1.00  0.00    -0.035 A 
HETATM   21  C20 UNL     1      -3.404   3.390   0.859  1.00  0.00     0.009 A 
HETATM   22  C21 UNL     1      -4.452   3.756   1.712  1.00  0.00     0.001 A 
HETATM   23  C22 UNL     1      -4.958   2.836   2.642  1.00  0.00     0.001 A 
HETATM   24  C23 UNL     1      -4.446   1.536   2.708  1.00  0.00     0.010 A 
HETATM   25  C24 UNL     1      -3.410   1.154   1.827  1.00  0.00    -0.022 A 
HETATM   26  C25 UNL     1      -0.859   1.061   1.234  1.00  0.00    -0.010 C 
HETATM   27  C26 UNL     1      -1.187  -0.197  -1.572  1.00  0.00     0.010 C 
HETATM   28  N3  UNL     1       2.510  -0.547   0.913  1.00  0.00    -0.356 N 
ATOM     29  H3  UNL     1       3.287  -0.758   1.539  1.00  0.00     0.166 HD
ENDROOT
BRANCH   7  30
HETATM   30  O1  UNL     1       0.071  -1.461  -0.120  1.00  0.00    -0.384 OA
ATOM     31  H1  UNL     1      -0.757  -1.137   0.215  1.00  0.00     0.211 HD
ENDBRANCH   7  30
BRANCH  27  32
HETATM   32  C27 UNL     1      -1.493   0.291  -2.974  1.00  0.00    -0.025 A 
HETATM   33  C28 UNL     1      -2.680  -0.189  -3.573  1.00  0.00     0.012 A 
HETATM   34  C29 UNL     1      -2.980   0.067  -4.910  1.00  0.00     0.001 A 
HETATM   35  C30 UNL     1      -2.107   0.831  -5.677  1.00  0.00     0.000 A 
HETATM   36  C31 UNL     1      -0.955   1.357  -5.090  1.00  0.00     0.001 A 
HETATM   37  C32 UNL     1      -0.645   1.088  -3.750  1.00  0.00     0.012 A 
ENDBRANCH  27  32
BRANCH  11  38
HETATM   38  C12 UNL     1       1.203  -2.157   3.241  1.00  0.00     0.030 C 
HETATM   39  C13 UNL     1       1.101  -2.120   4.777  1.00  0.00     0.016 C 
HETATM   40  C14 UNL     1       2.568  -2.732   2.855  1.00  0.00     0.016 C 
ENDBRANCH  11  38
TORSDOF 3
