REMARK  2 active torsions:
REMARK  status: ('A' for Active; 'I' for Inactive)
REMARK       I    between atoms: C2_4  and  N2_5 
REMARK       I    between atoms: C2_4  and  N7_31 
REMARK    1  A    between atoms: C6_12  and  C7_13 
REMARK    2  A    between atoms: C7_13  and  O1_14 
ROOT
HETATM    1  C1  UNL     1       4.153  -2.208  -0.328  1.00  0.00     0.165 C 
HETATM    2  N1  UNL     1       4.234  -0.790  -0.049  1.00  0.00    -0.231 N 
ATOM      3  H1  UNL     1       5.059  -0.416   0.420  1.00  0.00     0.177 HD
HETATM    4  C2  UNL     1       3.281   0.005  -0.384  1.00  0.00     0.674 C 
HETATM    5  N2  UNL     1       2.164  -0.424  -1.042  1.00  0.00    -0.176 N 
ATOM      6  H2  UNL     1       2.162  -0.660  -2.034  1.00  0.00     0.186 HD
HETATM    7  C3  UNL     1       1.115  -0.504  -0.302  1.00  0.00     0.137 C 
HETATM    8  N3  UNL     1       1.063  -0.270   1.047  1.00  0.00    -0.327 N 
ATOM      9  H3  UNL     1       1.775   0.263   1.546  1.00  0.00     0.169 HD
HETATM   10  C4  UNL     1       0.018  -0.791   1.639  1.00  0.00     0.107 C 
HETATM   11  C5  UNL     1      -0.307  -2.269   1.490  1.00  0.00     0.060 C 
HETATM   12  C6  UNL     1      -0.787  -2.716   0.309  1.00  0.00    -0.002 C 
HETATM   13  C8  UNL     1      -1.028  -1.785  -0.769  1.00  0.00     0.073 C 
HETATM   14  N4  UNL     1      -2.245  -1.584  -1.299  1.00  0.00    -0.297 N 
ATOM     15  H4  UNL     1      -2.948  -2.270  -1.573  1.00  0.00     0.187 HD
HETATM   16  N5  UNL     1      -2.297  -0.231  -1.375  1.00  0.00    -0.294 N 
HETATM   17  C9  UNL     1      -3.532   0.418  -1.747  1.00  0.00     0.178 C 
HETATM   18  C10 UNL     1      -1.183   0.358  -0.823  1.00  0.00     0.079 C 
HETATM   19  C11 UNL     1      -1.219   1.514   0.103  1.00  0.00     0.020 A 
HETATM   20  C12 UNL     1      -1.363   2.796  -0.441  1.00  0.00     0.016 A 
HETATM   21  C13 UNL     1      -1.444   3.919   0.385  1.00  0.00     0.001 A 
HETATM   22  C14 UNL     1      -1.381   3.773   1.770  1.00  0.00     0.002 A 
HETATM   23  C15 UNL     1      -1.221   2.507   2.338  1.00  0.00     0.030 A 
HETATM   24  C16 UNL     1      -1.096   1.365   1.529  1.00  0.00     0.046 A 
HETATM   25  N6  UNL     1      -0.888   0.099   2.202  1.00  0.00    -0.342 N 
ATOM     26  H6  UNL     1      -1.390  -0.131   3.060  1.00  0.00     0.167 HD
HETATM   27  C17 UNL     1      -0.201  -0.637  -0.906  1.00  0.00     0.067 C 
HETATM   28  N7  UNL     1       3.388   1.341  -0.090  1.00  0.00    -0.231 N 
ATOM     29  H7  UNL     1       3.526   1.653   0.871  1.00  0.00     0.177 HD
HETATM   30  C18 UNL     1       3.300   2.302  -1.176  1.00  0.00     0.165 C 
ENDROOT
BRANCH  12  31
HETATM   31  C7  UNL     1      -1.217  -4.121   0.046  1.00  0.00     0.205 C 
BRANCH  31  32
HETATM   32  O1  UNL     1      -2.639  -4.193   0.021  1.00  0.00    -0.396 OA
ATOM     33  H1  UNL     1      -2.913  -5.087  -0.146  1.00  0.00     0.209 HD
ENDBRANCH  31  32
ENDBRANCH  12  31
TORSDOF 2
