REMARK  14 active torsions:
REMARK  status: ('A' for Active; 'I' for Inactive)
REMARK    1  A    between atoms: O1_2  and  C2_3 
REMARK    2  A    between atoms: C8_9  and  C9_10 
REMARK    3  A    between atoms: C10_11  and  C11_12 
REMARK    4  A    between atoms: C11_12  and  C12_13 
REMARK    5  A    between atoms: C12_13  and  C13_14 
REMARK    6  A    between atoms: C13_14  and  C14_15 
REMARK    7  A    between atoms: C14_15  and  C15_16 
REMARK    8  A    between atoms: C15_16  and  C16_17 
REMARK    9  A    between atoms: C19_22  and  O4_23 
REMARK   10  A    between atoms: C24_29  and  O5_30 
REMARK   11  A    between atoms: O5_30  and  C25_31 
REMARK   12  A    between atoms: C25_31  and  C26_33 
REMARK   13  A    between atoms: C26_33  and  N1_34 
REMARK   14  A    between atoms: C31_40  and  O8_41 
ROOT
HETATM    1  C2  UNL     1       0.304   2.330   1.926  1.00  0.00     0.091 C 
HETATM    2  C3  UNL     1       1.769   2.697   2.260  1.00  0.00     0.041 C 
HETATM    3  C4  UNL     1       2.870   1.546   2.018  1.00  0.00     0.015 C 
HETATM    4  C5  UNL     1       2.575   0.222   1.155  1.00  0.00    -0.016 C 
HETATM    5  C6  UNL     1       3.528  -0.876   1.683  1.00  0.00     0.018 C 
HETATM    6  C7  UNL     1       2.702   0.189  -0.445  1.00  0.00     0.021 C 
HETATM    7  C8  UNL     1       1.522   0.860  -1.282  1.00  0.00     0.021 C 
HETATM    8  C17 UNL     1       1.034   1.984  -0.363  1.00  0.00     0.010 C 
HETATM    9  C18 UNL     1       2.310   2.964  -0.464  1.00  0.00     0.020 C 
HETATM   10  C19 UNL     1      -0.019   3.080  -0.570  1.00  0.00     0.143 C 
HETATM   11  C20 UNL     1      -0.674   3.135   0.841  1.00  0.00     0.059 C 
HETATM   12  C21 UNL     1      -1.631   4.210   1.391  1.00  0.00     0.026 C 
HETATM   13  C22 UNL     1      -2.635   3.084   1.815  1.00  0.00     0.026 C 
HETATM   14  C23 UNL     1      -4.087   3.534   1.694  1.00  0.00     0.014 C 
HETATM   15  C24 UNL     1      -1.978   2.160   0.725  1.00  0.00     0.148 C 
HETATM   16  C29 UNL     1      -1.162   0.820   0.967  1.00  0.00     0.178 C 
HETATM   17  O7  UNL     1      -1.587  -0.301   1.233  1.00  0.00    -0.293 OA
HETATM   18  C30 UNL     1       0.370   1.156   0.993  1.00  0.00     0.092 C 
HETATM   19  C31 UNL     1       1.124  -0.113   1.375  1.00  0.00     0.146 C 
ENDROOT
BRANCH   7  20
HETATM   20  C9  UNL     1       0.449  -0.081  -1.778  1.00  0.00    -0.025 C 
HETATM   21  C10 UNL     1       0.540  -0.953  -2.790  1.00  0.00    -0.030 C 
BRANCH  21  22
HETATM   22  C11 UNL     1       1.745  -1.275  -3.624  1.00  0.00     0.027 C 
BRANCH  22  23
HETATM   23  C12 UNL     1       1.918  -2.788  -3.798  1.00  0.00     0.004 C 
BRANCH  23  24
HETATM   24  C13 UNL     1       2.344  -3.493  -2.506  1.00  0.00     0.001 C 
BRANCH  24  25
HETATM   25  C14 UNL     1       2.344  -5.013  -2.686  1.00  0.00     0.010 C 
BRANCH  25  26
HETATM   26  C15 UNL     1       2.894  -5.754  -1.473  1.00  0.00     0.113 C 
BRANCH  26  27
HETATM   27  C16 UNL     1       2.056  -5.553  -0.244  1.00  0.00     0.172 C 
HETATM   28  O2  UNL     1       2.330  -4.831   0.703  1.00  0.00    -0.648 OA
HETATM   29  O3  UNL     1       0.912  -6.260  -0.265  1.00  0.00    -0.648 OA
ENDBRANCH  26  27
ENDBRANCH  25  26
ENDBRANCH  24  25
ENDBRANCH  23  24
ENDBRANCH  22  23
ENDBRANCH  21  22
ENDBRANCH   7  20
BRANCH  10  30
HETATM   30  O4  UNL     1      -0.792   2.748  -1.703  1.00  0.00    -0.394 OA
ATOM     31  H4  UNL     1      -1.444   3.427  -1.831  1.00  0.00     0.210 HD
ENDBRANCH  10  30
BRANCH  19  32
HETATM   32  O8  UNL     1       0.885  -0.563   2.692  1.00  0.00    -0.393 OA
ATOM     33  H8  UNL     1      -0.031  -0.774   2.831  1.00  0.00     0.210 HD
ENDBRANCH  19  32
BRANCH   1  34
HETATM   34  O1  UNL     1      -0.422   2.318   3.152  1.00  0.00    -0.383 OA
HETATM   35  C1  UNL     1      -0.114   1.434   4.211  1.00  0.00     0.202 C 
ENDBRANCH   1  34
BRANCH  15  36
HETATM   36  O5  UNL     1      -2.723   2.203  -0.522  1.00  0.00    -0.299 OA
BRANCH  36  37
HETATM   37  C25 UNL     1      -3.873   1.537  -0.782  1.00  0.00     0.288 C 
HETATM   38  O6  UNL     1      -4.531   1.883  -1.767  1.00  0.00    -0.263 OA
BRANCH  37  39
HETATM   39  C26 UNL     1      -4.350   0.388   0.092  1.00  0.00     0.381 C 
BRANCH  39  40
HETATM   40  N1  UNL     1      -3.997  -0.942  -0.453  1.00  0.00     0.089 N 
HETATM   41  C27 UNL     1      -4.439  -1.130  -1.836  1.00  0.00     0.310 C 
HETATM   42  C28 UNL     1      -4.581  -1.985   0.396  1.00  0.00     0.310 C 
ENDBRANCH  39  40
ENDBRANCH  37  39
ENDBRANCH  36  37
ENDBRANCH  15  36
TORSDOF 14
