REMARK  8 active torsions:
REMARK  status: ('A' for Active; 'I' for Inactive)
REMARK    1  A    between atoms: C2_2  and  N1_3 
REMARK    2  A    between atoms: C5_6  and  C6_7 
REMARK    3  A    between atoms: C6_7  and  N2_9 
REMARK    4  A    between atoms: C11_16  and  O1_17 
REMARK    5  A    between atoms: C12_19  and  O2_20 
REMARK    6  A    between atoms: O2_20  and  N3_21 
REMARK    7  A    between atoms: N3_21  and  C13_23 
REMARK    8  A    between atoms: C13_23  and  N4_24 
ROOT
HETATM    1  N1  UNL     1      -0.455   1.381  -0.513  1.00  0.00     0.132 N 
HETATM    2  C3  UNL     1      -0.569   1.381   0.975  1.00  0.00     0.239 A 
HETATM    3  C4  UNL     1      -1.359   0.132   1.454  1.00  0.00     0.032 A 
HETATM    4  C5  UNL     1      -1.461  -1.026   0.451  1.00  0.00     0.034 C 
HETATM    5  C8  UNL     1       0.120  -1.265   0.551  1.00  0.00     0.009 C 
HETATM    6  C9  UNL     1       0.543  -1.767  -0.827  1.00  0.00     0.018 C 
HETATM    7  C10 UNL     1       0.551  -0.554  -1.785  1.00  0.00     0.076 C 
HETATM    8  C11 UNL     1       0.786   0.665  -0.883  1.00  0.00     0.294 C 
HETATM    9  C12 UNL     1       1.227  -0.060   0.383  1.00  0.00     0.163 C 
HETATM   10  C14 UNL     1       0.685   0.716   1.531  1.00  0.00     0.068 A 
HETATM   11  C15 UNL     1      -0.058  -0.516   1.949  1.00  0.00     0.014 A 
ENDROOT
BRANCH   9  12
HETATM   12  O2  UNL     1       2.612  -0.529   0.422  1.00  0.00    -0.260 OA
BRANCH  12  13
HETATM   13  N3  UNL     1       3.468   0.446   0.991  1.00  0.00    -0.240 N 
ATOM     14  H3  UNL     1       3.266   0.905   1.879  1.00  0.00     0.197 HD
BRANCH  13  15
HETATM   15  C13 UNL     1       4.584   0.722   0.257  1.00  0.00     0.189 C 
HETATM   16  S1  UNL     1       6.002   1.214   0.966  1.00  0.00    -0.039 SA
BRANCH  15  17
HETATM   17  N4  UNL     1       4.488   0.554  -1.081  1.00  0.00    -0.375 N 
ATOM     18  H42 UNL     1       3.617   0.252  -1.517  1.00  0.00     0.158 HD
ATOM     19  H41 UNL     1       5.323   0.760  -1.630  1.00  0.00     0.158 HD
ENDBRANCH  15  17
ENDBRANCH  13  15
ENDBRANCH  12  13
ENDBRANCH   9  12
BRANCH   8  20
HETATM   20  O1  UNL     1       1.795   1.505  -1.413  1.00  0.00    -0.360 OA
ATOM     21  H1  UNL     1       2.592   1.045  -1.651  1.00  0.00     0.212 HD
ENDBRANCH   8  20
BRANCH   4  22
HETATM   22  C6  UNL     1      -2.361  -2.193   0.944  1.00  0.00     0.184 C 
HETATM   23  C7  UNL     1      -2.223  -3.425   0.050  1.00  0.00     0.040 C 
BRANCH  22  24
HETATM   24  N2  UNL     1      -3.769  -1.786   0.916  1.00  0.00    -0.075 N 
ATOM     25  H23 UNL     1      -3.930  -0.929   1.445  1.00  0.00     0.274 HD
ATOM     26  H22 UNL     1      -4.051  -1.448  -0.004  1.00  0.00     0.274 HD
ATOM     27  H21 UNL     1      -4.360  -2.552   1.240  1.00  0.00     0.274 HD
ENDBRANCH  22  24
ENDBRANCH   4  22
BRANCH   1  28
HETATM   28  C2  UNL     1      -0.633   2.719  -1.069  1.00  0.00     0.272 C 
HETATM   29  C1  UNL     1      -2.086   3.182  -0.949  1.00  0.00     0.037 C 
ENDBRANCH   1  28
TORSDOF 8
