REMARK  4 active torsions:
REMARK  status: ('A' for Active; 'I' for Inactive)
REMARK    1  A    between atoms: N1_4  and  C4_5 
REMARK    2  A    between atoms: C5_8  and  C6_9 
REMARK    3  A    between atoms: C9_14  and  N4_15 
REMARK    4  A    between atoms: C11_17  and  N5_18 
ROOT
HETATM    1  C4  UNL     1       1.806  -0.450  -0.172  1.00  0.00     0.127 A 
HETATM    2  N2  UNL     1       1.861  -1.766  -0.439  1.00  0.00    -0.334 N 
ATOM      3  H2  UNL     1       2.707  -2.303  -0.245  1.00  0.00     0.168 HD
HETATM    4  C5  UNL     1       0.774  -2.360  -0.968  1.00  0.00     0.087 A 
HETATM    5  N3  UNL     1      -0.357  -1.699  -1.273  1.00  0.00    -0.334 N 
ATOM      6  H3  UNL     1      -1.142  -2.179  -1.713  1.00  0.00     0.168 HD
HETATM    7  C9  UNL     1      -0.426  -0.383  -0.981  1.00  0.00     0.127 A 
HETATM    8  C17 UNL     1       0.658   0.285  -0.435  1.00  0.00     0.193 A 
HETATM    9  F1  UNL     1       0.600   1.599  -0.162  1.00  0.00    -0.199 F 
ENDROOT
BRANCH   1  10
HETATM   10  N1  UNL     1       2.967   0.103   0.390  1.00  0.00    -0.260 NA
HETATM   11  C3  UNL     1       3.718   0.907  -0.588  1.00  0.00     0.129 C 
HETATM   12  C2  UNL     1       5.098   1.377  -0.069  1.00  0.00     0.139 C 
HETATM   13  C1  UNL     1       5.954   0.260   0.521  1.00  0.00     0.041 C 
HETATM   14  O1  UNL     1       5.133   2.516   0.801  1.00  0.00    -0.337 OA
HETATM   15  C22 UNL     1       4.037   2.878   1.475  1.00  0.00     0.117 A 
HETATM   16  C19 UNL     1       2.935   2.155   1.901  1.00  0.00    -0.004 A 
HETATM   17  S1  UNL     1       3.925   4.526   1.948  1.00  0.00    -0.077 SA
HETATM   18  C18 UNL     1       2.757   0.678   1.724  1.00  0.00     0.139 C 
HETATM   19  C20 UNL     1       1.973   2.996   2.556  1.00  0.00     0.019 A 
HETATM   20  C21 UNL     1       2.386   4.304   2.639  1.00  0.00     0.053 A 
ENDBRANCH   1  10
BRANCH   4  21
HETATM   21  C6  UNL     1       0.822  -3.850  -1.202  1.00  0.00     0.053 A 
HETATM   22  C7  UNL     1      -0.332  -4.737  -0.792  1.00  0.00     0.013 A 
HETATM   23  C8  UNL     1       0.950  -4.780  -0.017  1.00  0.00     0.013 A 
ENDBRANCH   4  21
BRANCH   7  24
HETATM   24  N4  UNL     1      -1.636   0.306  -1.246  1.00  0.00    -0.257 NA
HETATM   25  C10 UNL     1      -2.269   1.179  -0.283  1.00  0.00     0.141 A 
HETATM   26  C11 UNL     1      -3.609   0.542  -0.617  1.00  0.00     0.187 A 
HETATM   27  C14 UNL     1      -4.419   1.149  -1.748  1.00  0.00     0.046 A 
HETATM   28  C16 UNL     1      -2.865  -0.364  -1.578  1.00  0.00     0.104 A 
HETATM   29  C15 UNL     1      -3.626   0.282  -2.750  1.00  0.00     0.025 A 
BRANCH  26  30
HETATM   30  N5  UNL     1      -4.285  -0.121   0.499  1.00  0.00     0.092 N 
HETATM   31  C12 UNL     1      -4.911   0.879   1.364  1.00  0.00     0.310 C 
HETATM   32  C13 UNL     1      -5.270  -1.126   0.097  1.00  0.00     0.310 C 
ENDBRANCH  26  30
ENDBRANCH   7  24
TORSDOF 4
