REMARK  8 active torsions:
REMARK  status: ('A' for Active; 'I' for Inactive)
REMARK    1  A    between atoms: C2_2  and  C3_3 
REMARK    2  A    between atoms: C3_3  and  C4_4 
REMARK    3  A    between atoms: C4_4  and  N1_5 
REMARK       I    between atoms: N1_5  and  C5_7 
REMARK       I    between atoms: C5_7  and  N2_9 
REMARK    4  A    between atoms: N2_9  and  C6_11 
REMARK    5  A    between atoms: C14_24  and  C15_25 
REMARK    6  A    between atoms: C15_25  and  O4_26 
REMARK    7  A    between atoms: O4_26  and  C16_27 
REMARK    8  A    between atoms: C16_27  and  C17_29 
ROOT
HETATM    1  C6  UNL     1       0.466  -0.901   0.634  1.00  0.00     0.104 C 
HETATM    2  C7  UNL     1       1.349  -1.230   1.909  1.00  0.00     0.293 C 
HETATM    3  O2  UNL     1       0.847  -2.314   2.781  1.00  0.00    -0.353 OA
HETATM    4  C8  UNL     1       1.247  -3.570   2.029  1.00  0.00     0.240 C 
HETATM    5  C9  UNL     1       1.408  -2.926   0.679  1.00  0.00     0.199 C 
HETATM    6  O3  UNL     1       2.007  -3.191  -0.538  1.00  0.00    -0.319 OA
HETATM    7  C10 UNL     1       1.631  -2.086  -1.413  1.00  0.00     0.333 C 
HETATM    8  N3  UNL     1       0.380  -2.525  -2.024  1.00  0.00    -0.044 N 
ATOM      9  H31 UNL     1       0.487  -3.376  -2.576  1.00  0.00     0.280 HD
ATOM     10  H32 UNL     1       0.072  -1.911  -2.778  1.00  0.00     0.280 HD
HETATM   11  C11 UNL     1      -0.615  -2.661  -0.964  1.00  0.00     0.197 C 
HETATM   12  C12 UNL     1      -1.178  -4.081  -1.015  1.00  0.00     0.041 C 
HETATM   13  C13 UNL     1      -0.023  -2.317   0.415  1.00  0.00     0.114 C 
HETATM   14  C14 UNL     1       1.302  -0.646  -0.709  1.00  0.00     0.100 C 
HETATM   15  O6  UNL     1       2.340  -1.931   1.216  1.00  0.00    -0.320 OA
ENDROOT
BRANCH   1  16
HETATM   16  N2  UNL     1      -0.654   0.009   0.863  1.00  0.00    -0.328 N 
HETATM   17  C5  UNL     1      -0.511   1.370   0.876  1.00  0.00     0.316 C 
HETATM   18  N1  UNL     1      -1.739   1.980   0.896  1.00  0.00    -0.343 N 
HETATM   19  O1  UNL     1       0.556   1.956   0.789  1.00  0.00    -0.247 OA
ATOM     20  H1  UNL     1      -2.579   1.426   1.063  1.00  0.00     0.164 HD
ATOM     21  H2  UNL     1      -1.581  -0.387   1.020  1.00  0.00     0.165 HD
BRANCH  18  22
HETATM   22  C4  UNL     1      -1.847   3.409   0.681  1.00  0.00     0.124 C 
BRANCH  22  23
HETATM   23  C3  UNL     1      -3.252   3.804   0.226  1.00  0.00     0.019 C 
BRANCH  23  24
HETATM   24  C2  UNL     1      -3.674   3.099  -1.072  1.00  0.00    -0.003 C 
HETATM   25  C1  UNL     1      -4.660   1.966  -0.834  1.00  0.00     0.005 C 
ENDBRANCH  23  24
ENDBRANCH  22  23
ENDBRANCH  18  22
ENDBRANCH   1  16
BRANCH  14  26
HETATM   26  C15 UNL     1       2.539   0.289  -0.673  1.00  0.00     0.190 C 
BRANCH  26  27
HETATM   27  O4  UNL     1       3.079   0.521   0.637  1.00  0.00    -0.314 OA
BRANCH  27  28
HETATM   28  C16 UNL     1       4.112   1.389   0.859  1.00  0.00     0.367 C 
HETATM   29  O5  UNL     1       4.567   1.502   2.000  1.00  0.00    -0.255 OA
BRANCH  28  30
HETATM   30  C17 UNL     1       4.649   2.178  -0.341  1.00  0.00     0.479 C 
HETATM   31  F1  UNL     1       4.980   1.375  -1.397  1.00  0.00    -0.162 F 
HETATM   32  F2  UNL     1       3.750   3.079  -0.833  1.00  0.00    -0.162 F 
HETATM   33  F3  UNL     1       5.778   2.886  -0.058  1.00  0.00    -0.162 F 
ENDBRANCH  28  30
ENDBRANCH  27  28
ENDBRANCH  26  27
ENDBRANCH  14  26
TORSDOF 8
