REMARK  13 active torsions:
REMARK  status: ('A' for Active; 'I' for Inactive)
REMARK    1  A    between atoms: C2_2  and  C3_3 
REMARK    2  A    between atoms: C3_3  and  C4_4 
REMARK    3  A    between atoms: C4_4  and  C5_5 
REMARK    4  A    between atoms: C5_5  and  C6_6 
REMARK    5  A    between atoms: C6_6  and  C7_7 
REMARK    6  A    between atoms: C7_7  and  C8_8 
REMARK    7  A    between atoms: C8_8  and  C9_9 
REMARK    8  A    between atoms: C10_10  and  C11_11 
REMARK    9  A    between atoms: C11_11  and  C12_12 
REMARK   10  A    between atoms: C12_12  and  O1_13 
REMARK   11  A    between atoms: C12_12  and  C13_15 
REMARK   12  A    between atoms: C13_15  and  N1_16 
REMARK   13  A    between atoms: N1_16  and  C14_18 
ROOT
HETATM    1  C14 UNL     1       2.732  -2.285   0.601  1.00  0.00     0.097 C 
HETATM    2  C15 UNL     1       1.423  -2.357  -0.268  1.00  0.00     0.034 C 
HETATM    3  C16 UNL     1       1.773  -1.659  -1.627  1.00  0.00     0.030 C 
HETATM    4  C17 UNL     1       0.765  -0.554  -2.077  1.00  0.00     0.064 C 
HETATM    5  C18 UNL     1       0.954   0.753  -1.357  1.00  0.00     0.009 C 
HETATM    6  C19 UNL     1       0.305   1.331  -0.283  1.00  0.00     0.027 C 
HETATM    7  C20 UNL     1       1.258   2.197   0.343  1.00  0.00     0.027 C 
HETATM    8  C21 UNL     1       2.431   2.076  -0.381  1.00  0.00     0.009 C 
HETATM    9  N2  UNL     1       2.046   1.564  -1.601  1.00  0.00    -0.363 N 
ATOM     10  H2  UNL     1       2.481   1.747  -2.505  1.00  0.00     0.165 HD
HETATM   11  C22 UNL     1       3.872   2.247  -0.005  1.00  0.00     0.057 C 
HETATM   12  C23 UNL     1       4.349   1.238   1.075  1.00  0.00     0.006 C 
HETATM   13  C24 UNL     1       4.538  -0.268   0.688  1.00  0.00     0.010 C 
HETATM   14  C25 UNL     1       3.258  -0.904   0.157  1.00  0.00     0.046 C 
HETATM   15  C26 UNL     1       3.153  -1.089  -1.352  1.00  0.00     0.092 A 
HETATM   16  C27 UNL     1       4.119  -0.619  -2.434  1.00  0.00     0.207 A 
HETATM   17  O2  UNL     1       4.208  -1.931  -1.891  1.00  0.00    -0.374 OA
ENDROOT
BRANCH   1  18
HETATM   18  N1  UNL     1       2.668  -2.484   1.964  1.00  0.00    -0.353 N 
ATOM     19  H1  UNL     1       3.530  -2.741   2.444  1.00  0.00     0.169 HD
BRANCH  18  20
HETATM   20  C13 UNL     1       1.700  -2.380   2.611  1.00  0.00    -0.042 C 
BRANCH  20  21
HETATM   21  C12 UNL     1       0.518  -2.351   3.539  1.00  0.00     0.217 C 
BRANCH  21  22
HETATM   22  C11 UNL     1      -0.429  -3.555   3.228  1.00  0.00     0.139 C 
BRANCH  22  23
HETATM   23  C10 UNL     1      -1.210  -3.462   1.971  1.00  0.00    -0.103 C 
HETATM   24  C9  UNL     1      -1.858  -3.257   0.981  1.00  0.00    -0.106 C 
BRANCH  24  25
HETATM   25  C8  UNL     1      -2.627  -2.813  -0.186  1.00  0.00     0.094 C 
BRANCH  25  26
HETATM   26  C7  UNL     1      -3.216  -1.423   0.077  1.00  0.00     0.012 C 
BRANCH  26  27
HETATM   27  C6  UNL     1      -3.901  -0.847  -1.162  1.00  0.00     0.001 C 
BRANCH  27  28
HETATM   28  C5  UNL     1      -4.690   0.437  -0.877  1.00  0.00     0.000 C 
BRANCH  28  29
HETATM   29  C4  UNL     1      -3.824   1.599  -0.383  1.00  0.00     0.000 C 
BRANCH  29  30
HETATM   30  C3  UNL     1      -4.655   2.872  -0.195  1.00  0.00    -0.000 C 
BRANCH  30  31
HETATM   31  C2  UNL     1      -3.855   4.042   0.383  1.00  0.00    -0.005 C 
HETATM   32  C1  UNL     1      -2.768   4.556  -0.547  1.00  0.00     0.005 C 
ENDBRANCH  30  31
ENDBRANCH  29  30
ENDBRANCH  28  29
ENDBRANCH  27  28
ENDBRANCH  26  27
ENDBRANCH  25  26
ENDBRANCH  24  25
ENDBRANCH  22  23
ENDBRANCH  21  22
BRANCH  21  33
HETATM   33  O1  UNL     1      -0.130  -1.194   3.450  1.00  0.00    -0.382 OA
ATOM     34  H1  UNL     1       0.446  -0.462   3.639  1.00  0.00     0.211 HD
ENDBRANCH  21  33
ENDBRANCH  20  21
ENDBRANCH  18  20
ENDBRANCH   1  18
TORSDOF 13
