REMARK  11 active torsions:
REMARK  status: ('A' for Active; 'I' for Inactive)
REMARK    1  A    between atoms: C2_2  and  O2_4 
REMARK    2  A    between atoms: O2_4  and  C3_5 
REMARK    3  A    between atoms: C4_6  and  O3_7 
REMARK    4  A    between atoms: C5_9  and  C6_10 
REMARK    5  A    between atoms: C6_10  and  O4_11 
REMARK    6  A    between atoms: C9_16  and  O6_17 
REMARK    7  A    between atoms: C15_25  and  O8_26 
REMARK    8  A    between atoms: C17_29  and  O9_30 
REMARK    9  A    between atoms: C22_38  and  O12_39 
REMARK   10  A    between atoms: C28_50  and  O17_51 
REMARK   11  A    between atoms: O17_51  and  C29_52 
ROOT
HETATM    1  C3  UNL     1       1.802   0.173   1.042  1.00  0.00     0.195 C 
HETATM    2  C4  UNL     1       2.357  -1.067   0.251  1.00  0.00     0.181 C 
HETATM    3  C5  UNL     1       2.033  -2.578   0.604  1.00  0.00     0.184 C 
HETATM    4  O5  UNL     1       0.673  -3.087   0.504  1.00  0.00    -0.335 OA
HETATM    5  C7  UNL     1      -0.049  -2.970  -0.664  1.00  0.00     0.140 C 
HETATM    6  C8  UNL     1      -1.454  -2.862  -0.521  1.00  0.00     0.142 C 
HETATM    7  C9  UNL     1      -2.236  -2.242  -1.507  1.00  0.00     0.117 C 
HETATM    8  C10 UNL     1      -1.562  -1.410  -2.396  1.00  0.00     0.062 C 
HETATM    9  C11 UNL     1      -2.063   0.064  -2.515  1.00  0.00     0.171 C 
HETATM   10  O7  UNL     1      -3.136   0.297  -3.058  1.00  0.00    -0.292 OA
HETATM   11  C12 UNL     1      -1.101   1.216  -1.815  1.00  0.00     0.109 C 
HETATM   12  C13 UNL     1      -0.070   1.763  -2.556  1.00  0.00     0.053 C 
HETATM   13  C14 UNL     1       0.584   0.471  -2.282  1.00  0.00     0.091 C 
HETATM   14  C15 UNL     1       0.635  -0.588  -3.108  1.00  0.00     0.065 C 
HETATM   15  C16 UNL     1      -0.189  -1.706  -2.648  1.00  0.00     0.046 C 
HETATM   16  C17 UNL     1       0.500  -2.659  -1.895  1.00  0.00     0.115 C 
HETATM   17  C18 UNL     1       0.017   0.658  -0.784  1.00  0.00     0.121 C 
HETATM   18  O10 UNL     1      -0.676  -0.348  -0.020  1.00  0.00    -0.302 OA
HETATM   19  C19 UNL     1      -1.538   0.150   0.904  1.00  0.00     0.295 C 
HETATM   20  O11 UNL     1      -1.497   1.268   1.393  1.00  0.00    -0.259 OA
HETATM   21  C20 UNL     1      -2.654  -0.745   1.115  1.00  0.00     0.073 C 
HETATM   22  C21 UNL     1      -3.888  -0.238   1.075  1.00  0.00     0.051 C 
HETATM   23  C22 UNL     1      -4.858  -1.313   1.316  1.00  0.00     0.285 C 
HETATM   24  O13 UNL     1      -4.095  -2.516   1.449  1.00  0.00    -0.323 OA
HETATM   25  C23 UNL     1      -2.682  -2.190   1.450  1.00  0.00     0.310 C 
HETATM   26  O14 UNL     1      -1.996  -3.198   0.688  1.00  0.00    -0.310 OA
HETATM   27  C24 UNL     1       1.098   1.305   0.142  1.00  0.00     0.198 C 
HETATM   28  O15 UNL     1       2.183   1.985  -0.554  1.00  0.00    -0.339 OA
HETATM   29  C25 UNL     1       1.726   3.018  -1.323  1.00  0.00     0.083 A 
HETATM   30  C26 UNL     1       0.743   2.963  -2.226  1.00  0.00     0.034 A 
HETATM   31  C27 UNL     1       0.571   4.359  -2.684  1.00  0.00     0.215 A 
HETATM   32  O16 UNL     1      -0.165   4.716  -3.585  1.00  0.00    -0.285 OA
HETATM   33  C28 UNL     1       1.502   5.188  -1.876  1.00  0.00     0.135 A 
HETATM   34  C30 UNL     1       2.217   4.340  -1.122  1.00  0.00     0.079 A 
ENDROOT
BRANCH   1  35
HETATM   35  O2  UNL     1       0.941  -0.219   2.125  1.00  0.00    -0.311 OA
BRANCH  35  36
HETATM   36  C2  UNL     1       1.317   0.162   3.378  1.00  0.00     0.255 C 
HETATM   37  C1  UNL     1       0.326  -0.302   4.403  1.00  0.00     0.126 C 
HETATM   38  O1  UNL     1       2.322   0.800   3.661  1.00  0.00    -0.266 OA
ENDBRANCH  35  36
ENDBRANCH   1  35
BRANCH   2  39
HETATM   39  O3  UNL     1       3.809  -0.956   0.221  1.00  0.00    -0.390 OA
ATOM     40  H3  UNL     1       4.144  -1.705  -0.257  1.00  0.00     0.210 HD
ENDBRANCH   2  39
BRANCH   3  41
HETATM   41  C6  UNL     1       2.603  -3.025   1.970  1.00  0.00     0.199 C 
BRANCH  41  42
HETATM   42  O4  UNL     1       1.775  -2.684   3.078  1.00  0.00    -0.398 OA
ATOM     43  H4  UNL     1       2.125  -2.959   3.917  1.00  0.00     0.209 HD
ENDBRANCH  41  42
ENDBRANCH   3  41
BRANCH  14  44
HETATM   44  O8  UNL     1       0.835  -0.521  -4.466  1.00  0.00    -0.363 OA
ATOM     45  H8  UNL     1       0.871  -1.270  -5.050  1.00  0.00     0.217 HD
ENDBRANCH  14  44
BRANCH  16  46
HETATM   46  O9  UNL     1       1.786  -2.994  -2.208  1.00  0.00    -0.357 OA
ATOM     47  H9  UNL     1       2.163  -2.780  -3.053  1.00  0.00     0.217 HD
ENDBRANCH  16  46
BRANCH  33  48
HETATM   48  O17 UNL     1       1.546   6.568  -1.898  1.00  0.00    -0.249 OA
BRANCH  48  49
HETATM   49  C29 UNL     1       1.250   7.101  -0.680  1.00  0.00     0.338 C 
HETATM   50  O18 UNL     1       0.431   6.483   0.070  1.00  0.00    -0.623 OA
HETATM   51  O19 UNL     1       1.844   8.184  -0.408  1.00  0.00    -0.623 OA
ENDBRANCH  48  49
ENDBRANCH  33  48
BRANCH   7  52
HETATM   52  O6  UNL     1      -3.597  -2.258  -1.421  1.00  0.00    -0.357 OA
ATOM     53  H6  UNL     1      -4.127  -1.838  -2.089  1.00  0.00     0.217 HD
ENDBRANCH   7  52
BRANCH  23  54
HETATM   54  O12 UNL     1      -5.738  -1.423   0.221  1.00  0.00    -0.368 OA
ATOM     55  H12 UNL     1      -6.366  -2.119   0.377  1.00  0.00     0.213 HD
ENDBRANCH  23  54
TORSDOF 11
