REMARK  3 active torsions:
REMARK  status: ('A' for Active; 'I' for Inactive)
REMARK    1  A    between atoms: C5_8  and  C6_9 
REMARK    2  A    between atoms: C6_9  and  O4_10 
REMARK    3  A    between atoms: C9_14  and  C10_15 
ROOT
HETATM    1  C1  UNL     1      -1.355   0.098   2.614  1.00  0.00     0.018 C 
HETATM    2  C2  UNL     1      -1.070   0.232   1.103  1.00  0.00     0.080 C 
HETATM    3  C3  UNL     1      -1.946  -0.548   0.188  1.00  0.00     0.174 C 
HETATM    4  O1  UNL     1      -1.084  -1.694   0.724  1.00  0.00    -0.343 OA
HETATM    5  C4  UNL     1       0.100  -0.876   0.313  1.00  0.00     0.211 C 
HETATM    6  O2  UNL     1       0.331  -1.211  -1.104  1.00  0.00    -0.198 OA
HETATM    7  O3  UNL     1      -0.911  -1.143  -1.852  1.00  0.00    -0.222 OA
HETATM    8  C5  UNL     1      -1.631  -0.075  -1.264  1.00  0.00     0.144 C 
HETATM    9  C7  UNL     1      -0.748   1.246  -1.361  1.00  0.00     0.047 C 
HETATM   10  C8  UNL     1       0.720   1.270  -0.725  1.00  0.00     0.018 C 
HETATM   11  C9  UNL     1       1.033   0.310   0.532  1.00  0.00     0.086 C 
ENDROOT
BRANCH  11  12
HETATM   12  C10 UNL     1       2.486  -0.122   0.561  1.00  0.00    -0.025 A 
HETATM   13  C11 UNL     1       3.016  -1.363   1.027  1.00  0.00     0.034 A 
HETATM   14  C12 UNL     1       4.382  -1.283   0.898  1.00  0.00     0.142 A 
HETATM   15  O5  UNL     1       4.739  -0.077   0.393  1.00  0.00    -0.334 OA
HETATM   16  C13 UNL     1       3.594   0.622   0.198  1.00  0.00     0.149 A 
ENDBRANCH  11  12
BRANCH   8  17
HETATM   17  C6  UNL     1      -2.938   0.116  -2.044  1.00  0.00     0.208 C 
BRANCH  17  18
HETATM   18  O4  UNL     1      -3.722  -1.075  -2.056  1.00  0.00    -0.398 OA
ATOM     19  H4  UNL     1      -4.531  -0.957  -2.539  1.00  0.00     0.209 HD
ENDBRANCH  17  18
ENDBRANCH   8  17
TORSDOF 3
