REMARK  9 active torsions:
REMARK  status: ('A' for Active; 'I' for Inactive)
REMARK    1  A    between atoms: C8_8  and  N1_9 
REMARK       I    between atoms: N1_9  and  C9_11 
REMARK       I    between atoms: C9_11  and  N2_12 
REMARK    2  A    between atoms: C14_22  and  C15_23 
REMARK       I    between atoms: C15_23  and  N4_25 
REMARK    3  A    between atoms: N4_25  and  C16_27 
REMARK    4  A    between atoms: C16_27  and  C17_28 
REMARK    5  A    between atoms: C17_28  and  C18_29 
REMARK    6  A    between atoms: C18_29  and  C19_30 
REMARK    7  A    between atoms: C19_30  and  C20_31 
REMARK    8  A    between atoms: C20_31  and  C21_32 
REMARK    9  A    between atoms: C21_32  and  N5_33 
ROOT
HETATM    1  C1  UNL     1       3.254  -1.170  -3.654  1.00  0.00     0.016 C 
HETATM    2  C2  UNL     1       2.629  -0.706  -2.310  1.00  0.00    -0.034 C 
HETATM    3  C3  UNL     1       1.573  -1.738  -1.867  1.00  0.00     0.036 C 
HETATM    4  C4  UNL     1       0.387  -1.215  -1.105  1.00  0.00    -0.029 C 
HETATM    5  C5  UNL     1       0.358  -0.356  -0.075  1.00  0.00    -0.025 C 
HETATM    6  C6  UNL     1       1.490   0.166   0.768  1.00  0.00     0.029 C 
HETATM    7  C7  UNL     1       2.494  -0.931   1.128  1.00  0.00     0.042 C 
HETATM    8  C8  UNL     1       3.725  -0.672   0.288  1.00  0.00     0.058 C 
HETATM    9  C10 UNL     1       3.799  -0.598  -1.302  1.00  0.00     0.028 C 
HETATM   10  C11 UNL     1       4.001   0.921  -1.158  1.00  0.00     0.006 C 
HETATM   11  C12 UNL     1       2.635   1.566  -1.373  1.00  0.00     0.010 C 
HETATM   12  C13 UNL     1       2.073   0.728  -2.504  1.00  0.00     0.016 C 
HETATM   13  C14 UNL     1       2.287   1.362   0.179  1.00  0.00     0.058 C 
HETATM   14  C27 UNL     1       3.772   0.852   0.325  1.00  0.00     0.038 C 
ENDROOT
BRANCH  13  15
HETATM   15  C15 UNL     1       2.094   2.725   0.977  1.00  0.00     0.228 C 
HETATM   16  O1  UNL     1       2.842   3.108   1.886  1.00  0.00    -0.273 OA
HETATM   17  N4  UNL     1       1.105   3.603   0.596  1.00  0.00    -0.360 N 
ATOM     18  H4  UNL     1       1.328   4.596   0.660  1.00  0.00     0.162 HD
BRANCH  17  19
HETATM   19  C16 UNL     1      -0.223   3.267   0.112  1.00  0.00     0.122 C 
BRANCH  19  20
HETATM   20  C17 UNL     1      -1.274   4.000   0.953  1.00  0.00     0.020 C 
BRANCH  20  21
HETATM   21  C18 UNL     1      -2.662   3.356   0.927  1.00  0.00     0.002 C 
BRANCH  21  22
HETATM   22  C19 UNL     1      -2.760   2.184   1.912  1.00  0.00     0.002 C 
BRANCH  22  23
HETATM   23  C20 UNL     1      -4.178   1.613   2.035  1.00  0.00     0.030 C 
BRANCH  23  24
HETATM   24  C21 UNL     1      -4.640   0.836   0.785  1.00  0.00     0.272 C 
BRANCH  24  25
HETATM   25  N5  UNL     1      -5.037  -0.547   1.088  1.00  0.00     0.088 N 
HETATM   26  C22 UNL     1      -3.890  -1.352   1.546  1.00  0.00     0.272 C 
HETATM   27  C23 UNL     1      -3.898  -2.791   1.039  1.00  0.00     0.030 C 
HETATM   28  C24 UNL     1      -3.906  -2.811  -0.487  1.00  0.00     0.003 C 
HETATM   29  C25 UNL     1      -4.886  -1.798  -1.082  1.00  0.00     0.030 C 
HETATM   30  C26 UNL     1      -5.782  -1.166  -0.020  1.00  0.00     0.272 C 
ENDBRANCH  24  25
ENDBRANCH  23  24
ENDBRANCH  22  23
ENDBRANCH  21  22
ENDBRANCH  20  21
ENDBRANCH  19  20
ENDBRANCH  17  19
ENDBRANCH  13  15
BRANCH   8  31
HETATM   31  N1  UNL     1       4.934  -1.246   0.853  1.00  0.00    -0.217 N 
HETATM   32  C9  UNL     1       4.892  -2.574   1.116  1.00  0.00     0.665 C 
HETATM   33  N2  UNL     1       4.566  -3.080   2.249  1.00  0.00    -0.235 N 
HETATM   34  N3  UNL     1       5.286  -3.370   0.100  1.00  0.00    -0.235 N 
ATOM     35  H22 UNL     1       4.268  -2.478   3.017  1.00  0.00     0.174 HD
ATOM     36  H21 UNL     1       4.534  -4.080   2.447  1.00  0.00     0.174 HD
ATOM     37  H32 UNL     1       5.545  -2.968  -0.801  1.00  0.00     0.174 HD
ATOM     38  H31 UNL     1       5.254  -4.370   0.298  1.00  0.00     0.174 HD
ATOM     39  H1  UNL     1       5.764  -0.683   1.040  1.00  0.00     0.178 HD
ENDBRANCH   8  31
TORSDOF 9
