REMARK  7 active torsions:
REMARK  status: ('A' for Active; 'I' for Inactive)
REMARK    1  A    between atoms: N1_7  and  C6_8 
REMARK    2  A    between atoms: C6_8  and  C7_9 
REMARK    3  A    between atoms: C14_16  and  O2_17 
REMARK    4  A    between atoms: C19_24  and  O4_25 
REMARK    5  A    between atoms: O4_25  and  C20_26 
REMARK    6  A    between atoms: C20_26  and  C21_28 
REMARK    7  A    between atoms: C26_34  and  C27_35 
ROOT
HETATM    1  C1  UNL     1       0.316  -4.053  -0.513  1.00  0.00     0.052 C 
HETATM    2  C2  UNL     1       0.135  -2.560  -0.216  1.00  0.00     0.114 C 
HETATM    3  O1  UNL     1       0.544  -1.714  -1.486  1.00  0.00    -0.369 OA
HETATM    4  C3  UNL     1      -0.284  -0.614  -2.004  1.00  0.00     0.136 C 
HETATM    5  C4  UNL     1      -0.278   0.961  -1.528  1.00  0.00     0.069 C 
HETATM    6  C5  UNL     1      -1.383   1.212  -0.059  1.00  0.00     0.236 C 
HETATM    7  N1  UNL     1      -2.608   1.883  -0.466  1.00  0.00     0.094 N 
HETATM    8  C10 UNL     1      -3.521   0.873  -0.923  1.00  0.00     0.274 C 
HETATM    9  C11 UNL     1      -2.712   0.017  -1.874  1.00  0.00     0.045 C 
HETATM   10  C12 UNL     1      -1.469  -0.880  -1.240  1.00  0.00     0.017 C 
HETATM   11  C13 UNL     1      -2.120  -2.300  -1.470  1.00  0.00     0.047 C 
HETATM   12  C14 UNL     1      -2.533  -2.740  -0.113  1.00  0.00     0.127 C 
HETATM   13  C15 UNL     1      -1.441  -2.105   0.681  1.00  0.00     0.066 C 
HETATM   14  C16 UNL     1      -1.638  -0.276   0.923  1.00  0.00     0.023 C 
HETATM   15  C17 UNL     1      -1.752   0.057   2.404  1.00  0.00     0.020 C 
HETATM   16  C18 UNL     1      -0.368  -0.439   0.333  1.00  0.00     0.146 C 
HETATM   17  O3  UNL     1       0.434  -1.094   1.363  1.00  0.00    -0.351 OA
HETATM   18  C19 UNL     1       1.161  -2.156   0.817  1.00  0.00     0.304 C 
ENDROOT
BRANCH  18  19
HETATM   19  O4  UNL     1       2.384  -1.664   0.285  1.00  0.00    -0.282 OA
BRANCH  19  20
HETATM   20  C20 UNL     1       3.456  -1.845   1.078  1.00  0.00     0.296 C 
HETATM   21  O5  UNL     1       3.587  -2.628   1.998  1.00  0.00    -0.259 OA
BRANCH  20  22
HETATM   22  C21 UNL     1       4.415  -0.761   0.784  1.00  0.00     0.051 A 
HETATM   23  C22 UNL     1       4.721   0.076   1.868  1.00  0.00     0.042 A 
HETATM   24  C23 UNL     1       5.580   1.154   1.690  1.00  0.00     0.035 A 
HETATM   25 CL1  UNL     1       5.937   2.192   3.013  1.00  0.00    -0.084 Cl
HETATM   26  C24 UNL     1       6.145   1.404   0.443  1.00  0.00     0.024 A 
HETATM   27  C25 UNL     1       5.852   0.562  -0.633  1.00  0.00     0.014 A 
HETATM   28  C26 UNL     1       4.985  -0.539  -0.483  1.00  0.00     0.006 A 
BRANCH  28  29
HETATM   29  C27 UNL     1       4.704  -1.419  -1.678  1.00  0.00     0.300 C 
HETATM   30  F1  UNL     1       4.241  -2.660  -1.370  1.00  0.00    -0.228 F 
HETATM   31 CL2  UNL     1       3.573  -0.618  -2.790  1.00  0.00    -0.085 Cl
ENDBRANCH  28  29
ENDBRANCH  20  22
ENDBRANCH  19  20
ENDBRANCH  18  19
BRANCH  12  32
HETATM   32  O2  UNL     1      -3.789  -2.221   0.272  1.00  0.00    -0.395 OA
ATOM     33  H2  UNL     1      -4.053  -2.502   1.140  1.00  0.00     0.210 HD
ENDBRANCH  12  32
BRANCH   7  34
HETATM   34  C6  UNL     1      -3.188   2.765   0.540  1.00  0.00     0.277 C 
BRANCH  34  35
HETATM   35  C7  UNL     1      -2.751   4.165   0.202  1.00  0.00     0.014 A 
HETATM   36  C8  UNL     1      -1.502   4.774   0.792  1.00  0.00     0.007 A 
HETATM   37  C9  UNL     1      -2.853   5.277   1.218  1.00  0.00     0.007 A 
ENDBRANCH  34  35
ENDBRANCH   7  34
TORSDOF 7
