REMARK  3 active torsions:
REMARK  status: ('A' for Active; 'I' for Inactive)
REMARK    1  A    between atoms: N1_7  and  S1_8 
REMARK    2  A    between atoms: S1_8  and  C7_11 
REMARK    3  A    between atoms: C11_25  and  C13_27 
ROOT
HETATM    1  C1  UNL     1      -0.289  -3.893   0.408  1.00  0.00     0.019 C 
HETATM    2  C2  UNL     1      -0.254  -2.620  -0.473  1.00  0.00     0.033 C 
HETATM    3  C3  UNL     1       1.081  -2.527  -1.211  1.00  0.00    -0.017 C 
HETATM    4  C4  UNL     1       2.162  -1.547  -0.836  1.00  0.00     0.032 C 
HETATM    5  C5  UNL     1       2.093   0.006  -0.866  1.00  0.00     0.178 C 
HETATM    6  C6  UNL     1       1.094   1.093  -0.326  1.00  0.00     0.202 C 
HETATM    7  N1  UNL     1       0.019   1.528  -1.204  1.00  0.00    -0.293 N 
HETATM    8  C8  UNL     1      -0.883   0.523  -1.730  1.00  0.00     0.117 C 
HETATM    9  C9  UNL     1      -0.191  -0.168  -2.900  1.00  0.00     0.116 C 
HETATM   10  C10 UNL     1       1.280   0.178  -3.138  1.00  0.00     0.165 C 
HETATM   11  F1  UNL     1       1.605   0.374  -4.426  1.00  0.00    -0.191 F 
HETATM   12  N6  UNL     1       2.264   0.294  -2.313  1.00  0.00    -0.334 N 
ATOM     13  H6  UNL     1       3.177   0.589  -2.660  1.00  0.00     0.165 HD
HETATM   14  C11 UNL     1      -1.671  -0.314  -0.610  1.00  0.00     0.005 C 
HETATM   15  C12 UNL     1      -2.313   0.751   0.352  1.00  0.00     0.022 C 
HETATM   16  C16 UNL     1      -0.885  -1.415   0.284  1.00  0.00    -0.065 C 
HETATM   17  C17 UNL     1      -0.237  -1.009   1.683  1.00  0.00    -0.018 C 
HETATM   18  C18 UNL     1       1.241  -1.295   2.051  1.00  0.00     0.069 C 
HETATM   19  C19 UNL     1       2.218  -0.130   2.248  1.00  0.00    -0.018 A 
HETATM   20  C20 UNL     1       2.202   0.411   3.560  1.00  0.00     0.055 A 
HETATM   21  C21 UNL     1       3.106   1.389   3.967  1.00  0.00     0.155 A 
HETATM   22  F2  UNL     1       3.043   1.861   5.220  1.00  0.00    -0.203 F 
HETATM   23  C22 UNL     1       4.059   1.859   3.086  1.00  0.00     0.157 A 
HETATM   24  F3  UNL     1       4.942   2.788   3.477  1.00  0.00    -0.203 F 
HETATM   25  C23 UNL     1       4.087   1.388   1.781  1.00  0.00     0.082 A 
HETATM   26  C24 UNL     1       3.155   0.429   1.332  1.00  0.00     0.082 A 
HETATM   27  O3  UNL     1       3.296   0.249  -0.035  1.00  0.00    -0.314 OA
ENDROOT
BRANCH   7  28
HETATM   28  S1  UNL     1      -0.068   3.144  -1.726  1.00  0.00     0.295 S 
HETATM   29  O1  UNL     1      -0.752   3.151  -3.004  1.00  0.00    -0.197 OA
HETATM   30  O2  UNL     1       1.222   3.778  -1.560  1.00  0.00    -0.197 OA
BRANCH  28  31
HETATM   31  C7  UNL     1      -1.128   4.024  -0.635  1.00  0.00     0.252 A 
HETATM   32  N2  UNL     1      -2.326   4.556  -1.049  1.00  0.00    -0.256 N 
HETATM   33  N3  UNL     1      -2.876   5.119   0.019  1.00  0.00    -0.005 NA
ATOM     34  H2  UNL     1      -2.715   4.524  -1.991  1.00  0.00     0.186 HD
HETATM   35  N4  UNL     1      -1.999   4.906   1.008  1.00  0.00    -0.224 N 
HETATM   36  N5  UNL     1      -0.914   4.185   0.692  1.00  0.00    -0.261 N 
ATOM     37  H4  UNL     1      -2.148   5.272   1.948  1.00  0.00     0.205 HD
ATOM     38  H5  UNL     1      -0.149   3.854   1.280  1.00  0.00     0.190 HD
ENDBRANCH  28  31
ENDBRANCH   7  28
BRANCH  14  39
HETATM   39  C13 UNL     1      -2.917  -0.945  -1.364  1.00  0.00    -0.000 A 
HETATM   40  C14 UNL     1      -3.401  -2.386  -1.366  1.00  0.00     0.006 A 
HETATM   41  C15 UNL     1      -4.160  -1.360  -0.592  1.00  0.00     0.006 A 
ENDBRANCH  14  39
TORSDOF 3
