REMARK  4 active torsions:
REMARK  status: ('A' for Active; 'I' for Inactive)
REMARK    1  A    between atoms: O1_1  and  C1_3 
REMARK    2  A    between atoms: C1_3  and  C2_4 
REMARK    3  A    between atoms: C2_4  and  C3_5 
REMARK    4  A    between atoms: C10_12  and  C14_16 
ROOT
HETATM    1  C3  UNL     1       1.284   0.654   0.085  1.00  0.00    -0.026 A 
HETATM    2  C4  UNL     1       0.628  -0.679  -0.050  1.00  0.00    -0.000 C 
HETATM    3  C5  UNL     1       0.074  -1.865  -0.796  1.00  0.00     0.006 C 
HETATM    4  C6  UNL     1      -1.288  -2.384   0.077  1.00  0.00     0.001 C 
HETATM    5  C7  UNL     1      -2.559  -1.350   0.582  1.00  0.00     0.005 C 
HETATM    6  C8  UNL     1      -2.266   0.241   1.099  1.00  0.00    -0.009 C 
HETATM    7  C9  UNL     1      -2.274   1.487   0.091  1.00  0.00     0.010 C 
HETATM    8  C10 UNL     1      -0.904   1.417  -0.619  1.00  0.00    -0.004 C 
HETATM    9  C11 UNL     1      -0.691   0.034  -0.060  1.00  0.00    -0.000 C 
HETATM   10  C12 UNL     1      -0.797   0.227   1.503  1.00  0.00    -0.000 C 
HETATM   11  C13 UNL     1       0.470   1.205   1.269  1.00  0.00     0.005 A 
HETATM   12  C14 UNL     1       0.356   1.875  -0.028  1.00  0.00     0.005 A 
ENDROOT
BRANCH   1  13
HETATM   13  C2  UNL     1       2.775   0.792   0.058  1.00  0.00     0.037 C 
BRANCH  13  14
HETATM   14  C1  UNL     1       3.342   0.555  -1.339  1.00  0.00     0.165 C 
BRANCH  14  15
HETATM   15  O1  UNL     1       3.554  -0.834  -1.572  1.00  0.00    -0.401 OA
ATOM     16  H1  UNL     1       3.907  -0.982  -2.442  1.00  0.00     0.209 HD
ENDBRANCH  14  15
ENDBRANCH  13  14
ENDBRANCH   1  13
TORSDOF 4
