REMARK  5 active torsions:
REMARK  status: ('A' for Active; 'I' for Inactive)
REMARK    1  A    between atoms: C2_2  and  C3_3 
REMARK    2  A    between atoms: C3_3  and  O1_4 
REMARK    3  A    between atoms: O1_4  and  C4_5 
REMARK    4  A    between atoms: C16_19  and  O2_20 
REMARK    5  A    between atoms: C17_22  and  O3_23 
ROOT
HETATM    1  C4  UNL     1      -1.655  -0.804   0.213  1.00  0.00     0.091 A 
HETATM    2  C5  UNL     1      -1.841  -1.983  -0.720  1.00  0.00     0.049 A 
HETATM    3  C6  UNL     1      -0.849  -0.915  -1.089  1.00  0.00     0.037 A 
HETATM    4  C7  UNL     1       0.640  -1.168  -1.095  1.00  0.00     0.066 C 
HETATM    5  C8  UNL     1       1.482  -1.023  -2.390  1.00  0.00    -0.020 C 
HETATM    6 BR1  UNL     1       0.623  -0.637  -3.997  1.00  0.00    -0.059 Br
HETATM    7  C9  UNL     1       2.672  -0.452  -2.068  1.00  0.00     0.062 C 
HETATM    8  C10 UNL     1       2.701   1.312  -1.665  1.00  0.00     0.031 C 
HETATM    9  C11 UNL     1       3.850   1.104  -0.799  1.00  0.00     0.279 C 
HETATM   10  N1  UNL     1       3.095   0.094  -0.056  1.00  0.00     0.102 N 
HETATM   11  C12 UNL     1       3.286  -1.133  -0.726  1.00  0.00     0.233 C 
HETATM   12  C13 UNL     1       2.650  -1.800   0.610  1.00  0.00     0.044 C 
HETATM   13  C14 UNL     1       1.473  -0.830   1.494  1.00  0.00     0.027 C 
HETATM   14  C15 UNL     1       0.221  -1.691   1.819  1.00  0.00     0.042 C 
HETATM   15  C16 UNL     1      -1.146  -1.032   1.638  1.00  0.00     0.153 C 
HETATM   16  C17 UNL     1       1.073   0.796   0.905  1.00  0.00     0.097 C 
HETATM   17  C18 UNL     1       1.631   2.055  -0.347  1.00  0.00     0.025 C 
HETATM   18  C19 UNL     1       2.148   3.391   0.208  1.00  0.00     0.014 C 
HETATM   19  C20 UNL     1       1.356   0.034  -0.304  1.00  0.00     0.267 C 
ENDROOT
BRANCH   1  20
HETATM   20  O1  UNL     1      -2.636   0.265   0.112  1.00  0.00    -0.377 OA
BRANCH  20  21
HETATM   21  C3  UNL     1      -3.877   0.008   0.770  1.00  0.00     0.168 C 
BRANCH  21  22
HETATM   22  C2  UNL     1      -4.920   0.993   0.255  1.00  0.00     0.022 C 
HETATM   23  C1  UNL     1      -5.283   0.737  -1.201  1.00  0.00     0.007 C 
ENDBRANCH  21  22
ENDBRANCH  20  21
ENDBRANCH   1  20
BRANCH  15  24
HETATM   24  O2  UNL     1      -2.103  -1.882   2.292  1.00  0.00    -0.393 OA
ATOM     25  H2  UNL     1      -1.787  -2.024   3.177  1.00  0.00     0.210 HD
ENDBRANCH  15  24
BRANCH  16  26
HETATM   26  O3  UNL     1       1.958   1.377   1.906  1.00  0.00    -0.387 OA
ATOM     27  H3  UNL     1       1.744   2.247   1.591  1.00  0.00     0.210 HD
ENDBRANCH  16  26
TORSDOF 5
