REMARK  4 active torsions:
REMARK  status: ('A' for Active; 'I' for Inactive)
REMARK    1  A    between atoms: C2_2  and  N1_5 
REMARK    2  A    between atoms: N1_5  and  C5_7 
REMARK    3  A    between atoms: C5_7  and  C6_8 
REMARK    4  A    between atoms: C6_8  and  O1_9 
ROOT
HETATM    1  C6  UNL     1       0.600  -1.877   0.342  1.00  0.00     0.242 C 
HETATM    2  O2  UNL     1      -0.304  -1.512   1.406  1.00  0.00    -0.334 OA
HETATM    3  C7  UNL     1       0.115  -0.303   1.979  1.00  0.00     0.202 C 
HETATM    4  C8  UNL     1       1.051  -0.470   3.026  1.00  0.00     0.067 C 
HETATM    5 CL1  UNL     1       0.692  -1.551   4.317  1.00  0.00    -0.084 Cl
HETATM    6  C9  UNL     1       2.294   0.171   2.890  1.00  0.00     0.084 C 
HETATM    7 CL2  UNL     1       3.462   0.221   4.152  1.00  0.00    -0.080 Cl
HETATM    8  C10 UNL     1       2.558   0.773   1.644  1.00  0.00     0.083 C 
HETATM    9  C11 UNL     1       1.664   0.515   0.604  1.00  0.00     0.151 C 
HETATM   10  C12 UNL     1       0.395   0.692   1.065  1.00  0.00     0.173 C 
HETATM   11  O3  UNL     1      -0.129   1.936   1.337  1.00  0.00    -0.382 OA
HETATM   12  C13 UNL     1       0.453   3.044   0.626  1.00  0.00     0.170 C 
HETATM   13  C14 UNL     1       1.713   3.559   1.343  1.00  0.00     0.053 C 
HETATM   14  C15 UNL     1       2.993   2.914   0.780  1.00  0.00     0.177 C 
HETATM   15  O4  UNL     1       3.456   1.812   1.588  1.00  0.00    -0.353 OA
HETATM   16  C16 UNL     1       1.811  -0.894   0.074  1.00  0.00     0.203 C 
HETATM   17  O5  UNL     1       2.880  -1.269  -0.413  1.00  0.00    -0.291 OA
ENDROOT
BRANCH   1  18
HETATM   18  C5  UNL     1      -0.209  -2.087  -0.962  1.00  0.00     0.191 C 
BRANCH  18  19
HETATM   19  N1  UNL     1      -0.863  -0.881  -1.503  1.00  0.00    -0.408 N 
ATOM     20  H1  UNL     1      -0.360  -0.008  -1.661  1.00  0.00     0.154 HD
BRANCH  19  21
HETATM   21  C2  UNL     1      -2.304  -1.036  -1.798  1.00  0.00     0.015 C 
HETATM   22  C1  UNL     1      -2.593  -2.201  -2.763  1.00  0.00     0.037 C 
HETATM   23  C3  UNL     1      -3.134  -1.190  -0.511  1.00  0.00     0.037 C 
HETATM   24  C4  UNL     1      -2.743   0.268  -2.486  1.00  0.00     0.037 C 
ENDBRANCH  19  21
ENDBRANCH  18  19
ENDBRANCH   1  18
BRANCH   1  25
HETATM   25  O1  UNL     1       1.155  -3.161   0.678  1.00  0.00    -0.358 OA
ATOM     26  H1  UNL     1       1.651  -3.032   1.478  1.00  0.00     0.213 HD
ENDBRANCH   1  25
TORSDOF 4
