REMARK  4 active torsions:
REMARK  status: ('A' for Active; 'I' for Inactive)
REMARK    1  A    between atoms: C6_6  and  C7_7 
REMARK    2  A    between atoms: C6_6  and  C14_15 
REMARK    3  A    between atoms: C8_8  and  C9_9 
REMARK    4  A    between atoms: C9_9  and  C10_10 
ROOT
HETATM    1  C1  UNL     1      -3.316   0.136  -1.803  1.00  0.00     0.013 C 
HETATM    2  C2  UNL     1      -2.181   0.178  -0.840  1.00  0.00     0.021 A 
HETATM    3  C3  UNL     1      -2.406   0.130   0.659  1.00  0.00    -0.015 A 
HETATM    4  C4  UNL     1      -1.632   1.163   1.463  1.00  0.00     0.017 C 
HETATM    5  C5  UNL     1      -3.800  -0.096   1.208  1.00  0.00     0.017 C 
HETATM    6  C6  UNL     1      -1.673  -1.040  -0.072  1.00  0.00     0.110 A 
ENDROOT
BRANCH   6   7
HETATM    7  C7  UNL     1      -0.240  -1.133   0.091  1.00  0.00    -0.086 C 
HETATM    8  C8  UNL     1       0.942  -1.177   0.286  1.00  0.00    -0.103 C 
BRANCH   8   9
HETATM    9  C9  UNL     1       2.372  -1.150   0.619  1.00  0.00     0.130 C 
BRANCH   9  10
HETATM   10  C10 UNL     1       3.183  -0.375  -0.422  1.00  0.00     0.241 C 
HETATM   11  C11 UNL     1       4.515   0.337  -0.072  1.00  0.00     0.076 C 
HETATM   12  C12 UNL     1       3.663   1.416   0.622  1.00  0.00     0.281 C 
HETATM   13  C13 UNL     1       4.230   1.167  -1.349  1.00  0.00     0.281 C 
HETATM   14  N1  UNL     1       2.752   1.174  -0.665  1.00  0.00     0.095 N 
ENDBRANCH   9  10
ENDBRANCH   8   9
ENDBRANCH   6   7
BRANCH   6  15
HETATM   15  C14 UNL     1      -2.356  -2.383  -0.184  1.00  0.00     0.240 C 
HETATM   16  O1  UNL     1      -2.886  -2.898   0.795  1.00  0.00    -0.278 OA
HETATM   17 CL1  UNL     1      -2.229  -3.089  -1.768  1.00  0.00    -0.042 Cl
ENDBRANCH   6  15
TORSDOF 4
