REMARK  1 active torsions:
REMARK  status: ('A' for Active; 'I' for Inactive)
REMARK    1  A    between atoms: C21_28  and  O7_29 
ROOT
HETATM    1  C1  UNL     1       4.457  -0.385   2.567  1.00  0.00     0.050 C 
HETATM    2  C2  UNL     1       3.760   0.269   1.405  1.00  0.00    -0.010 C 
HETATM    3  C3  UNL     1       3.784  -0.185   0.131  1.00  0.00    -0.043 C 
HETATM    4  C4  UNL     1       3.359   0.747  -1.006  1.00  0.00     0.046 C 
HETATM    5  C5  UNL     1       2.133   1.641  -0.708  1.00  0.00     0.048 C 
HETATM    6  C6  UNL     1       0.798   0.953  -1.116  1.00  0.00     0.179 C 
HETATM    7  O1  UNL     1      -0.198   1.003  -0.096  1.00  0.00    -0.352 OA
HETATM    8  C7  UNL     1      -1.209  -0.043  -0.099  1.00  0.00     0.201 C 
HETATM    9  C8  UNL     1      -2.137   0.324   1.093  1.00  0.00     0.076 C 
HETATM   10  C9  UNL     1      -3.653   0.105   0.994  1.00  0.00    -0.005 C 
HETATM   11  C10 UNL     1      -4.071  -1.259   0.442  1.00  0.00     0.037 C 
HETATM   12  C11 UNL     1      -4.110  -1.317  -1.085  1.00  0.00     0.122 C 
HETATM   13  C12 UNL     1      -2.737  -1.376  -1.728  1.00  0.00     0.042 C 
HETATM   14  C13 UNL     1      -1.924  -0.094  -1.488  1.00  0.00     0.056 C 
HETATM   15  C14 UNL     1      -2.779   1.143  -1.806  1.00  0.00     0.042 C 
HETATM   16  C15 UNL     1      -4.215   1.055  -1.279  1.00  0.00     0.122 C 
HETATM   17  C16 UNL     1      -4.332   1.241   0.225  1.00  0.00     0.037 C 
HETATM   18  O2  UNL     1      -4.813  -0.196  -1.629  1.00  0.00    -0.381 OA
HETATM   19  O3  UNL     1      -0.609  -1.351   0.084  1.00  0.00    -0.195 OA
HETATM   20  O4  UNL     1      -0.065  -1.500   1.450  1.00  0.00    -0.176 OA
HETATM   21  C17 UNL     1       1.340  -1.136   1.426  1.00  0.00     0.450 C 
HETATM   22  O5  UNL     1       1.875  -1.510   0.145  1.00  0.00    -0.328 OA
HETATM   23  C18 UNL     1       3.293  -1.613   0.052  1.00  0.00     0.152 C 
HETATM   24  C19 UNL     1       3.651  -2.342  -1.239  1.00  0.00     0.044 C 
HETATM   25  O6  UNL     1       1.361   0.226   1.848  1.00  0.00    -0.289 OA
HETATM   26  C20 UNL     1       2.516   1.045   1.752  1.00  0.00     0.260 C 
HETATM   27  F1  UNL     1       2.667   1.611   2.984  1.00  0.00    -0.203 F 
HETATM   28  C21 UNL     1       2.244   2.184   0.729  1.00  0.00     0.197 C 
ENDROOT
BRANCH  28  29
HETATM   29  O7  UNL     1       1.083   2.963   1.049  1.00  0.00    -0.389 OA
ATOM     30  H7  UNL     1       1.151   3.298   1.935  1.00  0.00     0.210 HD
ENDBRANCH  28  29
TORSDOF 1
