REMARK  9 active torsions:
REMARK  status: ('A' for Active; 'I' for Inactive)
REMARK    1  A    between atoms: O1_2  and  C2_3 
REMARK    2  A    between atoms: C2_3  and  O3_5 
REMARK    3  A    between atoms: O3_5  and  C3_6 
REMARK    4  A    between atoms: C4_8  and  C11_15 
REMARK    5  A    between atoms: C5_9  and  C6_10 
REMARK    6  A    between atoms: C12_16  and  O5_17 
REMARK    7  A    between atoms: C12_16  and  C13_19 
REMARK    8  A    between atoms: C13_19  and  C14_20 
REMARK    9  A    between atoms: C14_20  and  C15_22 
ROOT
HETATM    1  C6  UNL     1      -4.066   1.514  -0.497  1.00  0.00    -0.002 C 
HETATM    2  C7  UNL     1      -3.784   2.907   0.114  1.00  0.00     0.018 C 
HETATM    3  C8  UNL     1      -2.198   2.768  -0.092  1.00  0.00    -0.007 C 
HETATM    4  C9  UNL     1      -2.888   1.890  -1.371  1.00  0.00     0.018 C 
HETATM    5  C10 UNL     1      -2.056   2.287   1.517  1.00  0.00     0.023 C 
HETATM    6  C11 UNL     1      -1.345   1.012   1.092  1.00  0.00     0.052 C 
HETATM    7  C12 UNL     1      -0.782   1.911  -0.056  1.00  0.00     0.078 C 
ENDROOT
BRANCH   7   8
HETATM    8  O5  UNL     1      -0.398   1.228  -1.273  1.00  0.00    -0.388 OA
ATOM      9  H5  UNL     1       0.415   0.736  -1.252  1.00  0.00     0.210 HD
ENDBRANCH   7   8
BRANCH   7  10
HETATM   10  C13 UNL     1       0.470   2.748   0.347  1.00  0.00     0.117 C 
BRANCH  10  11
HETATM   11  C14 UNL     1       1.824   2.199  -0.097  1.00  0.00     0.134 C 
HETATM   12  O6  UNL     1       2.626   2.941  -0.668  1.00  0.00    -0.297 OA
BRANCH  11  13
HETATM   13  C15 UNL     1       2.201   0.750   0.241  1.00  0.00     0.055 C 
HETATM   14  C16 UNL     1       3.296   0.760   1.310  1.00  0.00     0.012 C 
HETATM   15  C17 UNL     1       3.416  -0.538   2.108  1.00  0.00     0.001 C 
HETATM   16  C18 UNL     1       3.791  -1.802   1.341  1.00  0.00     0.000 C 
HETATM   17  C19 UNL     1       4.983  -1.656   0.401  1.00  0.00     0.000 C 
HETATM   18  C20 UNL     1       4.591  -1.541  -1.070  1.00  0.00     0.000 C 
HETATM   19  C21 UNL     1       3.947  -0.220  -1.499  1.00  0.00     0.001 C 
HETATM   20  C22 UNL     1       2.492  -0.033  -1.059  1.00  0.00     0.012 C 
ENDBRANCH  11  13
ENDBRANCH  10  11
ENDBRANCH   7  10
BRANCH   6  21
HETATM   21  C4  UNL     1      -2.292  -0.044   0.495  1.00  0.00     0.140 C 
HETATM   22  O4  UNL     1      -2.781  -1.254   1.195  1.00  0.00    -0.354 OA
HETATM   23  C3  UNL     1      -4.017  -1.068   0.318  1.00  0.00     0.279 C 
HETATM   24  C5  UNL     1      -3.772   0.429   0.537  1.00  0.00     0.075 C 
BRANCH  23  25
HETATM   25  O3  UNL     1      -3.855  -1.642  -0.993  1.00  0.00    -0.266 OA
BRANCH  25  26
HETATM   26  C2  UNL     1      -3.861  -2.995  -0.955  1.00  0.00     0.408 C 
HETATM   27  O2  UNL     1      -4.497  -3.669  -0.151  1.00  0.00    -0.229 OA
BRANCH  26  28
HETATM   28  O1  UNL     1      -2.966  -3.459  -1.864  1.00  0.00    -0.303 OA
HETATM   29  C1  UNL     1      -2.398  -4.724  -1.510  1.00  0.00     0.215 C 
ENDBRANCH  26  28
ENDBRANCH  25  26
ENDBRANCH  23  25
ENDBRANCH   6  21
TORSDOF 9
