REMARK  7 active torsions:
REMARK  status: ('A' for Active; 'I' for Inactive)
REMARK    1  A    between atoms: O1_2  and  C2_3 
REMARK    2  A    between atoms: C2_3  and  C3_4 
REMARK    3  A    between atoms: C2_3  and  C16_25 
REMARK    4  A    between atoms: C3_4  and  C4_5 
REMARK       I    between atoms: C4_5  and  N1_7 
REMARK    5  A    between atoms: N1_7  and  C5_9 
REMARK    6  A    between atoms: C8_12  and  C9_13 
REMARK    7  A    between atoms: C11_18  and  C12_19 
ROOT
HETATM    1  C5  UNL     1       0.340   0.705   0.376  1.00  0.00     0.049 C 
HETATM    2  C6  UNL     1       1.355   1.820   0.513  1.00  0.00     0.016 C 
HETATM    3  C7  UNL     1       2.155   1.759  -0.844  1.00  0.00     0.014 C 
HETATM    4  C8  UNL     1       1.946   0.389  -1.555  1.00  0.00     0.026 C 
HETATM    5  C9  UNL     1       2.832  -0.868  -1.287  1.00  0.00     0.208 C 
HETATM    6  N2  UNL     1       1.826  -2.047  -0.552  1.00  0.00    -0.059 N 
ATOM      7  H21 UNL     1       2.054  -3.009  -0.302  1.00  0.00     0.278 HD
ATOM      8  H22 UNL     1       1.027  -2.538  -0.953  1.00  0.00     0.278 HD
HETATM    9  C10 UNL     1       1.829  -0.848   0.311  1.00  0.00     0.153 C 
HETATM   10  C11 UNL     1       3.362  -0.819   0.150  1.00  0.00     0.154 C 
HETATM   11  C13 UNL     1       1.065  -0.196   1.403  1.00  0.00     0.052 C 
HETATM   12  C14 UNL     1       1.694   1.139   1.897  1.00  0.00     0.017 C 
HETATM   13  C15 UNL     1       0.860  -0.162  -0.719  1.00  0.00     0.058 C 
ENDROOT
BRANCH   1  14
HETATM   14  N1  UNL     1      -1.081   0.928   0.556  1.00  0.00    -0.350 N 
HETATM   15  C4  UNL     1      -1.893   1.342  -0.476  1.00  0.00     0.220 C 
HETATM   16  O2  UNL     1      -1.477   1.766  -1.548  1.00  0.00    -0.274 OA
ATOM     17  H1  UNL     1      -1.492   0.773   1.476  1.00  0.00     0.163 HD
BRANCH  15  18
HETATM   18  C3  UNL     1      -3.361   1.113  -0.223  1.00  0.00     0.138 C 
BRANCH  18  19
HETATM   19  C2  UNL     1      -3.677  -0.364  -0.546  1.00  0.00     0.170 C 
BRANCH  19  20
HETATM   20  O1  UNL     1      -3.871  -1.009   0.739  1.00  0.00    -0.387 OA
HETATM   21  C1  UNL     1      -2.928  -2.039   1.017  1.00  0.00     0.202 C 
ENDBRANCH  19  20
BRANCH  19  22
HETATM   22  C16 UNL     1      -4.915  -0.556  -1.472  1.00  0.00     0.159 C 
HETATM   23 BR1  UNL     1      -5.187  -2.502  -1.793  1.00  0.00    -0.057 Br
HETATM   24 BR2  UNL     1      -6.545   0.199  -0.667  1.00  0.00    -0.057 Br
HETATM   25 BR3  UNL     1      -4.572   0.277  -3.234  1.00  0.00    -0.057 Br
ENDBRANCH  19  22
ENDBRANCH  18  19
ENDBRANCH  15  18
ENDBRANCH   1  14
BRANCH  10  26
HETATM   26  C12 UNL     1       4.436   0.190   0.528  1.00  0.00     0.181 C 
HETATM   27  O3  UNL     1       5.054   0.914  -0.244  1.00  0.00    -0.648 OA
HETATM   28  O4  UNL     1       4.806   0.146   1.839  1.00  0.00    -0.648 OA
ENDBRANCH  10  26
TORSDOF 7
