REMARK  7 active torsions:
REMARK  status: ('A' for Active; 'I' for Inactive)
REMARK    1  A    between atoms: O1_2  and  C2_3 
REMARK    2  A    between atoms: C2_3  and  C3_4 
REMARK    3  A    between atoms: C3_4  and  N1_5 
REMARK    4  A    between atoms: N1_5  and  C4_6 
REMARK    5  A    between atoms: N1_5  and  C6_10 
REMARK    6  A    between atoms: C4_6  and  C5_7 
REMARK    7  A    between atoms: C5_7  and  O2_8 
ROOT
HETATM    1  C6  UNL     1      -0.608  -1.012  -0.028  1.00  0.00     0.040 A 
HETATM    2  C7  UNL     1      -0.339  -2.320   0.165  1.00  0.00     0.043 A 
HETATM    3  C8  UNL     1       0.881  -3.136   0.128  1.00  0.00    -0.007 A 
HETATM    4  C9  UNL     1       0.726  -4.498   0.495  1.00  0.00     0.014 A 
HETATM    5  C10 UNL     1       1.794  -5.395   0.495  1.00  0.00     0.001 A 
HETATM    6  C11 UNL     1       3.043  -4.959   0.093  1.00  0.00     0.002 A 
HETATM    7  C12 UNL     1       3.214  -3.627  -0.275  1.00  0.00     0.030 A 
HETATM    8  C13 UNL     1       2.149  -2.693  -0.259  1.00  0.00     0.042 A 
HETATM    9  N2  UNL     1       2.490  -1.367  -0.550  1.00  0.00    -0.358 N 
ATOM     10  H2  UNL     1       3.488  -1.237  -0.718  1.00  0.00     0.166 HD
HETATM   11  C14 UNL     1       1.755  -0.183  -0.660  1.00  0.00     0.031 A 
HETATM   12  C15 UNL     1       2.502   1.012  -0.871  1.00  0.00     0.122 C 
HETATM   13  C16 UNL     1       1.972   1.822  -1.857  1.00  0.00     0.273 A 
HETATM   14  C17 UNL     1       0.566   1.953  -1.790  1.00  0.00     0.270 A 
HETATM   15  C18 UNL     1      -0.006   1.362  -0.657  1.00  0.00     0.091 C 
HETATM   16  C19 UNL     1       0.393   0.021  -0.425  1.00  0.00     0.003 A 
HETATM   17  C20 UNL     1       0.096   2.322   0.583  1.00  0.00    -0.042 C 
HETATM   18  C21 UNL     1       0.539   3.575   0.324  1.00  0.00     0.082 C 
HETATM   19  C22 UNL     1       1.887   3.946   0.838  1.00  0.00     0.246 C 
HETATM   20  O3  UNL     1       2.056   5.023   1.401  1.00  0.00    -0.268 OA
HETATM   21  N3  UNL     1       2.969   3.124   0.531  1.00  0.00    -0.326 N 
ATOM     22  H3  UNL     1       3.864   3.585   0.366  1.00  0.00     0.169 HD
HETATM   23  C23 UNL     1       2.950   1.727   0.426  1.00  0.00     0.028 C 
HETATM   24  C24 UNL     1       3.010   0.990   1.552  1.00  0.00     0.080 C 
HETATM   25  C25 UNL     1       2.484   1.578   2.800  1.00  0.00     0.173 C 
HETATM   26  O4  UNL     1       3.215   1.832   3.749  1.00  0.00    -0.288 OA
HETATM   27  C26 UNL     1       0.992   1.665   2.912  1.00  0.00     0.055 C 
HETATM   28  C27 UNL     1       0.035   1.900   1.991  1.00  0.00     0.012 C 
HETATM   29  N4  UNL     1       1.168   1.533  -2.935  1.00  0.00     0.100 N 
HETATM   30  C28 UNL     1       1.232   2.570  -3.958  1.00  0.00     0.311 C 
ENDROOT
BRANCH   1  31
HETATM   31  N1  UNL     1      -1.940  -0.559   0.155  1.00  0.00    -0.376 N 
BRANCH  31  32
HETATM   32  C3  UNL     1      -2.962  -0.761  -0.908  1.00  0.00     0.149 C 
BRANCH  32  33
HETATM   33  C2  UNL     1      -2.818   0.200  -2.099  1.00  0.00     0.186 C 
BRANCH  33  34
HETATM   34  O1  UNL     1      -3.053   1.573  -1.762  1.00  0.00    -0.394 OA
HETATM   35  C1  UNL     1      -4.429   1.913  -1.671  1.00  0.00     0.201 C 
ENDBRANCH  33  34
ENDBRANCH  32  33
ENDBRANCH  31  32
BRANCH  31  36
HETATM   36  C4  UNL     1      -2.489  -0.465   1.526  1.00  0.00     0.149 C 
BRANCH  36  37
HETATM   37  C5  UNL     1      -3.176  -1.737   2.040  1.00  0.00     0.183 C 
BRANCH  37  38
HETATM   38  O2  UNL     1      -3.690  -1.532   3.356  1.00  0.00    -0.399 OA
ATOM     39  H2  UNL     1      -4.115  -2.320   3.674  1.00  0.00     0.209 HD
ENDBRANCH  37  38
ENDBRANCH  36  37
ENDBRANCH  31  36
ENDBRANCH   1  31
TORSDOF 7
