REMARK  9 active torsions:
REMARK  status: ('A' for Active; 'I' for Inactive)
REMARK    1  A    between atoms: C2_2  and  C3_3 
REMARK    2  A    between atoms: C3_3  and  C4_4 
REMARK    3  A    between atoms: C4_4  and  C5_5 
REMARK    4  A    between atoms: C5_5  and  C6_6 
REMARK    5  A    between atoms: C6_6  and  C7_7 
REMARK    6  A    between atoms: C7_7  and  C8_8 
REMARK    7  A    between atoms: C8_8  and  N1_9 
REMARK    8  A    between atoms: N1_9  and  C9_12 
REMARK    9  A    between atoms: C19_25  and  O2_26 
ROOT
HETATM    1  C9  UNL     1      -0.016  -0.724   1.760  1.00  0.00     0.322 C 
HETATM    2  N2  UNL     1       1.404  -0.899   1.944  1.00  0.00    -0.331 N 
ATOM      3  H2  UNL     1       1.979  -0.116   2.255  1.00  0.00     0.164 HD
HETATM    4  C10 UNL     1       1.983  -2.124   1.699  1.00  0.00     0.220 C 
HETATM    5  O1  UNL     1       2.020  -2.977   2.583  1.00  0.00    -0.274 OA
HETATM    6  C11 UNL     1       2.668  -2.340   0.331  1.00  0.00     0.113 C 
HETATM    7  C12 UNL     1       3.168  -1.030  -0.348  1.00  0.00    -0.021 C 
HETATM    8  C13 UNL     1       4.040  -0.402   0.808  1.00  0.00     0.017 C 
HETATM    9  C14 UNL     1       4.011  -1.174  -1.565  1.00  0.00     0.073 C 
HETATM   10  C15 UNL     1       3.121  -2.034  -2.600  1.00  0.00     0.014 C 
HETATM   11  C16 UNL     1       1.474  -1.955  -2.553  1.00  0.00     0.011 C 
HETATM   12  C17 UNL     1       0.855  -0.918  -1.554  1.00  0.00    -0.029 C 
HETATM   13  C18 UNL     1      -0.177  -1.443  -0.594  1.00  0.00     0.053 C 
HETATM   14  C19 UNL     1      -0.519  -0.218   0.334  1.00  0.00     0.113 C 
HETATM   15  C20 UNL     1      -0.144   1.172  -0.601  1.00  0.00     0.014 C 
HETATM   16  C21 UNL     1      -1.453   2.007  -0.827  1.00  0.00     0.020 C 
HETATM   17  C22 UNL     1       0.024   0.342  -1.987  1.00  0.00     0.007 C 
HETATM   18  C23 UNL     1       0.789   1.019  -3.043  1.00  0.00     0.007 C 
HETATM   19  C24 UNL     1       2.165   0.681  -2.563  1.00  0.00     0.007 C 
HETATM   20  C25 UNL     1       2.054  -0.170  -1.065  1.00  0.00     0.004 C 
HETATM   21  C26 UNL     1       1.150   2.366  -0.117  1.00  0.00     0.066 C 
HETATM   22  C27 UNL     1       1.228   2.324   1.442  1.00  0.00     0.030 C 
HETATM   23  C28 UNL     1       0.562   3.793  -0.341  1.00  0.00     0.230 C 
HETATM   24  O3  UNL     1       0.014   4.468   0.524  1.00  0.00    -0.286 OA
HETATM   25  C29 UNL     1       0.685   4.382  -1.737  1.00  0.00     0.288 C 
HETATM   26  O4  UNL     1      -0.230   5.008  -2.251  1.00  0.00    -0.264 OA
HETATM   27  N3  UNL     1       1.872   4.137  -2.360  1.00  0.00    -0.350 N 
ATOM     28  H3  UNL     1       1.933   4.219  -3.375  1.00  0.00     0.163 HD
HETATM   29  C30 UNL     1       3.033   3.767  -1.611  1.00  0.00     0.162 C 
HETATM   30  C31 UNL     1       2.825   2.549  -0.657  1.00  0.00     0.009 C 
HETATM   31  C32 UNL     1       4.236   1.628  -0.881  1.00  0.00     0.223 C 
HETATM   32  O5  UNL     1       5.267   2.049  -0.334  1.00  0.00    -0.284 OA
HETATM   33  C33 UNL     1       4.508   0.337  -1.921  1.00  0.00     0.204 C 
HETATM   34  O6  UNL     1       5.105   0.567  -2.971  1.00  0.00    -0.288 OA
ENDROOT
BRANCH   1  35
HETATM   35  N1  UNL     1      -0.424   0.046   2.932  1.00  0.00    -0.051 N 
ATOM     36  H12 UNL     1      -1.114   0.756   2.684  1.00  0.00     0.279 HD
ATOM     37  H11 UNL     1       0.329   0.655   3.252  1.00  0.00     0.279 HD
BRANCH  35  38
HETATM   38  C8  UNL     1      -0.917  -0.818   4.031  1.00  0.00     0.235 C 
BRANCH  38  39
HETATM   39  C7  UNL     1      -2.451  -0.991   4.129  1.00  0.00     0.027 C 
BRANCH  39  40
HETATM   40  C6  UNL     1      -3.134  -1.352   2.814  1.00  0.00     0.002 C 
BRANCH  40  41
HETATM   41  C5  UNL     1      -4.537  -1.942   2.924  1.00  0.00     0.000 C 
BRANCH  41  42
HETATM   42  C4  UNL     1      -5.140  -2.245   1.536  1.00  0.00     0.000 C 
BRANCH  42  43
HETATM   43  C3  UNL     1      -5.647  -1.004   0.789  1.00  0.00    -0.000 C 
BRANCH  43  44
HETATM   44  C2  UNL     1      -5.947  -1.263  -0.694  1.00  0.00    -0.005 C 
HETATM   45  C1  UNL     1      -4.687  -1.358  -1.546  1.00  0.00     0.005 C 
ENDBRANCH  43  44
ENDBRANCH  42  43
ENDBRANCH  41  42
ENDBRANCH  40  41
ENDBRANCH  39  40
ENDBRANCH  38  39
ENDBRANCH  35  38
ENDBRANCH   1  35
BRANCH  14  46
HETATM   46  O2  UNL     1      -1.960  -0.283   0.387  1.00  0.00    -0.385 OA
ATOM     47  H2  UNL     1      -2.260   0.018  -0.463  1.00  0.00     0.210 HD
ENDBRANCH  14  46
TORSDOF 9
