REMARK  11 active torsions:
REMARK  status: ('A' for Active; 'I' for Inactive)
REMARK    1  A    between atoms: C2_2  and  C3_3 
REMARK    2  A    between atoms: C3_3  and  C4_4 
REMARK    3  A    between atoms: C4_4  and  C5_6 
REMARK    4  A    between atoms: C5_6  and  C6_7 
REMARK    5  A    between atoms: C12_15  and  O3_16 
REMARK    6  A    between atoms: C12_15  and  C18_26 
REMARK    7  A    between atoms: O3_16  and  C13_17 
REMARK    8  A    between atoms: C13_17  and  C14_19 
REMARK    9  A    between atoms: C14_19  and  N1_20 
REMARK   10  A    between atoms: C20_28  and  C21_29 
REMARK   11  A    between atoms: C25_36  and  C26_37 
ROOT
HETATM    1  C6  UNL     1      -0.714  -0.251  -0.910  1.00  0.00    -0.013 C 
HETATM    2  C7  UNL     1      -1.088  -0.163  -2.389  1.00  0.00     0.007 C 
HETATM    3  C8  UNL     1      -1.571   0.882  -3.079  1.00  0.00     0.014 C 
HETATM    4  C9  UNL     1      -1.817   2.236  -2.580  1.00  0.00     0.114 A 
HETATM    5  C10 UNL     1      -2.345   3.245  -3.574  1.00  0.00     0.049 A 
HETATM    6  C11 UNL     1      -3.244   2.740  -2.486  1.00  0.00     0.049 A 
HETATM    7  O1  UNL     1      -0.922   2.776  -1.592  1.00  0.00    -0.222 OA
HETATM    8  O2  UNL     1      -1.290   2.090  -0.360  1.00  0.00    -0.193 OA
HETATM    9  C12 UNL     1      -0.314   1.061  -0.098  1.00  0.00     0.241 C 
ENDROOT
BRANCH   9  10
HETATM   10  O3  UNL     1      -0.526   0.588   1.274  1.00  0.00    -0.274 OA
BRANCH  10  11
HETATM   11  C13 UNL     1      -1.177   1.376   2.162  1.00  0.00     0.280 C 
HETATM   12  O4  UNL     1      -0.869   2.523   2.453  1.00  0.00    -0.263 OA
BRANCH  11  13
HETATM   13  C14 UNL     1      -2.384   0.684   2.728  1.00  0.00     0.240 C 
BRANCH  13  14
HETATM   14  N1  UNL     1      -2.063  -0.494   3.503  1.00  0.00    -0.342 N 
HETATM   15  C15 UNL     1      -1.254  -0.553   4.602  1.00  0.00     0.109 A 
HETATM   16  C16 UNL     1      -1.283  -1.875   4.989  1.00  0.00     0.106 A 
HETATM   17  N2  UNL     1      -2.114  -2.601   4.175  1.00  0.00    -0.361 N 
HETATM   18  C17 UNL     1      -2.589  -1.738   3.307  1.00  0.00     0.183 A 
ATOM     19  H2  UNL     1      -2.319  -3.599   4.232  1.00  0.00     0.166 HD
ENDBRANCH  13  14
ENDBRANCH  11  13
ENDBRANCH  10  11
ENDBRANCH   9  10
BRANCH   9  20
HETATM   20  C18 UNL     1       1.095   1.566  -0.249  1.00  0.00     0.068 A 
HETATM   21  C19 UNL     1       2.113   1.675   0.843  1.00  0.00     0.044 A 
HETATM   22  C20 UNL     1       3.210   1.149  -0.043  1.00  0.00     0.074 C 
HETATM   23  C24 UNL     1       1.661   2.890   0.108  1.00  0.00     0.044 A 
HETATM   24  C22 UNL     1       4.022   2.314  -0.751  1.00  0.00     0.030 C 
HETATM   25  C25 UNL     1       2.182   1.361  -1.208  1.00  0.00     0.086 C 
HETATM   26  C23 UNL     1       2.581   2.890  -1.078  1.00  0.00     0.029 C 
HETATM   27 BR1  UNL     1       0.963   4.411   0.844  1.00  0.00    -0.084 Br
BRANCH  22  28
HETATM   28  C21 UNL     1       3.858  -0.189   0.316  1.00  0.00     0.183 C 
HETATM   29  O5  UNL     1       3.776  -1.271  -0.254  1.00  0.00    -0.647 OA
HETATM   30  O6  UNL     1       4.601  -0.122   1.446  1.00  0.00    -0.647 OA
ENDBRANCH  22  28
BRANCH  25  31
HETATM   31  C26 UNL     1       2.164   0.738  -2.584  1.00  0.00     0.184 C 
HETATM   32  O7  UNL     1       1.473   1.053  -3.545  1.00  0.00    -0.647 OA
HETATM   33  O8  UNL     1       3.087  -0.231  -2.765  1.00  0.00    -0.647 OA
ENDBRANCH  25  31
ENDBRANCH   9  20
BRANCH   1  34
HETATM   34  C5  UNL     1       0.237  -1.480  -0.696  1.00  0.00     0.060 C 
BRANCH  34  35
HETATM   35  C4  UNL     1       0.073  -2.263   0.627  1.00  0.00     0.089 C 
HETATM   36 CL1  UNL     1       1.264  -1.695   1.853  1.00  0.00    -0.124 Cl
BRANCH  35  37
HETATM   37  C3  UNL     1       0.289  -3.780   0.453  1.00  0.00     0.046 C 
BRANCH  37  38
HETATM   38  C2  UNL     1      -0.836  -4.486  -0.261  1.00  0.00    -0.035 C 
HETATM   39  C1  UNL     1      -1.624  -5.396   0.324  1.00  0.00     0.007 C 
ENDBRANCH  37  38
ENDBRANCH  35  37
ENDBRANCH  34  35
ENDBRANCH   1  34
TORSDOF 11
