REMARK  6 active torsions:
REMARK  status: ('A' for Active; 'I' for Inactive)
REMARK    1  A    between atoms: O1_2  and  C2_3 
REMARK    2  A    between atoms: C2_3  and  C3_4 
REMARK    3  A    between atoms: C3_4  and  N1_5 
REMARK       I    between atoms: N1_5  and  C4_6 
REMARK    4  A    between atoms: N1_5  and  C8_19 
REMARK    5  A    between atoms: C4_6  and  C5_8 
REMARK    6  A    between atoms: C6_13  and  C7_14 
REMARK       I    between atoms: C7_14  and  N4_15 
ROOT
HETATM    1  N1  UNL     1      -0.525   0.722  -0.728  1.00  0.00    -0.241 NA
HETATM    2  C4  UNL     1      -0.657   0.091  -1.990  1.00  0.00     0.244 C 
HETATM    3  O2  UNL     1      -0.302   0.688  -3.007  1.00  0.00    -0.273 OA
ENDROOT
BRANCH   1   4
HETATM    4  C3  UNL     1       0.864   1.216  -0.522  1.00  0.00     0.138 C 
BRANCH   4   5
HETATM    5  C2  UNL     1       1.837   0.131  -0.004  1.00  0.00     0.080 C 
HETATM    6  C14 UNL     1       3.167   0.803   0.473  1.00  0.00     0.027 C 
HETATM    7  C15 UNL     1       4.308  -0.142   0.907  1.00  0.00     0.013 C 
HETATM    8  C19 UNL     1       2.640   0.749   1.907  1.00  0.00     0.004 C 
HETATM    9  C16 UNL     1       3.575  -0.404   2.228  1.00  0.00    -0.009 C 
HETATM   10  C17 UNL     1       2.404  -1.377   2.054  1.00  0.00     0.013 C 
HETATM   11  C18 UNL     1       1.551  -0.229   1.485  1.00  0.00     0.027 C 
BRANCH   5  12
HETATM   12  O1  UNL     1       1.957  -0.991  -0.922  1.00  0.00    -0.383 OA
HETATM   13  C1  UNL     1       2.711  -0.789  -2.115  1.00  0.00     0.202 C 
ENDBRANCH   5  12
ENDBRANCH   4   5
ENDBRANCH   1   4
BRANCH   1  14
HETATM   14  C8  UNL     1      -1.507   1.837  -0.531  1.00  0.00     0.066 C 
HETATM   15  C9  UNL     1      -2.874   1.723  -1.243  1.00  0.00     0.020 C 
HETATM   16  C10 UNL     1      -3.854   0.794  -0.541  1.00  0.00     0.002 C 
HETATM   17  C11 UNL     1      -4.063   1.206   0.908  1.00  0.00     0.000 C 
HETATM   18  C12 UNL     1      -2.743   1.294   1.663  1.00  0.00     0.002 C 
HETATM   19  C13 UNL     1      -1.727   2.192   0.960  1.00  0.00     0.020 C 
ENDBRANCH   1  14
BRANCH   2  20
HETATM   20  C5  UNL     1      -1.272  -1.218  -2.032  1.00  0.00     0.114 A 
HETATM   21  S1  UNL     1      -2.117  -1.679  -3.462  1.00  0.00     0.007 SA
HETATM   22  N2  UNL     1      -2.479  -3.202  -2.894  1.00  0.00    -0.060 NA
HETATM   23  N3  UNL     1      -1.981  -3.426  -1.691  1.00  0.00    -0.286 N 
HETATM   24  C6  UNL     1      -1.320  -2.304  -1.177  1.00  0.00     0.136 A 
ATOM     25  H3  UNL     1      -2.068  -4.313  -1.195  1.00  0.00     0.183 HD
BRANCH  24  26
HETATM   26  C7  UNL     1      -0.741  -2.396   0.144  1.00  0.00     0.268 C 
HETATM   27  N4  UNL     1       0.131  -3.438   0.315  1.00  0.00    -0.365 N 
ATOM     28  H42 UNL     1       0.359  -4.070  -0.452  1.00  0.00     0.159 HD
ATOM     29  H41 UNL     1       0.540  -3.503   1.247  1.00  0.00     0.159 HD
HETATM   30  O3  UNL     1      -1.014  -1.639   1.063  1.00  0.00    -0.266 OA
ENDBRANCH  24  26
ENDBRANCH   2  20
TORSDOF 6
