REMARK  8 active torsions:
REMARK  status: ('A' for Active; 'I' for Inactive)
REMARK    1  A    between atoms: C2_2  and  C3_3 
REMARK    2  A    between atoms: C3_3  and  O1_4 
REMARK    3  A    between atoms: C6_8  and  C8_10 
REMARK    4  A    between atoms: C12_15  and  C13_16 
REMARK    5  A    between atoms: C14_20  and  N1_21 
REMARK       I    between atoms: N1_21  and  C15_23 
REMARK    6  A    between atoms: C15_23  and  O6_25 
REMARK    7  A    between atoms: O6_25  and  C16_26 
REMARK    8  A    between atoms: C16_26  and  C17_27 
ROOT
HETATM    1  C3  UNL     1       0.959  -1.428   1.188  1.00  0.00     0.077 C 
HETATM    2  C4  UNL     1       0.076  -0.142   1.372  1.00  0.00     0.078 C 
HETATM    3  C5  UNL     1      -1.395  -0.331   0.974  1.00  0.00     0.023 C 
HETATM    4  C6  UNL     1      -1.746  -0.466  -0.543  1.00  0.00    -0.023 C 
HETATM    5  C7  UNL     1      -2.155   0.967  -1.020  1.00  0.00     0.017 C 
HETATM    6  C11 UNL     1      -0.583  -0.979  -1.455  1.00  0.00     0.061 C 
HETATM    7  C12 UNL     1       0.844  -0.428  -1.252  1.00  0.00     0.163 C 
HETATM    8  O4  UNL     1       0.793   0.984  -0.868  1.00  0.00    -0.337 OA
HETATM    9  C14 UNL     1       1.097   0.645   0.502  1.00  0.00     0.156 C 
HETATM   10  C18 UNL     1       1.667  -0.704   0.040  1.00  0.00     0.122 C 
ENDROOT
BRANCH   9  11
HETATM   11  N1  UNL     1       2.029   1.505   1.227  1.00  0.00    -0.303 N 
HETATM   12  C15 UNL     1       2.147   2.858   1.115  1.00  0.00     0.363 C 
HETATM   13  O5  UNL     1       3.093   3.454   1.623  1.00  0.00    -0.238 OA
ATOM     14  H1  UNL     1       2.657   1.045   1.886  1.00  0.00     0.167 HD
BRANCH  12  15
HETATM   15  O6  UNL     1       1.187   3.439   0.361  1.00  0.00    -0.299 OA
BRANCH  15  16
HETATM   16  C16 UNL     1       1.582   4.716  -0.170  1.00  0.00     0.251 C 
BRANCH  16  17
HETATM   17  C17 UNL     1       0.512   5.241  -1.111  1.00  0.00     0.377 C 
HETATM   18  F1  UNL     1      -0.631   5.502  -0.424  1.00  0.00    -0.212 F 
HETATM   19  F2  UNL     1       0.219   4.311  -2.055  1.00  0.00    -0.212 F 
ENDBRANCH  16  17
ENDBRANCH  15  16
ENDBRANCH  12  15
ENDBRANCH   9  11
BRANCH   1  20
HETATM   20  C2  UNL     1       1.921  -1.776   2.342  1.00  0.00     0.034 C 
HETATM   21  C1  UNL     1       2.900  -2.882   1.942  1.00  0.00     0.008 C 
ENDBRANCH   1  20
BRANCH   1  22
HETATM   22  O1  UNL     1       0.240  -2.633   0.844  1.00  0.00    -0.389 OA
ATOM     23  H1  UNL     1      -0.353  -2.419   0.133  1.00  0.00     0.210 HD
ENDBRANCH   1  22
BRANCH   7  24
HETATM   24  C13 UNL     1       1.681  -0.681  -2.612  1.00  0.00     0.210 C 
HETATM   25  O2  UNL     1       1.512  -0.222  -3.738  1.00  0.00    -0.646 OA
HETATM   26  O3  UNL     1       2.697  -1.571  -2.461  1.00  0.00    -0.646 OA
ENDBRANCH   7  24
BRANCH   4  27
HETATM   27  C8  UNL     1      -3.029  -1.450  -0.698  1.00  0.00     0.018 C 
HETATM   28  C9  UNL     1      -4.263  -1.017   0.124  1.00  0.00     0.028 C 
HETATM   29  C10 UNL     1      -2.764  -2.937  -0.382  1.00  0.00     0.028 C 
HETATM   30 BR1  UNL     1      -3.664  -1.469  -2.607  1.00  0.00    -0.086 Br
ENDBRANCH   4  27
TORSDOF 8
