REMARK  9 active torsions:
REMARK  status: ('A' for Active; 'I' for Inactive)
REMARK    1  A    between atoms: C2_2  and  C3_3 
REMARK    2  A    between atoms: C5_5  and  C6_6 
REMARK    3  A    between atoms: C6_6  and  C7_7 
REMARK    4  A    between atoms: C7_7  and  N1_8 
REMARK    5  A    between atoms: N1_8  and  C8_11 
REMARK    6  A    between atoms: C8_11  and  C9_12 
REMARK    7  A    between atoms: C9_12  and  C10_13 
REMARK    8  A    between atoms: C10_13  and  O1_14 
REMARK    9  A    between atoms: C26_31  and  O2_32 
ROOT
HETATM    1  C3  UNL     1       0.253  -2.223   2.272  1.00  0.00    -0.046 C 
HETATM    2  C4  UNL     1       0.122  -1.356   1.201  1.00  0.00    -0.011 C 
HETATM    3  C5  UNL     1      -1.115  -0.525   1.150  1.00  0.00    -0.045 C 
HETATM    4  C12 UNL     1      -1.372   0.780   1.423  1.00  0.00     0.008 C 
HETATM    5  C13 UNL     1      -0.539   1.965   1.446  1.00  0.00     0.001 C 
HETATM    6  C14 UNL     1       0.678   2.105   1.995  1.00  0.00     0.008 C 
HETATM    7  C15 UNL     1       1.794   2.351   1.039  1.00  0.00    -0.047 C 
HETATM    8  C16 UNL     1       1.469   1.650  -0.182  1.00  0.00     0.089 C 
HETATM    9  C17 UNL     1       2.813   1.617  -0.316  1.00  0.00    -0.057 C 
HETATM   10  C18 UNL     1       3.133   0.410   0.350  1.00  0.00     0.074 C 
HETATM   11  N2  UNL     1       3.692  -0.447  -0.532  1.00  0.00    -0.230 NA
HETATM   12  C19 UNL     1       2.564  -0.671  -1.219  1.00  0.00     0.043 C 
HETATM   13  C20 UNL     1       1.746  -1.890  -0.950  1.00  0.00    -0.003 C 
HETATM   14  C21 UNL     1       0.911  -2.036   0.123  1.00  0.00    -0.003 C 
HETATM   15  C22 UNL     1       1.249  -3.375   0.584  1.00  0.00    -0.024 C 
HETATM   16  C23 UNL     1       0.910  -3.480   1.863  1.00  0.00     0.020 C 
HETATM   17  C24 UNL     1       2.007  -4.114  -0.355  1.00  0.00     0.013 C 
HETATM   18  C25 UNL     1       2.309  -3.215  -1.307  1.00  0.00     0.015 C 
HETATM   19  C26 UNL     1       1.845   0.722  -1.700  1.00  0.00     0.112 C 
HETATM   20  C27 UNL     1       3.069   1.423  -2.506  1.00  0.00     0.036 C 
HETATM   21  C28 UNL     1       3.127   2.533  -1.532  1.00  0.00     0.044 C 
HETATM   22  C29 UNL     1       4.535   0.763  -2.449  1.00  0.00     0.060 C 
HETATM   23  C30 UNL     1       4.815   0.417  -0.964  1.00  0.00    -0.003 C 
HETATM   24  C31 UNL     1       5.369   1.440  -0.128  1.00  0.00     0.020 C 
HETATM   25  C32 UNL     1       4.710   2.229   1.207  1.00  0.00     0.002 C 
HETATM   26  C33 UNL     1       3.411   2.620   1.651  1.00  0.00     0.008 C 
ENDROOT
BRANCH   3  27
HETATM   27  C6  UNL     1      -2.356  -1.357   0.747  1.00  0.00     0.067 C 
BRANCH  27  28
HETATM   28  C7  UNL     1      -2.489  -1.623  -0.773  1.00  0.00     0.237 C 
BRANCH  28  29
HETATM   29  N1  UNL     1      -2.293  -0.458  -1.648  1.00  0.00    -0.075 N 
ATOM     30  H12 UNL     1      -1.645   0.203  -1.219  1.00  0.00     0.277 HD
ATOM     31  H11 UNL     1      -1.755  -0.721  -2.473  1.00  0.00     0.277 HD
BRANCH  29  32
HETATM   32  C8  UNL     1      -3.531   0.225  -2.043  1.00  0.00     0.234 C 
BRANCH  32  33
HETATM   33  C9  UNL     1      -4.040   1.224  -1.005  1.00  0.00     0.054 C 
BRANCH  33  34
HETATM   34  C10 UNL     1      -5.336   1.900  -1.457  1.00  0.00     0.168 C 
BRANCH  34  35
HETATM   35  O1  UNL     1      -6.476   1.429  -0.740  1.00  0.00    -0.396 OA
HETATM   36  C11 UNL     1      -6.812   0.079  -1.018  1.00  0.00     0.201 C 
ENDBRANCH  34  35
ENDBRANCH  33  34
ENDBRANCH  32  33
ENDBRANCH  29  32
ENDBRANCH  28  29
ENDBRANCH  27  28
ENDBRANCH   3  27
BRANCH   1  37
HETATM   37  C2  UNL     1      -0.264  -2.229   3.684  1.00  0.00     0.035 C 
HETATM   38  C1  UNL     1      -0.535  -0.887   4.343  1.00  0.00     0.010 C 
ENDBRANCH   1  37
BRANCH  19  39
HETATM   39  O2  UNL     1       0.695   0.641  -2.489  1.00  0.00    -0.382 OA
ATOM     40  H2  UNL     1       0.891   0.156  -3.282  1.00  0.00     0.211 HD
ENDBRANCH  19  39
TORSDOF 9
