REMARK  4 active torsions:
REMARK  status: ('A' for Active; 'I' for Inactive)
REMARK    1  A    between atoms: C6_6  and  C19_23 
REMARK    2  A    between atoms: C8_8  and  O1_9 
REMARK    3  A    between atoms: C13_16  and  C14_17 
REMARK    4  A    between atoms: C14_17  and  N1_18 
ROOT
HETATM    1  C1  UNL     1       2.520   0.351   2.353  1.00  0.00     0.015 C 
HETATM    2  C2  UNL     1       1.828  -0.099   1.299  1.00  0.00    -0.077 C 
HETATM    3  C3  UNL     1       1.565  -1.556   0.997  1.00  0.00     0.019 C 
HETATM    4  C4  UNL     1       2.597  -2.241   0.107  1.00  0.00     0.020 C 
HETATM    5  C5  UNL     1       2.016  -2.276  -1.295  1.00  0.00     0.053 C 
HETATM    6  C6  UNL     1       0.493  -2.127  -1.159  1.00  0.00     0.005 C 
HETATM    7  C7  UNL     1       0.516  -1.287  -2.449  1.00  0.00     0.074 C 
HETATM    8  C8  UNL     1       2.016  -0.996  -2.206  1.00  0.00     0.167 C 
HETATM    9  O2  UNL     1       2.494   0.189  -1.558  1.00  0.00    -0.344 OA
HETATM   10  C9  UNL     1       1.727   1.211  -0.924  1.00  0.00     0.065 C 
HETATM   11  C10 UNL     1       0.838   1.966  -1.928  1.00  0.00     0.046 C 
HETATM   12  C11 UNL     1       2.840   2.227  -0.541  1.00  0.00     0.046 C 
HETATM   13  C12 UNL     1       0.989   0.776   0.392  1.00  0.00     0.054 C 
HETATM   14  C13 UNL     1      -0.275  -0.101   0.263  1.00  0.00     0.030 C 
HETATM   15  C19 UNL     1       0.228  -1.560   0.236  1.00  0.00     0.005 C 
ENDROOT
BRANCH  14  16
HETATM   16  C14 UNL     1      -1.224   0.099   1.485  1.00  0.00     0.278 C 
BRANCH  16  17
HETATM   17  N1  UNL     1      -2.612   0.082   1.016  1.00  0.00     0.088 N 
HETATM   18  C15 UNL     1      -3.571  -0.312   2.046  1.00  0.00     0.272 C 
HETATM   19  C16 UNL     1      -4.888   0.043   1.377  1.00  0.00     0.032 C 
HETATM   20  C17 UNL     1      -4.578   1.290   0.556  1.00  0.00     0.032 C 
HETATM   21  C18 UNL     1      -3.061   1.412   0.585  1.00  0.00     0.272 C 
ENDBRANCH  16  17
ENDBRANCH  14  16
BRANCH   8  22
HETATM   22  O1  UNL     1       2.804  -1.166  -3.398  1.00  0.00    -0.365 OA
ATOM     23  H1  UNL     1       2.804  -0.392  -3.949  1.00  0.00     0.213 HD
ENDBRANCH   8  22
TORSDOF 4
