REMARK  3 active torsions:
REMARK  status: ('A' for Active; 'I' for Inactive)
REMARK    1  A    between atoms: C2_2  and  O2_4 
REMARK    2  A    between atoms: O2_4  and  C3_5 
REMARK    3  A    between atoms: C8_10  and  O3_11 
ROOT
HETATM    1  C3  UNL     1      -2.559  -0.066   0.368  1.00  0.00     0.132 C 
HETATM    2  C4  UNL     1      -2.337  -0.572  -1.048  1.00  0.00     0.033 C 
HETATM    3  C5  UNL     1      -1.665  -1.930  -1.051  1.00  0.00     0.014 C 
HETATM    4  C6  UNL     1      -0.287  -1.994  -0.313  1.00  0.00    -0.014 C 
HETATM    5  C7  UNL     1      -0.040  -3.520  -0.060  1.00  0.00     0.018 C 
HETATM    6  C8  UNL     1       0.911  -1.533  -1.226  1.00  0.00     0.127 C 
HETATM    7  C9  UNL     1       1.171  -0.030  -1.385  1.00  0.00     0.038 C 
HETATM    8  C10 UNL     1       2.348   0.411  -0.516  1.00  0.00     0.001 C 
HETATM    9  C11 UNL     1       2.946   1.867  -0.570  1.00  0.00    -0.008 C 
HETATM   10  C12 UNL     1       3.556   1.525   0.840  1.00  0.00     0.015 C 
HETATM   11  C13 UNL     1       2.069   0.959   0.947  1.00  0.00    -0.036 C 
HETATM   12  C14 UNL     1       1.476   0.297   2.145  1.00  0.00     0.010 C 
HETATM   13  C15 UNL     1       0.975  -1.129   1.847  1.00  0.00     0.006 C 
HETATM   14  C16 UNL     1      -0.389  -1.292   1.096  1.00  0.00    -0.002 C 
HETATM   15  C17 UNL     1      -1.228   0.006   1.118  1.00  0.00     0.038 C 
HETATM   16  C18 UNL     1       1.699   2.337   0.246  1.00  0.00     0.015 C 
ENDROOT
BRANCH   1  17
HETATM   17  O2  UNL     1      -3.329   1.161   0.213  1.00  0.00    -0.316 OA
BRANCH  17  18
HETATM   18  C2  UNL     1      -2.758   2.395   0.205  1.00  0.00     0.255 C 
HETATM   19  C1  UNL     1      -3.450   3.301  -0.798  1.00  0.00     0.126 C 
HETATM   20  O1  UNL     1      -1.776   2.729   0.865  1.00  0.00    -0.266 OA
ENDBRANCH  17  18
ENDBRANCH   1  17
BRANCH   6  21
HETATM   21  O3  UNL     1       0.743  -2.086  -2.542  1.00  0.00    -0.395 OA
ATOM     22  H3  UNL     1       1.466  -1.808  -3.093  1.00  0.00     0.210 HD
ENDBRANCH   6  21
TORSDOF 3
