REMARK  2 active torsions:
REMARK  status: ('A' for Active; 'I' for Inactive)
REMARK    1  A    between atoms: C6_7  and  O2_8 
REMARK    2  A    between atoms: C18_22  and  C19_23 
ROOT
HETATM    1  C1  UNL     1      -4.570  -0.361  -0.803  1.00  0.00     0.045 C 
HETATM    2  C2  UNL     1      -3.088  -0.161  -1.130  1.00  0.00     0.180 C 
HETATM    3  O1  UNL     1      -2.371  -1.287  -0.648  1.00  0.00    -0.372 OA
HETATM    4  C3  UNL     1      -1.928  -1.306   0.700  1.00  0.00     0.145 C 
HETATM    5  C4  UNL     1      -1.894  -0.017   1.518  1.00  0.00     0.041 C 
HETATM    6  C5  UNL     1      -2.521   1.204   0.875  1.00  0.00     0.074 C 
HETATM    7  C6  UNL     1      -2.479   1.173  -0.647  1.00  0.00     0.193 C 
HETATM    8  O3  UNL     1      -1.254   1.507  -1.289  1.00  0.00    -0.316 OA
HETATM    9  C7  UNL     1       0.060   0.994  -1.004  1.00  0.00     0.049 C 
HETATM   10  C8  UNL     1       0.319  -0.452  -1.529  1.00  0.00     0.020 C 
HETATM   11  C9  UNL     1       1.554  -1.321  -1.126  1.00  0.00     0.004 C 
HETATM   12  C10 UNL     1       2.527  -0.178  -1.856  1.00  0.00     0.018 C 
HETATM   13  C11 UNL     1       3.293   0.835  -0.992  1.00  0.00     0.007 C 
HETATM   14  C12 UNL     1       3.080   0.609   0.493  1.00  0.00     0.007 C 
HETATM   15  C13 UNL     1       2.987  -0.872   0.872  1.00  0.00     0.001 C 
HETATM   16  C14 UNL     1       2.904  -1.758  -0.366  1.00  0.00     0.024 C 
HETATM   17  C15 UNL     1       1.542  -0.691   1.349  1.00  0.00     0.036 C 
HETATM   18  C16 UNL     1       0.847  -1.612   0.368  1.00  0.00    -0.063 C 
HETATM   19  C17 UNL     1      -0.606  -2.099   0.740  1.00  0.00     0.009 C 
HETATM   20  C18 UNL     1       1.673   0.855   1.134  1.00  0.00     0.030 C 
HETATM   21  C20 UNL     1       0.654   1.610   0.273  1.00  0.00     0.082 C 
ENDROOT
BRANCH   7  22
HETATM   22  O2  UNL     1      -3.340   2.238  -1.067  1.00  0.00    -0.363 OA
ATOM     23  H2  UNL     1      -2.965   3.059  -0.770  1.00  0.00     0.213 HD
ENDBRANCH   7  22
BRANCH  20  24
HETATM   24  C19 UNL     1       1.806   1.655   2.520  1.00  0.00     0.242 C 
HETATM   25  O4  UNL     1       2.236   2.798   2.676  1.00  0.00    -0.306 OA
ENDBRANCH  20  24
TORSDOF 2
