REMARK  0 active torsions:
REMARK  status: ('A' for Active; 'I' for Inactive)
ROOT
HETATM    1  O1  UNL     1       5.076  -0.001   1.348  1.00  0.00    -0.292 OA
HETATM    2  C1  UNL     1       4.065  -0.227   0.676  1.00  0.00     0.167 C 
HETATM    3  C2  UNL     1       4.122   0.173  -0.748  1.00  0.00     0.033 A 
HETATM    4  C3  UNL     1       4.508   1.488  -1.058  1.00  0.00     0.017 A 
HETATM    5  C4  UNL     1       4.598   1.894  -2.395  1.00  0.00     0.001 A 
HETATM    6  C5  UNL     1       4.349   0.988  -3.425  1.00  0.00     0.002 A 
HETATM    7  C6  UNL     1       3.984  -0.317  -3.123  1.00  0.00     0.026 A 
HETATM    8  C7  UNL     1       3.851  -0.711  -1.789  1.00  0.00     0.093 A 
HETATM    9  S1  UNL     1       3.128  -2.262  -1.446  1.00  0.00     0.260 S 
HETATM   10  O2  UNL     1       2.757  -2.904  -2.690  1.00  0.00    -0.200 OA
HETATM   11  O3  UNL     1       3.891  -2.952  -0.440  1.00  0.00    -0.200 OA
HETATM   12  N1  UNL     1       1.704  -1.725  -0.812  1.00  0.00    -0.304 N 
ATOM     13  H1  UNL     1       0.850  -1.987  -1.305  1.00  0.00     0.173 HD
HETATM   14  C8  UNL     1       1.550  -0.901   0.402  1.00  0.00     0.155 C 
HETATM   15  C9  UNL     1       0.259  -1.423   1.105  1.00  0.00     0.041 C 
HETATM   16  C10 UNL     1      -0.013  -2.757   0.980  1.00  0.00     0.029 C 
HETATM   17  C11 UNL     1      -1.016  -3.643   1.533  1.00  0.00     0.019 C 
HETATM   18  C12 UNL     1      -1.686  -3.494   2.685  1.00  0.00     0.094 C 
HETATM   19  N2  UNL     1      -1.770  -2.294   3.348  1.00  0.00    -0.319 N 
HETATM   20  C13 UNL     1      -2.594  -1.317   2.787  1.00  0.00     0.277 C 
HETATM   21  O4  UNL     1      -3.751  -1.125   3.162  1.00  0.00    -0.265 OA
HETATM   22  C14 UNL     1      -1.959  -0.590   1.618  1.00  0.00     0.137 C 
HETATM   23  C15 UNL     1      -2.693   0.445   1.120  1.00  0.00     0.100 C 
HETATM   24  C16 UNL     1      -3.211   0.167  -0.185  1.00  0.00     0.074 A 
HETATM   25  N3  UNL     1      -3.703  -1.045  -0.576  1.00  0.00    -0.353 N 
ATOM     26  H3  UNL     1      -3.929  -1.820   0.048  1.00  0.00     0.166 HD
HETATM   27  C17 UNL     1      -3.846  -1.057  -1.949  1.00  0.00     0.043 A 
HETATM   28  C18 UNL     1      -4.219  -2.103  -2.799  1.00  0.00     0.030 A 
HETATM   29  C19 UNL     1      -4.289  -1.839  -4.168  1.00  0.00     0.002 A 
HETATM   30  C20 UNL     1      -4.008  -0.569  -4.663  1.00  0.00     0.001 A 
HETATM   31  C21 UNL     1      -3.650   0.474  -3.804  1.00  0.00     0.014 A 
HETATM   32  C22 UNL     1      -3.547   0.229  -2.418  1.00  0.00     0.004 A 
HETATM   33  C23 UNL     1      -3.180   1.002  -1.280  1.00  0.00     0.016 A 
HETATM   34  C24 UNL     1      -2.738   2.363  -1.055  1.00  0.00     0.009 C 
HETATM   35  C25 UNL     1      -2.489   3.273  -2.075  1.00  0.00     0.141 C 
HETATM   36  N4  UNL     1      -2.578   4.581  -1.819  1.00  0.00    -0.378 N 
ATOM     37  H4  UNL     1      -3.059   5.244  -2.427  1.00  0.00     0.160 HD
HETATM   38  C26 UNL     1      -1.969   4.928  -0.680  1.00  0.00     0.030 C 
HETATM   39  C27 UNL     1      -2.037   4.130   0.449  1.00  0.00     0.059 C 
HETATM   40  C28 UNL     1      -2.420   2.789   0.265  1.00  0.00     0.051 C 
HETATM   41  N5  UNL     1      -2.194   1.795   1.313  1.00  0.00    -0.316 N 
HETATM   42  C29 UNL     1      -0.967   1.889   2.002  1.00  0.00     0.115 C 
HETATM   43  C30 UNL     1      -0.159   0.826   2.133  1.00  0.00     0.115 C 
HETATM   44  N6  UNL     1      -0.557  -0.455   1.740  1.00  0.00    -0.316 N 
HETATM   45  C31 UNL     1      -0.633   5.495  -0.962  1.00  0.00     0.029 C 
HETATM   46  C32 UNL     1       0.174   4.923  -1.884  1.00  0.00     0.002 C 
HETATM   47  C33 UNL     1      -0.096   3.750  -2.735  1.00  0.00    -0.002 C 
HETATM   48  C34 UNL     1      -1.239   3.032  -2.882  1.00  0.00     0.003 C 
HETATM   49  C35 UNL     1      -0.966  -2.020   4.552  1.00  0.00     0.158 C 
HETATM   50  C36 UNL     1       0.507  -2.265   4.274  1.00  0.00    -0.011 C 
HETATM   51  C37 UNL     1       1.501  -1.360   4.250  1.00  0.00    -0.029 C 
HETATM   52  C38 UNL     1       2.904  -1.654   3.768  1.00  0.00     0.028 C 
HETATM   53  C39 UNL     1       3.065  -1.970   2.258  1.00  0.00     0.019 C 
HETATM   54  C40 UNL     1       2.782  -0.762   1.325  1.00  0.00     0.090 C 
ENDROOT
TORSDOF 0
