REMARK  2 active torsions:
REMARK  status: ('A' for Active; 'I' for Inactive)
REMARK    1  A    between atoms: O1_2  and  C2_3 
REMARK       I    between atoms: N2_18  and  C14_20 
REMARK       I    between atoms: C14_20  and  N3_22 
REMARK    2  A    between atoms: C23_34  and  C24_35 
ROOT
HETATM    1  C2  UNL     1       3.476  -0.717   2.610  1.00  0.00     0.069 A 
HETATM    2  C3  UNL     1       3.484  -1.748   1.680  1.00  0.00     0.039 A 
HETATM    3  C4  UNL     1       3.214  -1.480   0.337  1.00  0.00     0.033 A 
HETATM    4  C5  UNL     1       2.925  -0.181  -0.114  1.00  0.00     0.045 A 
HETATM    5  N1  UNL     1       2.675  -0.028  -1.486  1.00  0.00    -0.355 N 
ATOM      6  H1  UNL     1       2.344  -0.886  -1.928  1.00  0.00     0.166 HD
HETATM    7  C6  UNL     1       2.780   1.047  -2.386  1.00  0.00     0.046 A 
HETATM    8  C7  UNL     1       2.398   0.794  -3.724  1.00  0.00     0.030 A 
HETATM    9  C8  UNL     1       2.503   1.764  -4.724  1.00  0.00     0.002 A 
HETATM   10  C9  UNL     1       3.008   3.018  -4.407  1.00  0.00     0.001 A 
HETATM   11  C10 UNL     1       3.393   3.300  -3.093  1.00  0.00     0.018 A 
HETATM   12  C11 UNL     1       3.258   2.329  -2.082  1.00  0.00     0.043 A 
HETATM   13  C12 UNL     1       3.637   2.719  -0.706  1.00  0.00     0.211 C 
HETATM   14  O2  UNL     1       4.595   3.436  -0.455  1.00  0.00    -0.285 OA
HETATM   15  C13 UNL     1       2.753   2.242   0.422  1.00  0.00     0.100 C 
HETATM   16  N2  UNL     1       1.894   3.095   0.891  1.00  0.00    -0.304 N 
ATOM     17  H2  UNL     1       1.989   4.093   0.702  1.00  0.00     0.171 HD
HETATM   18  C14 UNL     1       0.858   2.619   1.646  1.00  0.00     0.326 C 
HETATM   19  O3  UNL     1       0.934   2.419   2.853  1.00  0.00    -0.247 OA
HETATM   20  N3  UNL     1      -0.270   2.394   0.916  1.00  0.00    -0.293 N 
ATOM     21  H3  UNL     1      -0.353   2.846   0.005  1.00  0.00     0.172 HD
HETATM   22  C15 UNL     1      -1.252   1.631   1.319  1.00  0.00     0.134 C 
HETATM   23  N4  UNL     1      -1.312   1.040   2.574  1.00  0.00    -0.340 N 
ATOM     24  H4  UNL     1      -1.085   1.672   3.342  1.00  0.00     0.167 HD
HETATM   25  C16 UNL     1      -1.633  -0.291   2.990  1.00  0.00     0.046 A 
HETATM   26  C17 UNL     1      -1.149  -0.682   4.255  1.00  0.00     0.030 A 
HETATM   27  C18 UNL     1      -1.394  -1.956   4.776  1.00  0.00     0.002 A 
HETATM   28  C19 UNL     1      -2.161  -2.870   4.058  1.00  0.00     0.001 A 
HETATM   29  C20 UNL     1      -2.698  -2.502   2.827  1.00  0.00     0.017 A 
HETATM   30  C21 UNL     1      -2.449  -1.226   2.300  1.00  0.00     0.027 A 
HETATM   31  C22 UNL     1      -3.151  -0.793   1.080  1.00  0.00     0.119 C 
HETATM   32  C23 UNL     1      -2.393  -0.781  -0.066  1.00  0.00     0.085 C 
HETATM   33  N5  UNL     1      -1.986   0.436  -0.671  1.00  0.00    -0.306 N 
HETATM   34  C30 UNL     1      -2.234   1.532   0.162  1.00  0.00     0.080 C 
HETATM   35  C31 UNL     1      -3.470   2.056   0.136  1.00  0.00     0.185 C 
HETATM   36  C32 UNL     1      -4.171   2.061  -1.210  1.00  0.00     0.041 C 
HETATM   37  S1  UNL     1      -5.758   2.606  -1.421  1.00  0.00    -0.083 SA
HETATM   38  C33 UNL     1      -3.341   1.563  -2.362  1.00  0.00     0.009 A 
HETATM   39  C34 UNL     1      -3.560   1.923  -3.697  1.00  0.00     0.015 A 
HETATM   40  C35 UNL     1      -2.729   1.421  -4.702  1.00  0.00     0.001 A 
HETATM   41  C36 UNL     1      -1.687   0.552  -4.383  1.00  0.00     0.002 A 
HETATM   42  C37 UNL     1      -1.471   0.179  -3.060  1.00  0.00     0.031 A 
HETATM   43  C38 UNL     1      -2.291   0.683  -2.043  1.00  0.00     0.051 A 
HETATM   44  C39 UNL     1      -4.201   1.583   1.315  1.00  0.00     0.279 C 
HETATM   45  O4  UNL     1      -4.884   2.315   2.012  1.00  0.00    -0.264 OA
HETATM   46  O5  UNL     1      -4.099   0.226   1.523  1.00  0.00    -0.275 OA
HETATM   47  C40 UNL     1       2.966   0.847   0.833  1.00  0.00     0.024 A 
HETATM   48  C41 UNL     1       3.248   0.589   2.187  1.00  0.00     0.053 A 
ENDROOT
BRANCH  32  49
HETATM   49  C24 UNL     1      -1.641  -1.996  -0.482  1.00  0.00    -0.006 A 
HETATM   50  C25 UNL     1      -0.382  -2.322   0.042  1.00  0.00     0.014 A 
HETATM   51  C26 UNL     1       0.269  -3.490  -0.364  1.00  0.00     0.001 A 
HETATM   52  C27 UNL     1      -0.312  -4.320  -1.322  1.00  0.00     0.000 A 
HETATM   53  C28 UNL     1      -1.564  -4.006  -1.848  1.00  0.00     0.001 A 
HETATM   54  C29 UNL     1      -2.232  -2.856  -1.422  1.00  0.00     0.014 A 
ENDBRANCH  32  49
BRANCH   1  55
HETATM   55  O1  UNL     1       3.788  -1.052   3.897  1.00  0.00    -0.356 OA
HETATM   56  C1  UNL     1       2.808  -0.620   4.836  1.00  0.00     0.210 C 
ENDBRANCH   1  55
TORSDOF 2
