REMARK  4 active torsions:
REMARK  status: ('A' for Active; 'I' for Inactive)
REMARK    1  A    between atoms: C2_2  and  O1_3 
REMARK    2  A    between atoms: O1_3  and  C3_4 
REMARK       I    between atoms: C3_4  and  N1_6 
REMARK    3  A    between atoms: N1_6  and  C4_8 
REMARK    4  A    between atoms: C4_8  and  C5_9 
ROOT
HETATM    1  C5  UNL     1      -0.224   1.045   0.222  1.00  0.00     0.168 C 
HETATM    2  O3  UNL     1       0.033   2.066  -0.785  1.00  0.00    -0.329 OA
HETATM    3  C6  UNL     1       1.377   2.123  -1.214  1.00  0.00     0.071 C 
HETATM    4  C7  UNL     1       2.069   3.199  -0.803  1.00  0.00     0.065 C 
HETATM    5 CL1  UNL     1       3.663   3.574  -1.337  1.00  0.00    -0.082 Cl
HETATM    6  C8  UNL     1       1.537   4.024   0.288  1.00  0.00     0.050 C 
HETATM    7  C9  UNL     1       1.161   3.539   1.496  1.00  0.00     0.036 C 
HETATM    8 CL2  UNL     1       0.670   4.648   2.731  1.00  0.00    -0.084 Cl
HETATM    9  C10 UNL     1       1.321   2.150   1.938  1.00  0.00     0.030 C 
HETATM   10  C11 UNL     1       0.833   1.029   1.351  1.00  0.00    -0.027 C 
HETATM   11  C12 UNL     1       1.641  -0.298   1.531  1.00  0.00     0.054 C 
HETATM   12  C13 UNL     1       0.861  -1.645   1.571  1.00  0.00     0.015 C 
HETATM   13  C14 UNL     1       0.954  -2.532   0.288  1.00  0.00     0.040 C 
HETATM   14  C15 UNL     1       1.850  -1.865  -0.785  1.00  0.00     0.076 C 
HETATM   15  C16 UNL     1       2.067  -2.698  -2.023  1.00  0.00     0.047 C 
HETATM   16  O4  UNL     1       3.087  -1.590  -0.105  1.00  0.00    -0.366 OA
HETATM   17  C17 UNL     1       2.567  -0.284   0.285  1.00  0.00     0.084 C 
HETATM   18  C18 UNL     1       3.817   0.574   0.466  1.00  0.00     0.048 C 
HETATM   19  C19 UNL     1       1.567  -0.309  -0.966  1.00  0.00     0.092 C 
HETATM   20  C20 UNL     1       1.901   0.851  -1.933  1.00  0.00     0.090 C 
HETATM   21  C21 UNL     1       0.011  -0.120  -0.711  1.00  0.00     0.182 C 
HETATM   22  O5  UNL     1      -0.871  -0.749  -1.296  1.00  0.00    -0.293 OA
ENDROOT
BRANCH   1  23
HETATM   23  C4  UNL     1      -1.654   1.226   0.786  1.00  0.00     0.176 C 
BRANCH  23  24
HETATM   24  N1  UNL     1      -2.740   0.752  -0.055  1.00  0.00    -0.333 N 
HETATM   25  C3  UNL     1      -3.544  -0.283   0.321  1.00  0.00     0.360 C 
HETATM   26  O2  UNL     1      -3.640  -0.721   1.459  1.00  0.00    -0.239 OA
ATOM     27  H1  UNL     1      -2.906   1.207  -0.953  1.00  0.00     0.164 HD
BRANCH  25  28
HETATM   28  O1  UNL     1      -4.186  -0.768  -0.769  1.00  0.00    -0.304 OA
BRANCH  28  29
HETATM   29  C2  UNL     1      -4.975  -1.947  -0.558  1.00  0.00     0.176 C 
HETATM   30  C1  UNL     1      -6.428  -1.557  -0.361  1.00  0.00     0.034 C 
ENDBRANCH  28  29
ENDBRANCH  25  28
ENDBRANCH  23  24
ENDBRANCH   1  23
TORSDOF 4
