REMARK  16 active torsions:
REMARK  status: ('A' for Active; 'I' for Inactive)
REMARK    1  A    between atoms: C2_2  and  O1_3 
REMARK    2  A    between atoms: O1_3  and  C3_4 
REMARK    3  A    between atoms: C3_4  and  C4_6 
REMARK    4  A    between atoms: C4_6  and  O3_8 
REMARK    5  A    between atoms: O3_8  and  C6_9 
REMARK    6  A    between atoms: C7_10  and  O4_11 
REMARK    7  A    between atoms: O4_11  and  C8_12 
REMARK    8  A    between atoms: C13_18  and  O6_19 
REMARK    9  A    between atoms: C14_21  and  O7_22 
REMARK   10  A    between atoms: C15_24  and  O8_25 
REMARK   11  A    between atoms: O8_25  and  C16_26 
REMARK   12  A    between atoms: C16_26  and  O9_27 
REMARK   13  A    between atoms: C16_26  and  C17_29 
REMARK   14  A    between atoms: C17_29  and  N1_31 
REMARK   15  A    between atoms: N1_31  and  C19_33 
REMARK   16  A    between atoms: C26_44  and  O14_46 
ROOT
HETATM    1  C6  UNL     1       0.991   1.415   0.533  1.00  0.00     0.193 C 
HETATM    2  C7  UNL     1      -0.534   0.793   0.688  1.00  0.00     0.191 C 
HETATM    3  C14 UNL     1      -1.184  -0.267   1.785  1.00  0.00     0.215 C 
HETATM    4  C15 UNL     1      -0.414  -1.317   2.731  1.00  0.00     0.235 C 
HETATM    5  O11 UNL     1      -0.730  -0.987   4.092  1.00  0.00    -0.309 OA
HETATM    6  C20 UNL     1       0.550  -0.315   4.574  1.00  0.00     0.207 C 
HETATM    7  C21 UNL     1      -0.287   0.951   4.927  1.00  0.00     0.078 C 
HETATM    8  C22 UNL     1      -0.015   1.810   3.676  1.00  0.00     0.077 C 
HETATM    9  C23 UNL     1       1.248   1.185   2.996  1.00  0.00     0.202 C 
HETATM   10  O12 UNL     1       1.680   0.679   4.226  1.00  0.00    -0.312 OA
HETATM   11  O13 UNL     1       1.484  -0.062   2.317  1.00  0.00    -0.330 OA
HETATM   12  C24 UNL     1       1.010  -1.102   3.143  1.00  0.00     0.176 C 
HETATM   13  C25 UNL     1       2.072  -2.139   3.415  1.00  0.00     0.058 C 
HETATM   14  C26 UNL     1       1.695   2.083   1.857  1.00  0.00     0.139 C 
HETATM   15  C27 UNL     1       3.227   2.132   1.806  1.00  0.00     0.054 C 
ENDROOT
BRANCH   2  16
HETATM   16  O4  UNL     1      -0.888   0.327  -0.643  1.00  0.00    -0.342 OA
BRANCH  16  17
HETATM   17  C8  UNL     1      -2.101   0.807  -1.259  1.00  0.00     0.187 C 
HETATM   18  C9  UNL     1      -3.146   1.545  -0.397  1.00  0.00     0.082 C 
HETATM   19  O5  UNL     1      -2.785  -0.352  -1.802  1.00  0.00    -0.348 OA
HETATM   20  C10 UNL     1      -3.075  -0.137  -3.189  1.00  0.00     0.123 C 
HETATM   21  C11 UNL     1      -4.499  -0.582  -3.469  1.00  0.00     0.040 C 
HETATM   22  C12 UNL     1      -2.838   1.330  -3.479  1.00  0.00     0.069 C 
HETATM   23  C13 UNL     1      -1.731   1.660  -2.507  1.00  0.00     0.182 C 
BRANCH  23  24
HETATM   24  O6  UNL     1      -1.667   3.066  -2.284  1.00  0.00    -0.390 OA
ATOM     25  H6  UNL     1      -1.441   3.587  -3.046  1.00  0.00     0.210 HD
ENDBRANCH  23  24
ENDBRANCH  16  17
ENDBRANCH   2  16
BRANCH   1  26
HETATM   26  O3  UNL     1       0.902   2.446  -0.497  1.00  0.00    -0.365 OA
BRANCH  26  27
HETATM   27  C4  UNL     1       2.053   2.666  -1.304  1.00  0.00     0.217 C 
HETATM   28  C5  UNL     1       1.861   4.058  -1.911  1.00  0.00     0.050 C 
BRANCH  27  29
HETATM   29  C3  UNL     1       2.431   1.724  -2.465  1.00  0.00     0.287 C 
HETATM   30  O2  UNL     1       3.350   1.955  -3.245  1.00  0.00    -0.262 OA
BRANCH  29  31
HETATM   31  O1  UNL     1       1.635   0.627  -2.531  1.00  0.00    -0.320 OA
BRANCH  31  32
HETATM   32  C2  UNL     1       1.896  -0.213  -3.666  1.00  0.00     0.174 C 
HETATM   33  C1  UNL     1       1.019  -1.442  -3.562  1.00  0.00     0.034 C 
ENDBRANCH  31  32
ENDBRANCH  29  31
ENDBRANCH  27  29
ENDBRANCH  26  27
ENDBRANCH   1  26
BRANCH   3  34
HETATM   34  O7  UNL     1      -2.294  -0.970   1.171  1.00  0.00    -0.387 OA
ATOM     35  H7  UNL     1      -2.666  -1.577   1.799  1.00  0.00     0.210 HD
ENDBRANCH   3  34
BRANCH  14  36
HETATM   36  O14 UNL     1       1.243   3.439   1.990  1.00  0.00    -0.382 OA
ATOM     37  H14 UNL     1       1.650   3.826   2.756  1.00  0.00     0.210 HD
ENDBRANCH  14  36
BRANCH   4  38
HETATM   38  O8  UNL     1      -0.917  -2.656   2.442  1.00  0.00    -0.317 OA
BRANCH  38  39
HETATM   39  C16 UNL     1      -0.171  -3.596   1.688  1.00  0.00     0.283 C 
BRANCH  39  40
HETATM   40  O9  UNL     1      -0.921  -4.812   1.672  1.00  0.00    -0.369 OA
ATOM     41  H9  UNL     1      -0.421  -5.442   1.167  1.00  0.00     0.212 HD
ENDBRANCH  39  40
BRANCH  39  42
HETATM   42  C17 UNL     1       0.172  -3.196   0.224  1.00  0.00     0.134 C 
HETATM   43  C18 UNL     1      -1.005  -3.387  -0.730  1.00  0.00     0.037 C 
BRANCH  42  44
HETATM   44  N1  UNL     1       1.294  -4.008  -0.265  1.00  0.00    -0.359 N 
ATOM     45  H1  UNL     1       1.076  -4.872  -0.761  1.00  0.00     0.162 HD
BRANCH  44  46
HETATM   46  C19 UNL     1       2.605  -3.683  -0.099  1.00  0.00     0.348 C 
HETATM   47  O10 UNL     1       3.517  -4.483  -0.253  1.00  0.00    -0.284 OA
ENDBRANCH  44  46
ENDBRANCH  42  44
ENDBRANCH  39  42
ENDBRANCH  38  39
ENDBRANCH   4  38
TORSDOF 16
