REMARK  13 active torsions:
REMARK  status: ('A' for Active; 'I' for Inactive)
REMARK    1  A    between atoms: C8_12  and  N2_13 
REMARK    2  A    between atoms: N3_22  and  C16_23 
REMARK    3  A    between atoms: C16_23  and  C17_24 
REMARK    4  A    between atoms: C17_24  and  O2_25 
REMARK    5  A    between atoms: O2_25  and  C18_26 
REMARK    6  A    between atoms: C18_26  and  C19_28 
REMARK    7  A    between atoms: C19_28  and  C20_30 
REMARK    8  A    between atoms: C20_30  and  C21_32 
REMARK    9  A    between atoms: C21_32  and  O6_33 
REMARK   10  A    between atoms: C21_32  and  N4_35 
REMARK   11  A    between atoms: N4_35  and  C22_38 
REMARK   12  A    between atoms: C22_38  and  C23_39 
REMARK   13  A    between atoms: C25_44  and  O10_45 
ROOT
HETATM    1  N2  UNL     1       1.895  -0.606  -0.354  1.00  0.00    -0.224 N 
HETATM    2  C9  UNL     1       2.073  -1.826  -1.005  1.00  0.00     0.269 C 
HETATM    3  O1  UNL     1       2.371  -1.980  -2.194  1.00  0.00    -0.267 OA
HETATM    4  C10 UNL     1       1.909  -3.046  -0.179  1.00  0.00     0.059 A 
HETATM    5  C11 UNL     1       2.272  -4.294  -0.710  1.00  0.00     0.019 A 
HETATM    6  C12 UNL     1       2.217  -5.439   0.079  1.00  0.00     0.001 A 
HETATM    7  C13 UNL     1       1.814  -5.332   1.405  1.00  0.00     0.002 A 
HETATM    8  C14 UNL     1       1.435  -4.095   1.927  1.00  0.00     0.031 A 
HETATM    9  C15 UNL     1       1.453  -2.938   1.136  1.00  0.00     0.054 A 
HETATM   10  N3  UNL     1       0.988  -1.677   1.583  1.00  0.00    -0.296 N 
HETATM   11  C24 UNL     1       1.091  -0.547   0.779  1.00  0.00     0.337 C 
HETATM   12  O9  UNL     1       0.450   0.469   1.087  1.00  0.00    -0.246 OA
ENDROOT
BRANCH  10  13
HETATM   13  C16 UNL     1       0.427  -1.461   2.924  1.00  0.00     0.161 C 
BRANCH  13  14
HETATM   14  C17 UNL     1      -1.099  -1.222   2.977  1.00  0.00     0.199 C 
BRANCH  14  15
HETATM   15  O2  UNL     1      -1.387  -0.466   4.184  1.00  0.00    -0.313 OA
BRANCH  15  16
HETATM   16  C18 UNL     1      -2.268   0.551   4.242  1.00  0.00     0.337 C 
HETATM   17  O3  UNL     1      -2.356   1.308   5.198  1.00  0.00    -0.256 OA
BRANCH  16  18
HETATM   18  C19 UNL     1      -3.259   0.689   3.104  1.00  0.00     0.296 C 
HETATM   19  O4  UNL     1      -4.094  -0.191   2.919  1.00  0.00    -0.278 OA
BRANCH  18  20
HETATM   20  C20 UNL     1      -3.227   1.890   2.198  1.00  0.00     0.261 C 
HETATM   21  O5  UNL     1      -2.211   2.582   2.172  1.00  0.00    -0.284 OA
BRANCH  20  22
HETATM   22  C21 UNL     1      -4.482   2.126   1.347  1.00  0.00     0.398 C 
BRANCH  22  23
HETATM   23  O6  UNL     1      -4.797   3.499   1.349  1.00  0.00    -0.364 OA
ATOM     24  H6  UNL     1      -5.574   3.645   0.822  1.00  0.00     0.212 HD
ENDBRANCH  22  23
BRANCH  22  25
HETATM   25  N4  UNL     1      -4.232   1.771  -0.041  1.00  0.00    -0.032 N 
ATOM     26  H42 UNL     1      -4.849   2.285  -0.670  1.00  0.00     0.281 HD
ATOM     27  H41 UNL     1      -3.335   2.136  -0.360  1.00  0.00     0.281 HD
BRANCH  25  28
HETATM   28  C22 UNL     1      -4.328   0.317  -0.269  1.00  0.00     0.348 C 
BRANCH  28  29
HETATM   29  C23 UNL     1      -4.452   0.013  -1.764  1.00  0.00     0.199 C 
HETATM   30  O7  UNL     1      -4.767   0.831  -2.617  1.00  0.00    -0.647 OA
HETATM   31  O8  UNL     1      -4.226  -1.286  -2.067  1.00  0.00    -0.647 OA
ENDBRANCH  28  29
ENDBRANCH  25  28
ENDBRANCH  22  25
ENDBRANCH  20  22
ENDBRANCH  18  20
ENDBRANCH  16  18
ENDBRANCH  15  16
ENDBRANCH  14  15
ENDBRANCH  13  14
ENDBRANCH  10  13
BRANCH   1  32
HETATM   32  C8  UNL     1       2.407   0.601  -0.903  1.00  0.00     0.110 C 
HETATM   33  C7  UNL     1       2.721   0.733  -2.360  1.00  0.00     0.026 C 
HETATM   34  C1  UNL     1       3.862   1.647  -2.676  1.00  0.00     0.065 C 
HETATM   35  C6  UNL     1       1.749   0.934  -3.297  1.00  0.00     0.040 C 
HETATM   36  N1  UNL     1       4.913   1.425  -3.383  1.00  0.00    -0.397 N 
HETATM   37  C2  UNL     1       3.432   2.958  -2.100  1.00  0.00     0.061 C 
ATOM     38  H12 UNL     1       5.691   2.048  -3.598  1.00  0.00     0.156 HD
ATOM     39  H11 UNL     1       5.206   0.531  -3.776  1.00  0.00     0.156 HD
HETATM   40  C3  UNL     1       2.729   3.708  -2.974  1.00  0.00     0.033 C 
HETATM   41  N5  UNL     1       3.265   2.897  -0.732  1.00  0.00    -0.333 N 
HETATM   42  C4  UNL     1       2.345   3.163  -4.289  1.00  0.00     0.026 C 
HETATM   43  C5  UNL     1       1.909   1.883  -4.429  1.00  0.00     0.035 C 
HETATM   44 CL1  UNL     1       1.520   1.265  -5.984  1.00  0.00    -0.084 Cl
HETATM   45  C25 UNL     1       2.704   1.737  -0.172  1.00  0.00     0.169 C 
ATOM     46  H5  UNL     1       3.543   3.679  -0.139  1.00  0.00     0.168 HD
BRANCH  45  47
HETATM   47  O10 UNL     1       2.464   1.896   1.168  1.00  0.00    -0.344 OA
ATOM     48  H10 UNL     1       2.668   2.676   1.670  1.00  0.00     0.219 HD
ENDBRANCH  45  47
ENDBRANCH   1  32
TORSDOF 13
