REMARK  16 active torsions:
REMARK  status: ('A' for Active; 'I' for Inactive)
REMARK    1  A    between atoms: C9_9  and  O1_10 
REMARK    2  A    between atoms: O1_10  and  C10_11 
REMARK    3  A    between atoms: C12_14  and  O3_15 
REMARK    4  A    between atoms: O3_15  and  C13_16 
REMARK    5  A    between atoms: C14_17  and  O4_18 
REMARK    6  A    between atoms: C15_20  and  N1_21 
REMARK    7  A    between atoms: C17_24  and  O5_25 
REMARK    8  A    between atoms: O5_25  and  C18_26 
REMARK    9  A    between atoms: C18_26  and  C19_28 
REMARK   10  A    between atoms: C19_28  and  C20_29 
REMARK   11  A    between atoms: C20_29  and  O7_31 
REMARK   12  A    between atoms: C20_29  and  C22_33 
REMARK   13  A    between atoms: C22_33  and  O8_34 
REMARK   14  A    between atoms: C23_36  and  N2_37 
REMARK   15  A    between atoms: C26_40  and  O9_41 
REMARK   16  A    between atoms: C27_43  and  O10_44 
ROOT
HETATM    1  C13 UNL     1      -0.483  -0.905   0.145  1.00  0.00     0.183 C 
HETATM    2  C14 UNL     1      -0.608  -1.645  -1.192  1.00  0.00     0.174 C 
HETATM    3  C15 UNL     1      -2.062  -1.652  -1.768  1.00  0.00     0.139 C 
HETATM    4  C17 UNL     1      -3.140  -1.124  -0.772  1.00  0.00     0.192 C 
HETATM    5  C23 UNL     1      -2.906  -1.819   0.601  1.00  0.00     0.284 C 
HETATM    6  C26 UNL     1      -1.509  -1.423   1.179  1.00  0.00     0.185 C 
ENDROOT
BRANCH   1   7
HETATM    7  O3  UNL     1       0.782  -1.069   0.790  1.00  0.00    -0.370 OA
BRANCH   7   8
HETATM    8  C12 UNL     1       2.006  -0.855   0.087  1.00  0.00     0.180 C 
HETATM    9  C9  UNL     1       3.133  -1.257   1.074  1.00  0.00     0.163 C 
HETATM   10  C8  UNL     1       4.466  -1.296   0.345  1.00  0.00     0.041 C 
HETATM   11  C7  UNL     1       4.798   0.058  -0.246  1.00  0.00     0.004 C 
HETATM   12  C6  UNL     1       5.345  -0.082  -1.681  1.00  0.00     0.032 A 
HETATM   13  C28 UNL     1       3.628   0.937  -0.793  1.00  0.00     0.031 C 
HETATM   14  C2  UNL     1       6.167   1.074  -2.174  1.00  0.00    -0.056 A 
HETATM   15  C5  UNL     1       4.096   0.630  -2.237  1.00  0.00     0.034 A 
HETATM   16  C1  UNL     1       7.460   1.382  -2.057  1.00  0.00     0.020 C 
HETATM   17  C3  UNL     1       5.040   1.678  -2.805  1.00  0.00    -0.056 A 
HETATM   18  C4  UNL     1       4.876   2.756  -3.562  1.00  0.00     0.020 C 
HETATM   19  C27 UNL     1       2.193   0.612  -0.361  1.00  0.00     0.154 C 
BRANCH   9  20
HETATM   20  O1  UNL     1       2.942  -2.603   1.566  1.00  0.00    -0.314 OA
BRANCH  20  21
HETATM   21  C10 UNL     1       2.552  -2.655   2.867  1.00  0.00     0.255 C 
HETATM   22  C11 UNL     1       3.654  -3.198   3.724  1.00  0.00     0.126 C 
HETATM   23  O2  UNL     1       1.471  -2.263   3.285  1.00  0.00    -0.266 OA
ENDBRANCH  20  21
ENDBRANCH   9  20
BRANCH  19  24
HETATM   24  O10 UNL     1       1.870   1.474   0.739  1.00  0.00    -0.392 OA
ATOM     25  H10 UNL     1       1.985   2.376   0.464  1.00  0.00     0.210 HD
ENDBRANCH  19  24
ENDBRANCH   7   8
ENDBRANCH   1   7
BRANCH   2  26
HETATM   26  O4  UNL     1      -0.142  -3.005  -1.078  1.00  0.00    -0.391 OA
ATOM     27  H4  UNL     1      -0.219  -3.464  -1.906  1.00  0.00     0.210 HD
ENDBRANCH   2  26
BRANCH   6  28
HETATM   28  O9  UNL     1      -0.965  -2.605   1.813  1.00  0.00    -0.391 OA
ATOM     29  H9  UNL     1      -1.595  -2.923   2.448  1.00  0.00     0.210 HD
ENDBRANCH   6  28
BRANCH   3  30
HETATM   30  N1  UNL     1      -2.132  -1.139  -3.161  1.00  0.00    -0.416 N 
HETATM   31  C16 UNL     1      -1.960   0.293  -3.325  1.00  0.00     0.140 C 
ATOM     32  H1  UNL     1      -2.292  -1.758  -3.956  1.00  0.00     0.153 HD
ENDBRANCH   3  30
BRANCH   5  33
HETATM   33  N2  UNL     1      -4.102  -1.647   1.502  1.00  0.00     0.089 N 
HETATM   34  C24 UNL     1      -5.033  -2.773   1.332  1.00  0.00     0.310 C 
HETATM   35  C25 UNL     1      -3.794  -1.493   2.922  1.00  0.00     0.310 C 
ENDBRANCH   5  33
BRANCH   4  36
HETATM   36  O5  UNL     1      -3.039   0.305  -0.601  1.00  0.00    -0.311 OA
BRANCH  36  37
HETATM   37  C18 UNL     1      -4.196   1.008  -0.751  1.00  0.00     0.262 C 
HETATM   38  O6  UNL     1      -5.291   0.531  -1.018  1.00  0.00    -0.265 OA
BRANCH  37  39
HETATM   39  C19 UNL     1      -3.938   2.493  -0.670  1.00  0.00     0.150 C 
BRANCH  39  40
HETATM   40  C20 UNL     1      -3.829   3.054   0.754  1.00  0.00     0.084 C 
HETATM   41  C21 UNL     1      -2.525   2.633   1.437  1.00  0.00     0.048 C 
BRANCH  40  42
HETATM   42  O7  UNL     1      -4.936   2.591   1.530  1.00  0.00    -0.388 OA
ATOM     43  H7  UNL     1      -4.869   2.938   2.412  1.00  0.00     0.210 HD
ENDBRANCH  40  42
BRANCH  40  44
HETATM   44  C22 UNL     1      -3.918   4.597   0.690  1.00  0.00     0.201 C 
BRANCH  44  45
HETATM   45  O8  UNL     1      -2.866   5.158  -0.084  1.00  0.00    -0.398 OA
ATOM     46  H8  UNL     1      -2.921   6.106  -0.123  1.00  0.00     0.209 HD
ENDBRANCH  44  45
ENDBRANCH  40  44
ENDBRANCH  39  40
ENDBRANCH  37  39
ENDBRANCH  36  37
ENDBRANCH   4  36
TORSDOF 16
