REMARK  8 active torsions:
REMARK  status: ('A' for Active; 'I' for Inactive)
REMARK    1  A    between atoms: C2_2  and  S1_3 
REMARK    2  A    between atoms: S1_3  and  C3_4 
REMARK    3  A    between atoms: C3_4  and  C5_6 
REMARK    4  A    between atoms: C5_6  and  O2_8 
REMARK    5  A    between atoms: O2_8  and  C6_9 
REMARK    6  A    between atoms: C6_9  and  O3_10 
REMARK    7  A    between atoms: O3_10  and  C7_11 
REMARK    8  A    between atoms: C7_11  and  C8_13 
ROOT
HETATM    1  C8  UNL     1       1.742  -0.749   0.509  1.00  0.00     0.053 C 
HETATM    2  C9  UNL     1       1.817  -0.476  -0.823  1.00  0.00     0.015 C 
HETATM    3  C10 UNL     1       1.368  -1.407  -1.923  1.00  0.00     0.068 C 
HETATM    4  N1  UNL     1       2.339   0.736  -1.290  1.00  0.00    -0.373 N 
ATOM      5  H1  UNL     1       2.573   0.897  -2.270  1.00  0.00     0.161 HD
HETATM    6  C11 UNL     1       2.499   1.635  -0.373  1.00  0.00     0.215 C 
HETATM    7  S2  UNL     1       1.402   1.861   0.989  1.00  0.00    -0.126 SA
HETATM    8  C12 UNL     1       2.117   0.269   1.577  1.00  0.00     0.101 C 
HETATM    9  C13 UNL     1       3.612   0.673   1.627  1.00  0.00     0.073 C 
HETATM   10  C14 UNL     1       4.581  -0.488   1.509  1.00  0.00     0.019 C 
HETATM   11  C15 UNL     1       3.762   1.627   0.455  1.00  0.00     0.164 C 
HETATM   12  O5  UNL     1       4.739   2.293   0.166  1.00  0.00    -0.294 OA
ENDROOT
BRANCH   1  13
HETATM   13  C7  UNL     1       1.112  -2.004   0.956  1.00  0.00     0.294 C 
HETATM   14  O4  UNL     1       1.485  -3.123   0.664  1.00  0.00    -0.259 OA
BRANCH  13  15
HETATM   15  O3  UNL     1      -0.016  -1.673   1.615  1.00  0.00    -0.291 OA
BRANCH  15  16
HETATM   16  C6  UNL     1      -1.168  -2.403   1.192  1.00  0.00     0.358 C 
BRANCH  16  17
HETATM   17  O2  UNL     1      -1.922  -1.531   0.343  1.00  0.00    -0.294 OA
BRANCH  17  18
HETATM   18  C5  UNL     1      -2.691  -0.637   1.034  1.00  0.00     0.274 C 
HETATM   19  O1  UNL     1      -3.080  -0.795   2.184  1.00  0.00    -0.264 OA
BRANCH  18  20
HETATM   20  C3  UNL     1      -2.873   0.631   0.213  1.00  0.00     0.143 C 
HETATM   21  C4  UNL     1      -2.923   1.827   1.161  1.00  0.00     0.032 C 
BRANCH  20  22
HETATM   22  S1  UNL     1      -4.418   0.547  -0.756  1.00  0.00    -0.155 SA
BRANCH  22  23
HETATM   23  C2  UNL     1      -3.761   0.413  -2.450  1.00  0.00     0.070 C 
HETATM   24  C1  UNL     1      -3.232   1.736  -2.978  1.00  0.00     0.016 C 
ENDBRANCH  22  23
ENDBRANCH  20  22
ENDBRANCH  18  20
ENDBRANCH  17  18
ENDBRANCH  16  17
ENDBRANCH  15  16
ENDBRANCH  13  15
ENDBRANCH   1  13
TORSDOF 8
