REMARK  10 active torsions:
REMARK  status: ('A' for Active; 'I' for Inactive)
REMARK    1  A    between atoms: C2_2  and  O1_3 
REMARK    2  A    between atoms: O1_3  and  C3_4 
REMARK    3  A    between atoms: C3_4  and  O2_5 
REMARK    4  A    between atoms: C3_4  and  C5_7 
REMARK    5  A    between atoms: N1_10  and  C8_11 
REMARK    6  A    between atoms: C14_17  and  C15_18 
REMARK    7  A    between atoms: C15_18  and  O3_19 
REMARK    8  A    between atoms: C17_25  and  O4_26 
REMARK    9  A    between atoms: O4_26  and  C18_27 
REMARK   10  A    between atoms: C18_27  and  C19_28 
ROOT
HETATM    1  C8  UNL     1      -0.871   1.589  -1.022  1.00  0.00     0.193 C 
HETATM    2  C9  UNL     1      -0.795   2.613  -2.210  1.00  0.00     0.078 C 
HETATM    3  C10 UNL     1      -2.001   3.571  -2.110  1.00  0.00     0.189 C 
HETATM    4  C11 UNL     1      -1.707   4.548  -0.919  1.00  0.00     0.033 C 
HETATM    5  C12 UNL     1      -1.017   3.832   0.279  1.00  0.00     0.010 C 
HETATM    6  C13 UNL     1      -1.452   2.390   0.182  1.00  0.00     0.035 C 
HETATM    7  C14 UNL     1      -2.785   2.182   0.301  1.00  0.00     0.049 C 
HETATM    8  C16 UNL     1      -3.245   1.653  -1.035  1.00  0.00     0.224 C 
HETATM    9  N2  UNL     1      -3.299   2.820  -1.979  1.00  0.00    -0.064 N 
ATOM     10  H21 UNL     1      -3.632   2.522  -2.896  1.00  0.00     0.278 HD
ATOM     11  H22 UNL     1      -4.053   3.455  -1.718  1.00  0.00     0.278 HD
HETATM   12  C17 UNL     1      -2.100   0.689  -1.402  1.00  0.00     0.192 C 
ENDROOT
BRANCH   1  13
HETATM   13  N1  UNL     1       0.473   1.001  -0.870  1.00  0.00     0.101 N 
HETATM   14  C7  UNL     1       0.998   0.938   0.495  1.00  0.00     0.274 C 
HETATM   15  C6  UNL     1       2.471   0.530   0.532  1.00  0.00     0.040 C 
HETATM   16  C5  UNL     1       2.678  -0.811  -0.183  1.00  0.00     0.044 C 
HETATM   17  C26 UNL     1       2.156  -0.674  -1.620  1.00  0.00     0.040 C 
HETATM   18  C25 UNL     1       0.688  -0.237  -1.625  1.00  0.00     0.274 C 
BRANCH  16  19
HETATM   19  C3  UNL     1       4.144  -1.283  -0.133  1.00  0.00     0.263 C 
BRANCH  19  20
HETATM   20  O1  UNL     1       4.587  -1.338   1.222  1.00  0.00    -0.361 OA
BRANCH  20  21
HETATM   21  C2  UNL     1       4.303  -2.578   1.860  1.00  0.00     0.166 C 
HETATM   22  C1  UNL     1       4.630  -2.436   3.334  1.00  0.00     0.033 C 
ENDBRANCH  20  21
ENDBRANCH  19  20
BRANCH  19  23
HETATM   23  O2  UNL     1       4.946  -0.362  -0.873  1.00  0.00    -0.366 OA
HETATM   24  C4  UNL     1       6.296  -0.788  -0.979  1.00  0.00     0.204 C 
ENDBRANCH  19  23
ENDBRANCH  16  19
ENDBRANCH   1  13
BRANCH  12  25
HETATM   25  O4  UNL     1      -2.223  -0.642  -0.901  1.00  0.00    -0.377 OA
BRANCH  25  26
HETATM   26  C18 UNL     1      -2.397  -0.865   0.486  1.00  0.00     0.208 C 
BRANCH  26  27
HETATM   27  C19 UNL     1      -2.771  -2.321   0.628  1.00  0.00    -0.013 A 
HETATM   28  C20 UNL     1      -1.767  -3.300   0.504  1.00  0.00     0.012 A 
HETATM   29  C21 UNL     1      -2.081  -4.660   0.546  1.00  0.00     0.024 A 
HETATM   30  C22 UNL     1      -3.407  -5.055   0.710  1.00  0.00     0.035 A 
HETATM   31 CL1  UNL     1      -3.803  -6.730   0.731  1.00  0.00    -0.084 Cl
HETATM   32  C23 UNL     1      -4.415  -4.106   0.840  1.00  0.00     0.048 A 
HETATM   33  C24 UNL     1      -4.101  -2.745   0.796  1.00  0.00     0.044 A 
HETATM   34 CL2  UNL     1      -5.413  -1.628   0.945  1.00  0.00    -0.084 Cl
ENDBRANCH  26  27
ENDBRANCH  25  26
ENDBRANCH  12  25
BRANCH   7  35
HETATM   35  C15 UNL     1      -3.799   2.813   1.202  1.00  0.00     0.171 C 
BRANCH  35  36
HETATM   36  O3  UNL     1      -3.212   3.245   2.424  1.00  0.00    -0.400 OA
ATOM     37  H3  UNL     1      -3.856   3.646   2.996  1.00  0.00     0.209 HD
ENDBRANCH  35  36
ENDBRANCH   7  35
TORSDOF 10
