REMARK  5 active torsions:
REMARK  status: ('A' for Active; 'I' for Inactive)
REMARK    1  A    between atoms: N2_8  and  C4_9 
REMARK    2  A    between atoms: C4_9  and  C5_10 
REMARK    3  A    between atoms: C5_10  and  C6_11 
REMARK    4  A    between atoms: C6_11  and  N3_12 
REMARK    5  A    between atoms: C7_13  and  O2_14 
ROOT
HETATM    1  N3  UNL     1       0.438  -1.650  -0.221  1.00  0.00    -0.334 N 
HETATM    2  C7  UNL     1       0.696  -1.268  -1.535  1.00  0.00     0.145 C 
HETATM    3  C8  UNL     1       1.825  -0.478  -1.447  1.00  0.00    -0.019 C 
HETATM    4  C9  UNL     1       2.553  -0.940  -0.314  1.00  0.00     0.065 C 
HETATM    5  C10 UNL     1       1.472  -1.154   0.535  1.00  0.00    -0.000 C 
HETATM    6  C11 UNL     1       1.457  -0.067   1.591  1.00  0.00     0.058 C 
HETATM    7  C12 UNL     1       2.510   0.957   0.925  1.00  0.00    -0.008 C 
HETATM    8  C13 UNL     1       1.854   1.753  -0.294  1.00  0.00     0.009 C 
HETATM    9  C14 UNL     1       1.919   1.009  -1.700  1.00  0.00     0.040 C 
HETATM   10  C15 UNL     1       3.566  -0.029   0.330  1.00  0.00     0.020 C 
ENDROOT
BRANCH   1  11
HETATM   11  C6  UNL     1      -0.661  -2.455   0.256  1.00  0.00     0.132 C 
BRANCH  11  12
HETATM   12  C5  UNL     1      -1.640  -1.827   1.252  1.00  0.00     0.041 C 
BRANCH  12  13
HETATM   13  C4  UNL     1      -2.708  -0.920   0.630  1.00  0.00     0.135 C 
BRANCH  13  14
HETATM   14  N2  UNL     1      -2.386   0.496   0.719  1.00  0.00    -0.305 N 
HETATM   15  C2  UNL     1      -2.199   1.388  -0.256  1.00  0.00     0.103 A 
HETATM   16  C1  UNL     1      -2.245   1.073  -1.718  1.00  0.00     0.091 C 
HETATM   17  N1  UNL     1      -1.995   2.593   0.160  1.00  0.00    -0.246 N 
HETATM   18  O1  UNL     1      -2.098   2.529   1.576  1.00  0.00    -0.206 OA
ATOM     19  H1  UNL     1      -1.801   3.418  -0.408  1.00  0.00     0.196 HD
HETATM   20  C3  UNL     1      -2.409   1.233   1.853  1.00  0.00     0.243 A 
HETATM   21  S1  UNL     1      -2.778   0.823   3.418  1.00  0.00    -0.031 SA
ENDBRANCH  13  14
ENDBRANCH  12  13
ENDBRANCH  11  12
ENDBRANCH   1  11
BRANCH   2  22
HETATM   22  O2  UNL     1      -0.180  -1.431  -2.520  1.00  0.00    -0.346 OA
ATOM     23  H2  UNL     1      -0.004  -1.170  -3.416  1.00  0.00     0.219 HD
ENDBRANCH   2  22
TORSDOF 5
