REMARK  1 active torsions:
REMARK  status: ('A' for Active; 'I' for Inactive)
REMARK       I    between atoms: N1_2  and  C2_4 
REMARK    1  A    between atoms: C2_4  and  C3_6 
ROOT
HETATM    1  C3  UNL     1       0.569  -0.640  -0.203  1.00  0.00     0.175 C 
HETATM    2 CL1  UNL     1       0.436  -2.411   0.080  1.00  0.00    -0.103 Cl
HETATM    3  C4  UNL     1       1.745  -0.034  -1.070  1.00  0.00     0.199 C 
HETATM    4  O2  UNL     1       1.335   1.316  -0.361  1.00  0.00    -0.369 OA
HETATM    5  C5  UNL     1       1.393   0.267   0.791  1.00  0.00     0.199 C 
HETATM    6  C6  UNL     1       2.759  -0.169   0.130  1.00  0.00     0.169 C 
HETATM    7 CL2  UNL     1       3.491  -1.766   0.533  1.00  0.00    -0.096 Cl
HETATM    8 CL3  UNL     1       4.117   1.064   0.195  1.00  0.00    -0.096 Cl
ENDROOT
BRANCH   1   9
HETATM    9  C2  UNL     1      -0.876  -0.107  -0.609  1.00  0.00     0.246 C 
HETATM   10  N1  UNL     1      -1.746   0.064   0.462  1.00  0.00    -0.364 N 
HETATM   11  C1  UNL     1      -3.124   0.428   0.242  1.00  0.00     0.149 C 
ATOM     12  H1  UNL     1      -1.406  -0.070   1.414  1.00  0.00     0.161 HD
HETATM   13  O1  UNL     1      -1.242   0.101  -1.769  1.00  0.00    -0.271 OA
ENDBRANCH   1   9
TORSDOF 1
