REMARK  0 active torsions:
REMARK  status: ('A' for Active; 'I' for Inactive)
ROOT
HETATM    1  N1  UNL     1      -1.367  -3.124  -0.190  1.00  0.00    -0.195 NA
HETATM    2  C1  UNL     1      -1.338  -1.969  -0.296  1.00  0.00     0.085 C 
HETATM    3  C2  UNL     1      -1.256  -0.506  -0.427  1.00  0.00     0.145 C 
HETATM    4  C3  UNL     1      -2.062  -0.015  -1.553  1.00  0.00     0.085 C 
HETATM    5  N2  UNL     1      -2.693   0.405  -2.432  1.00  0.00    -0.195 NA
HETATM    6  C4  UNL     1      -1.601   0.243   0.902  1.00  0.00     0.045 C 
HETATM    7  C5  UNL     1      -0.234   0.922   1.201  1.00  0.00    -0.006 C 
HETATM    8  C6  UNL     1       0.179   1.516  -0.159  1.00  0.00     0.018 C 
HETATM    9  C7  UNL     1       0.189  -0.017  -0.521  1.00  0.00    -0.002 C 
HETATM   10  C8  UNL     1       1.547  -0.529  -1.032  1.00  0.00     0.013 C 
HETATM   11  C9  UNL     1       2.159  -0.144   0.345  1.00  0.00     0.007 C 
HETATM   12  C10 UNL     1       0.749  -0.241   0.945  1.00  0.00     0.001 C 
ENDROOT
TORSDOF 0
