REMARK  7 active torsions:
REMARK  status: ('A' for Active; 'I' for Inactive)
REMARK    1  A    between atoms: N1_2  and  N3_5 
REMARK    2  A    between atoms: N3_5  and  C3_7 
REMARK    3  A    between atoms: C3_7  and  N4_9 
REMARK    4  A    between atoms: N4_9  and  C4_11 
REMARK    5  A    between atoms: C8_15  and  O1_16 
REMARK    6  A    between atoms: C9_18  and  C10_19 
REMARK    7  A    between atoms: C14_27  and  C15_28 
ROOT
HETATM    1  C1  UNL     1      -2.972  -3.170  -1.564  1.00  0.00     0.191 C 
HETATM    2  N1  UNL     1      -3.812  -1.951  -1.587  1.00  0.00    -0.230 N 
HETATM    3  C2  UNL     1      -4.701  -1.721  -2.569  1.00  0.00     0.200 C 
HETATM    4  N2  UNL     1      -5.442  -1.546  -3.446  1.00  0.00    -0.170 NA
ENDROOT
BRANCH   2   5
HETATM    5  N3  UNL     1      -3.185  -0.753  -1.048  1.00  0.00    -0.265 N 
ATOM      6  H3  UNL     1      -2.309  -0.440  -1.467  1.00  0.00     0.190 HD
BRANCH   5   7
HETATM    7  C3  UNL     1      -3.702  -0.021  -0.010  1.00  0.00     0.193 C 
HETATM    8  S1  UNL     1      -5.241  -0.161   0.634  1.00  0.00    -0.039 SA
BRANCH   7   9
HETATM    9  N4  UNL     1      -2.879   0.939   0.524  1.00  0.00    -0.318 N 
ATOM     10  H4  UNL     1      -3.336   1.593   1.159  1.00  0.00     0.170 HD
BRANCH   9  11
HETATM   11  C4  UNL     1      -1.537   1.156   0.337  1.00  0.00     0.107 C 
HETATM   12  C5  UNL     1      -0.943   2.213   0.956  1.00  0.00     0.049 C 
HETATM   13  C6  UNL     1       0.497   2.490   0.822  1.00  0.00     0.014 C 
HETATM   14  C7  UNL     1       1.432   1.565   1.160  1.00  0.00    -0.013 C 
HETATM   15  C8  UNL     1       1.028   0.451   2.030  1.00  0.00     0.086 C 
HETATM   16  C14 UNL     1       2.627   1.209   0.206  1.00  0.00     0.022 C 
HETATM   17  C9  UNL     1       0.337  -0.568   1.497  1.00  0.00     0.062 C 
HETATM   18  C11 UNL     1       0.167  -0.352   0.023  1.00  0.00     0.035 C 
HETATM   19  N5  UNL     1      -0.819   0.321  -0.513  1.00  0.00    -0.345 N 
HETATM   20  C12 UNL     1       1.432  -0.653  -0.828  1.00  0.00     0.110 C 
ATOM     21  H5  UNL     1      -1.049   0.238  -1.503  1.00  0.00     0.167 HD
HETATM   22  C13 UNL     1       2.726  -0.355  -0.001  1.00  0.00     0.034 C 
HETATM   23  C17 UNL     1       1.692   0.380  -1.931  1.00  0.00     0.253 C 
HETATM   24  C16 UNL     1       2.359   1.609  -1.283  1.00  0.00     0.096 C 
HETATM   25  F4  UNL     1       0.627   0.697  -2.681  1.00  0.00    -0.205 F 
HETATM   26  F5  UNL     1       2.601  -0.162  -2.797  1.00  0.00    -0.205 F 
BRANCH  15  27
HETATM   27  O1  UNL     1       1.480   0.469   3.323  1.00  0.00    -0.359 OA
ATOM     28  H1  UNL     1       1.219  -0.251   3.885  1.00  0.00     0.217 HD
ENDBRANCH  15  27
BRANCH  17  29
HETATM   29  C10 UNL     1      -0.094  -1.838   2.110  1.00  0.00     0.391 C 
HETATM   30  F1  UNL     1       0.560  -2.879   1.528  1.00  0.00    -0.209 F 
HETATM   31  F2  UNL     1      -1.415  -2.068   1.893  1.00  0.00    -0.209 F 
ENDBRANCH  17  29
BRANCH  16  32
HETATM   32  C15 UNL     1       3.919   1.800   0.767  1.00  0.00     0.236 C 
HETATM   33  F3  UNL     1       4.088   1.375   2.053  1.00  0.00    -0.254 F 
ENDBRANCH  16  32
ENDBRANCH   9  11
ENDBRANCH   7   9
ENDBRANCH   5   7
ENDBRANCH   2   5
TORSDOF 7
