REMARK  3 active torsions:
REMARK  status: ('A' for Active; 'I' for Inactive)
REMARK    1  A    between atoms: O1_1  and  C1_3 
REMARK    2  A    between atoms: C1_3  and  C2_4 
REMARK    3  A    between atoms: C6_9  and  C10_13 
ROOT
HETATM    1  C2  UNL     1       1.301  -0.037  -0.096  1.00  0.00     0.020 C 
HETATM    2  C3  UNL     1       0.292  -0.776  -1.027  1.00  0.00     0.000 C 
HETATM    3  C4  UNL     1      -0.368  -1.994  -0.416  1.00  0.00     0.036 C 
HETATM    4  C5  UNL     1      -0.924  -1.643   0.957  1.00  0.00     0.274 C 
HETATM    5  N1  UNL     1      -1.629  -0.376   1.057  1.00  0.00     0.098 N 
HETATM    6  C6  UNL     1      -0.781   0.867   1.278  1.00  0.00     0.230 C 
HETATM    7  C7  UNL     1      -2.058   1.584   0.662  1.00  0.00     0.072 C 
HETATM    8  C8  UNL     1      -1.956   0.299  -0.252  1.00  0.00     0.230 C 
HETATM    9  C9  UNL     1      -0.606   0.479  -1.022  1.00  0.00     0.030 C 
HETATM   10  C10 UNL     1       0.245   1.054   0.119  1.00  0.00     0.032 C 
ENDROOT
BRANCH   1  11
HETATM   11  C1  UNL     1       2.572   0.429  -0.799  1.00  0.00     0.169 C 
BRANCH  11  12
HETATM   12  O1  UNL     1       3.315   1.265   0.079  1.00  0.00    -0.400 OA
ATOM     13  H1  UNL     1       4.107   1.555  -0.359  1.00  0.00     0.209 HD
ENDBRANCH  11  12
ENDBRANCH   1  11
TORSDOF 3
