REMARK  8 active torsions:
REMARK  status: ('A' for Active; 'I' for Inactive)
REMARK    1  A    between atoms: C2_2  and  C3_3 
REMARK    2  A    between atoms: C3_3  and  C5_5 
REMARK    3  A    between atoms: C5_5  and  O1_6 
REMARK    4  A    between atoms: C5_5  and  C10_11 
REMARK    5  A    between atoms: O1_6  and  C6_7 
REMARK    6  A    between atoms: C6_7  and  C7_8 
REMARK    7  A    between atoms: C12_13  and  O2_14 
REMARK    8  A    between atoms: C17_20  and  O3_21 
ROOT
HETATM    1  C10 UNL     1       0.852   0.766  -0.416  1.00  0.00     0.057 C 
HETATM    2  C11 UNL     1       1.873   1.544  -1.377  1.00  0.00     0.058 C 
HETATM    3  C12 UNL     1       1.800   0.376  -2.394  1.00  0.00     0.065 C 
HETATM    4  C13 UNL     1       2.952  -0.669  -2.388  1.00  0.00     0.044 C 
HETATM    5  C14 UNL     1       2.527  -1.043  -0.949  1.00  0.00     0.003 C 
HETATM    6  C15 UNL     1       2.279  -2.360  -0.251  1.00  0.00     0.016 C 
HETATM    7  C16 UNL     1       3.615  -2.959   0.184  1.00  0.00     0.013 C 
HETATM    8  C17 UNL     1       1.261  -2.105   0.920  1.00  0.00     0.133 C 
HETATM    9  C18 UNL     1       1.464  -0.814   1.771  1.00  0.00     0.081 C 
HETATM   10  C19 UNL     1       0.511  -0.782   2.980  1.00  0.00     0.020 C 
HETATM   11  C20 UNL     1       1.360   0.582   1.074  1.00  0.00     0.145 C 
HETATM   12  O4  UNL     1       1.752   1.563   1.725  1.00  0.00    -0.297 OA
HETATM   13  C21 UNL     1       1.145  -0.454  -1.314  1.00  0.00     0.043 C 
ENDROOT
BRANCH   1  14
HETATM   14  C5  UNL     1      -0.643   1.173  -0.565  1.00  0.00     0.141 C 
BRANCH  14  15
HETATM   15  C3  UNL     1      -1.153   2.424   0.212  1.00  0.00     0.011 C 
HETATM   16  C4  UNL     1      -1.460   2.163   1.693  1.00  0.00     0.012 C 
BRANCH  15  17
HETATM   17  C2  UNL     1      -0.320   3.699  -0.007  1.00  0.00     0.002 C 
HETATM   18  C1  UNL     1      -1.083   4.981   0.328  1.00  0.00     0.005 C 
ENDBRANCH  15  17
ENDBRANCH  14  15
BRANCH  14  19
HETATM   19  O1  UNL     1      -1.436   0.013  -0.215  1.00  0.00    -0.384 OA
BRANCH  19  20
HETATM   20  C6  UNL     1      -2.707  -0.020  -0.876  1.00  0.00     0.172 C 
BRANCH  20  21
HETATM   21  C7  UNL     1      -3.471  -1.311  -0.543  1.00  0.00     0.001 C 
HETATM   22  C8  UNL     1      -2.741  -2.545  -1.071  1.00  0.00     0.011 C 
HETATM   23  C9  UNL     1      -3.726  -1.447   0.958  1.00  0.00     0.011 C 
ENDBRANCH  20  21
ENDBRANCH  19  20
ENDBRANCH  14  19
ENDBRANCH   1  14
BRANCH   3  24
HETATM   24  O2  UNL     1       1.060   0.578  -3.605  1.00  0.00    -0.389 OA
ATOM     25  H2  UNL     1       1.015  -0.138  -4.228  1.00  0.00     0.210 HD
ENDBRANCH   3  24
BRANCH   8  26
HETATM   26  O3  UNL     1       1.299  -3.269   1.754  1.00  0.00    -0.394 OA
ATOM     27  H3  UNL     1       0.684  -3.115   2.461  1.00  0.00     0.210 HD
ENDBRANCH   8  26
TORSDOF 8
