REMARK  2 active torsions:
REMARK  status: ('A' for Active; 'I' for Inactive)
REMARK    1  A    between atoms: C4_6  and  N1_7 
REMARK       I    between atoms: N1_7  and  C5_9 
REMARK    2  A    between atoms: C5_9  and  C6_11 
ROOT
HETATM    1  C6  UNL     1       0.195   0.848  -0.256  1.00  0.00     0.045 C 
HETATM    2  C7  UNL     1       1.507   1.586  -0.633  1.00  0.00     0.024 C 
HETATM    3  C8  UNL     1       2.515   1.143   0.428  1.00  0.00    -0.008 C 
HETATM    4  C9  UNL     1       1.627   1.255   1.666  1.00  0.00     0.011 C 
HETATM    5  C10 UNL     1       0.363   0.489   1.259  1.00  0.00     0.004 C 
HETATM    6  C11 UNL     1       0.370  -1.012   1.643  1.00  0.00     0.011 C 
HETATM    7  C12 UNL     1       1.547  -1.905   1.218  1.00  0.00    -0.009 C 
HETATM    8  C13 UNL     1       2.912  -1.230   1.381  1.00  0.00     0.010 C 
HETATM    9  C14 UNL     1       3.144  -0.261   0.206  1.00  0.00    -0.006 C 
HETATM   10  C15 UNL     1       2.693  -0.971  -1.102  1.00  0.00    -0.005 C 
HETATM   11  C16 UNL     1       2.792  -2.545  -0.991  1.00  0.00     0.011 C 
HETATM   12  C17 UNL     1       1.409  -2.395  -0.237  1.00  0.00    -0.006 C 
HETATM   13  C18 UNL     1       1.156  -1.291  -1.311  1.00  0.00    -0.004 C 
HETATM   14  C19 UNL     1      -0.017  -0.344  -1.190  1.00  0.00     0.025 C 
ENDROOT
BRANCH   1  15
HETATM   15  C5  UNL     1      -0.990   1.796  -0.579  1.00  0.00     0.227 C 
HETATM   16  N1  UNL     1      -2.090   1.756   0.235  1.00  0.00    -0.346 N 
ATOM     17  H1  UNL     1      -2.144   2.359   1.056  1.00  0.00     0.163 HD
HETATM   18  O3  UNL     1      -1.039   2.443  -1.630  1.00  0.00    -0.273 OA
BRANCH  16  19
HETATM   19  C4  UNL     1      -3.179   0.848  -0.079  1.00  0.00     0.186 C 
HETATM   20  C1  UNL     1      -4.261   0.982   0.971  1.00  0.00     0.281 C 
HETATM   21  O1  UNL     1      -4.063   1.128   2.168  1.00  0.00    -0.263 OA
HETATM   22  O2  UNL     1      -5.492   0.889   0.387  1.00  0.00    -0.320 OA
HETATM   23  C2  UNL     1      -5.337   0.722  -1.023  1.00  0.00     0.181 C 
HETATM   24  C3  UNL     1      -3.930   1.156  -1.350  1.00  0.00     0.062 C 
ENDBRANCH  16  19
ENDBRANCH   1  15
TORSDOF 2
