REMARK  7 active torsions:
REMARK  status: ('A' for Active; 'I' for Inactive)
REMARK    1  A    between atoms: C3_3  and  C11_17 
REMARK    2  A    between atoms: C8_11  and  C9_12 
REMARK    3  A    between atoms: C9_12  and  C10_13 
REMARK    4  A    between atoms: C10_13  and  O2_14 
REMARK    5  A    between atoms: C12_18  and  O4_19 
REMARK    6  A    between atoms: C17_25  and  C19_27 
REMARK    7  A    between atoms: C19_27  and  O5_28 
ROOT
HETATM    1  C1  UNL     1       3.406   1.238   1.078  1.00  0.00     0.017 C 
HETATM    2  C2  UNL     1       2.233   0.846   0.177  1.00  0.00     0.041 C 
HETATM    3  C3  UNL     1       0.937   0.859   1.026  1.00  0.00     0.026 C 
HETATM    4  N1  UNL     1       0.880  -0.000   1.977  1.00  0.00    -0.331 N 
ATOM      5  H1  UNL     1       1.063   0.198   2.961  1.00  0.00     0.168 HD
HETATM    6  C4  UNL     1       0.537  -1.216   1.471  1.00  0.00     0.231 C 
HETATM    7  O1  UNL     1       0.866  -2.245   2.059  1.00  0.00    -0.272 OA
HETATM    8  C5  UNL     1      -0.199  -1.295   0.064  1.00  0.00     0.052 C 
HETATM    9  C6  UNL     1      -1.352  -2.155   0.601  1.00  0.00     0.023 C 
HETATM   10  C7  UNL     1      -2.267  -1.121   1.454  1.00  0.00     0.042 C 
HETATM   11  C8  UNL     1      -2.299   0.436   0.966  1.00  0.00     0.098 C 
HETATM   12  O3  UNL     1      -1.434   1.274   1.790  1.00  0.00    -0.363 OA
HETATM   13  C11 UNL     1      -0.472   1.534   0.694  1.00  0.00     0.206 C 
HETATM   14  C12 UNL     1      -1.464   0.840  -0.311  1.00  0.00     0.125 C 
HETATM   15  C13 UNL     1      -1.219  -0.517  -0.894  1.00  0.00     0.044 C 
HETATM   16  C14 UNL     1      -0.785  -0.717  -2.379  1.00  0.00     0.009 C 
HETATM   17  C15 UNL     1       0.467  -1.610  -2.286  1.00  0.00     0.007 C 
HETATM   18  C16 UNL     1       0.975  -1.096  -0.960  1.00  0.00     0.015 C 
HETATM   19  C17 UNL     1       2.428  -0.582  -0.608  1.00  0.00    -0.009 C 
HETATM   20  C18 UNL     1       3.258  -1.626   0.160  1.00  0.00     0.018 C 
ENDROOT
BRANCH  11  21
HETATM   21  C9  UNL     1      -3.756   0.951   1.042  1.00  0.00     0.067 C 
BRANCH  21  22
HETATM   22  C10 UNL     1      -3.877   2.468   1.158  1.00  0.00     0.167 C 
BRANCH  22  23
HETATM   23  O2  UNL     1      -3.515   2.886   2.467  1.00  0.00    -0.401 OA
ATOM     24  H2  UNL     1      -3.590   3.830   2.539  1.00  0.00     0.209 HD
ENDBRANCH  22  23
ENDBRANCH  21  22
ENDBRANCH  11  21
BRANCH  14  25
HETATM   25  O4  UNL     1      -2.073   1.714  -1.291  1.00  0.00    -0.383 OA
ATOM     26  H4  UNL     1      -1.570   1.957  -2.060  1.00  0.00     0.210 HD
ENDBRANCH  14  25
BRANCH  19  27
HETATM   27  C19 UNL     1       3.193  -0.301  -1.946  1.00  0.00     0.174 C 
BRANCH  27  28
HETATM   28  O5  UNL     1       4.492   0.231  -1.738  1.00  0.00    -0.400 OA
ATOM     29  H5  UNL     1       4.956   0.401  -2.549  1.00  0.00     0.209 HD
ENDBRANCH  27  28
ENDBRANCH  19  27
TORSDOF 7
