REMARK  5 active torsions:
REMARK  status: ('A' for Active; 'I' for Inactive)
REMARK    1  A    between atoms: C4_5  and  C5_6 
REMARK    2  A    between atoms: C5_6  and  O2_7 
REMARK    3  A    between atoms: C5_6  and  O3_9 
REMARK    4  A    between atoms: C8_13  and  O4_14 
REMARK    5  A    between atoms: C10_17  and  C11_18 
ROOT
HETATM    1  C1  UNL     1       3.946   0.969  -1.123  1.00  0.00     0.023 C 
HETATM    2  C2  UNL     1       3.064   0.211  -0.469  1.00  0.00    -0.011 C 
HETATM    3  C3  UNL     1       3.385  -1.150   0.005  1.00  0.00     0.165 C 
HETATM    4  O1  UNL     1       4.413  -1.738  -0.299  1.00  0.00    -0.292 OA
HETATM    5  C4  UNL     1       2.280  -1.673   0.879  1.00  0.00     0.120 C 
HETATM    6  C6  UNL     1       1.079  -0.684   0.651  1.00  0.00     0.019 C 
HETATM    7  C7  UNL     1       0.437  -0.370   2.045  1.00  0.00     0.039 C 
HETATM    8  C8  UNL     1      -0.982   0.289   2.186  1.00  0.00     0.129 C 
HETATM    9  C9  UNL     1      -1.429   1.415   1.205  1.00  0.00     0.073 C 
HETATM   10  C10 UNL     1      -2.292   0.996  -0.156  1.00  0.00    -0.068 C 
HETATM   11  C14 UNL     1      -1.873   1.849  -1.423  1.00  0.00     0.000 C 
HETATM   12  C15 UNL     1      -0.560   1.557  -2.240  1.00  0.00    -0.018 C 
HETATM   13  C16 UNL     1       0.851   1.210  -1.516  1.00  0.00     0.052 C 
HETATM   14  C17 UNL     1       1.079   2.597  -0.724  1.00  0.00     0.138 C 
HETATM   15  O5  UNL     1      -0.065   3.232  -0.036  1.00  0.00    -0.378 OA
HETATM   16  C18 UNL     1      -0.090   2.063   0.821  1.00  0.00     0.140 C 
HETATM   17  C19 UNL     1       1.416   1.881   0.587  1.00  0.00     0.059 C 
HETATM   18  C20 UNL     1       1.663   0.571  -0.142  1.00  0.00     0.012 C 
ENDROOT
BRANCH   5  19
HETATM   19  C5  UNL     1       1.901  -3.113   0.537  1.00  0.00     0.265 C 
BRANCH  19  20
HETATM   20  O2  UNL     1       1.670  -3.296  -0.840  1.00  0.00    -0.371 OA
ATOM     21  H2  UNL     1       1.434  -4.191  -1.053  1.00  0.00     0.212 HD
ENDBRANCH  19  20
BRANCH  19  22
HETATM   22  O3  UNL     1       2.889  -4.033   0.934  1.00  0.00    -0.371 OA
ATOM     23  H3  UNL     1       2.653  -4.928   0.721  1.00  0.00     0.212 HD
ENDBRANCH  19  22
ENDBRANCH   5  19
BRANCH   8  24
HETATM   24  O4  UNL     1      -1.016   0.837   3.519  1.00  0.00    -0.395 OA
ATOM     25  H4  UNL     1      -1.874   1.236   3.604  1.00  0.00     0.210 HD
ENDBRANCH   8  24
BRANCH  10  26
HETATM   26  C11 UNL     1      -2.517  -0.516  -0.544  1.00  0.00     0.007 C 
HETATM   27  C12 UNL     1      -3.233  -1.342   0.536  1.00  0.00     0.014 C 
HETATM   28  C13 UNL     1      -3.354  -0.674  -1.835  1.00  0.00     0.014 C 
ENDBRANCH  10  26
TORSDOF 5
