REMARK  7 active torsions:
REMARK  status: ('A' for Active; 'I' for Inactive)
REMARK    1  A    between atoms: C4_4  and  C5_5 
REMARK    2  A    between atoms: C5_5  and  C6_6 
REMARK    3  A    between atoms: C14_17  and  O4_18 
REMARK    4  A    between atoms: C16_21  and  O5_22 
REMARK    5  A    between atoms: C17_24  and  O6_25 
REMARK    6  A    between atoms: O6_25  and  C18_26 
REMARK    7  A    between atoms: C18_26  and  C20_28 
ROOT
HETATM    1  C6  UNL     1       1.381  -0.012  -0.068  1.00  0.00     0.002 C 
HETATM    2  C7  UNL     1       2.470   1.126  -0.080  1.00  0.00     0.016 C 
HETATM    3  C8  UNL     1       1.816   2.525  -0.281  1.00  0.00     0.040 C 
HETATM    4  C9  UNL     1       0.275   2.369  -0.157  1.00  0.00     0.078 C 
HETATM    5  O1  UNL     1      -0.428   3.595  -0.139  1.00  0.00    -0.347 OA
HETATM    6  C10 UNL     1      -1.754   3.453   0.423  1.00  0.00     0.292 C 
HETATM    7  O2  UNL     1      -2.389   2.230   0.070  1.00  0.00    -0.326 OA
HETATM    8  C11 UNL     1      -2.373   1.040   0.887  1.00  0.00     0.305 C 
HETATM    9  O3  UNL     1      -2.504   1.320   2.279  1.00  0.00    -0.343 OA
HETATM   10  C12 UNL     1      -1.014   1.419   2.396  1.00  0.00     0.115 C 
HETATM   11  C13 UNL     1      -0.984   2.881   2.892  1.00  0.00     0.079 C 
HETATM   12  C14 UNL     1      -1.740   3.833   1.935  1.00  0.00     0.176 C 
HETATM   13  C15 UNL     1       0.151   1.740   1.266  1.00  0.00     0.097 C 
HETATM   14  C16 UNL     1       0.433   0.277   1.165  1.00  0.00     0.114 C 
HETATM   15  C17 UNL     1      -1.158   0.075   1.240  1.00  0.00     0.174 C 
HETATM   16  C24 UNL     1      -0.176   1.475  -1.370  1.00  0.00     0.030 C 
HETATM   17  C25 UNL     1      -0.127   2.008  -2.840  1.00  0.00    -0.011 C 
HETATM   18  C26 UNL     1       0.688   3.252  -3.178  1.00  0.00     0.010 C 
HETATM   19  C27 UNL     1       0.341   0.800  -3.658  1.00  0.00     0.005 C 
HETATM   20  C28 UNL     1       1.239   0.013  -2.709  1.00  0.00     0.006 C 
HETATM   21  C29 UNL     1       0.534   0.117  -1.352  1.00  0.00     0.005 C 
ENDROOT
BRANCH  15  22
HETATM   22  O6  UNL     1      -1.440  -1.264   1.780  1.00  0.00    -0.363 OA
BRANCH  22  23
HETATM   23  C18 UNL     1      -2.719  -1.916   1.695  1.00  0.00     0.126 C 
HETATM   24  C19 UNL     1      -2.696  -2.909   2.871  1.00  0.00     0.040 C 
BRANCH  23  25
HETATM   25  C20 UNL     1      -3.023  -2.631   0.320  1.00  0.00    -0.025 C 
HETATM   26  C21 UNL     1      -1.816  -3.444  -0.180  1.00  0.00     0.017 C 
HETATM   27  C22 UNL     1      -3.370  -1.606  -0.777  1.00  0.00     0.017 C 
HETATM   28  C23 UNL     1      -4.250  -3.566   0.441  1.00  0.00     0.017 C 
ENDBRANCH  23  25
ENDBRANCH  22  23
ENDBRANCH  15  22
BRANCH  14  29
HETATM   29  O5  UNL     1       1.117  -0.228   2.362  1.00  0.00    -0.385 OA
ATOM     30  H5  UNL     1       0.548  -0.054   3.102  1.00  0.00     0.210 HD
ENDBRANCH  14  29
BRANCH   1  31
HETATM   31  C5  UNL     1       1.971  -1.456   0.013  1.00  0.00     0.040 C 
BRANCH  31  32
HETATM   32  C4  UNL     1       3.385  -1.589   0.524  1.00  0.00    -0.024 C 
HETATM   33  C2  UNL     1       4.467  -2.062  -0.140  1.00  0.00    -0.091 C 
HETATM   34  C1  UNL     1       4.471  -2.561  -1.562  1.00  0.00     0.042 C 
HETATM   35  C3  UNL     1       5.819  -2.131   0.526  1.00  0.00     0.042 C 
ENDBRANCH  31  32
ENDBRANCH   1  31
BRANCH  12  36
HETATM   36  O4  UNL     1      -1.143   5.132   2.093  1.00  0.00    -0.391 OA
ATOM     37  H4  UNL     1      -1.134   5.364   3.014  1.00  0.00     0.210 HD
ENDBRANCH  12  36
TORSDOF 7
