REMARK  7 active torsions:
REMARK  status: ('A' for Active; 'I' for Inactive)
REMARK    1  A    between atoms: C2_2  and  N1_3 
REMARK       I    between atoms: N1_3  and  C3_4 
REMARK    2  A    between atoms: N1_3  and  C5_7 
REMARK    3  A    between atoms: C5_7  and  C7_9 
REMARK    4  A    between atoms: C10_13  and  O3_14 
REMARK    5  A    between atoms: C16_21  and  O4_22 
REMARK    6  A    between atoms: C21_28  and  O5_29 
REMARK    7  A    between atoms: O5_29  and  C22_30 
ROOT
HETATM    1  C7  UNL     1       1.379  -0.806  -0.640  1.00  0.00     0.075 C 
HETATM    2  O2  UNL     1       1.869   0.481  -1.020  1.00  0.00    -0.341 OA
HETATM    3  C8  UNL     1       1.075   1.638  -0.702  1.00  0.00     0.075 C 
HETATM    4  C9  UNL     1       1.468   2.087   0.711  1.00  0.00     0.071 C 
HETATM    5  C10 UNL     1       0.678   3.302   1.160  1.00  0.00     0.130 C 
HETATM    6  C11 UNL     1      -0.650   3.417   0.396  1.00  0.00    -0.009 C 
HETATM    7  C12 UNL     1      -1.159   4.875   0.538  1.00  0.00     0.018 C 
HETATM    8  C13 UNL     1      -1.768   2.451   0.997  1.00  0.00     0.025 C 
HETATM    9  C14 UNL     1      -1.600   0.933   1.593  1.00  0.00    -0.010 C 
HETATM   10  C15 UNL     1      -1.105   1.123   3.072  1.00  0.00     0.018 C 
HETATM   11  C16 UNL     1      -3.068   0.401   1.683  1.00  0.00     0.127 C 
HETATM   12  C17 UNL     1      -2.970  -1.011   2.214  1.00  0.00     0.033 C 
HETATM   13  C18 UNL     1      -1.769  -1.596   1.492  1.00  0.00     0.012 C 
HETATM   14  C19 UNL     1      -0.806  -0.434   1.031  1.00  0.00     0.030 C 
HETATM   15  C20 UNL     1      -0.171  -0.950  -0.391  1.00  0.00    -0.014 C 
HETATM   16  C21 UNL     1      -0.914  -0.775  -1.759  1.00  0.00     0.164 C 
HETATM   17  C24 UNL     1      -0.803   0.632  -2.374  1.00  0.00     0.045 C 
HETATM   18  C25 UNL     1      -0.436   1.561  -1.229  1.00  0.00     0.033 C 
HETATM   19  C26 UNL     1      -0.395   3.096  -1.150  1.00  0.00    -0.025 C 
HETATM   20  C27 UNL     1      -1.317   3.788  -2.137  1.00  0.00     0.016 C 
HETATM   21  C28 UNL     1       1.108   2.888  -1.640  1.00  0.00     0.049 C 
ENDROOT
BRANCH   1  22
HETATM   22  C5  UNL     1       2.215  -1.625   0.410  1.00  0.00     0.140 C 
HETATM   23  C6  UNL     1       3.012  -0.847   1.454  1.00  0.00     0.039 C 
BRANCH  22  24
HETATM   24  N1  UNL     1       3.017  -2.690  -0.258  1.00  0.00    -0.342 N 
HETATM   25  C3  UNL     1       4.273  -2.403  -0.798  1.00  0.00     0.216 C 
HETATM   26  C4  UNL     1       5.027  -3.547  -1.437  1.00  0.00     0.117 C 
HETATM   27  O1  UNL     1       4.782  -1.285  -0.768  1.00  0.00    -0.274 OA
BRANCH  24  28
HETATM   28  C2  UNL     1       2.313  -3.945  -0.535  1.00  0.00     0.122 C 
HETATM   29  C1  UNL     1       2.265  -4.835   0.689  1.00  0.00     0.026 C 
ENDBRANCH  24  28
ENDBRANCH  22  24
ENDBRANCH   1  22
BRANCH  16  30
HETATM   30  O5  UNL     1      -2.270  -1.210  -1.555  1.00  0.00    -0.312 OA
BRANCH  30  31
HETATM   31  C22 UNL     1      -2.795  -2.043  -2.490  1.00  0.00     0.255 C 
HETATM   32  C23 UNL     1      -3.911  -2.855  -1.892  1.00  0.00     0.126 C 
HETATM   33  O6  UNL     1      -2.358  -2.204  -3.623  1.00  0.00    -0.266 OA
ENDBRANCH  30  31
ENDBRANCH  16  30
BRANCH   5  34
HETATM   34  O3  UNL     1       1.489   4.473   0.986  1.00  0.00    -0.395 OA
ATOM     35  H3  UNL     1       0.994   5.234   1.267  1.00  0.00     0.210 HD
ENDBRANCH   5  34
BRANCH  11  36
HETATM   36  O4  UNL     1      -3.655   0.369   0.385  1.00  0.00    -0.395 OA
ATOM     37  H4  UNL     1      -4.547   0.046   0.440  1.00  0.00     0.210 HD
ENDBRANCH  11  36
TORSDOF 7
