REMARK  8 active torsions:
REMARK  status: ('A' for Active; 'I' for Inactive)
REMARK    1  A    between atoms: C8_10  and  C10_12 
REMARK    2  A    between atoms: C10_12  and  O3_13 
REMARK    3  A    between atoms: O3_13  and  C11_14 
REMARK    4  A    between atoms: C17_22  and  C18_23 
REMARK    5  A    between atoms: C18_23  and  O4_24 
REMARK    6  A    between atoms: O4_24  and  C19_25 
REMARK    7  A    between atoms: C19_25  and  C20_27 
REMARK    8  A    between atoms: C20_27  and  N2_28 
ROOT
HETATM    1  C11 UNL     1       1.528   0.709  -1.208  1.00  0.00     0.170 C 
HETATM    2  C12 UNL     1       1.503   1.183   0.248  1.00  0.00     0.012 C 
HETATM    3  N1  UNL     1       2.381   2.043   0.673  1.00  0.00    -0.390 N 
ATOM      4  H1  UNL     1       2.230   3.020   0.924  1.00  0.00     0.159 HD
HETATM    5  C13 UNL     1       3.655   1.279   0.709  1.00  0.00     0.082 C 
HETATM    6  C14 UNL     1       3.502   0.072   1.671  1.00  0.00     0.030 C 
HETATM    7  C15 UNL     1       2.192  -0.741   1.489  1.00  0.00    -0.001 C 
HETATM    8  C16 UNL     1       1.001   0.215   1.276  1.00  0.00     0.060 C 
HETATM    9  C17 UNL     1       2.259  -1.805   0.351  1.00  0.00     0.015 C 
HETATM   10  C26 UNL     1       3.023  -1.404  -0.920  1.00  0.00     0.014 C 
HETATM   11  C27 UNL     1       2.918   0.059  -1.409  1.00  0.00     0.023 C 
HETATM   12  C28 UNL     1       4.019   0.905  -0.734  1.00  0.00     0.032 C 
ENDROOT
BRANCH   1  13
HETATM   13  O3  UNL     1       1.405   1.814  -2.095  1.00  0.00    -0.379 OA
BRANCH  13  14
HETATM   14  C10 UNL     1       0.052   2.241  -2.275  1.00  0.00     0.181 C 
BRANCH  14  15
HETATM   15  C8  UNL     1      -0.060   3.755  -2.074  1.00  0.00     0.012 C 
HETATM   16  C2  UNL     1      -1.525   4.291  -2.289  1.00  0.00     0.026 C 
HETATM   17  C1  UNL     1      -1.880   5.059  -3.547  1.00  0.00     0.014 C 
HETATM   18  C3  UNL     1      -1.351   5.141  -1.006  1.00  0.00     0.159 C 
HETATM   19  O1  UNL     1      -2.374   4.969   0.002  1.00  0.00    -0.348 OA
HETATM   20  C7  UNL     1      -0.174   4.217  -0.596  1.00  0.00     0.165 C 
HETATM   21  C4  UNL     1      -1.949   3.933   0.911  1.00  0.00     0.158 C 
HETATM   22  C5  UNL     1      -3.030   2.870   0.990  1.00  0.00     0.078 C 
HETATM   23  C6  UNL     1      -1.678   4.557   2.271  1.00  0.00     0.078 C 
HETATM   24  O2  UNL     1      -0.737   3.332   0.406  1.00  0.00    -0.347 OA
HETATM   25  C9  UNL     1       1.020   4.530  -2.840  1.00  0.00     0.020 C 
ENDBRANCH  14  15
ENDBRANCH  13  14
ENDBRANCH   1  13
BRANCH   9  26
HETATM   26  C18 UNL     1       2.809  -3.141   0.898  1.00  0.00     0.183 C 
BRANCH  26  27
HETATM   27  O4  UNL     1       1.881  -3.619   1.888  1.00  0.00    -0.320 OA
BRANCH  27  28
HETATM   28  C19 UNL     1       0.935  -4.500   1.445  1.00  0.00     0.287 C 
HETATM   29  O5  UNL     1       1.067  -5.240   0.480  1.00  0.00    -0.263 OA
BRANCH  28  30
HETATM   30  C20 UNL     1      -0.307  -4.345   2.317  1.00  0.00     0.382 C 
BRANCH  30  31
HETATM   31  N2  UNL     1      -1.585  -4.728   1.689  1.00  0.00     0.097 N 
HETATM   32  C21 UNL     1      -1.819  -4.155   0.366  1.00  0.00     0.273 C 
HETATM   33  C22 UNL     1      -3.324  -4.180   0.068  1.00  0.00     0.030 C 
HETATM   34  C23 UNL     1      -4.019  -5.425   0.639  1.00  0.00     0.003 C 
HETATM   35  C24 UNL     1      -3.030  -6.576   0.824  1.00  0.00     0.030 C 
HETATM   36  C25 UNL     1      -1.827  -6.175   1.696  1.00  0.00     0.273 C 
ENDBRANCH  30  31
ENDBRANCH  28  30
ENDBRANCH  27  28
ENDBRANCH  26  27
ENDBRANCH   9  26
TORSDOF 8
