REMARK  3 active torsions:
REMARK  status: ('A' for Active; 'I' for Inactive)
REMARK    1  A    between atoms: C3_5  and  C4_6 
REMARK    2  A    between atoms: C14_19  and  C15_20 
REMARK    3  A    between atoms: C15_20  and  N3_21 
REMARK       I    between atoms: N3_21  and  C16_23 
REMARK       I    between atoms: C16_23  and  N4_24 
ROOT
HETATM    1  N3  UNL     1       3.929   0.165  -0.868  1.00  0.00    -0.220 N 
ATOM      2  H3  UNL     1       4.782   0.447  -0.385  1.00  0.00     0.178 HD
HETATM    3  C16 UNL     1       3.315   1.036  -1.722  1.00  0.00     0.681 C 
HETATM    4  N4  UNL     1       2.107   1.437  -1.248  1.00  0.00    -0.234 N 
ATOM      5  H41 UNL     1       1.648   2.088  -1.886  1.00  0.00     0.174 HD
ATOM      6  H42 UNL     1       1.629   1.157  -0.392  1.00  0.00     0.174 HD
HETATM    7  N5  UNL     1       3.921   1.391  -2.807  1.00  0.00    -0.127 N 
ATOM      8  H5  UNL     1       4.847   1.028  -3.032  1.00  0.00     0.197 HD
HETATM    9  C17 UNL     1       3.302   2.246  -3.626  1.00  0.00     0.196 C 
HETATM   10  N6  UNL     1       2.747   2.996  -4.315  1.00  0.00    -0.171 NA
ENDROOT
BRANCH   1  11
HETATM   11  C15 UNL     1       3.375  -1.166  -0.641  1.00  0.00     0.197 C 
BRANCH  11  12
HETATM   12  C14 UNL     1       2.316  -1.253   0.394  1.00  0.00     0.051 A 
HETATM   13  C2  UNL     1       2.347  -1.546   1.740  1.00  0.00     0.031 A 
HETATM   14  C1  UNL     1       3.513  -1.812   2.615  1.00  0.00     0.070 C 
HETATM   15  N1  UNL     1       1.070  -1.575   2.247  1.00  0.00    -0.347 N 
HETATM   16  C3  UNL     1       0.264  -1.272   1.250  1.00  0.00     0.086 A 
ATOM     17  H1  UNL     1       0.799  -1.789   3.207  1.00  0.00     0.167 HD
HETATM   18  N2  UNL     1       0.990  -1.033   0.115  1.00  0.00    -0.346 N 
ATOM     19  H2  UNL     1       0.610  -0.741  -0.786  1.00  0.00     0.167 HD
BRANCH  16  20
HETATM   20  C4  UNL     1      -1.238  -1.162   1.461  1.00  0.00     0.063 C 
HETATM   21  C5  UNL     1      -1.901   0.213   1.259  1.00  0.00     0.009 C 
HETATM   22  C6  UNL     1      -1.374   1.605   0.961  1.00  0.00     0.006 C 
HETATM   23  C10 UNL     1      -2.693  -0.330   0.058  1.00  0.00    -0.001 C 
HETATM   24  C7  UNL     1      -2.604   2.505   0.705  1.00  0.00     0.000 C 
HETATM   25  C8  UNL     1      -3.586   1.923  -0.337  1.00  0.00     0.001 C 
HETATM   26  C9  UNL     1      -3.976   0.458  -0.047  1.00  0.00     0.013 C 
HETATM   27  C11 UNL     1      -1.951  -0.591  -1.282  1.00  0.00     0.179 C 
HETATM   28  C13 UNL     1      -2.303  -1.760   0.509  1.00  0.00     0.011 C 
HETATM   29  F1  UNL     1      -0.760   0.019  -1.474  1.00  0.00    -0.249 F 
HETATM   30  C12 UNL     1      -1.879  -2.085  -0.917  1.00  0.00     0.044 C 
ENDBRANCH  16  20
ENDBRANCH  11  12
ENDBRANCH   1  11
TORSDOF 3
