REMARK  10 active torsions:
REMARK  status: ('A' for Active; 'I' for Inactive)
REMARK    1  A    between atoms: N1_2  and  C3_4 
REMARK    2  A    between atoms: C3_4  and  C4_5 
REMARK    3  A    between atoms: C4_5  and  C5_6 
REMARK    4  A    between atoms: C5_6  and  N2_7 
REMARK       I    between atoms: N2_7  and  C6_8 
REMARK    5  A    between atoms: N2_7  and  C28_38 
REMARK    6  A    between atoms: C6_8  and  C7_10 
REMARK    7  A    between atoms: C7_10  and  C8_11 
REMARK       I    between atoms: C8_11  and  N3_13 
REMARK    8  A    between atoms: C20_27  and  C21_28 
REMARK       I    between atoms: C21_28  and  N4_30 
REMARK    9  A    between atoms: N4_30  and  C22_32 
REMARK   10  A    between atoms: C28_38  and  C31_41 
ROOT
HETATM    1  C7  UNL     1       1.549  -1.184   0.850  1.00  0.00     0.140 C 
HETATM    2  C14 UNL     1       2.887  -2.114   0.993  1.00  0.00     0.088 C 
HETATM    3  C15 UNL     1       2.579  -3.594   0.626  1.00  0.00     0.015 C 
HETATM    4  C16 UNL     1       1.564  -4.147   1.628  1.00  0.00     0.011 C 
HETATM    5  C17 UNL     1       1.212  -3.022   2.600  1.00  0.00     0.044 C 
HETATM    6  C18 UNL     1       2.249  -2.691   3.405  1.00  0.00     0.040 C 
HETATM    7 BR1  UNL     1       2.116  -1.829   5.045  1.00  0.00    -0.051 Br
HETATM    8  C19 UNL     1       3.343  -2.215   2.467  1.00  0.00     0.169 C 
HETATM    9  O3  UNL     1       4.495  -2.015   2.827  1.00  0.00    -0.292 OA
HETATM   10  C20 UNL     1       0.540  -1.803   1.891  1.00  0.00     0.114 C 
ENDROOT
BRANCH   1  11
HETATM   11  C6  UNL     1       1.986   0.216   1.380  1.00  0.00     0.220 C 
HETATM   12  N2  UNL     1       1.704   1.399   0.647  1.00  0.00    -0.243 NA
HETATM   13  O1  UNL     1       2.451   0.326   2.519  1.00  0.00    -0.278 OA
BRANCH  12  14
HETATM   14  C5  UNL     1       0.745   2.156   1.508  1.00  0.00     0.101 C 
BRANCH  14  15
HETATM   15  C4  UNL     1      -0.146   3.227   0.896  1.00  0.00     0.045 C 
BRANCH  15  16
HETATM   16  C3  UNL     1      -1.336   3.545   1.819  1.00  0.00     0.272 C 
BRANCH  16  17
HETATM   17  N1  UNL     1      -2.099   4.722   1.366  1.00  0.00     0.080 N 
HETATM   18  C1  UNL     1      -2.844   4.456   0.132  1.00  0.00     0.309 C 
HETATM   19  C2  UNL     1      -3.018   5.170   2.417  1.00  0.00     0.309 C 
ENDBRANCH  16  17
ENDBRANCH  15  16
ENDBRANCH  14  15
ENDBRANCH  12  14
BRANCH  12  20
HETATM   20  C28 UNL     1       2.986   2.162   0.153  1.00  0.00     0.019 C 
HETATM   21  C29 UNL     1       3.441   3.228   1.187  1.00  0.00     0.033 C 
HETATM   22  C30 UNL     1       4.195   1.164   0.093  1.00  0.00     0.033 C 
BRANCH  20  23
HETATM   23  C31 UNL     1       2.831   2.807  -1.333  1.00  0.00    -0.031 C 
HETATM   24  C32 UNL     1       1.908   4.036  -1.422  1.00  0.00     0.016 C 
HETATM   25  C33 UNL     1       2.287   1.771  -2.336  1.00  0.00     0.016 C 
HETATM   26  C34 UNL     1       4.192   3.291  -1.913  1.00  0.00     0.016 C 
ENDBRANCH  20  23
ENDBRANCH  12  20
ENDBRANCH   1  11
BRANCH   1  27
HETATM   27  C8  UNL     1       1.232  -1.198  -0.658  1.00  0.00     0.239 C 
HETATM   28  O2  UNL     1       2.159  -1.507  -1.433  1.00  0.00    -0.272 OA
HETATM   29  N3  UNL     1       0.004  -0.930  -1.236  1.00  0.00    -0.351 N 
HETATM   30  C9  UNL     1      -0.094  -1.241  -2.670  1.00  0.00     0.126 C 
HETATM   31  C13 UNL     1      -1.105  -0.152  -0.679  1.00  0.00     0.126 C 
HETATM   32  C10 UNL     1      -1.476  -1.013  -3.258  1.00  0.00     0.020 C 
HETATM   33  C11 UNL     1      -1.948   0.415  -3.027  1.00  0.00     0.003 C 
HETATM   34  C12 UNL     1      -1.583   0.942  -1.635  1.00  0.00     0.020 C 
ENDBRANCH   1  27
BRANCH  10  35
HETATM   35  C21 UNL     1      -0.928  -2.158   1.641  1.00  0.00     0.224 C 
HETATM   36  O4  UNL     1      -1.798  -1.698   2.386  1.00  0.00    -0.273 OA
HETATM   37  N4  UNL     1      -1.241  -3.062   0.658  1.00  0.00    -0.356 N 
ATOM     38  H4  UNL     1      -0.615  -3.181  -0.138  1.00  0.00     0.162 HD
BRANCH  37  39
HETATM   39  C22 UNL     1      -2.472  -3.860   0.743  1.00  0.00     0.084 C 
HETATM   40  C23 UNL     1      -3.753  -3.006   0.677  1.00  0.00     0.025 C 
HETATM   41  C24 UNL     1      -4.911  -3.745   0.016  1.00  0.00     0.002 C 
HETATM   42  C25 UNL     1      -4.571  -4.120  -1.425  1.00  0.00     0.000 C 
HETATM   43  C26 UNL     1      -3.125  -4.587  -1.604  1.00  0.00     0.002 C 
HETATM   44  C27 UNL     1      -2.466  -5.000  -0.291  1.00  0.00     0.025 C 
ENDBRANCH  37  39
ENDBRANCH  10  35
TORSDOF 10
