REMARK  4 active torsions:
REMARK  status: ('A' for Active; 'I' for Inactive)
REMARK    1  A    between atoms: C2_2  and  N1_4 
REMARK    2  A    between atoms: N1_4  and  C4_6 
REMARK    3  A    between atoms: C7_9  and  O1_10 
REMARK    4  A    between atoms: C10_14  and  C11_15 
ROOT
HETATM    1  C4  UNL     1       1.004  -0.492  -0.634  1.00  0.00     0.091 C 
HETATM    2  C5  UNL     1      -0.237   0.051  -1.597  1.00  0.00     0.017 C 
HETATM    3  C6  UNL     1      -1.174   1.524  -1.533  1.00  0.00     0.045 C 
HETATM    4  C7  UNL     1      -1.879   1.675   0.063  1.00  0.00     0.063 C 
HETATM    5  C8  UNL     1      -2.445   0.573   1.172  1.00  0.00     0.049 C 
HETATM    6  C9  UNL     1      -1.163  -0.688   1.420  1.00  0.00    -0.013 A 
HETATM    7  C10 UNL     1      -1.446  -1.549   0.216  1.00  0.00     0.101 C 
HETATM    8  C12 UNL     1      -1.288  -0.372  -0.721  1.00  0.00     0.014 C 
HETATM    9  C13 UNL     1      -0.624   1.060   0.309  1.00  0.00     0.031 C 
HETATM   10  C14 UNL     1      -0.213   0.395   1.497  1.00  0.00     0.010 A 
HETATM   11  C15 UNL     1       0.564  -0.662   0.996  1.00  0.00     0.024 A 
ENDROOT
BRANCH   1  12
HETATM   12  N1  UNL     1       2.160   0.388  -0.799  1.00  0.00    -0.389 N 
ATOM     13  H1  UNL     1       2.145   1.103  -1.526  1.00  0.00     0.159 HD
BRANCH  12  14
HETATM   14  C2  UNL     1       3.279   0.267   0.017  1.00  0.00    -0.009 C 
HETATM   15  C1  UNL     1       3.613   1.254   0.855  1.00  0.00     0.037 C 
HETATM   16  C3  UNL     1       4.106  -0.985  -0.096  1.00  0.00     0.067 C 
ENDBRANCH  12  14
ENDBRANCH   1  12
BRANCH   4  17
HETATM   17  O1  UNL     1      -1.916   3.006   0.507  1.00  0.00    -0.389 OA
ATOM     18  H1  UNL     1      -2.298   3.088   1.373  1.00  0.00     0.210 HD
ENDBRANCH   4  17
BRANCH   7  19
HETATM   19  C11 UNL     1      -2.790  -2.241   0.189  1.00  0.00     0.178 C 
HETATM   20  O2  UNL     1      -3.509  -2.504   1.137  1.00  0.00    -0.648 OA
HETATM   21  O3  UNL     1      -3.138  -2.629  -1.056  1.00  0.00    -0.648 OA
ENDBRANCH   7  19
TORSDOF 4
