REMARK  2 active torsions:
REMARK  status: ('A' for Active; 'I' for Inactive)
REMARK    1  A    between atoms: C2_2  and  C3_4 
REMARK    2  A    between atoms: C14_18  and  O1_20 
ROOT
HETATM    1  C3  UNL     1      -1.847   0.148   0.863  1.00  0.00     0.146 C 
HETATM    2  N2  UNL     1      -1.899  -1.415   0.123  1.00  0.00    -0.406 N 
ATOM      3  H2  UNL     1      -2.779  -1.925   0.053  1.00  0.00     0.154 HD
HETATM    4  C4  UNL     1      -0.511  -2.065  -0.464  1.00  0.00     0.085 C 
HETATM    5  C5  UNL     1      -0.061  -1.256  -1.685  1.00  0.00     0.053 C 
HETATM    6  C6  UNL     1       0.345   0.102  -1.132  1.00  0.00     0.116 C 
HETATM    7  N3  UNL     1       0.000   0.006   0.289  1.00  0.00    -0.393 N 
HETATM    8  C7  UNL     1       0.295  -1.017   1.416  1.00  0.00     0.086 C 
HETATM    9  C8  UNL     1       1.107  -0.211   2.388  1.00  0.00     0.032 C 
HETATM   10  C9  UNL     1       1.225   0.905   1.406  1.00  0.00     0.019 C 
HETATM   11  C10 UNL     1      -0.404   1.139   0.940  1.00  0.00     0.112 C 
HETATM   12  C11 UNL     1       2.309   0.161   0.208  1.00  0.00     0.028 C 
HETATM   13  C12 UNL     1       2.219  -1.500   0.222  1.00  0.00     0.017 C 
HETATM   14  C13 UNL     1       0.780  -2.078   0.549  1.00  0.00     0.031 C 
HETATM   15  C14 UNL     1       1.802   0.602  -1.176  1.00  0.00     0.078 C 
HETATM   16  C15 UNL     1       1.916   2.126  -1.325  1.00  0.00     0.048 C 
ENDROOT
BRANCH   1  17
HETATM   17  C2  UNL     1      -3.023   0.958   0.265  1.00  0.00     0.039 C 
HETATM   18  C1  UNL     1      -3.987   1.446   1.059  1.00  0.00     0.037 C 
HETATM   19  N1  UNL     1      -3.061   1.147  -1.106  1.00  0.00    -0.106 NA
ENDBRANCH   1  17
BRANCH  15  20
HETATM   20  O1  UNL     1       2.567   0.080  -2.259  1.00  0.00    -0.388 OA
ATOM     21  H1  UNL     1       3.465   0.388  -2.286  1.00  0.00     0.210 HD
ENDBRANCH  15  20
TORSDOF 2
