REMARK  1 active torsions:
REMARK  status: ('A' for Active; 'I' for Inactive)
REMARK       I    between atoms: N1_1  and  C1_4 
REMARK    1  A    between atoms: C1_4  and  C2_6 
ROOT
HETATM    1  C2  UNL     1      -0.937  -0.052   0.486  1.00  0.00     0.143 C 
HETATM    2  C3  UNL     1       0.173   0.341   1.145  1.00  0.00     0.132 C 
HETATM    3  N2  UNL     1       1.102  -0.598   1.479  1.00  0.00    -0.323 N 
ATOM      4  H2  UNL     1       1.169  -1.143   2.339  1.00  0.00     0.169 HD
HETATM    5  C4  UNL     1       1.876  -0.634   0.450  1.00  0.00     0.180 C 
HETATM    6  C5  UNL     1       1.572  -1.761  -0.505  1.00  0.00     0.292 C 
HETATM    7  O2  UNL     1       2.445  -2.289  -1.170  1.00  0.00    -0.264 OA
HETATM    8  N3  UNL     1       0.201  -2.086  -0.540  1.00  0.00    -0.286 N 
ATOM      9  H3  UNL     1       0.009  -2.951  -1.045  1.00  0.00     0.172 HD
HETATM   10  C6  UNL     1      -0.964  -1.476  -0.029  1.00  0.00     0.267 C 
HETATM   11  O3  UNL     1      -2.039  -2.072  -0.139  1.00  0.00    -0.267 OA
HETATM   12  N4  UNL     1       2.481   0.503  -0.007  1.00  0.00    -0.290 N 
ATOM     13  H4  UNL     1       3.323   0.462  -0.581  1.00  0.00     0.172 HD
HETATM   14  C7  UNL     1       1.906   1.711   0.339  1.00  0.00     0.327 C 
HETATM   15  O4  UNL     1       2.325   2.777  -0.094  1.00  0.00    -0.247 OA
HETATM   16  N5  UNL     1       0.702   1.608   1.035  1.00  0.00    -0.293 N 
ATOM     17  H5  UNL     1       0.240   2.423   1.439  1.00  0.00     0.172 HD
ENDROOT
BRANCH   1  18
HETATM   18  C1  UNL     1      -1.990   0.934   0.118  1.00  0.00     0.258 C 
HETATM   19  N1  UNL     1      -3.048   0.466  -0.596  1.00  0.00    -0.366 N 
ATOM     20  H12 UNL     1      -3.769   1.142  -0.848  1.00  0.00     0.159 HD
ATOM     21  H11 UNL     1      -3.101  -0.519  -0.856  1.00  0.00     0.159 HD
HETATM   22  O1  UNL     1      -1.926   2.120   0.431  1.00  0.00    -0.268 OA
ENDBRANCH   1  18
TORSDOF 1
