REMARK  7 active torsions:
REMARK  status: ('A' for Active; 'I' for Inactive)
REMARK    1  A    between atoms: N1_2  and  C2_4 
REMARK    2  A    between atoms: C8_10  and  C9_11 
REMARK    3  A    between atoms: C9_11  and  C10_12 
REMARK    4  A    between atoms: C10_12  and  C11_13 
REMARK    5  A    between atoms: C11_13  and  C12_14 
REMARK    6  A    between atoms: C12_14  and  N2_15 
REMARK    7  A    between atoms: N4_21  and  O1_23 
ROOT
HETATM    1  C9  UNL     1      -0.228  -0.163   0.435  1.00  0.00     0.016 C 
ENDROOT
BRANCH   1   2
HETATM    2  C8  UNL     1       1.136   0.538   0.308  1.00  0.00    -0.034 C 
HETATM    3  C7  UNL     1       1.466   1.521   1.536  1.00  0.00     0.015 C 
HETATM    4  C6  UNL     1       2.938   1.282   1.236  1.00  0.00    -0.008 C 
HETATM    5  C5  UNL     1       4.087   0.349   1.587  1.00  0.00     0.010 C 
HETATM    6  C17 UNL     1       2.258  -0.249   0.954  1.00  0.00     0.002 C 
HETATM    7  C4  UNL     1       3.607  -0.559   0.365  1.00  0.00    -0.007 C 
HETATM    8  C3  UNL     1       3.796  -0.139  -1.095  1.00  0.00     0.029 C 
HETATM    9  C2  UNL     1       2.460   0.046  -1.859  1.00  0.00     0.077 C 
HETATM   10  C16 UNL     1       1.443   0.969  -1.141  1.00  0.00     0.034 C 
BRANCH   9  11
HETATM   11  N1  UNL     1       1.777  -1.148  -2.385  1.00  0.00    -0.421 N 
HETATM   12  C1  UNL     1       2.036  -2.414  -1.727  1.00  0.00     0.140 C 
ATOM     13  H1  UNL     1       1.145  -1.087  -3.183  1.00  0.00     0.153 HD
ENDBRANCH   9  11
ENDBRANCH   1   2
BRANCH   1  14
HETATM   14  C10 UNL     1      -1.388   0.833   0.361  1.00  0.00     0.057 C 
BRANCH  14  15
HETATM   15  C11 UNL     1      -2.497   0.308  -0.537  1.00  0.00     0.028 C 
HETATM   16  N4  UNL     1      -2.598   0.829  -1.726  1.00  0.00    -0.276 N 
ATOM     17  H4  UNL     1      -1.983   1.561  -2.082  1.00  0.00     0.193 HD
BRANCH  15  18
HETATM   18  C12 UNL     1      -3.394  -0.787   0.012  1.00  0.00     0.183 C 
BRANCH  18  19
HETATM   19  N2  UNL     1      -4.389  -0.284   0.942  1.00  0.00    -0.346 N 
HETATM   20  C13 UNL     1      -5.178   0.822   0.791  1.00  0.00     0.109 A 
HETATM   21  C14 UNL     1      -5.978   0.848   1.909  1.00  0.00     0.106 A 
HETATM   22  N3  UNL     1      -5.703  -0.219   2.725  1.00  0.00    -0.361 N 
HETATM   23  C15 UNL     1      -4.754  -0.890   2.112  1.00  0.00     0.182 A 
ATOM     24  H3  UNL     1      -6.142  -0.444   3.618  1.00  0.00     0.166 HD
ENDBRANCH  18  19
ENDBRANCH  15  18
BRANCH  16  25
HETATM   25  O1  UNL     1      -3.648   0.268  -2.457  1.00  0.00    -0.290 OA
ATOM     26  H1  UNL     1      -3.722   0.648  -3.325  1.00  0.00     0.244 HD
ENDBRANCH  16  25
ENDBRANCH  14  15
ENDBRANCH   1  14
TORSDOF 7
