REMARK  7 active torsions:
REMARK  status: ('A' for Active; 'I' for Inactive)
REMARK    1  A    between atoms: C3_5  and  C13_15 
REMARK    2  A    between atoms: N2_18  and  C16_19 
REMARK    3  A    between atoms: C16_19  and  C17_20 
REMARK    4  A    between atoms: C23_28  and  C24_29 
REMARK    5  A    between atoms: C24_29  and  C25_30 
REMARK    6  A    between atoms: C25_30  and  C26_31 
REMARK    7  A    between atoms: C26_31  and  N4_32 
ROOT
HETATM    1  C1  UNL     1       3.623  -2.149   2.870  1.00  0.00     0.068 C 
HETATM    2  C2  UNL     1       2.486  -1.383   2.307  1.00  0.00     0.012 C 
HETATM    3  N1  UNL     1       1.174  -1.738   2.560  1.00  0.00    -0.362 N 
ATOM      4  H1  UNL     1       0.827  -2.285   3.348  1.00  0.00     0.165 HD
HETATM    5  C3  UNL     1       0.419  -1.195   1.515  1.00  0.00     0.025 C 
HETATM    6  C4  UNL     1       1.033   0.047   1.371  1.00  0.00    -0.025 C 
HETATM    7  C5  UNL     1       2.404  -0.348   1.396  1.00  0.00    -0.027 C 
HETATM    8  C6  UNL     1       3.427   0.194   0.458  1.00  0.00     0.056 C 
HETATM    9  C7  UNL     1       3.235  -0.389  -1.004  1.00  0.00    -0.001 C 
HETATM   10  C8  UNL     1       3.782   0.622  -2.056  1.00  0.00     0.021 C 
HETATM   11  C9  UNL     1       4.238  -1.577  -1.107  1.00  0.00     0.021 C 
HETATM   12  C10 UNL     1       1.697  -0.858  -1.433  1.00  0.00     0.018 C 
HETATM   13  C11 UNL     1       1.404  -2.459  -1.097  1.00  0.00     0.000 C 
HETATM   14  C12 UNL     1       0.550  -3.122   0.100  1.00  0.00     0.045 C 
HETATM   15  C13 UNL     1      -0.489  -2.137   0.676  1.00  0.00     0.012 C 
HETATM   16  C14 UNL     1      -1.776  -2.421   1.499  1.00  0.00     0.031 C 
HETATM   17  C15 UNL     1      -2.843  -1.200   1.326  1.00  0.00     0.096 C 
HETATM   18  N2  UNL     1      -2.952  -0.418   0.005  1.00  0.00    -0.284 NA
HETATM   19  C20 UNL     1      -1.614  -0.463  -0.592  1.00  0.00     0.027 C 
HETATM   20  C21 UNL     1      -1.189  -1.860  -0.638  1.00  0.00     0.070 C 
HETATM   21  C22 UNL     1      -0.858   0.118  -1.766  1.00  0.00     0.121 C 
HETATM   22  S1  UNL     1      -1.460   0.306  -3.316  1.00  0.00    -0.059 SA
HETATM   23  N3  UNL     1       0.557   0.292  -1.445  1.00  0.00    -0.335 N 
HETATM   24  C23 UNL     1       0.808   1.539  -0.666  1.00  0.00     0.095 C 
HETATM   25  C27 UNL     1       0.581   1.370   0.840  1.00  0.00     0.067 C 
ENDROOT
BRANCH  24  26
HETATM   26  C24 UNL     1       0.087   2.788  -1.241  1.00  0.00     0.028 C 
BRANCH  26  27
HETATM   27  C25 UNL     1       0.615   4.128  -0.701  1.00  0.00     0.029 C 
BRANCH  27  28
HETATM   28  C26 UNL     1      -0.310   4.754   0.343  1.00  0.00     0.230 C 
BRANCH  28  29
HETATM   29  N4  UNL     1       0.264   6.004   0.830  1.00  0.00    -0.079 N 
ATOM     30  H43 UNL     1       1.212   5.877   1.185  1.00  0.00     0.274 HD
ATOM     31  H42 UNL     1       0.476   6.650   0.070  1.00  0.00     0.274 HD
ATOM     32  H41 UNL     1      -0.353   6.422   1.527  1.00  0.00     0.274 HD
ENDBRANCH  28  29
ENDBRANCH  27  28
ENDBRANCH  26  27
ENDBRANCH  24  26
BRANCH  18  33
HETATM   33  C16 UNL     1      -4.044  -0.851  -0.866  1.00  0.00     0.100 C 
BRANCH  33  34
HETATM   34  C17 UNL     1      -5.392  -0.654  -0.217  1.00  0.00    -0.001 A 
HETATM   35  C18 UNL     1      -6.379   0.335  -0.796  1.00  0.00     0.006 A 
HETATM   36  C19 UNL     1      -5.748   0.607   0.537  1.00  0.00     0.006 A 
ENDBRANCH  33  34
ENDBRANCH  18  33
TORSDOF 7
