REMARK  2 active torsions:
REMARK  status: ('A' for Active; 'I' for Inactive)
REMARK    1  A    between atoms: C2_2  and  C3_3 
REMARK    2  A    between atoms: C12_24  and  O2_25 
ROOT
HETATM    1  C3  UNL     1      -2.212   0.076  -0.423  1.00  0.00     0.088 A 
HETATM    2  N1  UNL     1      -2.230  -0.060   0.858  1.00  0.00    -0.295 N 
ATOM      3  H1  UNL     1      -2.456   0.554   1.640  1.00  0.00     0.183 HD
HETATM    4  N2  UNL     1      -1.822  -1.365   0.745  1.00  0.00    -0.121 NA
HETATM    5  C4  UNL     1      -0.568  -1.811   1.343  1.00  0.00     0.253 C 
HETATM    6  N3  UNL     1      -0.390  -3.213   1.120  1.00  0.00    -0.203 N 
ATOM      7  H3  UNL     1      -0.255  -3.823   1.926  1.00  0.00     0.179 HD
HETATM    8  C5  UNL     1      -0.394  -3.778  -0.150  1.00  0.00     0.670 C 
HETATM    9  N4  UNL     1      -0.551  -5.049  -0.335  1.00  0.00    -0.235 N 
ATOM     10  H41 UNL     1      -0.554  -5.464  -1.267  1.00  0.00     0.174 HD
ATOM     11  H42 UNL     1      -0.646  -5.659   0.477  1.00  0.00     0.174 HD
HETATM   12  N5  UNL     1      -0.264  -2.946  -1.256  1.00  0.00    -0.203 N 
ATOM     13  H5  UNL     1       0.002  -3.375  -2.143  1.00  0.00     0.179 HD
HETATM   14  C6  UNL     1      -0.476  -1.533  -1.239  1.00  0.00     0.251 C 
HETATM   15  C7  UNL     1       0.539  -0.885  -0.575  1.00  0.00     0.089 A 
HETATM   16  C8  UNL     1       0.512  -1.092   0.889  1.00  0.00     0.078 A 
HETATM   17  C9  UNL     1       1.236  -0.168   1.804  1.00  0.00     0.260 A 
HETATM   18  O1  UNL     1       1.222  -0.376   3.015  1.00  0.00    -0.267 OA
HETATM   19  N6  UNL     1       1.921   0.905   1.204  1.00  0.00    -0.299 N 
HETATM   20  C10 UNL     1       2.582   1.875   2.068  1.00  0.00     0.161 C 
HETATM   21  C11 UNL     1       1.905   1.074  -0.192  1.00  0.00     0.183 A 
HETATM   22  C12 UNL     1       2.432   2.026  -1.032  1.00  0.00     0.200 A 
HETATM   23  N7  UNL     1       2.089   1.769  -2.320  1.00  0.00    -0.260 N 
ATOM     24  H7  UNL     1       2.356   2.321  -3.135  1.00  0.00     0.186 HD
HETATM   25  N8  UNL     1       1.344   0.670  -2.328  1.00  0.00    -0.011 NA
HETATM   26  N9  UNL     1       1.232   0.210  -1.051  1.00  0.00    -0.219 N 
HETATM   27  N10 UNL     1      -1.768  -1.192  -0.655  1.00  0.00    -0.152 NA
ENDROOT
BRANCH   1  28
HETATM   28  C2  UNL     1      -2.473   1.229  -1.304  1.00  0.00     0.068 C 
HETATM   29  C1  UNL     1      -2.828   2.466  -0.496  1.00  0.00     0.012 C 
ENDBRANCH   1  28
BRANCH  22  30
HETATM   30  O2  UNL     1       3.151   3.082  -0.631  1.00  0.00    -0.343 OA
ATOM     31  H2  UNL     1       3.515   3.740  -1.212  1.00  0.00     0.219 HD
ENDBRANCH  22  30
TORSDOF 2
