REMARK  6 active torsions:
REMARK  status: ('A' for Active; 'I' for Inactive)
REMARK    1  A    between atoms: C2_2  and  C4_4 
REMARK    2  A    between atoms: C5_5  and  C6_6 
REMARK    3  A    between atoms: C6_6  and  C7_7 
REMARK    4  A    between atoms: C15_18  and  O3_19 
REMARK    5  A    between atoms: C18_23  and  O4_24 
REMARK    6  A    between atoms: C19_26  and  O5_28 
ROOT
HETATM    1  C6  UNL     1      -1.029   0.362   0.134  1.00  0.00     0.144 C 
HETATM    2  C8  UNL     1      -0.240   0.598   1.495  1.00  0.00     0.038 C 
HETATM    3  C9  UNL     1       0.803  -0.407   2.036  1.00  0.00     0.020 C 
HETATM    4  C10 UNL     1       1.729  -0.822   0.952  1.00  0.00     0.057 C 
HETATM    5  C11 UNL     1       1.695  -2.632   0.621  1.00  0.00     0.289 C 
HETATM    6  N1  UNL     1       2.479  -2.807  -0.747  1.00  0.00     0.097 N 
HETATM    7  C12 UNL     1       3.986  -2.733  -0.816  1.00  0.00     0.273 C 
HETATM    8  C13 UNL     1       4.689  -1.233  -0.706  1.00  0.00     0.041 C 
HETATM    9  C14 UNL     1       3.874  -0.160   0.183  1.00  0.00     0.066 C 
HETATM   10  C15 UNL     1       3.083  -1.153   0.844  1.00  0.00     0.108 C 
HETATM   11  C16 UNL     1       2.218  -1.446  -0.791  1.00  0.00     0.268 C 
HETATM   12  C17 UNL     1       2.168  -0.056  -1.415  1.00  0.00     0.095 C 
HETATM   13  C18 UNL     1       0.830   0.422  -2.002  1.00  0.00     0.163 C 
HETATM   14  C19 UNL     1      -0.402   1.048  -1.199  1.00  0.00     0.109 C 
HETATM   15  C20 UNL     1      -0.176   2.572  -1.001  1.00  0.00     0.051 C 
HETATM   16  C21 UNL     1       2.437   0.421  -0.048  1.00  0.00     0.130 C 
HETATM   17  F1  UNL     1       2.245   1.710   0.237  1.00  0.00    -0.241 F 
ENDROOT
BRANCH   1  18
HETATM   18  C5  UNL     1      -2.374   1.028   0.376  1.00  0.00    -0.082 C 
HETATM   19  C4  UNL     1      -3.455   1.514   0.569  1.00  0.00    -0.101 C 
BRANCH  19  20
HETATM   20  C2  UNL     1      -4.799   2.077   0.811  1.00  0.00     0.057 C 
HETATM   21  C1  UNL     1      -5.244   1.784   2.242  1.00  0.00     0.023 C 
HETATM   22  C3  UNL     1      -5.798   1.508  -0.196  1.00  0.00     0.023 C 
ENDBRANCH  19  20
ENDBRANCH   1  18
BRANCH   1  23
HETATM   23  C7  UNL     1      -1.392  -1.124  -0.007  1.00  0.00     0.197 C 
HETATM   24  O1  UNL     1      -1.568  -1.900   0.919  1.00  0.00    -0.647 OA
HETATM   25  O2  UNL     1      -1.609  -1.553  -1.259  1.00  0.00    -0.647 OA
ENDBRANCH   1  23
BRANCH  14  26
HETATM   26  O5  UNL     1      -1.438   1.037  -2.259  1.00  0.00    -0.385 OA
ATOM     27  H5  UNL     1      -1.071   1.438  -3.038  1.00  0.00     0.210 HD
ENDBRANCH  14  26
BRANCH  13  28
HETATM   28  O4  UNL     1       0.365  -0.620  -2.877  1.00  0.00    -0.392 OA
ATOM     29  H4  UNL     1      -0.462  -0.325  -3.240  1.00  0.00     0.210 HD
ENDBRANCH  13  28
BRANCH  10  30
HETATM   30  O3  UNL     1       3.741  -2.098   1.713  1.00  0.00    -0.386 OA
ATOM     31  H3  UNL     1       4.661  -2.323   1.640  1.00  0.00     0.210 HD
ENDBRANCH  10  30
TORSDOF 6
