REMARK  4 active torsions:
REMARK  status: ('A' for Active; 'I' for Inactive)
REMARK    1  A    between atoms: N1_2  and  C2_5 
REMARK    2  A    between atoms: C16_23  and  O2_24 
REMARK    3  A    between atoms: C16_23  and  C17_26 
REMARK    4  A    between atoms: C17_26  and  N3_27 
ROOT
HETATM    1  C2  UNL     1       0.613  -1.373  -0.714  1.00  0.00     0.202 C 
HETATM    2  C3  UNL     1       1.442  -0.189  -1.344  1.00  0.00     0.056 C 
HETATM    3  C4  UNL     1       0.570   1.034  -1.240  1.00  0.00     0.033 C 
HETATM    4  C5  UNL     1       1.172   1.079   0.332  1.00  0.00     0.088 C 
HETATM    5  C6  UNL     1       0.620   2.438   0.780  1.00  0.00     0.231 C 
HETATM    6  O1  UNL     1       1.278   3.431   1.078  1.00  0.00    -0.273 OA
HETATM    7  N2  UNL     1      -0.771   2.483   0.729  1.00  0.00    -0.355 N 
ATOM      8  H2  UNL     1      -1.176   3.381   0.464  1.00  0.00     0.162 HD
HETATM    9  C7  UNL     1      -1.750   1.388   1.012  1.00  0.00     0.089 C 
HETATM   10  C8  UNL     1      -3.172   1.924   0.745  1.00  0.00     0.026 C 
HETATM   11  C9  UNL     1      -3.658   1.646  -0.668  1.00  0.00     0.002 C 
HETATM   12  C10 UNL     1      -3.760   0.147  -0.898  1.00  0.00     0.001 C 
HETATM   13  C11 UNL     1      -2.399  -0.529  -0.795  1.00  0.00     0.007 C 
HETATM   14  C12 UNL     1      -1.595  -0.138   0.473  1.00  0.00     0.020 C 
HETATM   15  C13 UNL     1      -0.166  -0.940   0.639  1.00  0.00     0.005 C 
HETATM   16  C14 UNL     1      -0.531  -2.203   1.473  1.00  0.00     0.019 C 
HETATM   17  C15 UNL     1       0.735   0.033   1.373  1.00  0.00     0.089 C 
HETATM   18 BR1  UNL     1       2.092  -0.688   2.544  1.00  0.00    -0.089 Br
HETATM   19  C16 UNL     1       2.504   0.744  -0.514  1.00  0.00     0.104 C 
ENDROOT
BRANCH  19  20
HETATM   20  O2  UNL     1       3.012   1.911  -1.252  1.00  0.00    -0.386 OA
ATOM     21  H2  UNL     1       3.627   2.452  -0.771  1.00  0.00     0.210 HD
ENDBRANCH  19  20
BRANCH  19  22
HETATM   22  C17 UNL     1       3.765  -0.039  -0.121  1.00  0.00     0.269 C 
BRANCH  22  23
HETATM   23  N3  UNL     1       4.653   0.748   0.742  1.00  0.00    -0.076 N 
ATOM     24  H33 UNL     1       4.891   1.642   0.312  1.00  0.00     0.274 HD
ATOM     25  H32 UNL     1       4.159   1.093   1.565  1.00  0.00     0.274 HD
ATOM     26  H31 UNL     1       5.491   0.228   1.003  1.00  0.00     0.274 HD
ENDBRANCH  22  23
ENDBRANCH  19  22
BRANCH   1  27
HETATM   27  N1  UNL     1       1.586  -2.458  -0.552  1.00  0.00    -0.073 N 
HETATM   28  C1  UNL     1       1.143  -3.723  -1.115  1.00  0.00     0.267 C 
ATOM     29  H12 UNL     1       1.843  -2.569   0.429  1.00  0.00     0.277 HD
ATOM     30  H11 UNL     1       2.493  -2.190  -0.935  1.00  0.00     0.277 HD
ENDBRANCH   1  27
TORSDOF 4
