REMARK  7 active torsions:
REMARK  status: ('A' for Active; 'I' for Inactive)
REMARK    1  A    between atoms: C2_2  and  O1_5 
REMARK    2  A    between atoms: O1_5  and  C5_6 
REMARK       I    between atoms: C5_6  and  N1_8 
REMARK    3  A    between atoms: N1_8  and  C6_10 
REMARK    4  A    between atoms: C8_12  and  C9_13 
REMARK    5  A    between atoms: C9_13  and  O3_14 
REMARK    6  A    between atoms: C10_16  and  O4_17 
REMARK    7  A    between atoms: C16_27  and  C17_28 
ROOT
HETATM    1  C6  UNL     1       0.137  -0.912  -0.389  1.00  0.00     0.096 C 
HETATM    2  C7  UNL     1       0.398   0.544   0.211  1.00  0.00     0.024 C 
HETATM    3  C8  UNL     1       1.384   1.429  -0.672  1.00  0.00     0.052 C 
HETATM    4  C10 UNL     1       2.588   0.473  -0.836  1.00  0.00     0.098 C 
HETATM    5  C11 UNL     1       4.048   0.657  -0.447  1.00  0.00     0.271 C 
HETATM    6  N2  UNL     1       4.447  -0.774  -0.148  1.00  0.00    -0.067 N 
ATOM      7  H21 UNL     1       5.397  -0.869   0.210  1.00  0.00     0.277 HD
ATOM      8  H22 UNL     1       4.575  -1.347  -0.982  1.00  0.00     0.277 HD
HETATM    9  C12 UNL     1       3.412  -1.285   0.771  1.00  0.00     0.198 C 
HETATM   10  C13 UNL     1       2.607  -2.545   0.376  1.00  0.00     0.041 C 
HETATM   11  C14 UNL     1       1.502  -1.684  -0.379  1.00  0.00     0.025 C 
HETATM   12  C15 UNL     1       2.227  -0.512   0.290  1.00  0.00     0.032 C 
HETATM   13  C16 UNL     1       1.363   0.214   1.325  1.00  0.00     0.016 C 
ENDROOT
BRANCH   1  14
HETATM   14  N1  UNL     1      -0.825  -1.722   0.328  1.00  0.00    -0.331 N 
HETATM   15  C5  UNL     1      -2.160  -1.447   0.430  1.00  0.00     0.361 C 
HETATM   16  O2  UNL     1      -2.934  -2.235   0.953  1.00  0.00    -0.238 OA
ATOM     17  H1  UNL     1      -0.480  -2.562   0.793  1.00  0.00     0.165 HD
BRANCH  15  18
HETATM   18  O1  UNL     1      -2.477  -0.234  -0.078  1.00  0.00    -0.294 OA
BRANCH  18  19
HETATM   19  C2  UNL     1      -3.812   0.311   0.050  1.00  0.00     0.061 C 
HETATM   20  C1  UNL     1      -4.847  -0.539  -0.694  1.00  0.00     0.046 C 
HETATM   21  C3  UNL     1      -4.179   0.511   1.524  1.00  0.00     0.046 C 
HETATM   22  C4  UNL     1      -3.732   1.688  -0.629  1.00  0.00     0.046 C 
ENDBRANCH  18  19
ENDBRANCH  15  18
ENDBRANCH   1  14
BRANCH   3  23
HETATM   23  C9  UNL     1       0.729   1.911  -1.958  1.00  0.00     0.172 C 
BRANCH  23  24
HETATM   24  O3  UNL     1       1.685   2.654  -2.709  1.00  0.00    -0.400 OA
ATOM     25  H3  UNL     1       1.276   2.955  -3.512  1.00  0.00     0.209 HD
ENDBRANCH  23  24
ENDBRANCH   3  23
BRANCH  13  26
HETATM   26  C17 UNL     1       0.805  -0.601   2.482  1.00  0.00     0.091 C 
HETATM   27 BR1  UNL     1       1.843  -0.249   4.107  1.00  0.00    -0.096 Br
ENDBRANCH  13  26
BRANCH   4  28
HETATM   28  O4  UNL     1       2.554  -0.088  -2.157  1.00  0.00    -0.387 OA
ATOM     29  H4  UNL     1       3.294  -0.675  -2.258  1.00  0.00     0.210 HD
ENDBRANCH   4  28
TORSDOF 7
