REMARK  7 active torsions:
REMARK  status: ('A' for Active; 'I' for Inactive)
REMARK    1  A    between atoms: C2_2  and  N1_3 
REMARK    2  A    between atoms: N3_14  and  C12_15 
REMARK    3  A    between atoms: C12_15  and  C13_16 
REMARK    4  A    between atoms: C13_16  and  N4_17 
REMARK    5  A    between atoms: C14_21  and  O1_22 
REMARK    6  A    between atoms: C16_25  and  C17_26 
REMARK    7  A    between atoms: C17_26  and  O2_27 
ROOT
HETATM    1  N1  UNL     1       2.702   0.612  -0.163  1.00  0.00     0.101 N 
HETATM    2  C3  UNL     1       1.608   1.156  -1.081  1.00  0.00     0.229 C 
HETATM    3  C4  UNL     1       0.778   0.304  -2.055  1.00  0.00     0.044 C 
HETATM    4  C5  UNL     1       0.023  -0.704  -1.152  1.00  0.00     0.035 C 
HETATM    5  C6  UNL     1      -1.172  -0.331  -0.277  1.00  0.00     0.234 C 
HETATM    6  C7  UNL     1      -0.645   0.910   0.392  1.00  0.00     0.033 C 
HETATM    7  C8  UNL     1      -0.578   0.694   1.909  1.00  0.00     0.026 C 
HETATM    8  C9  UNL     1      -1.863  -0.104   2.276  1.00  0.00     0.058 C 
HETATM    9  C10 UNL     1      -3.036  -0.064   1.155  1.00  0.00     0.329 C 
HETATM   10  C11 UNL     1      -3.967   1.058   1.445  1.00  0.00     0.095 C 
HETATM   11  N2  UNL     1      -4.726   1.904   1.681  1.00  0.00    -0.195 NA
HETATM   12  N3  UNL     1      -2.577  -0.026  -0.297  1.00  0.00     0.113 N 
HETATM   13  C14 UNL     1       0.917   0.057   2.298  1.00  0.00     0.157 C 
HETATM   14  C15 UNL     1       2.010  -0.246   0.996  1.00  0.00     0.263 C 
HETATM   15  C16 UNL     1       1.040  -0.866   0.045  1.00  0.00     0.026 C 
HETATM   16  C18 UNL     1       0.770   0.886   0.046  1.00  0.00     0.039 C 
ENDROOT
BRANCH  12  17
HETATM   17  C12 UNL     1      -3.396  -0.837  -1.202  1.00  0.00     0.301 C 
BRANCH  17  18
HETATM   18  C13 UNL     1      -3.385  -0.247  -2.632  1.00  0.00     0.260 C 
BRANCH  18  19
HETATM   19  N4  UNL     1      -4.262  -0.980  -3.552  1.00  0.00    -0.078 N 
ATOM     20  H43 UNL     1      -4.032  -1.974  -3.564  1.00  0.00     0.274 HD
ATOM     21  H42 UNL     1      -5.212  -1.036  -3.186  1.00  0.00     0.274 HD
ATOM     22  H41 UNL     1      -4.255  -0.591  -4.495  1.00  0.00     0.274 HD
ENDBRANCH  18  19
ENDBRANCH  17  18
ENDBRANCH  12  17
BRANCH  13  23
HETATM   23  O1  UNL     1       1.561   0.891   3.262  1.00  0.00    -0.393 OA
ATOM     24  H1  UNL     1       2.411   0.529   3.483  1.00  0.00     0.210 HD
ENDBRANCH  13  23
BRANCH  15  25
HETATM   25  C17 UNL     1       2.010  -1.926  -0.608  1.00  0.00     0.176 C 
BRANCH  25  26
HETATM   26  O2  UNL     1       2.149  -3.000   0.339  1.00  0.00    -0.400 OA
ATOM     27  H2  UNL     1       2.733  -3.638  -0.054  1.00  0.00     0.209 HD
ENDBRANCH  25  26
ENDBRANCH  15  25
BRANCH   1  28
HETATM   28  C2  UNL     1       3.621   1.643   0.327  1.00  0.00     0.269 C 
HETATM   29  C1  UNL     1       4.895   1.045   0.910  1.00  0.00     0.037 C 
ENDBRANCH   1  28
TORSDOF 7
