REMARK  5 active torsions:
REMARK  status: ('A' for Active; 'I' for Inactive)
REMARK    1  A    between atoms: C2_2  and  S1_3 
REMARK    2  A    between atoms: S1_3  and  C3_4 
REMARK    3  A    between atoms: C8_15  and  O6_16 
REMARK    4  A    between atoms: C8_15  and  C9_18 
REMARK    5  A    between atoms: C14_23  and  O7_24 
ROOT
HETATM    1  C3  UNL     1       2.615  -0.763  -0.245  1.00  0.00     0.267 C 
HETATM    2  C4  UNL     1       1.215  -0.226  -0.577  1.00  0.00     0.231 A 
HETATM    3  O1  UNL     1       0.919  -0.335  -1.992  1.00  0.00    -0.324 OA
HETATM    4  C5  UNL     1       1.798   0.304  -2.901  1.00  0.00     0.363 C 
HETATM    5  O2  UNL     1       3.126  -0.109  -2.716  1.00  0.00    -0.248 OA
HETATM    6  S2  UNL     1       3.760   0.210  -1.260  1.00  0.00     0.286 S 
HETATM    7  O3  UNL     1       3.566   1.629  -1.009  1.00  0.00    -0.197 OA
HETATM    8  O4  UNL     1       5.087  -0.363  -1.202  1.00  0.00    -0.197 OA
HETATM    9  O5  UNL     1       0.197  -0.934   0.202  1.00  0.00    -0.333 OA
HETATM   10  C6  UNL     1      -0.152   0.252   0.942  1.00  0.00     0.129 A 
HETATM   11  C7  UNL     1       0.076   0.045   2.423  1.00  0.00     0.053 C 
HETATM   12  C8  UNL     1      -1.359   1.155   0.465  1.00  0.00     0.101 C 
HETATM   13  C13 UNL     1      -0.351   1.861  -0.505  1.00  0.00     0.088 C 
HETATM   14  C14 UNL     1       0.825   1.112   0.135  1.00  0.00     0.153 A 
ENDROOT
BRANCH   1  15
HETATM   15  S1  UNL     1       2.755  -2.595  -0.528  1.00  0.00    -0.114 SA
BRANCH  15  16
HETATM   16  C2  UNL     1       2.805  -3.147   1.109  1.00  0.00     0.036 C 
HETATM   17  C1  UNL     1       1.724  -3.635   1.724  1.00  0.00     0.018 C 
ENDBRANCH  15  16
ENDBRANCH   1  15
BRANCH  14  18
HETATM   18  O7  UNL     1       1.808   1.867   0.869  1.00  0.00    -0.381 OA
ATOM     19  H7  UNL     1       1.571   2.679   1.301  1.00  0.00     0.211 HD
ENDBRANCH  14  18
BRANCH  12  20
HETATM   20  O6  UNL     1      -1.805   2.096   1.491  1.00  0.00    -0.386 OA
ATOM     21  H6  UNL     1      -2.530   2.639   1.204  1.00  0.00     0.210 HD
ENDBRANCH  12  20
BRANCH  12  22
HETATM   22  C9  UNL     1      -2.627   0.480  -0.155  1.00  0.00    -0.017 C 
HETATM   23  C10 UNL     1      -3.650   1.575  -0.529  1.00  0.00     0.018 C 
HETATM   24  C11 UNL     1      -2.343  -0.336  -1.429  1.00  0.00     0.018 C 
HETATM   25  C12 UNL     1      -3.269  -0.472   0.873  1.00  0.00     0.018 C 
ENDBRANCH  12  22
TORSDOF 5
