REMARK  3 active torsions:
REMARK  status: ('A' for Active; 'I' for Inactive)
REMARK    1  A    between atoms: C8_11  and  O2_12 
REMARK    2  A    between atoms: C10_15  and  O3_17 
REMARK    3  A    between atoms: C15_24  and  O5_25 
ROOT
HETATM    1  C1  UNL     1       5.187  -0.105   0.026  1.00  0.00     0.045 C 
HETATM    2  C2  UNL     1       3.818   0.223  -0.523  1.00  0.00    -0.059 C 
HETATM    3  C3  UNL     1       3.732  -0.035  -2.013  1.00  0.00     0.045 C 
HETATM    4  C4  UNL     1       2.750   0.660   0.197  1.00  0.00     0.065 C 
HETATM    5  S1  UNL     1       2.936   1.054   1.917  1.00  0.00    -0.044 SA
HETATM    6  S2  UNL     1       1.681   2.688   1.919  1.00  0.00    -0.076 SA
HETATM    7  C5  UNL     1       0.162   1.953   1.222  1.00  0.00     0.176 C 
HETATM    8  C6  UNL     1      -0.309   2.312  -0.200  1.00  0.00     0.224 C 
HETATM    9  O1  UNL     1      -1.764   2.366  -0.182  1.00  0.00    -0.342 OA
HETATM   10  C7  UNL     1      -2.278   1.009   0.545  1.00  0.00     0.162 C 
HETATM   11  C8  UNL     1      -3.333   0.353  -0.357  1.00  0.00     0.150 C 
HETATM   12  C9  UNL     1      -3.742  -0.994   0.239  1.00  0.00     0.071 C 
HETATM   13  C10 UNL     1      -2.608  -2.049   0.337  1.00  0.00     0.057 C 
HETATM   14  C11 UNL     1      -2.781  -2.841   1.643  1.00  0.00     0.045 C 
HETATM   15  C12 UNL     1      -1.175  -1.486   0.206  1.00  0.00     0.049 C 
HETATM   16  C13 UNL     1      -0.963  -0.142   0.902  1.00  0.00     0.072 C 
HETATM   17  C14 UNL     1       0.288   0.620   0.467  1.00  0.00     0.152 C 
HETATM   18  O4  UNL     1      -0.461   0.971  -0.674  1.00  0.00    -0.322 OA
HETATM   19  N1  UNL     1       1.480   0.753  -0.396  1.00  0.00    -0.210 NA
HETATM   20  C15 UNL     1       0.982   2.192  -1.084  1.00  0.00     0.265 C 
ENDROOT
BRANCH  20  21
HETATM   21  O5  UNL     1       1.931   3.226  -0.944  1.00  0.00    -0.375 OA
ATOM     22  H5  UNL     1       2.713   3.153  -1.479  1.00  0.00     0.211 HD
ENDBRANCH  20  21
BRANCH  11  23
HETATM   23  O2  UNL     1      -2.861   0.167  -1.688  1.00  0.00    -0.393 OA
ATOM     24  H2  UNL     1      -3.514  -0.239  -2.246  1.00  0.00     0.210 HD
ENDBRANCH  11  23
BRANCH  13  25
HETATM   25  O3  UNL     1      -2.810  -3.002  -0.719  1.00  0.00    -0.390 OA
ATOM     26  H3  UNL     1      -2.116  -3.648  -0.659  1.00  0.00     0.210 HD
ENDBRANCH  13  25
TORSDOF 3
