REMARK  2 active torsions:
REMARK  status: ('A' for Active; 'I' for Inactive)
REMARK    1  A    between atoms: N1_2  and  N2_4 
REMARK    2  A    between atoms: N8_28  and  O4_29 
ROOT
HETATM    1  N2  UNL     1      -1.990  -0.368  -0.370  1.00  0.00    -0.258 N 
HETATM    2  C3  UNL     1      -0.714  -0.492   0.124  1.00  0.00     0.217 C 
HETATM    3  C4  UNL     1      -0.098  -1.685   0.306  1.00  0.00     0.128 C 
HETATM    4  C5  UNL     1      -0.815  -2.914  -0.221  1.00  0.00     0.267 C 
HETATM    5  O1  UNL     1      -0.452  -4.031   0.136  1.00  0.00    -0.280 OA
HETATM    6  C6  UNL     1      -1.940  -2.727  -1.330  1.00  0.00     0.301 C 
HETATM    7  O2  UNL     1      -2.902  -3.483  -1.279  1.00  0.00    -0.264 OA
HETATM    8  N3  UNL     1      -1.836  -1.716  -2.292  1.00  0.00    -0.283 N 
ATOM      9  H3  UNL     1      -1.738  -1.879  -3.294  1.00  0.00     0.172 HD
HETATM   10  C7  UNL     1      -1.881  -0.540  -1.736  1.00  0.00     0.264 C 
HETATM   11  O3  UNL     1      -1.348   0.566  -2.367  1.00  0.00    -0.199 OA
HETATM   12  N4  UNL     1      -0.070   0.995  -1.756  1.00  0.00    -0.257 N 
ATOM     13  H4  UNL     1       0.530   1.691  -2.199  1.00  0.00     0.195 HD
HETATM   14  C8  UNL     1       0.250   0.433  -0.616  1.00  0.00     0.094 C 
HETATM   15  C9  UNL     1       1.590   0.497   0.001  1.00  0.00     0.125 A 
HETATM   16  C10 UNL     1       2.025  -0.630   0.610  1.00  0.00     0.178 A 
HETATM   17  N5  UNL     1       3.322  -0.361   0.992  1.00  0.00    -0.172 N 
ATOM     18  H5  UNL     1       3.904  -1.005   1.527  1.00  0.00     0.186 HD
HETATM   19  C11 UNL     1       3.740   0.884   0.565  1.00  0.00     0.680 A 
HETATM   20  N6  UNL     1       4.921   1.353   0.716  1.00  0.00    -0.234 N 
ATOM     21  H61 UNL     1       5.230   2.273   0.401  1.00  0.00     0.174 HD
ATOM     22  H62 UNL     1       5.741   0.949   1.169  1.00  0.00     0.174 HD
HETATM   23  N7  UNL     1       2.613   1.439  -0.058  1.00  0.00    -0.182 N 
HETATM   24  C12 UNL     1       2.623   2.667  -0.811  1.00  0.00     0.176 C 
HETATM   25  N8  UNL     1       1.252  -1.774   0.670  1.00  0.00    -0.203 N 
ENDROOT
BRANCH   1  26
HETATM   26  N1  UNL     1      -2.948   0.586   0.081  1.00  0.00    -0.233 NA
HETATM   27  C1  UNL     1      -3.824  -0.055   1.065  1.00  0.00     0.136 C 
HETATM   28  C2  UNL     1      -2.390   1.833   0.607  1.00  0.00     0.136 C 
ENDBRANCH   1  26
BRANCH  25  29
HETATM   29  O4  UNL     1       1.798  -2.928   1.235  1.00  0.00    -0.281 OA
ATOM     30  H4  UNL     1       2.713  -2.988   1.482  1.00  0.00     0.245 HD
ENDBRANCH  25  29
TORSDOF 2
