REMARK  3 active torsions:
REMARK  status: ('A' for Active; 'I' for Inactive)
REMARK    1  A    between atoms: C2_2  and  N1_3 
REMARK    2  A    between atoms: C9_16  and  C19_30 
REMARK    3  A    between atoms: N5_17  and  C13_21 
ROOT
HETATM    1  N1  UNL     1      -3.463   0.150   1.100  1.00  0.00    -0.355 N 
HETATM    2  C3  UNL     1      -3.847  -1.115   0.763  1.00  0.00     0.108 C 
HETATM    3  C4  UNL     1      -2.945  -1.924   0.123  1.00  0.00     0.054 C 
HETATM    4  C5  UNL     1      -2.898  -3.393  -0.010  1.00  0.00     0.129 C 
HETATM    5  N2  UNL     1      -3.778  -4.087   0.606  1.00  0.00    -0.379 N 
ATOM      6  H2  UNL     1      -4.614  -3.655   0.999  1.00  0.00     0.160 HD
HETATM    7  C6  UNL     1      -3.538  -5.520   0.724  1.00  0.00     0.147 C 
HETATM    8  N3  UNL     1      -1.739  -3.671  -0.718  1.00  0.00    -0.284 N 
ATOM      9  H3  UNL     1      -1.522  -4.561  -1.167  1.00  0.00     0.188 HD
HETATM   10  N4  UNL     1      -0.924  -2.557  -0.722  1.00  0.00    -0.297 N 
ATOM     11  H4  UNL     1       0.061  -2.531  -0.987  1.00  0.00     0.187 HD
HETATM   12  C7  UNL     1      -1.697  -1.465  -0.294  1.00  0.00     0.078 C 
HETATM   13  C8  UNL     1      -1.290  -0.187   0.071  1.00  0.00     0.048 C 
HETATM   14  C9  UNL     1      -0.014   0.335  -0.236  1.00  0.00     0.067 C 
HETATM   15  N5  UNL     1       0.586   1.265   0.603  1.00  0.00    -0.324 N 
HETATM   16  C10 UNL     1      -0.242   1.970   1.425  1.00  0.00     0.099 C 
HETATM   17  C11 UNL     1      -1.609   1.693   1.512  1.00  0.00     0.048 C 
HETATM   18  C12 UNL     1      -2.161   0.571   0.892  1.00  0.00     0.050 C 
ENDROOT
BRANCH   1  19
HETATM   19  C2  UNL     1      -4.508   1.052   1.680  1.00  0.00     0.124 C 
HETATM   20  C1  UNL     1      -4.926   2.065   0.624  1.00  0.00     0.027 C 
ENDBRANCH   1  19
BRANCH  14  21
HETATM   21  C19 UNL     1       0.507   0.158  -1.611  1.00  0.00     0.032 C 
HETATM   22  C18 UNL     1       1.808  -0.529  -1.766  1.00  0.00     0.053 C 
HETATM   23  N6  UNL     1       2.023  -1.695  -1.281  1.00  0.00    -0.328 N 
HETATM   24  C21 UNL     1       2.660   0.597  -2.283  1.00  0.00     0.162 C 
HETATM   25  C17 UNL     1       3.358  -1.970  -1.103  1.00  0.00     0.222 C 
ATOM     26  H6  UNL     1       1.279  -2.353  -1.050  1.00  0.00     0.168 HD
HETATM   27  C16 UNL     1       3.760  -1.730   0.344  1.00  0.00     0.108 C 
HETATM   28  O1  UNL     1       4.133  -2.313  -1.979  1.00  0.00    -0.273 OA
HETATM   29  C15 UNL     1       3.857  -0.249   0.759  1.00  0.00     0.050 C 
HETATM   30  C14 UNL     1       2.945   0.754   0.081  1.00  0.00    -0.030 C 
HETATM   31  C13 UNL     1       2.022   1.569   0.659  1.00  0.00     0.023 C 
HETATM   32  C22 UNL     1       3.380   1.178  -1.277  1.00  0.00    -0.043 C 
HETATM   33  C25 UNL     1       2.393   3.063   0.634  1.00  0.00     0.058 C 
HETATM   34  C24 UNL     1       3.768   3.339  -0.009  1.00  0.00     0.010 C 
HETATM   35  C23 UNL     1       3.987   2.566  -1.320  1.00  0.00     0.038 C 
HETATM   36  N7  UNL     1       1.798   1.297  -3.116  1.00  0.00    -0.384 N 
HETATM   37  C20 UNL     1       0.528   1.143  -2.545  1.00  0.00     0.099 C 
ATOM     38  H7  UNL     1       2.038   1.813  -3.963  1.00  0.00     0.160 HD
ENDBRANCH  14  21
TORSDOF 3
