REMARK  6 active torsions:
REMARK  status: ('A' for Active; 'I' for Inactive)
REMARK    1  A    between atoms: C6_6  and  O1_7 
REMARK    2  A    between atoms: C10_12  and  N1_13 
REMARK       I    between atoms: N1_13  and  C11_15 
REMARK    3  A    between atoms: C11_15  and  C12_17 
REMARK    4  A    between atoms: C19_24  and  C20_25 
REMARK    5  A    between atoms: C21_26  and  C22_27 
REMARK    6  A    between atoms: C22_27  and  N2_28 
ROOT
HETATM    1  N1  UNL     1       2.941   0.085  -1.084  1.00  0.00    -0.346 N 
ATOM      2  H1  UNL     1       3.901   0.397  -1.233  1.00  0.00     0.163 HD
HETATM    3  C11 UNL     1       1.871   0.678  -1.723  1.00  0.00     0.248 C 
HETATM    4  O2  UNL     1       1.015   0.114  -2.394  1.00  0.00    -0.268 OA
ENDROOT
BRANCH   3   5
HETATM    5  C12 UNL     1       1.672   2.076  -1.310  1.00  0.00     0.011 C 
HETATM    6  C13 UNL     1       1.615   3.125  -2.140  1.00  0.00    -0.013 C 
HETATM    7  C14 UNL     1       0.975   4.322  -1.500  1.00  0.00     0.033 C 
HETATM    8  C15 UNL     1       0.324   3.761  -0.224  1.00  0.00     0.004 C 
HETATM    9  C16 UNL     1       1.066   2.413   0.008  1.00  0.00     0.033 C 
HETATM   10  C26 UNL     1      -0.981   2.929  -0.407  1.00  0.00     0.011 C 
HETATM   11  C17 UNL     1      -0.279   1.730   0.271  1.00  0.00     0.001 C 
HETATM   12  C18 UNL     1      -0.977   2.107   1.588  1.00  0.00     0.023 C 
HETATM   13  C19 UNL     1      -1.996   2.931   0.755  1.00  0.00     0.070 C 
BRANCH  13  14
HETATM   14  C20 UNL     1      -3.205   2.204   0.386  1.00  0.00    -0.100 C 
HETATM   15  C21 UNL     1      -4.073   1.502  -0.061  1.00  0.00    -0.078 C 
BRANCH  15  16
HETATM   16  C22 UNL     1      -4.989   0.552  -0.699  1.00  0.00     0.329 C 
BRANCH  16  17
HETATM   17  N2  UNL     1      -5.124  -0.746   0.111  1.00  0.00    -0.069 N 
HETATM   18  C23 UNL     1      -5.846  -0.473   1.420  1.00  0.00     0.272 C 
HETATM   19  C24 UNL     1      -3.751  -1.354   0.394  1.00  0.00     0.272 C 
HETATM   20  C25 UNL     1      -5.944  -1.731  -0.708  1.00  0.00     0.272 C 
ENDBRANCH  16  17
ENDBRANCH  15  16
ENDBRANCH  13  14
ENDBRANCH   3   5
BRANCH   1  21
HETATM   21  C10 UNL     1       2.609  -1.041  -0.162  1.00  0.00     0.051 C 
HETATM   22  C5  UNL     1       3.217  -0.539   1.145  1.00  0.00     0.045 C 
HETATM   23  C4  UNL     1       4.731  -0.826   0.871  1.00  0.00     0.019 C 
HETATM   24  C6  UNL     1       2.536  -1.426   2.172  1.00  0.00     0.129 C 
HETATM   25  C3  UNL     1       4.735  -2.068  -0.032  1.00  0.00     0.022 C 
HETATM   26  C2  UNL     1       3.908  -2.284  -1.380  1.00  0.00    -0.078 C 
HETATM   27  C27 UNL     1       3.482  -2.573   0.447  1.00  0.00     0.029 C 
HETATM   28  C1  UNL     1       4.430  -2.519  -2.589  1.00  0.00     0.015 C 
HETATM   29  C9  UNL     1       2.267  -2.181  -1.023  1.00  0.00     0.043 C 
HETATM   30  C8  UNL     1       1.445  -2.893   0.192  1.00  0.00     0.019 C 
HETATM   31  C7  UNL     1       2.409  -2.736   1.433  1.00  0.00     0.023 C 
BRANCH  24  32
HETATM   32  O1  UNL     1       1.263  -0.909   2.525  1.00  0.00    -0.395 OA
ATOM     33  H1  UNL     1       0.837  -1.464   3.168  1.00  0.00     0.210 HD
ENDBRANCH  24  32
ENDBRANCH   1  21
TORSDOF 6
