REMARK  6 active torsions:
REMARK  status: ('A' for Active; 'I' for Inactive)
REMARK    1  A    between atoms: C2_2  and  C3_3 
REMARK    2  A    between atoms: C10_10  and  O1_11 
REMARK    3  A    between atoms: C13_15  and  O2_16 
REMARK    4  A    between atoms: C14_18  and  O3_19 
REMARK    5  A    between atoms: C18_23  and  C20_25 
REMARK    6  A    between atoms: C20_25  and  O4_26 
ROOT
HETATM    1  C3  UNL     1       0.353  -1.445   0.989  1.00  0.00    -0.007 C 
HETATM    2  C4  UNL     1      -0.697  -0.426   0.626  1.00  0.00     0.015 C 
HETATM    3  C5  UNL     1      -0.987   0.001  -1.005  1.00  0.00    -0.028 C 
HETATM    4  C6  UNL     1      -0.220  -0.224  -2.423  1.00  0.00     0.011 C 
HETATM    5  C7  UNL     1       1.219  -0.618  -2.436  1.00  0.00     0.007 C 
HETATM    6  C8  UNL     1       1.584  -0.598  -0.999  1.00  0.00     0.003 C 
HETATM    7  C9  UNL     1       0.769  -1.908  -0.354  1.00  0.00     0.023 C 
HETATM    8  C10 UNL     1      -0.526  -2.711  -1.031  1.00  0.00     0.123 C 
HETATM    9  C11 UNL     1      -2.053  -2.173  -0.952  1.00  0.00     0.040 C 
HETATM   10  C12 UNL     1      -2.310  -0.668  -1.285  1.00  0.00     0.028 C 
HETATM   11  C13 UNL     1      -3.325   0.259  -0.575  1.00  0.00     0.152 C 
HETATM   12  C14 UNL     1      -2.545   1.617  -0.223  1.00  0.00     0.154 C 
HETATM   13  C16 UNL     1      -1.161   1.489  -0.932  1.00  0.00     0.027 C 
HETATM   14  C17 UNL     1       0.205   2.007  -0.363  1.00  0.00     0.019 C 
HETATM   15  C18 UNL     1       1.581   1.060  -0.464  1.00  0.00    -0.018 C 
HETATM   16  C19 UNL     1       2.478   1.828  -1.502  1.00  0.00     0.018 C 
ENDROOT
BRANCH  15  17
HETATM   17  C20 UNL     1       2.349   1.177   0.905  1.00  0.00     0.176 C 
BRANCH  17  18
HETATM   18  O4  UNL     1       2.777   2.522   1.154  1.00  0.00    -0.395 OA
HETATM   19  C21 UNL     1       3.652   2.610   2.270  1.00  0.00     0.201 C 
ENDBRANCH  17  18
ENDBRANCH  15  17
BRANCH   1  20
HETATM   20  C2  UNL     1      -0.050  -2.493   2.041  1.00  0.00     0.000 C 
HETATM   21  C1  UNL     1       1.211  -3.075   2.695  1.00  0.00     0.005 C 
ENDBRANCH   1  20
BRANCH   8  22
HETATM   22  O1  UNL     1      -0.270  -3.143  -2.370  1.00  0.00    -0.395 OA
ATOM     23  H1  UNL     1      -1.008  -3.601  -2.756  1.00  0.00     0.210 HD
ENDBRANCH   8  22
BRANCH  12  24
HETATM   24  O3  UNL     1      -2.446   1.815   1.185  1.00  0.00    -0.388 OA
HETATM   25  C15 UNL     1      -2.676   3.163   1.568  1.00  0.00     0.202 C 
ENDBRANCH  12  24
BRANCH  11  26
HETATM   26  O2  UNL     1      -3.971  -0.356   0.527  1.00  0.00    -0.393 OA
ATOM     27  H2  UNL     1      -4.594   0.213   0.963  1.00  0.00     0.210 HD
ENDBRANCH  11  26
TORSDOF 6
