REMARK  13 active torsions:
REMARK  status: ('A' for Active; 'I' for Inactive)
REMARK    1  A    between atoms: C2_2  and  C3_3 
REMARK    2  A    between atoms: C3_3  and  C4_4 
REMARK    3  A    between atoms: C4_4  and  N1_5 
REMARK    4  A    between atoms: N1_5  and  C5_7 
REMARK    5  A    between atoms: N2_9  and  C7_11 
REMARK    6  A    between atoms: C7_11  and  C8_12 
REMARK    7  A    between atoms: C8_12  and  C9_13 
REMARK    8  A    between atoms: C9_13  and  N3_14 
REMARK       I    between atoms: N3_14  and  C10_16 
REMARK    9  A    between atoms: C10_16  and  C11_18 
REMARK   10  A    between atoms: C11_18  and  N4_19 
REMARK   11  A    between atoms: C11_18  and  C12_23 
REMARK   12  A    between atoms: C12_23  and  C13_24 
REMARK   13  A    between atoms: C13_24  and  C14_25 
ROOT
HETATM    1  C11 UNL     1       0.111  -3.115   0.674  1.00  0.00     0.274 C 
ENDROOT
BRANCH   1   2
HETATM    2  C10 UNL     1       0.370  -4.262  -0.328  1.00  0.00     0.248 C 
HETATM    3  N3  UNL     1       0.102  -4.051  -1.655  1.00  0.00    -0.359 N 
ATOM      4  H3  UNL     1       0.252  -4.854  -2.266  1.00  0.00     0.162 HD
HETATM    5  O1  UNL     1       0.803  -5.364   0.015  1.00  0.00    -0.271 OA
BRANCH   3   6
HETATM    6  C9  UNL     1      -0.366  -2.843  -2.314  1.00  0.00     0.124 C 
BRANCH   6   7
HETATM    7  C8  UNL     1      -1.882  -2.671  -2.226  1.00  0.00     0.039 C 
BRANCH   7   8
HETATM    8  C7  UNL     1      -2.303  -1.278  -2.685  1.00  0.00     0.122 C 
BRANCH   8   9
HETATM    9  N2  UNL     1      -3.744  -1.099  -2.558  1.00  0.00    -0.380 N 
HETATM   10  C5  UNL     1      -4.284  -0.688  -1.461  1.00  0.00     0.068 C 
HETATM   11  C6  UNL     1      -5.791  -0.486  -1.507  1.00  0.00     0.088 C 
ATOM     12  H2  UNL     1      -4.342  -1.304  -3.359  1.00  0.00     0.160 HD
BRANCH  10  13
HETATM   13  N1  UNL     1      -3.629  -0.478  -0.267  1.00  0.00    -0.380 N 
ATOM     14  H1  UNL     1      -3.013  -1.205   0.097  1.00  0.00     0.160 HD
BRANCH  13  15
HETATM   15  C4  UNL     1      -3.795   0.758   0.490  1.00  0.00     0.121 C 
BRANCH  15  16
HETATM   16  C3  UNL     1      -2.848   0.749   1.694  1.00  0.00     0.019 C 
BRANCH  16  17
HETATM   17  C2  UNL     1      -2.781   2.123   2.354  1.00  0.00    -0.003 C 
HETATM   18  C1  UNL     1      -1.914   2.113   3.603  1.00  0.00     0.005 C 
ENDBRANCH  16  17
ENDBRANCH  15  16
ENDBRANCH  13  15
ENDBRANCH  10  13
ENDBRANCH   8   9
ENDBRANCH   7   8
ENDBRANCH   6   7
ENDBRANCH   3   6
ENDBRANCH   1   2
BRANCH   1  19
HETATM   19  N4  UNL     1      -0.768  -3.571   1.765  1.00  0.00    -0.067 N 
ATOM     20  H43 UNL     1      -1.638  -3.968   1.410  1.00  0.00     0.275 HD
ATOM     21  H42 UNL     1      -0.399  -4.402   2.227  1.00  0.00     0.275 HD
ATOM     22  H41 UNL     1      -0.939  -2.814   2.427  1.00  0.00     0.275 HD
ENDBRANCH   1  19
BRANCH   1  23
HETATM   23  C12 UNL     1       1.431  -2.583   1.251  1.00  0.00     0.045 C 
BRANCH  23  24
HETATM   24  C13 UNL     1       1.316  -1.085   1.589  1.00  0.00     0.027 C 
BRANCH  24  25
HETATM   25  C14 UNL     1       1.948  -0.200   0.484  1.00  0.00     0.077 C 
HETATM   26  C15 UNL     1       1.104   1.118   0.303  1.00  0.00     0.034 C 
HETATM   27  C16 UNL     1       1.975   2.208  -0.297  1.00  0.00    -0.036 C 
HETATM   28  C17 UNL     1       1.909   3.753  -0.616  1.00  0.00     0.014 C 
HETATM   29  C22 UNL     1       2.670   1.672  -1.581  1.00  0.00     0.032 C 
HETATM   30  C23 UNL     1       2.755   2.811   1.016  1.00  0.00     0.014 C 
HETATM   31  C18 UNL     1       3.382   3.749   0.005  1.00  0.00    -0.012 C 
HETATM   32  C19 UNL     1       4.560   2.958  -0.642  1.00  0.00     0.027 C 
HETATM   33  C20 UNL     1       4.123   1.564  -1.195  1.00  0.00     0.035 C 
HETATM   34 BR1  UNL     1       5.191   1.237  -2.839  1.00  0.00    -0.084 Br
HETATM   35  C21 UNL     1       4.303   0.289  -0.300  1.00  0.00     0.135 C 
HETATM   36  N5  UNL     1       3.378   0.008   0.824  1.00  0.00    -0.416 N 
ATOM     37  H5  UNL     1       3.709  -0.040   1.788  1.00  0.00     0.153 HD
ENDBRANCH  24  25
ENDBRANCH  23  24
ENDBRANCH   1  23
TORSDOF 13
