REMARK  14 active torsions:
REMARK  status: ('A' for Active; 'I' for Inactive)
REMARK    1  A    between atoms: C2_2  and  C3_3 
REMARK    2  A    between atoms: C3_3  and  C4_4 
REMARK    3  A    between atoms: C4_4  and  C5_5 
REMARK    4  A    between atoms: C5_5  and  C6_6 
REMARK    5  A    between atoms: C6_6  and  C7_7 
REMARK    6  A    between atoms: C7_7  and  C8_8 
REMARK       I    between atoms: C8_8  and  N1_10 
REMARK    7  A    between atoms: N1_10  and  C9_12 
REMARK    8  A    between atoms: C10_13  and  O2_14 
REMARK    9  A    between atoms: C11_16  and  O3_17 
REMARK   10  A    between atoms: C20_30  and  C21_31 
REMARK   11  A    between atoms: C21_31  and  C22_32 
REMARK   12  A    between atoms: C22_32  and  C23_33 
REMARK   13  A    between atoms: C23_33  and  N3_34 
REMARK   14  A    between atoms: N3_34  and  C26_37 
ROOT
HETATM    1  C9  UNL     1       0.368  -2.520  -0.591  1.00  0.00     0.120 C 
HETATM    2  C10 UNL     1       1.703  -3.187  -0.988  1.00  0.00     0.170 C 
HETATM    3  C11 UNL     1       2.911  -2.241  -0.873  1.00  0.00     0.153 C 
HETATM    4  C12 UNL     1       2.986  -1.436   0.431  1.00  0.00     0.030 C 
HETATM    5  C13 UNL     1       3.408  -2.312   1.685  1.00  0.00     0.041 C 
HETATM    6  C14 UNL     1       2.668  -1.679   2.836  1.00  0.00     0.191 C 
HETATM    7  N2  UNL     1       2.863  -0.282   2.957  1.00  0.00    -0.066 N 
ATOM      8  H21 UNL     1       3.756   0.115   2.666  1.00  0.00     0.278 HD
ATOM      9  H22 UNL     1       2.958   0.121   3.889  1.00  0.00     0.278 HD
HETATM   10  C15 UNL     1       1.697   0.022   2.195  1.00  0.00     0.196 C 
HETATM   11  C16 UNL     1       0.881  -0.417   3.266  1.00  0.00     0.040 C 
HETATM   12  C17 UNL     1       1.255  -1.793   3.046  1.00  0.00     0.018 C 
HETATM   13  C18 UNL     1       0.449  -2.589   2.028  1.00  0.00     0.014 C 
HETATM   14  C19 UNL     1       0.428  -1.705   0.724  1.00  0.00     0.022 C 
HETATM   15  C20 UNL     1       1.632  -0.628   0.707  1.00  0.00    -0.000 C 
ENDROOT
BRANCH   1  16
HETATM   16  N1  UNL     1      -0.741  -3.474  -0.691  1.00  0.00    -0.353 N 
HETATM   17  C8  UNL     1      -2.029  -3.009  -0.534  1.00  0.00     0.217 C 
HETATM   18  O1  UNL     1      -2.409  -2.423   0.476  1.00  0.00    -0.274 OA
ATOM     19  H1  UNL     1      -0.563  -4.462  -0.873  1.00  0.00     0.163 HD
BRANCH  17  20
HETATM   20  C7  UNL     1      -2.882  -3.095  -1.780  1.00  0.00     0.103 C 
BRANCH  20  21
HETATM   21  C6  UNL     1      -3.204  -1.659  -2.218  1.00  0.00     0.009 C 
BRANCH  21  22
HETATM   22  C5  UNL     1      -4.423  -1.095  -1.472  1.00  0.00     0.000 C 
BRANCH  22  23
HETATM   23  C4  UNL     1      -4.390   0.431  -1.355  1.00  0.00     0.000 C 
BRANCH  23  24
HETATM   24  C3  UNL     1      -3.585   0.969  -0.161  1.00  0.00    -0.000 C 
BRANCH  24  25
HETATM   25  C2  UNL     1      -4.281   0.739   1.187  1.00  0.00    -0.005 C 
HETATM   26  C1  UNL     1      -3.475   1.299   2.350  1.00  0.00     0.005 C 
ENDBRANCH  24  25
ENDBRANCH  23  24
ENDBRANCH  22  23
ENDBRANCH  21  22
ENDBRANCH  20  21
ENDBRANCH  17  20
ENDBRANCH   1  16
BRANCH   2  27
HETATM   27  O2  UNL     1       1.940  -4.378  -0.239  1.00  0.00    -0.391 OA
ATOM     28  H2  UNL     1       2.761  -4.788  -0.483  1.00  0.00     0.210 HD
ENDBRANCH   2  27
BRANCH   3  29
HETATM   29  O3  UNL     1       4.092  -3.027  -1.053  1.00  0.00    -0.393 OA
ATOM     30  H3  UNL     1       4.838  -2.443  -0.982  1.00  0.00     0.210 HD
ENDBRANCH   3  29
BRANCH  15  31
HETATM   31  C21 UNL     1       1.312   0.504  -0.309  1.00  0.00     0.014 C 
BRANCH  31  32
HETATM   32  C22 UNL     1       2.296   1.684  -0.375  1.00  0.00     0.029 C 
BRANCH  32  33
HETATM   33  C23 UNL     1       1.810   2.759  -1.368  1.00  0.00     0.238 C 
BRANCH  33  34
HETATM   34  N3  UNL     1       1.333   4.081  -0.726  1.00  0.00    -0.062 N 
HETATM   35  C24 UNL     1       0.832   4.973  -1.876  1.00  0.00     0.273 C 
HETATM   36  C25 UNL     1       2.493   4.803  -0.038  1.00  0.00     0.273 C 
BRANCH  34  37
HETATM   37  C26 UNL     1       0.186   3.811   0.264  1.00  0.00     0.350 C 
HETATM   38 CL1  UNL     1      -0.436   5.295   0.981  1.00  0.00    -0.101 Cl
ENDBRANCH  34  37
ENDBRANCH  33  34
ENDBRANCH  32  33
ENDBRANCH  31  32
ENDBRANCH  15  31
TORSDOF 14
