REMARK  5 active torsions:
REMARK  status: ('A' for Active; 'I' for Inactive)
REMARK    1  A    between atoms: C2_2  and  C4_4 
REMARK    2  A    between atoms: C4_4  and  O1_5 
REMARK    3  A    between atoms: O1_5  and  C5_6 
REMARK    4  A    between atoms: C8_9  and  C9_10 
REMARK    5  A    between atoms: C9_10  and  O2_11 
ROOT
HETATM    1  C5  UNL     1       1.873  -0.605  -0.146  1.00  0.00     0.134 C 
HETATM    2  C6  UNL     1       1.103   0.678  -0.509  1.00  0.00     0.054 C 
HETATM    3  C7  UNL     1       0.208   1.510   0.507  1.00  0.00     0.028 C 
HETATM    4  C8  UNL     1      -1.506   1.606   0.480  1.00  0.00     0.037 C 
HETATM    5  C10 UNL     1      -1.944   1.288   1.969  1.00  0.00     0.020 C 
HETATM    6  C11 UNL     1      -1.538  -0.049   2.607  1.00  0.00     0.021 C 
HETATM    7  C12 UNL     1      -0.774  -1.010   1.707  1.00  0.00     0.118 C 
HETATM    8  N1  UNL     1      -1.359  -1.108   0.365  1.00  0.00    -0.400 N 
HETATM    9  C13 UNL     1      -2.602  -1.897   0.479  1.00  0.00     0.118 C 
HETATM   10  C14 UNL     1      -3.842  -1.027   0.686  1.00  0.00     0.026 C 
HETATM   11  C15 UNL     1      -3.945   0.265  -0.121  1.00  0.00     0.072 C 
HETATM   12  C16 UNL     1      -2.658   0.902  -0.709  1.00  0.00     0.167 C 
HETATM   13  N2  UNL     1      -2.421   0.323  -2.289  1.00  0.00     0.068 N 
HETATM   14  O3  UNL     1      -3.500   0.765  -3.071  1.00  0.00    -0.057 OA
HETATM   15  C17 UNL     1      -2.418  -1.179  -2.475  1.00  0.00     0.324 C 
HETATM   16  C18 UNL     1      -1.208  -1.954  -1.964  1.00  0.00     0.071 C 
HETATM   17  C19 UNL     1      -0.465  -1.192  -0.860  1.00  0.00     0.067 C 
HETATM   18  C20 UNL     1       0.938  -1.824  -0.463  1.00  0.00     0.042 C 
HETATM   19  C21 UNL     1       1.600  -2.701  -1.536  1.00  0.00     0.015 C 
HETATM   20  C22 UNL     1       0.133   0.212  -1.533  1.00  0.00     0.100 C 
HETATM   21  C23 UNL     1       0.144   0.198  -3.111  1.00  0.00     0.113 C 
HETATM   22  C24 UNL     1      -1.216   0.949  -2.892  1.00  0.00     0.401 C 
HETATM   23  O4  UNL     1      -0.568   1.523  -1.774  1.00  0.00    -0.338 OA
ENDROOT
BRANCH   1  24
HETATM   24  O1  UNL     1       2.291  -0.625   1.209  1.00  0.00    -0.385 OA
BRANCH  24  25
HETATM   25  C4  UNL     1       3.678  -0.863   1.431  1.00  0.00     0.172 C 
BRANCH  25  26
HETATM   26  C2  UNL     1       4.423   0.478   1.523  1.00  0.00     0.001 C 
HETATM   27  C1  UNL     1       5.330   0.688   0.312  1.00  0.00     0.011 C 
HETATM   28  C3  UNL     1       5.255   0.543   2.805  1.00  0.00     0.011 C 
ENDBRANCH  25  26
ENDBRANCH  24  25
ENDBRANCH   1  24
BRANCH   4  29
HETATM   29  C9  UNL     1      -1.816   3.161   0.330  1.00  0.00     0.180 C 
BRANCH  29  30
HETATM   30  O2  UNL     1      -1.113   3.967   1.275  1.00  0.00    -0.400 OA
ATOM     31  H2  UNL     1      -1.298   4.895   1.186  1.00  0.00     0.209 HD
ENDBRANCH  29  30
ENDBRANCH   4  29
TORSDOF 5
