REMARK  8 active torsions:
REMARK  status: ('A' for Active; 'I' for Inactive)
REMARK    1  A    between atoms: C2_2  and  O1_3 
REMARK    2  A    between atoms: C2_2  and  C3_5 
REMARK    3  A    between atoms: C3_5  and  C4_6 
REMARK    4  A    between atoms: C4_6  and  O2_7 
REMARK    5  A    between atoms: O2_7  and  C5_8 
REMARK       I    between atoms: C5_8  and  N1_10 
REMARK    6  A    between atoms: C8_13  and  N2_14 
REMARK       I    between atoms: N2_14  and  C9_16 
REMARK    7  A    between atoms: C9_16  and  O5_18 
REMARK    8  A    between atoms: O5_18  and  C10_19 
ROOT
HETATM    1  C5  UNL     1       1.580  -2.176   1.819  1.00  0.00     0.369 C 
HETATM    2  O3  UNL     1       1.493  -3.381   2.027  1.00  0.00    -0.238 OA
HETATM    3  N1  UNL     1       0.532  -1.282   1.937  1.00  0.00    -0.263 N 
HETATM    4  C6  UNL     1      -0.816  -1.824   1.708  1.00  0.00     0.145 C 
HETATM    5  C7  UNL     1      -1.408  -1.490   0.283  1.00  0.00     0.039 C 
HETATM    6  C8  UNL     1      -2.446  -2.552  -0.174  1.00  0.00     0.093 C 
HETATM    7  C11 UNL     1      -3.839  -1.928   0.041  1.00  0.00     0.026 C 
HETATM    8  C12 UNL     1      -3.596  -0.702   0.920  1.00  0.00     0.016 C 
HETATM    9  C13 UNL     1      -2.255  -0.196   0.381  1.00  0.00     0.006 C 
HETATM   10  C14 UNL     1      -2.538   1.335  -0.411  1.00  0.00     0.003 C 
HETATM   11  C15 UNL     1      -2.507   2.828   0.175  1.00  0.00     0.046 C 
HETATM   12  C16 UNL     1      -1.457   3.184   1.406  1.00  0.00     0.097 C 
HETATM   13  C17 UNL     1      -1.510   4.700   1.625  1.00  0.00     0.050 C 
HETATM   14  O6  UNL     1      -2.111   2.569   2.501  1.00  0.00    -0.229 OA
HETATM   15  O7  UNL     1      -2.034   1.145   2.263  1.00  0.00    -0.227 OA
HETATM   16  C18 UNL     1      -1.239   0.754   1.077  1.00  0.00     0.117 C 
HETATM   17  C19 UNL     1      -1.087   1.253  -0.508  1.00  0.00     0.048 C 
HETATM   18  C20 UNL     1       0.184   1.059   1.347  1.00  0.00     0.123 C 
HETATM   19  C21 UNL     1       0.774   0.044   2.304  1.00  0.00     0.235 C 
HETATM   20  O8  UNL     1       1.516   0.366   3.226  1.00  0.00    -0.272 OA
HETATM   21  C22 UNL     1       0.068   2.610   1.650  1.00  0.00     0.035 C 
HETATM   22  C23 UNL     1       1.149   3.423   0.941  1.00  0.00     0.014 C 
ENDROOT
BRANCH   1  23
HETATM   23  O2  UNL     1       2.687  -1.580   1.293  1.00  0.00    -0.304 OA
BRANCH  23  24
HETATM   24  C4  UNL     1       3.542  -2.456   0.537  1.00  0.00     0.183 C 
BRANCH  24  25
HETATM   25  C3  UNL     1       3.854  -1.784  -0.802  1.00  0.00     0.058 C 
BRANCH  25  26
HETATM   26  C2  UNL     1       4.797  -0.581  -0.654  1.00  0.00     0.116 C 
HETATM   27  C1  UNL     1       5.379  -0.133  -1.995  1.00  0.00     0.039 C 
BRANCH  26  28
HETATM   28  O1  UNL     1       4.091   0.522  -0.093  1.00  0.00    -0.396 OA
ATOM     29  H1  UNL     1       3.729   0.244   0.740  1.00  0.00     0.210 HD
ENDBRANCH  26  28
ENDBRANCH  25  26
ENDBRANCH  24  25
ENDBRANCH  23  24
ENDBRANCH   1  23
BRANCH   6  30
HETATM   30  N2  UNL     1      -2.160  -3.002  -1.533  1.00  0.00    -0.332 N 
HETATM   31  C9  UNL     1      -2.099  -2.155  -2.607  1.00  0.00     0.361 C 
HETATM   32  O4  UNL     1      -2.642  -1.062  -2.682  1.00  0.00    -0.238 OA
ATOM     33  H2  UNL     1      -1.998  -3.997  -1.690  1.00  0.00     0.165 HD
BRANCH  31  34
HETATM   34  O5  UNL     1      -1.247  -2.647  -3.530  1.00  0.00    -0.289 OA
BRANCH  34  35
HETATM   35  C10 UNL     1      -0.885  -1.706  -4.543  1.00  0.00     0.295 C 
HETATM   36 CL1  UNL     1       0.732  -2.136  -5.142  1.00  0.00    -0.101 Cl
ENDBRANCH  34  35
ENDBRANCH  31  34
ENDBRANCH   6  30
TORSDOF 8
