REMARK  12 active torsions:
REMARK  status: ('A' for Active; 'I' for Inactive)
REMARK    1  A    between atoms: O1_2  and  C2_3 
REMARK    2  A    between atoms: C4_5  and  C5_6 
REMARK    3  A    between atoms: C6_7  and  C7_8 
REMARK    4  A    between atoms: C7_8  and  O2_9 
REMARK    5  A    between atoms: C7_8  and  C13_16 
REMARK    6  A    between atoms: O2_9  and  C8_10 
REMARK    7  A    between atoms: C8_10  and  C9_11 
REMARK    8  A    between atoms: C9_11  and  C10_12 
REMARK    9  A    between atoms: C10_12  and  N1_13 
REMARK   10  A    between atoms: C14_17  and  O3_18 
REMARK   11  A    between atoms: C27_36  and  O8_37 
REMARK   12  A    between atoms: C29_39  and  O9_40 
ROOT
HETATM    1  C7  UNL     1      -0.698   0.952  -2.438  1.00  0.00     0.184 C 
ENDROOT
BRANCH   1   2
HETATM    2  C6  UNL     1       0.515   1.627  -3.040  1.00  0.00     0.011 C 
HETATM    3  C5  UNL     1       1.701   1.921  -2.467  1.00  0.00     0.010 C 
BRANCH   3   4
HETATM    4  C4  UNL     1       2.195   1.565  -1.121  1.00  0.00    -0.031 A 
HETATM    5  C3  UNL     1       2.746   2.538  -0.279  1.00  0.00     0.051 A 
HETATM    6  C2  UNL     1       3.361   2.184   0.946  1.00  0.00     0.105 A 
HETATM    7  C29 UNL     1       3.404   0.836   1.344  1.00  0.00     0.135 A 
HETATM    8  C27 UNL     1       2.807  -0.130   0.519  1.00  0.00     0.105 A 
HETATM    9  C26 UNL     1       2.256   0.237  -0.712  1.00  0.00     0.051 A 
BRANCH   6  10
HETATM   10  O1  UNL     1       4.013   3.112   1.711  1.00  0.00    -0.353 OA
HETATM   11  C1  UNL     1       3.333   4.356   1.830  1.00  0.00     0.210 C 
ENDBRANCH   6  10
BRANCH   7  12
HETATM   12  O9  UNL     1       4.091   0.357   2.430  1.00  0.00    -0.351 OA
HETATM   13  C30 UNL     1       4.037   1.112   3.631  1.00  0.00     0.210 C 
ENDBRANCH   7  12
BRANCH   8  14
HETATM   14  O8  UNL     1       2.745  -1.479   0.780  1.00  0.00    -0.353 OA
HETATM   15  C28 UNL     1       2.466  -1.826   2.136  1.00  0.00     0.210 C 
ENDBRANCH   8  14
ENDBRANCH   3   4
ENDBRANCH   1   2
BRANCH   1  16
HETATM   16  O2  UNL     1      -1.832   1.762  -2.767  1.00  0.00    -0.377 OA
BRANCH  16  17
HETATM   17  C8  UNL     1      -2.854   1.720  -1.776  1.00  0.00     0.170 C 
BRANCH  17  18
HETATM   18  C9  UNL     1      -2.611   2.801  -0.721  1.00  0.00     0.056 C 
BRANCH  18  19
HETATM   19  C10 UNL     1      -3.431   2.552   0.550  1.00  0.00     0.273 C 
BRANCH  19  20
HETATM   20  N1  UNL     1      -3.256   3.584   1.593  1.00  0.00     0.080 N 
HETATM   21  C11 UNL     1      -1.870   3.702   2.043  1.00  0.00     0.309 C 
HETATM   22  C12 UNL     1      -4.123   3.312   2.740  1.00  0.00     0.309 C 
ENDBRANCH  19  20
ENDBRANCH  18  19
ENDBRANCH  17  18
ENDBRANCH  16  17
ENDBRANCH   1  16
BRANCH   1  23
HETATM   23  C13 UNL     1      -0.870  -0.480  -2.934  1.00  0.00     0.062 C 
HETATM   24  C14 UNL     1      -1.321  -0.890  -4.159  1.00  0.00     0.192 C 
HETATM   25  O4  UNL     1      -1.338  -2.250  -4.609  1.00  0.00    -0.298 OA
HETATM   26  C15 UNL     1      -0.367  -3.142  -4.067  1.00  0.00     0.270 C 
HETATM   27  C16 UNL     1       0.772  -2.563  -3.647  1.00  0.00     0.075 C 
HETATM   28  O7  UNL     1      -0.838  -4.150  -3.132  1.00  0.00    -0.348 OA
HETATM   29  C17 UNL     1       0.373  -2.480  -2.239  1.00  0.00     0.083 C 
HETATM   30  C18 UNL     1      -0.485  -1.474  -1.894  1.00  0.00     0.068 C 
HETATM   31  C25 UNL     1       0.073  -3.924  -1.995  1.00  0.00     0.193 C 
HETATM   32  O5  UNL     1      -1.390  -1.448  -0.859  1.00  0.00    -0.350 OA
HETATM   33  C19 UNL     1      -1.060  -2.065   0.381  1.00  0.00     0.216 C 
HETATM   34  C20 UNL     1      -0.989  -3.542   0.350  1.00  0.00     0.001 A 
HETATM   35  C21 UNL     1      -1.263  -4.448   1.410  1.00  0.00     0.044 A 
HETATM   36  C24 UNL     1      -0.516  -4.310  -0.693  1.00  0.00     0.091 A 
HETATM   37  C22 UNL     1      -0.818  -5.684   0.993  1.00  0.00     0.050 A 
HETATM   38  C23 UNL     1      -0.657  -6.985   1.675  1.00  0.00     0.076 C 
HETATM   39  O6  UNL     1      -0.398  -5.614  -0.304  1.00  0.00    -0.316 OA
BRANCH  24  40
HETATM   40  O3  UNL     1      -1.731   0.043  -5.095  1.00  0.00    -0.340 OA
ATOM     41  H3  UNL     1      -2.044  -0.242  -5.946  1.00  0.00     0.220 HD
ENDBRANCH  24  40
ENDBRANCH   1  23
TORSDOF 12
