REMARK  4 active torsions:
REMARK  status: ('A' for Active; 'I' for Inactive)
REMARK    1  A    between atoms: C2_2  and  C3_3 
REMARK    2  A    between atoms: C13_14  and  O1_15 
REMARK    3  A    between atoms: C13_14  and  C14_17 
REMARK    4  A    between atoms: C14_17  and  O2_18 
ROOT
HETATM    1  C3  UNL     1       0.540  -0.727   0.358  1.00  0.00     0.056 C 
HETATM    2  C4  UNL     1       0.920  -1.336  -0.930  1.00  0.00     0.021 C 
HETATM    3  C5  UNL     1      -0.403  -1.514  -1.723  1.00  0.00     0.017 C 
HETATM    4  C6  UNL     1      -1.462  -0.456  -1.264  1.00  0.00     0.041 C 
HETATM    5  C7  UNL     1      -0.693   0.824  -1.395  1.00  0.00     0.126 C 
HETATM    6  N1  UNL     1       0.328   0.630  -0.379  1.00  0.00    -0.391 N 
HETATM    7  C8  UNL     1       1.589   1.202  -0.489  1.00  0.00     0.025 C 
HETATM    8  C9  UNL     1       1.806   2.445  -1.343  1.00  0.00     0.038 C 
HETATM    9  C10 UNL     1       1.354   1.611   1.072  1.00  0.00     0.031 C 
HETATM   10  C11 UNL     1      -0.098   1.022   1.833  1.00  0.00     0.013 C 
HETATM   11  C12 UNL     1      -0.642  -0.414   1.207  1.00  0.00     0.055 C 
HETATM   12  C13 UNL     1      -1.883  -0.548   0.260  1.00  0.00     0.090 C 
HETATM   13  C15 UNL     1       2.009  -0.149  -1.264  1.00  0.00     0.038 C 
ENDROOT
BRANCH  12  14
HETATM   14  O1  UNL     1      -2.474  -1.861   0.447  1.00  0.00    -0.387 OA
ATOM     15  H1  UNL     1      -2.727  -1.916   1.361  1.00  0.00     0.210 HD
ENDBRANCH  12  14
BRANCH  12  16
HETATM   16  C14 UNL     1      -2.998   0.444   0.639  1.00  0.00     0.202 C 
BRANCH  16  17
HETATM   17  O2  UNL     1      -4.168   0.174  -0.138  1.00  0.00    -0.398 OA
ATOM     18  H2  UNL     1      -4.856   0.786   0.096  1.00  0.00     0.209 HD
ENDBRANCH  16  17
ENDBRANCH  12  16
BRANCH   1  19
HETATM   19  C2  UNL     1       1.684  -1.157   1.318  1.00  0.00    -0.006 C 
HETATM   20  C1  UNL     1       1.617  -2.182   2.184  1.00  0.00     0.009 C 
ENDBRANCH   1  19
TORSDOF 4
