REMARK  3 active torsions:
REMARK  status: ('A' for Active; 'I' for Inactive)
REMARK    1  A    between atoms: O1_1  and  C1_3 
REMARK    2  A    between atoms: C1_3  and  C2_4 
REMARK    3  A    between atoms: C2_4  and  N1_5 
ROOT
HETATM    1  N1  UNL     1       0.564  -1.222  -0.243  1.00  0.00     0.101 N 
HETATM    2  C3  UNL     1       0.890  -2.632   0.027  1.00  0.00     0.273 C 
HETATM    3  C4  UNL     1       0.130  -3.347  -1.054  1.00  0.00     0.033 C 
HETATM    4  C5  UNL     1      -1.194  -2.623  -1.034  1.00  0.00     0.044 C 
HETATM    5  C6  UNL     1      -0.900  -1.159  -0.499  1.00  0.00     0.164 C 
HETATM    6  C7  UNL     1      -1.328  -0.154  -1.659  1.00  0.00     0.051 C 
HETATM    7  C8  UNL     1      -2.568   0.597  -1.083  1.00  0.00    -0.037 C 
HETATM    8  C9  UNL     1      -3.483   1.707  -0.308  1.00  0.00     0.014 C 
HETATM    9  C10 UNL     1      -2.318   1.717   0.746  1.00  0.00    -0.013 C 
HETATM   10  C11 UNL     1      -1.956   0.418   1.530  1.00  0.00     0.012 C 
HETATM   11  C12 UNL     1      -1.964  -0.869   0.634  1.00  0.00     0.025 C 
HETATM   12  C13 UNL     1      -3.164  -0.621  -0.267  1.00  0.00     0.016 C 
HETATM   13  C14 UNL     1      -1.501   1.792  -0.526  1.00  0.00     0.014 C 
ENDROOT
BRANCH   1  14
HETATM   14  C2  UNL     1       1.156  -0.355   0.789  1.00  0.00     0.311 C 
BRANCH  14  15
HETATM   15  C1  UNL     1       2.652   0.039   0.546  1.00  0.00     0.084 C 
HETATM   16  C15 UNL     1       2.886   0.807  -0.764  1.00  0.00     0.039 C 
HETATM   17  C16 UNL     1       2.651   2.282  -0.440  1.00  0.00     0.003 C 
HETATM   18  C17 UNL     1       2.666   2.400   1.082  1.00  0.00     0.003 C 
HETATM   19  C18 UNL     1       3.146   1.047   1.591  1.00  0.00     0.039 C 
BRANCH  15  20
HETATM   20  O1  UNL     1       3.502  -1.102   0.604  1.00  0.00    -0.388 OA
ATOM     21  H1  UNL     1       4.410  -0.863   0.457  1.00  0.00     0.210 HD
ENDBRANCH  15  20
ENDBRANCH  14  15
ENDBRANCH   1  14
TORSDOF 3
