REMARK  2 active torsions:
REMARK  status: ('A' for Active; 'I' for Inactive)
REMARK    1  A    between atoms: C7_7  and  C8_8 
REMARK    2  A    between atoms: C9_9  and  C10_10 
ROOT
HETATM    1  C1  UNL     1       4.375  -2.037   0.456  1.00  0.00     0.016 C 
HETATM    2  C2  UNL     1       3.026  -2.026  -0.266  1.00  0.00     0.031 C 
HETATM    3  C3  UNL     1       1.858  -2.095   0.773  1.00  0.00     0.010 C 
HETATM    4  C4  UNL     1       1.749  -0.862   1.700  1.00  0.00     0.001 C 
HETATM    5  C5  UNL     1       0.467  -0.024   1.488  1.00  0.00     0.006 C 
HETATM    6  C6  UNL     1       0.733   1.493   1.427  1.00  0.00     0.057 C 
HETATM    7  C7  UNL     1       0.035   2.199   0.253  1.00  0.00     0.009 C 
HETATM    8  N1  UNL     1       0.341   2.223  -1.016  1.00  0.00    -0.357 N 
ATOM      9  H1  UNL     1      -0.121   2.869  -1.656  1.00  0.00     0.166 HD
HETATM   10  C15 UNL     1       1.301   1.355  -1.460  1.00  0.00     0.076 C 
HETATM   11  C16 UNL     1       0.921   0.264  -2.159  1.00  0.00     0.035 C 
HETATM   12  C17 UNL     1       1.680  -0.934  -1.954  1.00  0.00     0.028 C 
HETATM   13  C18 UNL     1       2.761  -0.814  -1.147  1.00  0.00     0.014 C 
HETATM   14  N2  UNL     1       3.443   0.324  -0.835  1.00  0.00    -0.344 N 
ATOM     15  H2  UNL     1       4.377   0.318  -0.426  1.00  0.00     0.167 HD
HETATM   16  C19 UNL     1       2.775   1.451  -1.115  1.00  0.00     0.126 C 
HETATM   17  N3  UNL     1       3.479   2.537  -1.073  1.00  0.00    -0.384 N 
ATOM     18  H31 UNL     1       4.470   2.602  -0.841  1.00  0.00     0.157 HD
ATOM     19  H32 UNL     1       2.970   3.395  -1.286  1.00  0.00     0.157 HD
ENDROOT
BRANCH   7  20
HETATM   20  C8  UNL     1      -1.209   2.950   0.585  1.00  0.00     0.023 C 
HETATM   21  C9  UNL     1      -2.420   2.485   0.231  1.00  0.00     0.007 C 
BRANCH  21  22
HETATM   22  C10 UNL     1      -2.739   1.103  -0.289  1.00  0.00     0.154 C 
HETATM   23  C11 UNL     1      -3.505   0.376   0.825  1.00  0.00     0.037 C 
HETATM   24  C12 UNL     1      -4.145  -0.918   0.336  1.00  0.00     0.013 C 
HETATM   25  C13 UNL     1      -3.944  -1.142  -1.149  1.00  0.00     0.111 C 
HETATM   26  C14 UNL     1      -4.231   0.139  -1.900  1.00  0.00     0.259 C 
HETATM   27  O1  UNL     1      -5.000   0.186  -2.842  1.00  0.00    -0.265 OA
HETATM   28  O2  UNL     1      -3.579   1.243  -1.444  1.00  0.00    -0.312 OA
ENDBRANCH  21  22
ENDBRANCH   7  20
TORSDOF 2
