REMARK  2 active torsions:
REMARK  status: ('A' for Active; 'I' for Inactive)
REMARK    1  A    between atoms: C2_2  and  N1_4 
REMARK    2  A    between atoms: N1_4  and  C4_7 
ROOT
HETATM    1  C4  UNL     1       0.028  -0.177   0.538  1.00  0.00     0.136 C 
HETATM    2  C5  UNL     1       0.622  -1.478   1.179  1.00  0.00     0.044 C 
HETATM    3  C6  UNL     1       0.967  -2.000  -0.226  1.00  0.00    -0.005 C 
HETATM    4  C7  UNL     1       2.429  -1.817  -0.646  1.00  0.00     0.010 C 
HETATM    5  C8  UNL     1       2.156  -0.316  -0.916  1.00  0.00    -0.002 C 
HETATM    6  C9  UNL     1       2.748   0.659   0.098  1.00  0.00     0.084 C 
HETATM    7  C10 UNL     1       1.712   1.697   0.485  1.00  0.00     0.246 C 
HETATM    8  F1  UNL     1       1.339   2.390  -0.624  1.00  0.00    -0.206 F 
HETATM    9  F2  UNL     1       2.292   2.604   1.317  1.00  0.00    -0.206 F 
HETATM   10  C11 UNL     1       0.471   1.135   1.167  1.00  0.00     0.118 C 
HETATM   11  C12 UNL     1       0.641  -0.622  -0.809  1.00  0.00     0.030 C 
ENDROOT
BRANCH   1  12
HETATM   12  N1  UNL     1      -1.433  -0.397   0.519  1.00  0.00    -0.062 N 
ATOM     13  H12 UNL     1      -1.814  -0.344   1.464  1.00  0.00     0.278 HD
ATOM     14  H11 UNL     1      -1.645  -1.371   0.301  1.00  0.00     0.278 HD
BRANCH  12  15
HETATM   15  C2  UNL     1      -2.166   0.504  -0.383  1.00  0.00     0.178 C 
HETATM   16  C1  UNL     1      -2.957  -0.352  -1.373  1.00  0.00     0.039 C 
HETATM   17  C3  UNL     1      -3.129   1.394   0.408  1.00  0.00     0.039 C 
ENDBRANCH  12  15
ENDBRANCH   1  12
TORSDOF 2
