REMARK  3 active torsions:
REMARK  status: ('A' for Active; 'I' for Inactive)
REMARK    1  A    between atoms: N2_4  and  N3_6 
REMARK    2  A    between atoms: C1_8  and  C2_9 
REMARK    3  A    between atoms: C12_23  and  C13_24 
ROOT
HETATM    1  C2  UNL     1       0.066   0.946  -1.337  1.00  0.00     0.105 C 
HETATM    2  C3  UNL     1      -1.286   0.267  -1.495  1.00  0.00     0.144 C 
HETATM    3  O1  UNL     1      -1.651  -0.070  -2.639  1.00  0.00    -0.297 OA
HETATM    4  C4  UNL     1      -2.149  -0.024  -0.247  1.00  0.00     0.112 C 
HETATM    5  C5  UNL     1      -3.102  -1.244  -0.320  1.00  0.00     0.247 C 
HETATM    6  N4  UNL     1      -2.140  -2.019   0.488  1.00  0.00    -0.069 N 
ATOM      7  H41 UNL     1      -1.528  -2.703   0.044  1.00  0.00     0.277 HD
ATOM      8  H42 UNL     1      -2.469  -2.740   1.130  1.00  0.00     0.277 HD
HETATM    9  C6  UNL     1      -1.585  -0.743   1.013  1.00  0.00     0.199 C 
HETATM   10  C7  UNL     1      -0.152  -0.884   1.496  1.00  0.00     0.039 C 
HETATM   11  C8  UNL     1       0.714  -1.183   0.289  1.00  0.00     0.003 C 
HETATM   12  C9  UNL     1       2.296  -1.173   0.589  1.00  0.00     0.001 C 
HETATM   13  C10 UNL     1       3.128  -1.181  -0.666  1.00  0.00     0.001 A 
HETATM   14  C11 UNL     1       3.194   0.293  -0.671  1.00  0.00     0.001 A 
HETATM   15  C12 UNL     1       2.285  -0.379  -1.612  1.00  0.00     0.006 A 
HETATM   16  C13 UNL     1       1.083  -0.004  -0.760  1.00  0.00    -0.013 C 
HETATM   17  C14 UNL     1       2.176   0.385   0.339  1.00  0.00     0.006 C 
ENDROOT
BRANCH   1  18
HETATM   18  C1  UNL     1       0.031   2.273  -0.648  1.00  0.00     0.094 C 
HETATM   19  N3  UNL     1      -1.046   2.771  -0.147  1.00  0.00    -0.301 N 
ATOM     20  H3  UNL     1      -1.691   3.284  -0.748  1.00  0.00     0.187 HD
BRANCH  19  21
HETATM   21  N2  UNL     1      -1.346   2.614   1.234  1.00  0.00    -0.250 N 
HETATM   22  N1  UNL     1      -0.402   2.622   2.054  1.00  0.00    -0.331 N 
ATOM     23  H12 UNL     1       0.556   2.740   1.723  1.00  0.00     0.178 HD
ATOM     24  H11 UNL     1      -0.617   2.509   3.045  1.00  0.00     0.178 HD
ATOM     25  H2  UNL     1      -2.309   2.498   1.549  1.00  0.00     0.207 HD
ENDBRANCH  19  21
ENDBRANCH   1  18
TORSDOF 3
