REMARK  5 active torsions:
REMARK  status: ('A' for Active; 'I' for Inactive)
REMARK    1  A    between atoms: O1_2  and  C2_3 
REMARK    2  A    between atoms: C10_13  and  C26_31 
REMARK    3  A    between atoms: C14_17  and  C15_18 
REMARK    4  A    between atoms: C16_19  and  O2_20 
REMARK    5  A    between atoms: C17_22  and  C18_23 
ROOT
HETATM    1  C15 UNL     1      -1.339  -1.409  -1.160  1.00  0.00     0.011 A 
HETATM    2  C16 UNL     1      -1.408  -0.213  -1.775  1.00  0.00     0.086 A 
HETATM    3  C17 UNL     1      -2.171   0.778  -0.983  1.00  0.00     0.017 A 
HETATM    4  C24 UNL     1      -2.679   0.140   0.100  1.00  0.00    -0.015 A 
HETATM    5  C25 UNL     1      -2.149  -1.224   0.089  1.00  0.00    -0.003 A 
HETATM    6  C26 UNL     1      -2.276  -2.063   1.149  1.00  0.00     0.033 C 
HETATM    7  C27 UNL     1      -3.111  -1.624   2.300  1.00  0.00     0.249 C 
HETATM    8  O3  UNL     1      -3.174  -2.243   3.356  1.00  0.00    -0.268 OA
HETATM    9  N2  UNL     1      -3.879  -0.498   2.106  1.00  0.00    -0.353 N 
ATOM     10  H2  UNL     1      -4.813  -0.449   2.513  1.00  0.00     0.163 HD
HETATM   11  C28 UNL     1      -3.375   0.622   1.328  1.00  0.00     0.163 C 
ENDROOT
BRANCH   3  12
HETATM   12  C18 UNL     1      -2.116   2.246  -1.124  1.00  0.00    -0.023 A 
HETATM   13  C19 UNL     1      -3.252   3.045  -0.943  1.00  0.00     0.012 A 
HETATM   14  C20 UNL     1      -3.148   4.441  -0.941  1.00  0.00     0.001 A 
HETATM   15  C21 UNL     1      -1.914   5.053  -1.160  1.00  0.00     0.000 A 
HETATM   16  C22 UNL     1      -0.784   4.271  -1.396  1.00  0.00     0.001 A 
HETATM   17  C23 UNL     1      -0.881   2.878  -1.367  1.00  0.00     0.012 A 
ENDBRANCH   3  12
BRANCH   2  18
HETATM   18  O2  UNL     1      -0.827   0.113  -2.967  1.00  0.00    -0.359 OA
ATOM     19  H2  UNL     1      -0.876   0.957  -3.401  1.00  0.00     0.217 HD
ENDBRANCH   2  18
BRANCH   1  20
HETATM   20  C14 UNL     1      -0.444  -2.552  -1.568  1.00  0.00     0.134 C 
HETATM   21  C13 UNL     1      -0.526  -3.615  -0.722  1.00  0.00     0.065 C 
HETATM   22  C9  UNL     1      -0.312  -3.340   0.577  1.00  0.00    -0.057 C 
HETATM   23  C12 UNL     1      -1.566  -4.464  -0.803  1.00  0.00    -0.018 C 
HETATM   24  C8  UNL     1       0.748  -2.431   1.062  1.00  0.00     0.021 C 
HETATM   25  C10 UNL     1      -1.575  -3.399   1.071  1.00  0.00     0.077 C 
HETATM   26  C7  UNL     1       1.639  -1.767   0.301  1.00  0.00     0.021 A 
HETATM   27  C6  UNL     1       1.760  -1.807  -1.091  1.00  0.00     0.115 A 
HETATM   28  C30 UNL     1       2.622  -0.845   0.843  1.00  0.00     0.007 A 
HETATM   29  N1  UNL     1       2.881  -1.055  -1.371  1.00  0.00    -0.341 N 
HETATM   30  N3  UNL     1       0.894  -2.171  -1.954  1.00  0.00    -0.361 N 
HETATM   31  C5  UNL     1       3.429  -0.452  -0.248  1.00  0.00     0.045 A 
ATOM     32  H1  UNL     1       3.268  -0.952  -2.309  1.00  0.00     0.167 HD
HETATM   33  C4  UNL     1       4.526   0.400  -0.115  1.00  0.00     0.033 A 
HETATM   34  C3  UNL     1       4.768   0.929   1.155  1.00  0.00     0.039 A 
HETATM   35  C2  UNL     1       3.939   0.628   2.232  1.00  0.00     0.069 A 
HETATM   36  C31 UNL     1       2.886  -0.287   2.108  1.00  0.00     0.051 A 
HETATM   37  C29 UNL     1       1.249  -2.336  -3.379  1.00  0.00     0.152 C 
HETATM   38  C11 UNL     1      -2.237  -4.334   0.351  1.00  0.00    -0.016 C 
BRANCH  35  39
HETATM   39  O1  UNL     1       4.127   1.178   3.474  1.00  0.00    -0.356 OA
HETATM   40  C1  UNL     1       4.093   2.607   3.438  1.00  0.00     0.210 C 
ENDBRANCH  35  39
ENDBRANCH   1  20
TORSDOF 5
