REMARK  4 active torsions:
REMARK  status: ('A' for Active; 'I' for Inactive)
REMARK    1  A    between atoms: C2_2  and  C4_4 
REMARK    2  A    between atoms: C4_4  and  C5_5 
REMARK    3  A    between atoms: C8_11  and  C9_12 
REMARK    4  A    between atoms: C10_14  and  O2_15 
ROOT
HETATM    1  C5  UNL     1      -0.975  -0.496   0.772  1.00  0.00     0.204 C 
HETATM    2  N1  UNL     1      -0.597  -1.332   1.916  1.00  0.00    -0.069 N 
ATOM      3  H11 UNL     1      -0.971  -2.280   1.879  1.00  0.00     0.277 HD
ATOM      4  H12 UNL     1      -1.047  -1.066   2.792  1.00  0.00     0.277 HD
HETATM    5  C6  UNL     1       0.867  -1.268   1.954  1.00  0.00     0.239 C 
HETATM    6  C7  UNL     1       1.324  -1.181   0.500  1.00  0.00     0.045 C 
HETATM    7  C8  UNL     1       0.020  -0.926  -0.324  1.00  0.00     0.074 C 
HETATM    8  C10 UNL     1       0.742   0.243  -1.079  1.00  0.00     0.147 C 
HETATM    9  C11 UNL     1       1.905   0.077  -0.116  1.00  0.00     0.020 C 
HETATM   10  C12 UNL     1       3.314   0.006  -0.678  1.00  0.00     0.024 C 
HETATM   11  C13 UNL     1       3.545   1.423  -0.115  1.00  0.00     0.040 C 
HETATM   12  C14 UNL     1       4.261   1.460   1.228  1.00  0.00     0.175 C 
HETATM   13  O3  UNL     1       3.046   1.106   1.934  1.00  0.00    -0.384 OA
HETATM   14  C15 UNL     1       2.267   1.275   0.725  1.00  0.00     0.139 C 
ENDROOT
BRANCH   8  15
HETATM   15  O2  UNL     1       1.033   0.026  -2.476  1.00  0.00    -0.393 OA
ATOM     16  H2  UNL     1       1.471   0.734  -2.934  1.00  0.00     0.210 HD
ENDBRANCH   8  15
BRANCH   7  17
HETATM   17  C9  UNL     1      -0.454  -2.120  -1.202  1.00  0.00     0.246 C 
HETATM   18  O1  UNL     1      -1.012  -2.019  -2.297  1.00  0.00    -0.306 OA
ENDBRANCH   7  17
BRANCH   1  19
HETATM   19  C4  UNL     1      -2.457  -0.687   0.422  1.00  0.00     0.038 C 
BRANCH  19  20
HETATM   20  C2  UNL     1      -2.970   0.249  -0.694  1.00  0.00    -0.021 C 
HETATM   21  C1  UNL     1      -3.054   1.705  -0.231  1.00  0.00     0.009 C 
HETATM   22  C3  UNL     1      -4.349  -0.214  -1.170  1.00  0.00     0.009 C 
ENDBRANCH  19  20
ENDBRANCH   1  19
TORSDOF 4
