REMARK  10 active torsions:
REMARK  status: ('A' for Active; 'I' for Inactive)
REMARK    1  A    between atoms: C2_2  and  O1_3 
REMARK    2  A    between atoms: C2_2  and  O2_5 
REMARK    3  A    between atoms: C2_2  and  C3_7 
REMARK    4  A    between atoms: C3_7  and  O3_8 
REMARK    5  A    between atoms: C3_7  and  C4_10 
REMARK    6  A    between atoms: C8_16  and  C9_17 
REMARK    7  A    between atoms: C10_20  and  C11_21 
REMARK    8  A    between atoms: C11_21  and  O8_22 
REMARK    9  A    between atoms: O8_22  and  C12_23 
REMARK   10  A    between atoms: C15_27  and  O9_28 
ROOT
HETATM    1  C12 UNL     1       4.441  -3.104   1.438  1.00  0.00     0.291 C 
HETATM    2  C13 UNL     1       4.925  -3.844   0.259  1.00  0.00     0.085 C 
HETATM    3  N1  UNL     1       5.279  -4.435  -0.675  1.00  0.00    -0.195 NA
ENDROOT
BRANCH   1   4
HETATM    4  O8  UNL     1       3.682  -1.949   1.060  1.00  0.00    -0.377 OA
BRANCH   4   5
HETATM    5  C11 UNL     1       2.325  -2.241   0.725  1.00  0.00     0.182 C 
BRANCH   5   6
HETATM    6  C10 UNL     1       1.679  -0.965   0.215  1.00  0.00     0.031 C 
HETATM    7  C8  UNL     1       1.966   0.095   1.582  1.00  0.00     0.170 A 
HETATM    8  C6  UNL     1       1.045   1.197   0.994  1.00  0.00     0.050 A 
HETATM    9  O5  UNL     1       3.123   0.985   1.397  1.00  0.00    -0.366 OA
HETATM   10  C5  UNL     1      -0.395   1.693   1.248  1.00  0.00     0.184 C 
HETATM   11  C7  UNL     1       2.295   2.020   0.814  1.00  0.00     0.185 A 
HETATM   12  C17 UNL     1       0.766   0.176   0.020  1.00  0.00     0.019 C 
HETATM   13  O4  UNL     1      -1.252   1.695   0.027  1.00  0.00    -0.379 OA
HETATM   14  C4  UNL     1      -1.719   0.415  -0.634  1.00  0.00     0.189 C 
HETATM   15  C15 UNL     1      -0.523  -0.461  -1.448  1.00  0.00     0.088 C 
HETATM   16  C14 UNL     1       0.319  -1.652  -0.677  1.00  0.00     0.056 C 
HETATM   17  C16 UNL     1       0.617   0.492  -1.436  1.00  0.00     0.047 C 
BRANCH   7  18
HETATM   18  C9  UNL     1       1.739  -0.420   3.056  1.00  0.00     0.211 C 
HETATM   19  O6  UNL     1       2.291  -1.324   3.672  1.00  0.00    -0.646 OA
HETATM   20  O7  UNL     1       0.764   0.266   3.707  1.00  0.00    -0.646 OA
ENDBRANCH   7  18
BRANCH  14  21
HETATM   21  C3  UNL     1      -2.816   0.826  -1.661  1.00  0.00     0.211 C 
BRANCH  21  22
HETATM   22  C2  UNL     1      -3.874   1.842  -1.116  1.00  0.00     0.184 C 
HETATM   23  C1  UNL     1      -5.003   2.026  -2.135  1.00  0.00     0.081 C 
BRANCH  22  24
HETATM   24  O1  UNL     1      -4.477   1.430   0.102  1.00  0.00    -0.364 OA
ATOM     25  H1  UNL     1      -3.777   1.316   0.734  1.00  0.00     0.213 HD
ENDBRANCH  22  24
BRANCH  22  26
HETATM   26  O2  UNL     1      -3.308   3.130  -0.893  1.00  0.00    -0.364 OA
ATOM     27  H2  UNL     1      -2.608   3.016  -0.261  1.00  0.00     0.213 HD
ENDBRANCH  22  26
ENDBRANCH  21  22
BRANCH  21  28
HETATM   28  O3  UNL     1      -3.442  -0.366  -2.158  1.00  0.00    -0.387 OA
ATOM     29  H3  UNL     1      -2.800  -0.983  -2.489  1.00  0.00     0.210 HD
ENDBRANCH  21  28
ENDBRANCH  14  21
BRANCH  15  30
HETATM   30  O9  UNL     1      -0.893  -0.883  -2.744  1.00  0.00    -0.387 OA
ATOM     31  H9  UNL     1      -0.221  -1.375  -3.201  1.00  0.00     0.210 HD
ENDBRANCH  15  30
ENDBRANCH   5   6
ENDBRANCH   4   5
ENDBRANCH   1   4
TORSDOF 10
