REMARK  2 active torsions:
REMARK  status: ('A' for Active; 'I' for Inactive)
REMARK    1  A    between atoms: C2_2  and  O1_3 
REMARK    2  A    between atoms: C9_11  and  O2_12 
ROOT
HETATM    1  C1  UNL     1       4.425  -0.263  -0.095  1.00  0.00     0.047 C 
HETATM    2  C2  UNL     1       2.958  -0.675  -0.247  1.00  0.00     0.081 C 
HETATM    3  C3  UNL     1       2.319  -0.018  -1.491  1.00  0.00     0.048 C 
HETATM    4  C4  UNL     1       0.854   0.327  -1.199  1.00  0.00     0.056 C 
HETATM    5  C5  UNL     1       0.749   1.304   0.021  1.00  0.00     0.230 C 
HETATM    6  C6  UNL     1      -0.376   2.368   0.253  1.00  0.00     0.044 C 
HETATM    7  C7  UNL     1      -1.717   1.797   0.750  1.00  0.00     0.029 C 
HETATM    8  C8  UNL     1      -2.903   1.649  -0.277  1.00  0.00     0.052 C 
HETATM    9  C9  UNL     1      -3.274   0.267   0.365  1.00  0.00     0.121 C 
HETATM   10  C10 UNL     1      -2.552  -1.196   0.218  1.00  0.00     0.101 C 
HETATM   11  C11 UNL     1      -3.136  -2.550   0.101  1.00  0.00     0.050 C 
HETATM   12  O3  UNL     1      -2.032  -0.833   1.630  1.00  0.00    -0.362 OA
HETATM   13  C12 UNL     1      -1.740   0.348   0.818  1.00  0.00     0.108 C 
HETATM   14  C13 UNL     1      -1.370  -0.460  -0.418  1.00  0.00     0.095 C 
HETATM   15  C14 UNL     1       0.135  -0.718  -0.268  1.00  0.00     0.240 C 
HETATM   16  N1  UNL     1       0.750   0.076   0.877  1.00  0.00     0.102 N 
HETATM   17  C15 UNL     1       2.159  -0.368   1.063  1.00  0.00     0.310 C 
ENDROOT
BRANCH   2  18
HETATM   18  O1  UNL     1       2.944  -2.098  -0.454  1.00  0.00    -0.388 OA
ATOM     19  H1  UNL     1       2.034  -2.354  -0.548  1.00  0.00     0.210 HD
ENDBRANCH   2  18
BRANCH   9  20
HETATM   20  O2  UNL     1      -4.297   0.348   1.394  1.00  0.00    -0.384 OA
ATOM     21  H2  UNL     1      -4.522  -0.489   1.783  1.00  0.00     0.210 HD
ENDBRANCH   9  20
TORSDOF 2
