REMARK  2 active torsions:
REMARK  status: ('A' for Active; 'I' for Inactive)
REMARK    1  A    between atoms: O1_2  and  C2_3 
REMARK    2  A    between atoms: C16_17  and  O2_18 
ROOT
HETATM    1  C2  UNL     1      -1.722  -1.248  -0.113  1.00  0.00     0.130 C 
HETATM    2  C3  UNL     1      -2.990  -0.320   0.198  1.00  0.00     0.041 C 
HETATM    3  C4  UNL     1      -2.837   1.215  -0.199  1.00  0.00     0.010 C 
HETATM    4  C5  UNL     1      -2.068   2.307   0.678  1.00  0.00    -0.026 C 
HETATM    5  C6  UNL     1      -0.534   2.755   0.460  1.00  0.00    -0.025 C 
HETATM    6  C7  UNL     1       0.740   1.966   1.028  1.00  0.00     0.016 C 
HETATM    7  C8  UNL     1       0.277   1.141   2.179  1.00  0.00     0.010 C 
HETATM    8  C9  UNL     1      -0.634   0.081   1.596  1.00  0.00     0.013 C 
HETATM    9  C10 UNL     1      -0.515  -0.287  -0.011  1.00  0.00    -0.006 C 
HETATM   10  C11 UNL     1      -0.842   0.567  -1.366  1.00  0.00     0.013 C 
HETATM   11  C12 UNL     1      -2.210   1.188  -1.552  1.00  0.00     0.009 C 
HETATM   12  C13 UNL     1       1.045  -0.493  -0.124  1.00  0.00    -0.024 C 
HETATM   13  C14 UNL     1       1.568  -1.529   0.929  1.00  0.00     0.017 C 
HETATM   14  C15 UNL     1       1.664  -0.958  -1.486  1.00  0.00     0.047 C 
HETATM   15  C16 UNL     1       3.222  -0.820  -1.528  1.00  0.00     0.159 C 
HETATM   16  C17 UNL     1       3.824   0.155  -0.518  1.00  0.00     0.014 C 
HETATM   17 BR1  UNL     1       5.697   0.195  -0.434  1.00  0.00    -0.053 Br
HETATM   18  C18 UNL     1       3.086   0.976   0.257  1.00  0.00    -0.003 C 
HETATM   19  C19 UNL     1       1.593   1.023   0.064  1.00  0.00     0.026 C 
ENDROOT
BRANCH   1  20
HETATM   20  O1  UNL     1      -1.703  -2.322   0.822  1.00  0.00    -0.390 OA
HETATM   21  C1  UNL     1      -1.573  -3.595   0.206  1.00  0.00     0.202 C 
ENDBRANCH   1  20
BRANCH  15  22
HETATM   22  O2  UNL     1       3.786  -2.122  -1.350  1.00  0.00    -0.390 OA
ATOM     23  H2  UNL     1       4.732  -2.038  -1.376  1.00  0.00     0.210 HD
ENDBRANCH  15  22
TORSDOF 2
