REMARK  14 active torsions:
REMARK  status: ('A' for Active; 'I' for Inactive)
REMARK    1  A    between atoms: O1_2  and  C2_3 
REMARK    2  A    between atoms: C5_6  and  C6_7 
REMARK    3  A    between atoms: C6_7  and  O2_8 
REMARK    4  A    between atoms: O2_8  and  C7_9 
REMARK    5  A    between atoms: C7_9  and  O4_11 
REMARK    6  A    between atoms: O4_11  and  C8_12 
REMARK    7  A    between atoms: C10_14  and  C11_15 
REMARK    8  A    between atoms: C11_15  and  O5_18 
REMARK    9  A    between atoms: C18_26  and  O8_27 
REMARK   10  A    between atoms: O8_27  and  C19_28 
REMARK   11  A    between atoms: C23_32  and  C24_33 
REMARK   12  A    between atoms: C24_33  and  O9_34 
REMARK   13  A    between atoms: O9_34  and  C25_35 
REMARK   14  A    between atoms: C28_39  and  O11_40 
ROOT
HETATM    1  C8  UNL     1      -0.570  -0.681   2.181  1.00  0.00     0.158 C 
HETATM    2  C9  UNL     1      -0.934  -1.985   1.429  1.00  0.00     0.066 C 
HETATM    3  C10 UNL     1      -0.549  -2.437   0.013  1.00  0.00     0.067 C 
HETATM    4  C14 UNL     1      -1.908  -2.219  -0.717  1.00  0.00     0.108 C 
HETATM    5  C15 UNL     1      -1.917  -2.416  -2.219  1.00  0.00     0.050 C 
HETATM    6  O6  UNL     1      -2.979  -3.029  -0.100  1.00  0.00    -0.228 OA
HETATM    7  O7  UNL     1      -3.341  -2.256   1.134  1.00  0.00    -0.227 OA
HETATM    8  C16 UNL     1      -2.275  -1.337   1.068  1.00  0.00     0.126 C 
HETATM    9  C17 UNL     1      -2.296  -0.792  -0.347  1.00  0.00     0.093 C 
HETATM   10  C18 UNL     1      -1.666   0.527   0.192  1.00  0.00     0.149 C 
HETATM   11  C23 UNL     1      -1.884  -0.018   1.655  1.00  0.00     0.071 C 
ENDROOT
BRANCH   1  12
HETATM   12  O4  UNL     1       0.727  -0.146   1.843  1.00  0.00    -0.291 OA
BRANCH  12  13
HETATM   13  C7  UNL     1       1.150   0.855   2.662  1.00  0.00     0.407 C 
HETATM   14  O3  UNL     1       0.430   1.507   3.401  1.00  0.00    -0.229 OA
BRANCH  13  15
HETATM   15  O2  UNL     1       2.487   1.063   2.572  1.00  0.00    -0.293 OA
BRANCH  15  16
HETATM   16  C6  UNL     1       3.350  -0.006   2.152  1.00  0.00     0.220 C 
BRANCH  16  17
HETATM   17  C5  UNL     1       3.999   0.262   0.812  1.00  0.00    -0.031 A 
HETATM   18  C4  UNL     1       4.918  -0.671   0.299  1.00  0.00     0.012 A 
HETATM   19  C3  UNL     1       5.582  -0.424  -0.905  1.00  0.00     0.040 A 
HETATM   20  C2  UNL     1       5.306   0.737  -1.624  1.00  0.00     0.101 A 
HETATM   21  C28 UNL     1       4.400   1.670  -1.124  1.00  0.00     0.099 A 
HETATM   22  C27 UNL     1       3.750   1.439   0.088  1.00  0.00     0.048 A 
BRANCH  20  23
HETATM   23  O1  UNL     1       6.025   0.996  -2.757  1.00  0.00    -0.353 OA
HETATM   24  C1  UNL     1       5.331   0.555  -3.923  1.00  0.00     0.210 C 
ENDBRANCH  20  23
BRANCH  21  25
HETATM   25  O11 UNL     1       4.163   2.819  -1.825  1.00  0.00    -0.358 OA
ATOM     26  H11 UNL     1       3.545   3.455  -1.484  1.00  0.00     0.217 HD
ENDBRANCH  21  25
ENDBRANCH  16  17
ENDBRANCH  15  16
ENDBRANCH  13  15
ENDBRANCH  12  13
ENDBRANCH   1  12
BRANCH  11  27
HETATM   27  C24 UNL     1      -2.874   0.591   2.617  1.00  0.00     0.197 C 
BRANCH  27  28
HETATM   28  O9  UNL     1      -2.587   1.989   2.727  1.00  0.00    -0.321 OA
BRANCH  28  29
HETATM   29  C25 UNL     1      -3.486   2.712   3.442  1.00  0.00     0.254 C 
HETATM   30  C26 UNL     1      -3.277   4.175   3.197  1.00  0.00     0.126 C 
HETATM   31  O10 UNL     1      -4.390   2.249   4.133  1.00  0.00    -0.266 OA
ENDBRANCH  28  29
ENDBRANCH  27  28
ENDBRANCH  11  27
BRANCH   3  32
HETATM   32  C11 UNL     1       0.102  -3.843   0.023  1.00  0.00     0.058 C 
HETATM   33  C12 UNL     1      -0.819  -5.000   0.418  1.00  0.00     0.046 C 
HETATM   34  C13 UNL     1       0.764  -4.185  -1.318  1.00  0.00     0.046 C 
BRANCH  32  35
HETATM   35  O5  UNL     1       1.164  -3.801   0.995  1.00  0.00    -0.390 OA
ATOM     36  H5  UNL     1       1.563  -4.663   1.001  1.00  0.00     0.210 HD
ENDBRANCH  32  35
ENDBRANCH   3  32
BRANCH  10  37
HETATM   37  O8  UNL     1      -2.451   1.708  -0.102  1.00  0.00    -0.374 OA
BRANCH  37  38
HETATM   38  C19 UNL     1      -2.219   2.492  -1.276  1.00  0.00     0.050 C 
HETATM   39  C20 UNL     1      -1.054   3.443  -1.000  1.00  0.00     0.045 C 
HETATM   40  C21 UNL     1      -3.505   3.311  -1.475  1.00  0.00     0.045 C 
HETATM   41  C22 UNL     1      -1.962   1.638  -2.520  1.00  0.00     0.045 C 
ENDBRANCH  37  38
ENDBRANCH  10  37
TORSDOF 14
