REMARK  7 active torsions:
REMARK  status: ('A' for Active; 'I' for Inactive)
REMARK    1  A    between atoms: O1_2  and  C2_3 
REMARK    2  A    between atoms: C2_3  and  C3_5 
REMARK    3  A    between atoms: C3_5  and  O3_6 
REMARK    4  A    between atoms: C7_12  and  C21_29 
REMARK    5  A    between atoms: C12_17  and  C13_18 
REMARK    6  A    between atoms: C12_17  and  C19_27 
REMARK    7  A    between atoms: C22_30  and  O6_31 
ROOT
HETATM    1  C3  UNL     1       0.199  -1.722   1.253  1.00  0.00     0.218 C 
HETATM    2  C4  UNL     1       1.792  -2.115   1.508  1.00  0.00     0.190 C 
HETATM    3  O4  UNL     1       2.047  -2.851   2.486  1.00  0.00    -0.290 OA
HETATM    4  C5  UNL     1       3.052  -1.714   0.629  1.00  0.00     0.028 C 
HETATM    5  C6  UNL     1       3.559  -0.218   0.470  1.00  0.00     0.041 C 
HETATM    6  C7  UNL     1       2.310   0.643   0.248  1.00  0.00    -0.025 C 
HETATM    7  C8  UNL     1       1.828   0.603   1.777  1.00  0.00     0.011 C 
HETATM    8  C9  UNL     1       0.394   0.602   2.217  1.00  0.00     0.015 C 
HETATM    9  C10 UNL     1      -0.439  -0.182   1.215  1.00  0.00     0.020 C 
HETATM   10  C11 UNL     1      -1.853  -0.200   1.903  1.00  0.00     0.020 C 
HETATM   11  C12 UNL     1      -0.468   0.801  -0.132  1.00  0.00     0.041 C 
HETATM   12  C17 UNL     1       0.465   2.208   0.037  1.00  0.00     0.138 C 
HETATM   13  O5  UNL     1      -0.059   3.316   0.145  1.00  0.00    -0.297 OA
HETATM   14  C18 UNL     1       2.046   2.118   0.020  1.00  0.00     0.089 C 
ENDROOT
BRANCH   1  15
HETATM   15  C2  UNL     1      -0.514  -2.797   0.403  1.00  0.00     0.302 C 
HETATM   16  O2  UNL     1      -0.096  -3.943   0.269  1.00  0.00    -0.261 OA
BRANCH  15  17
HETATM   17  O1  UNL     1      -1.640  -2.326  -0.198  1.00  0.00    -0.324 OA
HETATM   18  C1  UNL     1      -2.372  -3.296  -0.954  1.00  0.00     0.213 C 
ENDBRANCH  15  17
ENDBRANCH   1  15
BRANCH   1  19
HETATM   19  O3  UNL     1      -0.300  -2.239   2.587  1.00  0.00    -0.372 OA
ATOM     20  H3  UNL     1       0.138  -1.578   3.110  1.00  0.00     0.211 HD
ENDBRANCH   1  19
BRANCH  11  21
HETATM   21  C13 UNL     1      -1.947   1.222  -0.535  1.00  0.00     0.014 C 
HETATM   22  C14 UNL     1      -2.156   2.144  -1.789  1.00  0.00     0.085 C 
HETATM   23  C15 UNL     1      -3.451   2.664  -1.136  1.00  0.00     0.244 C 
HETATM   24  F1  UNL     1      -3.713   3.977  -1.310  1.00  0.00    -0.206 F 
HETATM   25  F2  UNL     1      -4.573   1.991  -1.484  1.00  0.00    -0.206 F 
HETATM   26  C16 UNL     1      -2.843   2.264   0.225  1.00  0.00     0.085 C 
ENDBRANCH  11  21
BRANCH  11  27
HETATM   27  C19 UNL     1      -0.130   0.024  -1.450  1.00  0.00     0.032 C 
HETATM   28  C20 UNL     1       0.989  -1.056  -1.519  1.00  0.00     0.016 C 
HETATM   29  C21 UNL     1       1.925   0.123  -1.237  1.00  0.00     0.024 C 
HETATM   30  C22 UNL     1       0.902   0.863  -2.262  1.00  0.00     0.128 C 
BRANCH  30  31
HETATM   31  O6  UNL     1       1.063   0.522  -3.658  1.00  0.00    -0.395 OA
ATOM     32  H6  UNL     1       1.692   1.033  -4.153  1.00  0.00     0.210 HD
ENDBRANCH  30  31
ENDBRANCH  11  27
TORSDOF 7
