REMARK  5 active torsions:
REMARK  status: ('A' for Active; 'I' for Inactive)
REMARK    1  A    between atoms: C2_2  and  C4_4 
REMARK    2  A    between atoms: C13_14  and  C14_15 
REMARK    3  A    between atoms: C14_15  and  O2_16 
REMARK    4  A    between atoms: C18_23  and  O5_24 
REMARK    5  A    between atoms: C19_26  and  C21_28 
ROOT
HETATM    1  C4  UNL     1       1.816  -0.852  -0.373  1.00  0.00     0.100 C 
HETATM    2  C5  UNL     1       0.588  -1.910  -0.362  1.00  0.00     0.050 C 
HETATM    3  C6  UNL     1      -0.920  -1.480  -0.293  1.00  0.00     0.031 C 
HETATM    4  C7  UNL     1      -0.999  -0.505   0.814  1.00  0.00     0.006 C 
HETATM    5  C8  UNL     1      -0.334  -0.735   2.164  1.00  0.00     0.011 C 
HETATM    6  C9  UNL     1      -0.907   0.789  -0.068  1.00  0.00     0.056 C 
HETATM    7  C10 UNL     1      -2.420   1.212  -0.089  1.00  0.00     0.143 C 
HETATM    8  O1  UNL     1      -2.688   0.672  -1.433  1.00  0.00    -0.370 OA
HETATM    9  C11 UNL     1      -1.913  -0.693  -1.501  1.00  0.00     0.098 C 
HETATM   10  C12 UNL     1      -3.338  -0.974  -0.677  1.00  0.00     0.051 C 
HETATM   11  C13 UNL     1      -3.636   0.319   0.245  1.00  0.00     0.042 C 
HETATM   12  C15 UNL     1      -0.881   0.455  -1.666  1.00  0.00     0.112 C 
HETATM   13  C16 UNL     1      -1.173   1.631  -2.731  1.00  0.00     0.051 C 
HETATM   14  O3  UNL     1       0.441   0.260  -2.041  1.00  0.00    -0.304 OA
HETATM   15  C17 UNL     1       1.017  -0.722  -2.707  1.00  0.00     0.291 C 
HETATM   16  O4  UNL     1       0.549  -1.458  -3.551  1.00  0.00    -0.262 OA
HETATM   17  C18 UNL     1       2.304  -0.781  -1.926  1.00  0.00     0.252 C 
HETATM   18  C19 UNL     1       0.478   1.456   0.293  1.00  0.00     0.084 C 
HETATM   19  C20 UNL     1       0.362   2.075   1.726  1.00  0.00     0.048 C 
HETATM   20  O6  UNL     1       1.586   0.430   0.354  1.00  0.00    -0.364 OA
ENDROOT
BRANCH   1  21
HETATM   21  C2  UNL     1       3.075  -1.522   0.377  1.00  0.00     0.015 C 
HETATM   22  C1  UNL     1       4.403  -0.774   0.147  1.00  0.00     0.012 C 
HETATM   23  C3  UNL     1       2.949  -1.689   1.899  1.00  0.00     0.012 C 
ENDBRANCH   1  21
BRANCH  17  24
HETATM   24  O5  UNL     1       3.151   0.332  -2.188  1.00  0.00    -0.382 OA
ATOM     25  H5  UNL     1       3.436   0.373  -3.093  1.00  0.00     0.210 HD
ENDBRANCH  17  24
BRANCH  18  26
HETATM   26  C21 UNL     1       0.947   2.615  -0.642  1.00  0.00     0.153 C 
HETATM   27 CL1  UNL     1       2.448   3.447  -0.093  1.00  0.00    -0.127 Cl
ENDBRANCH  18  26
BRANCH  11  28
HETATM   28  C14 UNL     1      -4.093   0.110   1.686  1.00  0.00     0.171 C 
BRANCH  28  29
HETATM   29  O2  UNL     1      -3.770   1.260   2.455  1.00  0.00    -0.400 OA
ATOM     30  H2  UNL     1      -4.054   1.130   3.352  1.00  0.00     0.209 HD
ENDBRANCH  28  29
ENDBRANCH  11  28
TORSDOF 5
