REMARK  3 active torsions:
REMARK  status: ('A' for Active; 'I' for Inactive)
REMARK    1  A    between atoms: O1_2  and  C2_3 
REMARK    2  A    between atoms: C9_11  and  C10_12 
REMARK    3  A    between atoms: C10_12  and  O2_13 
ROOT
HETATM    1  C2  UNL     1       1.924   0.227   0.819  1.00  0.00     0.069 C 
HETATM    2  C3  UNL     1       1.336  -0.741   1.885  1.00  0.00     0.039 C 
HETATM    3  C4  UNL     1      -0.113  -1.269   1.851  1.00  0.00     0.011 C 
HETATM    4  C5  UNL     1      -1.230  -0.246   1.710  1.00  0.00     0.048 C 
HETATM    5  C6  UNL     1      -2.661  -0.786   1.922  1.00  0.00     0.279 C 
HETATM    6  N1  UNL     1      -3.190   0.218   0.975  1.00  0.00     0.090 N 
HETATM    7  C7  UNL     1      -3.632   1.424   1.674  1.00  0.00     0.310 C 
HETATM    8  C8  UNL     1      -1.823   0.400   0.383  1.00  0.00     0.234 C 
HETATM    9  C9  UNL     1      -1.806  -0.080  -1.091  1.00  0.00     0.047 C 
HETATM   10  C11 UNL     1      -0.436  -0.018  -1.811  1.00  0.00    -0.001 C 
HETATM   11  C12 UNL     1       0.679  -0.870  -1.243  1.00  0.00     0.018 C 
HETATM   12  C13 UNL     1       1.696   0.175  -0.757  1.00  0.00    -0.005 C 
HETATM   13  C14 UNL     1       2.566   0.515  -1.987  1.00  0.00     0.013 C 
HETATM   14  C15 UNL     1       1.499   1.189  -2.914  1.00  0.00     0.006 C 
HETATM   15  C16 UNL     1       0.269   1.350  -1.940  1.00  0.00    -0.005 C 
HETATM   16  C17 UNL     1       1.076   1.605  -0.678  1.00  0.00     0.004 C 
HETATM   17  C18 UNL     1       1.144   1.566   0.849  1.00  0.00     0.044 C 
ENDROOT
BRANCH   9  18
HETATM   18  C10 UNL     1      -2.512  -1.433  -1.326  1.00  0.00     0.171 C 
BRANCH  18  19
HETATM   19  O2  UNL     1      -1.775  -2.539  -0.832  1.00  0.00    -0.400 OA
ATOM     20  H2  UNL     1      -2.209  -3.371  -0.977  1.00  0.00     0.209 HD
ENDBRANCH  18  19
ENDBRANCH   9  18
BRANCH   1  21
HETATM   21  O1  UNL     1       3.333   0.415   1.160  1.00  0.00    -0.384 OA
HETATM   22  C1  UNL     1       4.248  -0.594   0.751  1.00  0.00     0.202 C 
ENDBRANCH   1  21
TORSDOF 3
