REMARK  15 active torsions:
REMARK  status: ('A' for Active; 'I' for Inactive)
REMARK    1  A    between atoms: C2_2  and  C3_3 
REMARK    2  A    between atoms: C3_3  and  C4_4 
REMARK    3  A    between atoms: C4_4  and  C5_5 
REMARK    4  A    between atoms: C5_5  and  C6_6 
REMARK    5  A    between atoms: C6_6  and  C7_7 
REMARK    6  A    between atoms: C7_7  and  C8_8 
REMARK    7  A    between atoms: C8_8  and  C9_9 
REMARK    8  A    between atoms: C9_9  and  C10_10 
REMARK    9  A    between atoms: C10_10  and  O2_12 
REMARK   10  A    between atoms: O2_12  and  C11_13 
REMARK   11  A    between atoms: C15_17  and  O3_18 
REMARK   12  A    between atoms: C22_26  and  C24_28 
REMARK   13  A    between atoms: C24_28  and  C25_29 
REMARK   14  A    between atoms: C29_35  and  C35_44 
REMARK   15  A    between atoms: C34_41  and  O6_42 
ROOT
HETATM    1  C11 UNL     1      -0.721   1.549  -1.042  1.00  0.00     0.142 C 
HETATM    2  C12 UNL     1      -0.618   3.091  -1.398  1.00  0.00     0.038 C 
HETATM    3  C13 UNL     1       0.835   3.332  -1.914  1.00  0.00    -0.009 C 
HETATM    4  C14 UNL     1       1.793   4.255  -0.935  1.00  0.00     0.037 C 
HETATM    5  C15 UNL     1       2.695   3.655   0.333  1.00  0.00     0.130 C 
HETATM    6  C16 UNL     1       2.917   2.105   0.117  1.00  0.00     0.021 C 
HETATM    7  C17 UNL     1       3.864   2.258  -1.144  1.00  0.00     0.022 C 
HETATM    8  C18 UNL     1       1.414   1.731   0.267  1.00  0.00     0.012 C 
HETATM    9  C19 UNL     1       0.870   1.594   1.713  1.00  0.00     0.007 C 
HETATM   10  C20 UNL     1       1.881   1.201   2.733  1.00  0.00     0.009 C 
HETATM   11  C21 UNL     1       2.786   0.184   2.076  1.00  0.00     0.034 C 
HETATM   12  C22 UNL     1       2.056  -1.260   1.789  1.00  0.00    -0.020 C 
HETATM   13  C23 UNL     1       3.187  -2.348   1.729  1.00  0.00     0.017 C 
HETATM   14  C26 UNL     1       0.968  -1.468   0.486  1.00  0.00    -0.026 C 
HETATM   15  C27 UNL     1      -0.532  -1.422   0.976  1.00  0.00     0.016 C 
HETATM   16  C28 UNL     1       1.013  -3.020   0.109  1.00  0.00     0.016 C 
HETATM   17  C29 UNL     1       1.183  -0.571  -0.954  1.00  0.00     0.012 C 
HETATM   18  C30 UNL     1       0.170  -1.163  -2.031  1.00  0.00     0.023 C 
HETATM   19  C31 UNL     1       2.645  -0.954  -1.567  1.00  0.00     0.021 C 
HETATM   20 CL1  UNL     1       2.785  -0.660  -3.387  1.00  0.00    -0.088 Cl
HETATM   21  C32 UNL     1       4.077  -0.761  -0.988  1.00  0.00     0.019 C 
HETATM   22  C33 UNL     1       4.541   0.012   0.257  1.00  0.00     0.013 C 
HETATM   23  C34 UNL     1       3.656   1.018   1.023  1.00  0.00     0.090 C 
HETATM   24  C35 UNL     1       0.803   1.032  -0.932  1.00  0.00     0.004 C 
HETATM   25  C36 UNL     1       1.225   1.865  -2.216  1.00  0.00     0.018 C 
ENDROOT
BRANCH   1  26
HETATM   26  O2  UNL     1      -1.642   1.137  -0.021  1.00  0.00    -0.315 OA
BRANCH  26  27
HETATM   27  C10 UNL     1      -2.239   1.958   0.882  1.00  0.00     0.259 C 
HETATM   28  O1  UNL     1      -1.995   3.135   1.085  1.00  0.00    -0.265 OA
BRANCH  27  29
HETATM   29  C9  UNL     1      -3.309   1.208   1.636  1.00  0.00     0.111 C 
BRANCH  29  30
HETATM   30  C8  UNL     1      -4.680   1.533   1.051  1.00  0.00     0.010 C 
BRANCH  30  31
HETATM   31  C7  UNL     1      -5.732   0.462   1.353  1.00  0.00     0.000 C 
BRANCH  31  32
HETATM   32  C6  UNL     1      -5.452  -0.920   0.751  1.00  0.00     0.000 C 
BRANCH  32  33
HETATM   33  C5  UNL     1      -5.363  -0.910  -0.775  1.00  0.00     0.000 C 
BRANCH  33  34
HETATM   34  C4  UNL     1      -4.928  -2.271  -1.323  1.00  0.00     0.000 C 
BRANCH  34  35
HETATM   35  C3  UNL     1      -4.950  -2.264  -2.853  1.00  0.00    -0.000 C 
BRANCH  35  36
HETATM   36  C2  UNL     1      -4.423  -3.558  -3.472  1.00  0.00    -0.005 C 
HETATM   37  C1  UNL     1      -2.915  -3.710  -3.343  1.00  0.00     0.005 C 
ENDBRANCH  35  36
ENDBRANCH  34  35
ENDBRANCH  33  34
ENDBRANCH  32  33
ENDBRANCH  31  32
ENDBRANCH  30  31
ENDBRANCH  29  30
ENDBRANCH  27  29
ENDBRANCH  26  27
ENDBRANCH   1  26
BRANCH   5  38
HETATM   38  O3  UNL     1       3.928   4.364   0.457  1.00  0.00    -0.395 OA
ATOM     39  H3  UNL     1       4.442   4.022   1.179  1.00  0.00     0.210 HD
ENDBRANCH   5  38
BRANCH  23  40
HETATM   40  O6  UNL     1       4.596   1.765   1.842  1.00  0.00    -0.385 OA
ATOM     41  H6  UNL     1       5.036   1.118   2.381  1.00  0.00     0.211 HD
ENDBRANCH  23  40
BRANCH  12  42
HETATM   42  C24 UNL     1       1.284  -1.693   3.128  1.00  0.00     0.123 C 
BRANCH  42  43
HETATM   43  C25 UNL     1       2.104  -1.829   4.399  1.00  0.00     0.173 C 
HETATM   44  O4  UNL     1       2.402  -0.941   5.178  1.00  0.00    -0.648 OA
HETATM   45  O5  UNL     1       2.499  -3.098   4.630  1.00  0.00    -0.648 OA
ENDBRANCH  42  43
ENDBRANCH  12  42
TORSDOF 15
