REMARK  3 active torsions:
REMARK  status: ('A' for Active; 'I' for Inactive)
REMARK    1  A    between atoms: O1_2  and  C2_3 
REMARK    2  A    between atoms: C3_4  and  C4_5 
REMARK    3  A    between atoms: C19_21  and  O2_22 
ROOT
HETATM    1  C4  UNL     1       1.777   0.463   0.439  1.00  0.00     0.077 C 
HETATM    2  C5  UNL     1       0.725   0.922  -0.810  1.00  0.00     0.026 C 
HETATM    3  C6  UNL     1      -0.400  -0.076  -0.578  1.00  0.00    -0.001 C 
HETATM    4  C7  UNL     1       0.653  -1.370  -0.897  1.00  0.00     0.287 C 
HETATM    5  N1  UNL     1       0.961  -2.050   0.347  1.00  0.00     0.125 N 
HETATM    6  C8  UNL     1      -0.284  -2.761   0.754  1.00  0.00     0.282 C 
HETATM    7  C9  UNL     1      -1.348  -1.652   0.812  1.00  0.00     0.033 C 
HETATM    8  C10 UNL     1      -0.393  -0.685   1.659  1.00  0.00     0.064 C 
HETATM    9  C11 UNL     1      -0.739   0.558   0.981  1.00  0.00     0.006 C 
HETATM   10  C12 UNL     1      -2.019   1.091   1.641  1.00  0.00     0.006 C 
HETATM   11  C13 UNL     1      -3.000   1.784   0.753  1.00  0.00     0.001 C 
HETATM   12  C14 UNL     1      -3.778   0.708   0.052  1.00  0.00     0.005 C 
HETATM   13  C15 UNL     1      -2.975  -0.025  -1.009  1.00  0.00    -0.009 C 
HETATM   14  C16 UNL     1      -2.694   0.926  -2.199  1.00  0.00     0.011 C 
HETATM   15  C17 UNL     1      -1.689  -0.905  -0.671  1.00  0.00    -0.025 C 
HETATM   16  C18 UNL     1      -1.877  -2.043  -1.754  1.00  0.00     0.017 C 
HETATM   17  C19 UNL     1       1.107  -0.896   1.245  1.00  0.00     0.270 C 
ENDROOT
BRANCH   1  18
HETATM   18  C3  UNL     1       3.210   0.261  -0.006  1.00  0.00     0.007 C 
HETATM   19  C2  UNL     1       4.172   1.179   0.132  1.00  0.00     0.130 C 
BRANCH  19  20
HETATM   20  O1  UNL     1       5.461   0.912  -0.242  1.00  0.00    -0.368 OA
HETATM   21  C1  UNL     1       6.364   1.952   0.120  1.00  0.00     0.208 C 
ENDBRANCH  19  20
ENDBRANCH   1  18
BRANCH  17  22
HETATM   22  O2  UNL     1       1.887  -1.257   2.354  1.00  0.00    -0.362 OA
ATOM     23  H2  UNL     1       1.516  -2.009   2.800  1.00  0.00     0.212 HD
ENDBRANCH  17  22
TORSDOF 3
