REMARK  3 active torsions:
REMARK  status: ('A' for Active; 'I' for Inactive)
REMARK    1  A    between atoms: C3_4  and  C4_5 
REMARK    2  A    between atoms: C4_5  and  N1_6 
REMARK    3  A    between atoms: C17_19  and  O2_20 
ROOT
HETATM    1  N1  UNL     1       1.056   1.170   1.271  1.00  0.00    -0.397 N 
HETATM    2  C5  UNL     1      -0.305   1.722   0.702  1.00  0.00     0.089 C 
HETATM    3  C6  UNL     1      -0.217   1.633  -0.783  1.00  0.00     0.013 C 
HETATM    4  C7  UNL     1      -1.577   1.843  -1.527  1.00  0.00     0.007 C 
HETATM    5  C8  UNL     1      -2.805   0.888  -1.216  1.00  0.00     0.005 C 
HETATM    6  C9  UNL     1      -2.631  -0.666  -0.842  1.00  0.00    -0.007 C 
HETATM    7  C10 UNL     1      -4.058  -1.213  -0.646  1.00  0.00     0.011 C 
HETATM    8  C11 UNL     1      -1.657  -0.921   0.423  1.00  0.00    -0.002 C 
HETATM    9  C12 UNL     1      -2.274  -1.902   1.464  1.00  0.00     0.019 C 
HETATM   10  C13 UNL     1      -1.423   0.605   1.042  1.00  0.00     0.026 C 
HETATM   11  C14 UNL     1      -0.294  -0.213   1.273  1.00  0.00     0.023 C 
HETATM   12  C15 UNL     1       0.028   0.195  -0.608  1.00  0.00     0.001 C 
HETATM   13  C16 UNL     1       0.772  -0.969  -1.092  1.00  0.00     0.046 C 
HETATM   14  C17 UNL     1       0.175  -1.472   0.186  1.00  0.00     0.087 C 
HETATM   15  C18 UNL     1       1.101  -0.381   1.149  1.00  0.00     0.119 C 
ENDROOT
BRANCH   1  16
HETATM   16  C4  UNL     1       2.284   1.916   1.053  1.00  0.00     0.152 C 
BRANCH  16  17
HETATM   17  C3  UNL     1       3.203   1.340   0.028  1.00  0.00     0.168 A 
HETATM   18  C2  UNL     1       4.251   0.328   0.424  1.00  0.00     0.148 A 
HETATM   19  C1  UNL     1       4.808  -0.632  -0.561  1.00  0.00     0.042 C 
HETATM   20  O1  UNL     1       4.587   1.700   0.191  1.00  0.00    -0.374 OA
ENDBRANCH  16  17
ENDBRANCH   1  16
BRANCH  14  21
HETATM   21  O2  UNL     1       0.413  -2.833   0.432  1.00  0.00    -0.387 OA
ATOM     22  H2  UNL     1       1.316  -3.105   0.315  1.00  0.00     0.210 HD
ENDBRANCH  14  21
TORSDOF 3
