REMARK  3 active torsions:
REMARK  status: ('A' for Active; 'I' for Inactive)
REMARK    1  A    between atoms: S1_2  and  N1_3 
REMARK    2  A    between atoms: C6_14  and  C7_15 
REMARK    3  A    between atoms: C7_15  and  C8_16 
ROOT
HETATM    1  N1  UNL     1      -3.222  -0.640   0.856  1.00  0.00    -0.155 N 
HETATM    2  C2  UNL     1      -3.185  -0.627  -0.600  1.00  0.00     0.180 C 
HETATM    3  C3  UNL     1      -2.932   0.824  -1.006  1.00  0.00     0.135 C 
HETATM    4  C4  UNL     1      -3.557   1.835  -0.322  1.00  0.00     0.221 C 
HETATM    5  N2  UNL     1      -3.003   3.031  -0.830  1.00  0.00    -0.343 N 
ATOM      6  H2  UNL     1      -3.446   3.950  -0.841  1.00  0.00     0.164 HD
HETATM    7  C5  UNL     1      -1.737   2.714  -1.313  1.00  0.00     0.156 C 
HETATM    8  N3  UNL     1      -0.896   3.527  -1.846  1.00  0.00    -0.376 N 
ATOM      9  H31 UNL     1       0.032   3.295  -2.200  1.00  0.00     0.158 HD
ATOM     10  H32 UNL     1      -1.024   4.513  -2.075  1.00  0.00     0.158 HD
HETATM   11  N4  UNL     1      -1.558   1.332  -0.992  1.00  0.00    -0.200 NA
HETATM   12  C6  UNL     1      -0.899   1.119   0.298  1.00  0.00     0.083 C 
HETATM   13  N5  UNL     1      -1.487   0.823   1.447  1.00  0.00    -0.184 N 
ATOM     14  H5  UNL     1      -0.972   0.767   2.326  1.00  0.00     0.185 HD
HETATM   15  C14 UNL     1      -2.860   0.593   1.369  1.00  0.00     0.689 C 
HETATM   16  N6  UNL     1      -3.640   1.620   1.063  1.00  0.00    -0.203 N 
ATOM     17  H6  UNL     1      -4.203   2.160   1.720  1.00  0.00     0.180 HD
ENDROOT
BRANCH  12  18
HETATM   18  C7  UNL     1       0.609   1.328   0.355  1.00  0.00     0.076 C 
BRANCH  18  19
HETATM   19  C8  UNL     1       1.353   0.003   0.127  1.00  0.00    -0.008 C 
HETATM   20  C9  UNL     1       2.506  -0.165   1.128  1.00  0.00     0.005 C 
HETATM   21  C10 UNL     1       3.268  -1.470   0.897  1.00  0.00     0.000 C 
HETATM   22  C11 UNL     1       3.782  -1.576  -0.536  1.00  0.00     0.000 C 
HETATM   23  C12 UNL     1       2.663  -1.369  -1.556  1.00  0.00     0.000 C 
HETATM   24  C13 UNL     1       1.901  -0.070  -1.307  1.00  0.00     0.005 C 
ENDBRANCH  18  19
ENDBRANCH  12  18
BRANCH   1  25
HETATM   25  S1  UNL     1      -3.269  -2.059   1.717  1.00  0.00    -0.041 SA
HETATM   26  C1  UNL     1      -1.511  -2.475   1.723  1.00  0.00     0.115 C 
ENDBRANCH   1  25
TORSDOF 3
