REMARK  7 active torsions:
REMARK  status: ('A' for Active; 'I' for Inactive)
REMARK    1  A    between atoms: O1_2  and  C2_3 
REMARK    2  A    between atoms: C5_7  and  S1_8 
REMARK    3  A    between atoms: S1_8  and  C6_9 
REMARK    4  A    between atoms: C6_9  and  C7_10 
REMARK    5  A    between atoms: C7_10  and  C8_12 
REMARK    6  A    between atoms: C17_23  and  O5_24 
REMARK    7  A    between atoms: C19_27  and  C20_28 
ROOT
HETATM    1  C8  UNL     1       0.832   0.573  -0.432  1.00  0.00     0.129 A 
HETATM    2  C9  UNL     1      -0.077   0.242   0.777  1.00  0.00     0.174 A 
HETATM    3  O4  UNL     1      -1.277   0.333   0.947  1.00  0.00    -0.294 OA
HETATM    4  C10 UNL     1       1.137  -0.284   1.719  1.00  0.00     0.148 A 
HETATM    5 CL1  UNL     1       1.216   0.586   3.283  1.00  0.00    -0.106 Cl
HETATM    6  C11 UNL     1       1.088  -1.869   1.809  1.00  0.00     0.091 C 
HETATM    7  C12 UNL     1       0.247  -2.482   2.907  1.00  0.00     0.048 C 
HETATM    8  C13 UNL     1       2.353  -2.721   1.434  1.00  0.00     0.078 C 
HETATM    9  C14 UNL     1       1.997  -2.212  -0.017  1.00  0.00     0.066 C 
HETATM   10  C15 UNL     1       1.699  -2.634  -1.434  1.00  0.00     0.041 C 
HETATM   11  C16 UNL     1       0.522  -1.711  -1.940  1.00  0.00     0.036 C 
HETATM   12  C17 UNL     1       0.656  -0.173  -1.808  1.00  0.00     0.143 C 
HETATM   13  C18 UNL     1       2.883  -0.941  -0.066  1.00  0.00     0.063 C 
HETATM   14  C19 UNL     1       2.065   0.184   0.522  1.00  0.00     0.106 A 
HETATM   15  O8  UNL     1       0.592  -2.245   0.524  1.00  0.00    -0.367 OA
ENDROOT
BRANCH   1  16
HETATM   16  C7  UNL     1       0.725   2.126  -0.786  1.00  0.00     0.156 C 
HETATM   17  O3  UNL     1       1.522   2.600  -1.623  1.00  0.00    -0.296 OA
BRANCH  16  18
HETATM   18  C6  UNL     1      -0.361   3.035  -0.234  1.00  0.00     0.159 C 
BRANCH  18  19
HETATM   19  S1  UNL     1      -1.627   3.270  -1.516  1.00  0.00    -0.118 SA
BRANCH  19  20
HETATM   20  C5  UNL     1      -3.065   2.815  -0.650  1.00  0.00     0.058 A 
HETATM   21  C2  UNL     1      -3.791   1.614  -0.808  1.00  0.00     0.109 A 
HETATM   22  C3  UNL     1      -4.846   1.691   0.077  1.00  0.00     0.179 A 
HETATM   23  O2  UNL     1      -4.802   2.863   0.766  1.00  0.00    -0.330 OA
HETATM   24  C4  UNL     1      -3.714   3.545   0.318  1.00  0.00     0.162 A 
BRANCH  21  25
HETATM   25  O1  UNL     1      -3.488   0.611  -1.669  1.00  0.00    -0.353 OA
HETATM   26  C1  UNL     1      -4.144  -0.620  -1.388  1.00  0.00     0.210 C 
ENDBRANCH  21  25
ENDBRANCH  19  20
ENDBRANCH  18  19
ENDBRANCH  16  18
ENDBRANCH   1  16
BRANCH  12  27
HETATM   27  O5  UNL     1       1.770   0.166  -2.652  1.00  0.00    -0.394 OA
ATOM     28  H5  UNL     1       1.664  -0.284  -3.482  1.00  0.00     0.210 HD
ENDBRANCH  12  27
BRANCH  14  29
HETATM   29  C20 UNL     1       2.970   1.420   0.936  1.00  0.00     0.186 C 
HETATM   30  O6  UNL     1       2.603   2.570   1.147  1.00  0.00    -0.647 OA
HETATM   31  O7  UNL     1       4.266   1.110   1.169  1.00  0.00    -0.647 OA
ENDBRANCH  14  29
TORSDOF 7
