REMARK  7 active torsions:
REMARK  status: ('A' for Active; 'I' for Inactive)
REMARK    1  A    between atoms: C7_10  and  O3_11 
REMARK    2  A    between atoms: C8_13  and  O4_14 
REMARK    3  A    between atoms: C9_16  and  C10_17 
REMARK    4  A    between atoms: C10_17  and  O5_18 
REMARK    5  A    between atoms: O5_18  and  C11_19 
REMARK    6  A    between atoms: C11_19  and  C12_20 
REMARK    7  A    between atoms: C12_20  and  N1_21 
ROOT
HETATM    1  C1  UNL     1      -0.383  -1.850   2.282  1.00  0.00     0.017 C 
HETATM    2  C2  UNL     1       0.917  -2.389   1.698  1.00  0.00     0.071 C 
HETATM    3  C3  UNL     1       2.150  -1.388   1.755  1.00  0.00     0.149 C 
HETATM    4 CL1  UNL     1       2.980  -1.239   3.320  1.00  0.00    -0.087 Cl
HETATM    5  C4  UNL     1       2.703  -2.383   0.814  1.00  0.00     0.098 C 
HETATM    6  C5  UNL     1       1.242  -2.473   0.048  1.00  0.00     0.116 C 
HETATM    7  O1  UNL     1       0.149  -1.655  -0.526  1.00  0.00    -0.228 OA
HETATM    8  O2  UNL     1       0.161  -0.273  -0.135  1.00  0.00    -0.237 OA
HETATM    9  C6  UNL     1      -0.134   0.514  -1.288  1.00  0.00     0.251 C 
HETATM   10  C7  UNL     1       0.967   1.564  -1.560  1.00  0.00     0.116 C 
HETATM   11  C8  UNL     1       0.448   3.030  -1.520  1.00  0.00     0.161 C 
HETATM   12  C9  UNL     1       0.622   3.537  -0.078  1.00  0.00     0.042 C 
HETATM   13  C15 UNL     1       1.673   2.595   0.539  1.00  0.00     0.022 C 
HETATM   14  C16 UNL     1       2.159   1.636  -0.580  1.00  0.00     0.081 C 
HETATM   15  C17 UNL     1       2.777   0.319  -0.029  1.00  0.00     0.269 C 
HETATM   16  O6  UNL     1       3.268  -0.606  -1.041  1.00  0.00    -0.360 OA
HETATM   17  C18 UNL     1       2.505  -1.494  -1.880  1.00  0.00     0.182 C 
HETATM   18  C19 UNL     1       1.964  -2.866  -1.280  1.00  0.00     0.009 C 
HETATM   19  C20 UNL     1       0.909  -3.457  -2.273  1.00  0.00     0.020 C 
HETATM   20  C21 UNL     1       3.035  -3.991  -1.222  1.00  0.00     0.020 C 
HETATM   21  O7  UNL     1       2.048  -0.086   1.152  1.00  0.00    -0.334 OA
ENDROOT
BRANCH  12  22
HETATM   22  C10 UNL     1      -0.672   3.665   0.741  1.00  0.00     0.174 C 
BRANCH  22  23
HETATM   23  O5  UNL     1      -1.223   2.388   1.045  1.00  0.00    -0.389 OA
BRANCH  23  24
HETATM   24  C11 UNL     1      -2.654   2.364   0.948  1.00  0.00     0.198 C 
BRANCH  24  25
HETATM   25  C12 UNL     1      -3.146   0.927   1.198  1.00  0.00     0.297 C 
BRANCH  25  26
HETATM   26  N1  UNL     1      -4.545   0.691   0.784  1.00  0.00     0.082 N 
HETATM   27  C13 UNL     1      -4.795  -0.747   0.657  1.00  0.00     0.309 C 
HETATM   28  C14 UNL     1      -5.496   1.282   1.723  1.00  0.00     0.309 C 
ENDBRANCH  25  26
ENDBRANCH  24  25
ENDBRANCH  23  24
ENDBRANCH  22  23
ENDBRANCH  12  22
BRANCH  11  29
HETATM   29  O4  UNL     1      -0.860   3.205  -2.041  1.00  0.00    -0.392 OA
ATOM     30  H4  UNL     1      -1.177   4.100  -2.017  1.00  0.00     0.210 HD
ENDBRANCH  11  29
BRANCH  10  31
HETATM   31  O3  UNL     1       1.455   1.373  -2.915  1.00  0.00    -0.384 OA
ATOM     32  H3  UNL     1       2.132   2.018  -3.082  1.00  0.00     0.210 HD
ENDBRANCH  10  31
TORSDOF 7
