REMARK  17 active torsions:
REMARK  status: ('A' for Active; 'I' for Inactive)
REMARK    1  A    between atoms: C7_7  and  O1_8 
REMARK    2  A    between atoms: C8_11  and  C9_12 
REMARK    3  A    between atoms: C9_12  and  C10_13 
REMARK    4  A    between atoms: C10_13  and  C11_14 
REMARK    5  A    between atoms: C11_14  and  C12_15 
REMARK    6  A    between atoms: C12_15  and  O3_16 
REMARK    7  A    between atoms: C14_19  and  O4_20 
REMARK    8  A    between atoms: C15_22  and  C16_23 
REMARK    9  A    between atoms: C16_23  and  O5_24 
REMARK   10  A    between atoms: O5_24  and  C17_25 
REMARK   11  A    between atoms: C18_26  and  O6_27 
REMARK   12  A    between atoms: C19_29  and  O7_30 
REMARK   13  A    between atoms: C20_32  and  O8_33 
REMARK   14  A    between atoms: C24_38  and  C25_39 
REMARK   15  A    between atoms: C25_39  and  O9_40 
REMARK   16  A    between atoms: C26_42  and  C27_43 
REMARK   17  A    between atoms: C27_43  and  O10_44 
ROOT
HETATM    1  C1  UNL     1       4.432  -2.261  -2.150  1.00  0.00     0.016 C 
HETATM    2  C2  UNL     1       3.440  -2.267  -1.263  1.00  0.00    -0.064 C 
HETATM    3  C3  UNL     1       2.199  -2.979  -1.446  1.00  0.00     0.059 C 
HETATM    4  C4  UNL     1       1.396  -3.011   0.093  1.00  0.00    -0.015 C 
HETATM    5  C5  UNL     1       0.331  -4.074   0.200  1.00  0.00     0.017 C 
HETATM    6  C6  UNL     1       1.624  -2.120   1.523  1.00  0.00     0.080 C 
HETATM    7  C7  UNL     1       2.562  -0.751   1.096  1.00  0.00     0.177 C 
HETATM    8  O2  UNL     1       2.079   0.443   0.424  1.00  0.00    -0.349 OA
HETATM    9  C8  UNL     1       2.465   0.660  -0.992  1.00  0.00     0.128 C 
HETATM   10  C13 UNL     1       1.768  -0.261  -2.164  1.00  0.00     0.071 C 
HETATM   11  C14 UNL     1       1.306  -1.752  -1.819  1.00  0.00     0.080 C 
HETATM   12  C15 UNL     1       1.323  -1.644  -0.348  1.00  0.00     0.040 C 
HETATM   13  C26 UNL     1       3.201  -1.537   0.027  1.00  0.00     0.073 C 
ENDROOT
BRANCH  12  14
HETATM   14  C16 UNL     1       0.025  -0.754   0.062  1.00  0.00     0.183 C 
BRANCH  14  15
HETATM   15  O5  UNL     1      -1.101  -1.619   0.209  1.00  0.00    -0.382 OA
BRANCH  15  16
HETATM   16  C17 UNL     1      -2.416  -1.060   0.234  1.00  0.00     0.159 C 
HETATM   17  C18 UNL     1      -2.990  -0.668  -1.148  1.00  0.00     0.178 C 
HETATM   18  C19 UNL     1      -3.788   0.630  -1.155  1.00  0.00     0.178 C 
HETATM   19  C20 UNL     1      -4.832   0.746  -0.039  1.00  0.00     0.157 C 
HETATM   20  C21 UNL     1      -4.409   0.162   1.347  1.00  0.00    -0.011 C 
HETATM   21  C22 UNL     1      -4.886   1.060   2.514  1.00  0.00     0.018 C 
HETATM   22  C23 UNL     1      -5.194  -1.175   1.520  1.00  0.00     0.018 C 
HETATM   23  C24 UNL     1      -2.855  -0.164   1.442  1.00  0.00     0.051 C 
BRANCH  17  24
HETATM   24  O6  UNL     1      -2.012  -0.575  -2.192  1.00  0.00    -0.390 OA
ATOM     25  H6  UNL     1      -2.364  -0.334  -3.041  1.00  0.00     0.210 HD
ENDBRANCH  17  24
BRANCH  18  26
HETATM   26  O7  UNL     1      -4.466   0.743  -2.429  1.00  0.00    -0.390 OA
ATOM     27  H7  UNL     1      -4.964   1.552  -2.433  1.00  0.00     0.210 HD
ENDBRANCH  18  26
BRANCH  19  28
HETATM   28  O8  UNL     1      -5.225   2.127   0.056  1.00  0.00    -0.392 OA
ATOM     29  H8  UNL     1      -5.872   2.199   0.748  1.00  0.00     0.210 HD
ENDBRANCH  19  28
BRANCH  23  30
HETATM   30  C25 UNL     1      -1.976   1.067   1.752  1.00  0.00     0.172 C 
BRANCH  30  31
HETATM   31  O9  UNL     1      -1.602   1.788   0.597  1.00  0.00    -0.400 OA
ATOM     32  H9  UNL     1      -1.061   2.545   0.788  1.00  0.00     0.209 HD
ENDBRANCH  30  31
ENDBRANCH  23  30
ENDBRANCH  15  16
ENDBRANCH  14  15
ENDBRANCH  12  14
BRANCH  11  33
HETATM   33  O4  UNL     1       0.098  -2.090  -2.529  1.00  0.00    -0.388 OA
ATOM     34  H4  UNL     1      -0.445  -1.344  -2.756  1.00  0.00     0.210 HD
ENDBRANCH  11  33
BRANCH  13  35
HETATM   35  C27 UNL     1       4.103  -2.580   0.878  1.00  0.00     0.184 C 
BRANCH  35  36
HETATM   36  O10 UNL     1       5.494  -2.225   0.733  1.00  0.00    -0.400 OA
ATOM     37  H10 UNL     1       6.023  -2.836   1.232  1.00  0.00     0.209 HD
ENDBRANCH  35  36
ENDBRANCH  13  35
BRANCH   7  38
HETATM   38  O1  UNL     1       3.380  -0.313   2.150  1.00  0.00    -0.364 OA
ATOM     39  H1  UNL     1       3.900   0.446   1.913  1.00  0.00     0.213 HD
ENDBRANCH   7  38
BRANCH   9  40
HETATM   40  C9  UNL     1       2.144   2.140  -1.312  1.00  0.00     0.032 C 
BRANCH  40  41
HETATM   41  C10 UNL     1       2.648   3.107  -0.239  1.00  0.00     0.004 C 
BRANCH  41  42
HETATM   42  C11 UNL     1       2.522   4.565  -0.693  1.00  0.00     0.026 C 
BRANCH  42  43
HETATM   43  C12 UNL     1       2.638   5.530   0.481  1.00  0.00     0.164 C 
BRANCH  43  44
HETATM   44  O3  UNL     1       1.486   5.428   1.312  1.00  0.00    -0.401 OA
ATOM     45  H3  UNL     1       1.558   6.029   2.044  1.00  0.00     0.209 HD
ENDBRANCH  43  44
ENDBRANCH  42  43
ENDBRANCH  41  42
ENDBRANCH  40  41
ENDBRANCH   9  40
TORSDOF 17
