REMARK  8 active torsions:
REMARK  status: ('A' for Active; 'I' for Inactive)
REMARK    1  A    between atoms: C2_2  and  C3_3 
REMARK    2  A    between atoms: C4_4  and  O1_5 
REMARK    3  A    between atoms: C5_7  and  O2_8 
REMARK    4  A    between atoms: C6_10  and  O3_11 
REMARK    5  A    between atoms: O3_11  and  C7_12 
REMARK    6  A    between atoms: C7_12  and  C8_13 
REMARK    7  A    between atoms: N3_31  and  C23_32 
REMARK    8  A    between atoms: C23_32  and  C24_33 
ROOT
HETATM    1  C3  UNL     1       1.529   1.694  -1.502  1.00  0.00     0.231 C 
HETATM    2  C4  UNL     1       0.084   2.157  -1.790  1.00  0.00     0.183 C 
HETATM    3  C5  UNL     1      -0.647   1.870  -0.497  1.00  0.00     0.213 C 
HETATM    4  C6  UNL     1       0.042   0.591   0.045  1.00  0.00     0.273 C 
HETATM    5  C14 UNL     1      -0.420  -0.772  -0.517  1.00  0.00     0.128 C 
HETATM    6  C15 UNL     1      -1.580  -1.351  -1.299  1.00  0.00     0.267 C 
HETATM    7  C16 UNL     1      -1.355  -2.893  -1.342  1.00  0.00     0.348 C 
HETATM    8  N1  UNL     1       0.089  -3.384  -1.093  1.00  0.00     0.014 N 
HETATM    9  C17 UNL     1       0.382  -4.550  -2.001  1.00  0.00     0.356 C 
HETATM   10  O4  UNL     1       0.138  -3.853   0.215  1.00  0.00    -0.065 OA
HETATM   11  C18 UNL     1       1.208  -2.334  -1.206  1.00  0.00     0.352 C 
HETATM   12  C19 UNL     1       0.788  -0.847  -1.454  1.00  0.00     0.181 C 
HETATM   13  C20 UNL     1       0.716  -0.678  -3.000  1.00  0.00     0.073 C 
HETATM   14  C21 UNL     1      -0.610  -1.173  -3.559  1.00  0.00     0.275 C 
HETATM   15  N2  UNL     1      -1.665  -0.744  -2.646  1.00  0.00     0.091 N 
HETATM   16  C22 UNL     1      -3.001  -0.919  -3.222  1.00  0.00     0.310 C 
HETATM   17  N3  UNL     1       1.408   0.385  -0.666  1.00  0.00     0.008 N 
ENDROOT
BRANCH   4  18
HETATM   18  O3  UNL     1       0.210   0.594   1.471  1.00  0.00    -0.346 OA
BRANCH  18  19
HETATM   19  C7  UNL     1      -0.554   1.365   2.392  1.00  0.00     0.209 C 
BRANCH  19  20
HETATM   20  C8  UNL     1      -2.009   1.000   2.456  1.00  0.00    -0.035 A 
HETATM   21  C9  UNL     1      -2.981   2.004   2.611  1.00  0.00     0.009 A 
HETATM   22  C10 UNL     1      -4.329   1.674   2.719  1.00  0.00     0.001 A 
HETATM   23  C11 UNL     1      -4.727   0.340   2.695  1.00  0.00     0.000 A 
HETATM   24  C12 UNL     1      -3.771  -0.668   2.580  1.00  0.00     0.001 A 
HETATM   25  C13 UNL     1      -2.420  -0.339   2.472  1.00  0.00     0.009 A 
ENDBRANCH  19  20
ENDBRANCH  18  19
ENDBRANCH   4  18
BRANCH   3  26
HETATM   26  O2  UNL     1      -2.046   1.728  -0.760  1.00  0.00    -0.388 OA
ATOM     27  H2  UNL     1      -2.505   1.548   0.052  1.00  0.00     0.210 HD
ENDBRANCH   3  26
BRANCH  17  28
HETATM   28  C23 UNL     1       2.649  -0.058   0.115  1.00  0.00     0.219 C 
BRANCH  28  29
HETATM   29  C24 UNL     1       2.805  -0.008   1.616  1.00  0.00    -0.013 A 
HETATM   30  C25 UNL     1       3.461   1.067   2.236  1.00  0.00     0.013 A 
HETATM   31  C26 UNL     1       3.633   1.115   3.621  1.00  0.00     0.001 A 
HETATM   32  C27 UNL     1       3.178   0.063   4.407  1.00  0.00     0.000 A 
HETATM   33  C28 UNL     1       2.565  -1.034   3.815  1.00  0.00     0.001 A 
HETATM   34  C29 UNL     1       2.383  -1.076   2.427  1.00  0.00     0.013 A 
ENDBRANCH  28  29
ENDBRANCH  17  28
BRANCH   2  35
HETATM   35  O1  UNL     1      -0.024   3.526  -2.147  1.00  0.00    -0.391 OA
ATOM     36  H1  UNL     1      -0.913   3.811  -2.324  1.00  0.00     0.210 HD
ENDBRANCH   2  35
BRANCH   1  37
HETATM   37  C2  UNL     1       2.414   2.817  -0.882  1.00  0.00     0.032 C 
HETATM   38  C1  UNL     1       1.937   3.540   0.365  1.00  0.00     0.007 C 
ENDBRANCH   1  37
TORSDOF 8
