REMARK  14 active torsions:
REMARK  status: ('A' for Active; 'I' for Inactive)
REMARK    1  A    between atoms: N1_1  and  C1_5 
REMARK    2  A    between atoms: C1_5  and  C2_6 
REMARK    3  A    between atoms: C2_6  and  C3_7 
REMARK    4  A    between atoms: C3_7  and  C4_8 
REMARK    5  A    between atoms: C4_8  and  C5_9 
REMARK    6  A    between atoms: C5_9  and  N2_10 
REMARK    7  A    between atoms: N2_10  and  C6_13 
REMARK    8  A    between atoms: C6_13  and  C7_14 
REMARK    9  A    between atoms: C7_14  and  C8_15 
REMARK   10  A    between atoms: C8_15  and  C9_16 
REMARK   11  A    between atoms: C9_16  and  N3_17 
REMARK   12  A    between atoms: N3_17  and  C10_19 
REMARK   13  A    between atoms: C14_23  and  O1_24 
REMARK   14  A    between atoms: C19_32  and  N5_33 
ROOT
HETATM    1  C10 UNL     1       1.623  -0.200   1.765  1.00  0.00     0.016 C 
HETATM    2  C11 UNL     1       2.638  -0.747   2.586  1.00  0.00     0.022 C 
HETATM    3  C12 UNL     1       3.890  -0.095   2.622  1.00  0.00    -0.011 C 
HETATM    4  C13 UNL     1       4.018   1.081   1.867  1.00  0.00     0.088 C 
HETATM    5  C14 UNL     1       2.812   1.752   1.883  1.00  0.00     0.146 C 
HETATM    6  C15 UNL     1       1.957   1.004   1.096  1.00  0.00     0.102 C 
HETATM    7  C16 UNL     1       2.835   0.762  -0.105  1.00  0.00     0.004 A 
HETATM    8  C17 UNL     1       4.156   0.811   0.404  1.00  0.00     0.028 A 
HETATM    9  N4  UNL     1       5.281   0.567  -0.275  1.00  0.00    -0.366 N 
ATOM     10  H4  UNL     1       6.212   0.614   0.139  1.00  0.00     0.165 HD
HETATM   11  C18 UNL     1       5.052   0.250  -1.576  1.00  0.00     0.126 A 
HETATM   12  C19 UNL     1       3.775   0.183  -2.171  1.00  0.00     0.142 A 
HETATM   13  C20 UNL     1       2.607   0.481  -1.439  1.00  0.00     0.089 A 
HETATM   14  N6  UNL     1       1.298   0.284  -1.913  1.00  0.00    -0.099 NA
ENDROOT
BRANCH   1  15
HETATM   15  N3  UNL     1       0.332  -0.706   1.672  1.00  0.00    -0.392 N 
ATOM     16  H3  UNL     1      -0.445  -0.064   1.513  1.00  0.00     0.159 HD
BRANCH  15  17
HETATM   17  C9  UNL     1       0.062  -2.135   1.797  1.00  0.00     0.119 C 
BRANCH  17  18
HETATM   18  C8  UNL     1       0.311  -2.882   0.476  1.00  0.00     0.021 C 
BRANCH  18  19
HETATM   19  C7  UNL     1      -0.994  -3.334  -0.196  1.00  0.00     0.029 C 
BRANCH  19  20
HETATM   20  C6  UNL     1      -1.784  -2.168  -0.795  1.00  0.00     0.232 C 
BRANCH  20  21
HETATM   21  N2  UNL     1      -3.218  -2.339  -0.547  1.00  0.00    -0.075 N 
ATOM     22  H22 UNL     1      -3.394  -2.774   0.359  1.00  0.00     0.277 HD
ATOM     23  H21 UNL     1      -3.620  -3.060  -1.146  1.00  0.00     0.277 HD
BRANCH  21  24
HETATM   24  C5  UNL     1      -3.929  -1.065  -0.682  1.00  0.00     0.232 C 
BRANCH  24  25
HETATM   25  C4  UNL     1      -3.891  -0.290   0.643  1.00  0.00     0.027 C 
BRANCH  25  26
HETATM   26  C3  UNL     1      -4.179   1.202   0.462  1.00  0.00     0.003 C 
BRANCH  26  27
HETATM   27  C2  UNL     1      -2.947   1.961  -0.045  1.00  0.00     0.027 C 
BRANCH  27  28
HETATM   28  C1  UNL     1      -3.250   3.445  -0.240  1.00  0.00     0.229 C 
BRANCH  28  29
HETATM   29  N1  UNL     1      -2.077   4.154  -0.738  1.00  0.00    -0.079 N 
ATOM     30  H13 UNL     1      -1.266   4.011  -0.136  1.00  0.00     0.274 HD
ATOM     31  H12 UNL     1      -1.713   3.728  -1.591  1.00  0.00     0.274 HD
ATOM     32  H11 UNL     1      -2.279   5.145  -0.868  1.00  0.00     0.274 HD
ENDBRANCH  28  29
ENDBRANCH  27  28
ENDBRANCH  26  27
ENDBRANCH  25  26
ENDBRANCH  24  25
ENDBRANCH  21  24
ENDBRANCH  20  21
ENDBRANCH  19  20
ENDBRANCH  18  19
ENDBRANCH  17  18
ENDBRANCH  15  17
ENDBRANCH   1  15
BRANCH   5  33
HETATM   33  O1  UNL     1       2.722   3.106   1.929  1.00  0.00    -0.393 OA
ATOM     34  H1  UNL     1       1.892   3.568   1.940  1.00  0.00     0.210 HD
ENDBRANCH   5  33
BRANCH  12  35
HETATM   35  N5  UNL     1       3.718  -0.189  -3.575  1.00  0.00    -0.112 N 
HETATM   36  O2  UNL     1       2.788   0.269  -4.258  1.00  0.00    -0.532 OA
HETATM   37  O3  UNL     1       4.614  -0.927  -4.011  1.00  0.00    -0.532 OA
ENDBRANCH  12  35
TORSDOF 14
