REMARK  14 active torsions:
REMARK  status: ('A' for Active; 'I' for Inactive)
REMARK    1  A    between atoms: C2_2  and  C3_3 
REMARK    2  A    between atoms: C3_3  and  C4_4 
REMARK    3  A    between atoms: C4_4  and  C5_5 
REMARK    4  A    between atoms: C5_5  and  C6_6 
REMARK    5  A    between atoms: C6_6  and  C7_7 
REMARK    6  A    between atoms: C7_7  and  C8_8 
REMARK    7  A    between atoms: C8_8  and  C9_9 
REMARK    8  A    between atoms: C9_9  and  C10_10 
REMARK    9  A    between atoms: C10_10  and  C11_11 
REMARK   10  A    between atoms: C11_11  and  O2_13 
REMARK   11  A    between atoms: O2_13  and  C12_14 
REMARK   12  A    between atoms: C12_14  and  C13_15 
REMARK       I    between atoms: N2_23  and  C19_24 
REMARK   13  A    between atoms: C19_24  and  C20_26 
REMARK   14  A    between atoms: C21_27  and  C22_28 
ROOT
HETATM    1  C13 UNL     1       0.483   3.549   0.655  1.00  0.00     0.042 C 
HETATM    2  N1  UNL     1      -0.228   4.176  -0.309  1.00  0.00    -0.361 N 
ATOM      3  H1  UNL     1      -1.013   3.727  -0.781  1.00  0.00     0.165 HD
HETATM    4  C14 UNL     1       0.165   5.437  -0.610  1.00  0.00     0.009 C 
HETATM    5  C15 UNL     1       0.871   6.236   0.289  1.00  0.00     0.025 C 
HETATM    6  C16 UNL     1       1.677   5.551   1.182  1.00  0.00     0.013 C 
HETATM    7  C17 UNL     1       1.661   4.159   1.088  1.00  0.00    -0.015 C 
HETATM    8  C18 UNL     1       2.955   3.512   0.589  1.00  0.00     0.166 C 
HETATM    9  N2  UNL     1       2.927   3.324  -0.895  1.00  0.00    -0.344 N 
HETATM   10  C19 UNL     1       3.045   2.006  -1.321  1.00  0.00     0.243 C 
HETATM   11  O3  UNL     1       3.289   1.068  -0.566  1.00  0.00    -0.268 OA
HETATM   12  C34 UNL     1       2.837   4.521  -1.797  1.00  0.00     0.127 C 
HETATM   13  C35 UNL     1       1.528   4.733  -2.626  1.00  0.00     0.026 C 
HETATM   14  C36 UNL     1       0.454   5.715  -2.067  1.00  0.00     0.058 C 
ENDROOT
BRANCH  10  15
HETATM   15  C20 UNL     1       2.793   1.726  -2.752  1.00  0.00     0.073 C 
HETATM   16  C21 UNL     1       2.160   0.625  -3.194  1.00  0.00     0.020 C 
BRANCH  16  17
HETATM   17  C22 UNL     1       1.613  -0.548  -2.407  1.00  0.00     0.249 C 
HETATM   18  O4  UNL     1       2.175  -1.732  -3.028  1.00  0.00    -0.285 OA
HETATM   19  C23 UNL     1       2.027  -2.993  -2.541  1.00  0.00     0.363 C 
HETATM   20  O5  UNL     1       2.153  -3.960  -3.281  1.00  0.00    -0.238 OA
HETATM   21  N3  UNL     1       1.755  -3.094  -1.202  1.00  0.00    -0.310 N 
HETATM   22  C24 UNL     1       1.564  -4.338  -0.488  1.00  0.00     0.110 C 
ATOM     23  H3  UNL     1       1.682  -2.228  -0.669  1.00  0.00     0.167 HD
HETATM   24  C25 UNL     1       2.870  -5.159  -0.455  1.00  0.00     0.054 C 
HETATM   25  C28 UNL     1       1.360  -4.053   1.019  1.00  0.00     0.054 C 
HETATM   26  N4  UNL     1       0.470  -5.127  -1.037  1.00  0.00    -0.334 N 
HETATM   27  C26 UNL     1       3.734  -4.414   0.555  1.00  0.00     0.004 C 
HETATM   28  C27 UNL     1       2.755  -4.025   1.656  1.00  0.00     0.004 C 
HETATM   29  C29 UNL     1      -0.863  -4.898  -1.173  1.00  0.00     0.224 C 
ATOM     30  H4  UNL     1       0.764  -6.037  -1.392  1.00  0.00     0.165 HD
HETATM   31  O6  UNL     1      -1.568  -5.814  -1.609  1.00  0.00    -0.273 OA
HETATM   32  C30 UNL     1      -1.474  -3.560  -0.820  1.00  0.00     0.154 C 
HETATM   33  C31 UNL     1      -1.169  -2.478  -1.838  1.00  0.00    -0.006 C 
HETATM   34  C32 UNL     1      -1.675  -2.687  -3.249  1.00  0.00     0.064 C 
HETATM   35  N5  UNL     1      -0.439  -1.477  -1.446  1.00  0.00    -0.332 N 
HETATM   36  C33 UNL     1       0.050  -0.599  -2.397  1.00  0.00     0.255 C 
ATOM     37  H5  UNL     1      -0.231  -1.341  -0.457  1.00  0.00     0.168 HD
HETATM   38  O7  UNL     1      -0.657   0.075  -3.137  1.00  0.00    -0.270 OA
ENDBRANCH  16  17
ENDBRANCH  10  15
BRANCH   1  39
HETATM   39  C12 UNL     1       0.091   2.136   1.021  1.00  0.00     0.236 C 
BRANCH  39  40
HETATM   40  O2  UNL     1       0.849   1.533   2.096  1.00  0.00    -0.315 OA
BRANCH  40  41
HETATM   41  C11 UNL     1       0.308   1.636   3.340  1.00  0.00     0.259 C 
HETATM   42  O1  UNL     1      -0.640   2.342   3.643  1.00  0.00    -0.265 OA
BRANCH  41  43
HETATM   43  C10 UNL     1       1.020   0.738   4.322  1.00  0.00     0.111 C 
BRANCH  43  44
HETATM   44  C9  UNL     1       0.711  -0.752   4.137  1.00  0.00     0.010 C 
BRANCH  44  45
HETATM   45  C8  UNL     1      -0.781  -1.100   4.295  1.00  0.00     0.000 C 
BRANCH  45  46
HETATM   46  C7  UNL     1      -1.521  -1.146   2.954  1.00  0.00     0.000 C 
BRANCH  46  47
HETATM   47  C6  UNL     1      -2.926  -0.552   3.043  1.00  0.00     0.000 C 
BRANCH  47  48
HETATM   48  C5  UNL     1      -3.623  -0.584   1.679  1.00  0.00     0.000 C 
BRANCH  48  49
HETATM   49  C4  UNL     1      -4.589   0.597   1.516  1.00  0.00     0.000 C 
BRANCH  49  50
HETATM   50  C3  UNL     1      -5.322   0.602   0.171  1.00  0.00    -0.000 C 
BRANCH  50  51
HETATM   51  C2  UNL     1      -4.406   0.894  -1.019  1.00  0.00    -0.005 C 
HETATM   52  C1  UNL     1      -5.172   0.869  -2.333  1.00  0.00     0.005 C 
ENDBRANCH  50  51
ENDBRANCH  49  50
ENDBRANCH  48  49
ENDBRANCH  47  48
ENDBRANCH  46  47
ENDBRANCH  45  46
ENDBRANCH  44  45
ENDBRANCH  43  44
ENDBRANCH  41  43
ENDBRANCH  40  41
ENDBRANCH  39  40
ENDBRANCH   1  39
TORSDOF 14
