REMARK  13 active torsions:
REMARK  status: ('A' for Active; 'I' for Inactive)
REMARK    1  A    between atoms: O1_2  and  C2_3 
REMARK    2  A    between atoms: C5_6  and  C6_7 
REMARK    3  A    between atoms: C6_7  and  C7_8 
REMARK    4  A    between atoms: C9_11  and  O3_12 
REMARK    5  A    between atoms: C12_15  and  C13_16 
REMARK    6  A    between atoms: C13_16  and  C14_17 
REMARK    7  A    between atoms: C14_17  and  C15_18 
REMARK       I    between atoms: C15_18  and  N1_20 
REMARK    8  A    between atoms: N1_20  and  C16_22 
REMARK    9  A    between atoms: C25_34  and  C26_35 
REMARK       I    between atoms: C26_35  and  N3_37 
REMARK   10  A    between atoms: N3_37  and  C28_39 
REMARK   11  A    between atoms: C28_39  and  C29_40 
REMARK   12  A    between atoms: C29_40  and  N4_41 
REMARK   13  A    between atoms: C33_46  and  C34_47 
ROOT
HETATM    1  C2  UNL     1      -1.425   2.835  -0.179  1.00  0.00     0.074 C 
HETATM    2  C3  UNL     1      -0.823   3.746  -1.044  1.00  0.00     0.022 C 
HETATM    3  C4  UNL     1      -0.553   3.254  -2.338  1.00  0.00     0.074 C 
HETATM    4  C5  UNL     1      -1.692   2.700  -2.930  1.00  0.00    -0.029 C 
HETATM    5  C9  UNL     1      -2.428   1.860  -2.087  1.00  0.00     0.081 C 
HETATM    6  C11 UNL     1      -1.981   1.698  -0.761  1.00  0.00     0.015 C 
HETATM    7  C12 UNL     1      -1.442   0.296  -0.355  1.00  0.00     0.054 C 
HETATM    8  C20 UNL     1       0.045   0.017  -0.925  1.00  0.00     0.132 C 
HETATM    9  C21 UNL     1       0.292   0.698  -2.348  1.00  0.00     0.066 C 
HETATM   10  C22 UNL     1       0.678   2.213  -2.233  1.00  0.00     0.203 C 
HETATM   11  N2  UNL     1       2.000   2.546  -2.859  1.00  0.00    -0.028 N 
ATOM     12  H21 UNL     1       2.169   3.547  -2.957  1.00  0.00     0.281 HD
ATOM     13  H22 UNL     1       2.055   2.319  -3.852  1.00  0.00     0.281 HD
HETATM   14  C23 UNL     1       2.973   1.872  -2.058  1.00  0.00     0.392 A 
HETATM   15  C24 UNL     1       3.929   0.627  -2.178  1.00  0.00     0.314 A 
HETATM   16  C25 UNL     1       3.724  -0.421  -0.985  1.00  0.00     0.148 C 
HETATM   17  C32 UNL     1       2.496   0.316  -0.426  1.00  0.00     0.181 C 
HETATM   18  O6  UNL     1       1.153   0.163   0.101  1.00  0.00    -0.376 OA
HETATM   19  C33 UNL     1       3.005   1.747  -0.588  1.00  0.00     0.261 A 
HETATM   20  N5  UNL     1       4.255   1.976  -1.657  1.00  0.00     0.159 N 
ENDROOT
BRANCH   7  21
HETATM   21  C13 UNL     1      -1.554  -0.062   1.137  1.00  0.00     0.021 C 
BRANCH  21  22
HETATM   22  C14 UNL     1      -2.994  -0.047   1.662  1.00  0.00     0.103 C 
BRANCH  22  23
HETATM   23  C15 UNL     1      -2.973  -0.299   3.156  1.00  0.00     0.218 C 
HETATM   24  O4  UNL     1      -2.978   0.624   3.965  1.00  0.00    -0.274 OA
HETATM   25  N1  UNL     1      -2.877  -1.634   3.496  1.00  0.00    -0.353 N 
ATOM     26  H1  UNL     1      -3.135  -2.326   2.793  1.00  0.00     0.163 HD
BRANCH  25  27
HETATM   27  C16 UNL     1      -2.424  -2.122   4.813  1.00  0.00     0.022 C 
HETATM   28  C17 UNL     1      -2.736  -3.631   4.897  1.00  0.00     0.037 C 
HETATM   29  C18 UNL     1      -3.138  -1.438   5.989  1.00  0.00     0.037 C 
HETATM   30  C19 UNL     1      -0.909  -1.884   4.932  1.00  0.00     0.037 C 
ENDBRANCH  25  27
ENDBRANCH  22  23
ENDBRANCH  21  22
ENDBRANCH   7  21
BRANCH   1  31
HETATM   31  O1  UNL     1      -1.398   2.881   1.176  1.00  0.00    -0.356 OA
HETATM   32  C1  UNL     1      -1.167   4.147   1.781  1.00  0.00     0.210 C 
ENDBRANCH   1  31
BRANCH   5  33
HETATM   33  O3  UNL     1      -3.431   1.099  -2.616  1.00  0.00    -0.355 OA
HETATM   34  C10 UNL     1      -4.656   1.353  -1.925  1.00  0.00     0.210 C 
ENDBRANCH   5  33
BRANCH   4  35
HETATM   35  C6  UNL     1      -2.014   2.933  -4.378  1.00  0.00     0.115 C 
BRANCH  35  36
HETATM   36  C7  UNL     1      -1.498   1.885  -5.337  1.00  0.00     0.127 C 
HETATM   37  C8  UNL     1      -2.377   0.702  -5.636  1.00  0.00     0.091 C 
HETATM   38  O2  UNL     1      -0.387   1.986  -5.876  1.00  0.00    -0.298 OA
ENDBRANCH  35  36
ENDBRANCH   4  35
BRANCH  16  39
HETATM   39  C26 UNL     1       3.389  -1.843  -1.359  1.00  0.00     0.228 C 
HETATM   40  O5  UNL     1       3.060  -2.134  -2.509  1.00  0.00    -0.273 OA
HETATM   41  N3  UNL     1       3.325  -2.756  -0.295  1.00  0.00    -0.354 N 
HETATM   42  C27 UNL     1       4.178  -2.586   0.871  1.00  0.00     0.152 C 
BRANCH  41  43
HETATM   43  C28 UNL     1       2.014  -3.355  -0.022  1.00  0.00     0.155 C 
BRANCH  43  44
HETATM   44  C29 UNL     1       1.444  -4.298  -1.098  1.00  0.00     0.291 C 
BRANCH  44  45
HETATM   45  N4  UNL     1      -0.023  -4.415  -0.951  1.00  0.00     0.081 N 
HETATM   46  C30 UNL     1      -0.397  -5.465  -0.006  1.00  0.00     0.309 C 
HETATM   47  C31 UNL     1      -0.644  -4.656  -2.256  1.00  0.00     0.309 C 
ENDBRANCH  44  45
ENDBRANCH  43  44
ENDBRANCH  41  43
ENDBRANCH  16  39
BRANCH  19  48
HETATM   48  C34 UNL     1       3.215   2.702   0.591  1.00  0.00    -0.008 C 
HETATM   49  C35 UNL     1       4.689   2.684   1.054  1.00  0.00     0.017 C 
HETATM   50  C36 UNL     1       2.852   4.149   0.231  1.00  0.00     0.017 C 
HETATM   51  C37 UNL     1       2.359   2.284   1.801  1.00  0.00     0.017 C 
ENDBRANCH  19  48
TORSDOF 13
