REMARK  7 active torsions:
REMARK  status: ('A' for Active; 'I' for Inactive)
REMARK    1  A    between atoms: N1_7  and  C6_8 
REMARK    2  A    between atoms: C6_8  and  C7_9 
REMARK    3  A    between atoms: C8_10  and  C9_11 
REMARK    4  A    between atoms: C9_11  and  C10_12 
REMARK    5  A    between atoms: C10_12  and  C11_13 
REMARK       I    between atoms: N2_15  and  C13_16 
REMARK    6  A    between atoms: C13_16  and  C14_18 
REMARK    7  A    between atoms: C22_28  and  N3_29 
REMARK       I    between atoms: N3_29  and  C23_31 
REMARK       I    between atoms: C23_31  and  N4_32 
ROOT
HETATM    1  C1  UNL     1       3.862  -1.878   1.438  1.00  0.00     0.018 C 
HETATM    2  C2  UNL     1       2.600  -1.431   0.664  1.00  0.00    -0.010 C 
HETATM    3  C3  UNL     1       2.177  -2.567  -0.301  1.00  0.00     0.018 C 
HETATM    4  C4  UNL     1       1.458  -1.198   1.656  1.00  0.00     0.114 C 
HETATM    5  C5  UNL     1       1.677  -0.002   2.545  1.00  0.00     0.227 C 
HETATM    6  O1  UNL     1       1.294  -0.029   3.715  1.00  0.00    -0.273 OA
HETATM    7  N1  UNL     1       2.262   1.110   1.951  1.00  0.00    -0.283 N 
HETATM    8  C21 UNL     1       2.936   1.123   0.730  1.00  0.00     0.250 C 
HETATM    9  O3  UNL     1       3.549   2.119   0.332  1.00  0.00    -0.271 OA
HETATM   10  C22 UNL     1       2.819  -0.134  -0.150  1.00  0.00     0.200 C 
ENDROOT
BRANCH   7  11
HETATM   11  C6  UNL     1       2.329   2.323   2.744  1.00  0.00     0.163 C 
BRANCH  11  12
HETATM   12  C7  UNL     1       1.008   3.039   2.870  1.00  0.00     0.002 C 
HETATM   13  C8  UNL     1      -0.191   2.902   2.285  1.00  0.00     0.062 C 
BRANCH  13  14
HETATM   14  C9  UNL     1      -0.577   1.980   1.277  1.00  0.00    -0.078 C 
BRANCH  14  15
HETATM   15  C10 UNL     1      -1.063   1.249   0.450  1.00  0.00    -0.095 C 
BRANCH  15  16
HETATM   16  C11 UNL     1      -1.768   0.401  -0.541  1.00  0.00     0.092 C 
HETATM   17  C12 UNL     1      -2.613  -0.741   0.124  1.00  0.00     0.144 C 
HETATM   18  N2  UNL     1      -4.035  -0.869  -0.322  1.00  0.00    -0.345 N 
HETATM   19  C13 UNL     1      -4.854  -1.878   0.220  1.00  0.00     0.230 C 
HETATM   20  C15 UNL     1      -4.708   0.415  -0.709  1.00  0.00     0.097 C 
HETATM   21  O2  UNL     1      -5.943  -1.635   0.741  1.00  0.00    -0.273 OA
HETATM   22  C16 UNL     1      -4.430   0.818  -2.243  1.00  0.00     0.015 C 
HETATM   23  C20 UNL     1      -3.803   1.547  -0.414  1.00  0.00     0.024 C 
HETATM   24  C17 UNL     1      -2.935   0.644  -2.703  1.00  0.00     0.019 C 
HETATM   25  C19 UNL     1      -3.963   2.086  -1.704  1.00  0.00     0.009 C 
HETATM   26  C18 UNL     1      -2.590   1.397  -1.375  1.00  0.00    -0.014 C 
BRANCH  19  27
HETATM   27  C14 UNL     1      -4.352  -3.280  -0.086  1.00  0.00     0.188 C 
HETATM   28 BR1  UNL     1      -5.477  -4.617   0.767  1.00  0.00    -0.087 Br
ENDBRANCH  19  27
ENDBRANCH  15  16
ENDBRANCH  14  15
ENDBRANCH  13  14
ENDBRANCH  11  12
ENDBRANCH   7  11
BRANCH  10  29
HETATM   29  N3  UNL     1       4.056  -0.274  -0.932  1.00  0.00    -0.213 N 
HETATM   30  C23 UNL     1       4.209   0.319  -2.053  1.00  0.00     0.666 C 
HETATM   31  N4  UNL     1       5.389   0.207  -2.711  1.00  0.00    -0.235 N 
HETATM   32  N5  UNL     1       3.367   1.098  -2.767  1.00  0.00    -0.235 N 
ATOM     33  H42 UNL     1       6.025  -0.381  -2.172  1.00  0.00     0.174 HD
ATOM     34  H41 UNL     1       5.511   0.681  -3.606  1.00  0.00     0.174 HD
ATOM     35  H52 UNL     1       2.479   1.182  -2.272  1.00  0.00     0.174 HD
ATOM     36  H51 UNL     1       3.489   1.572  -3.662  1.00  0.00     0.174 HD
ATOM     37  H3  UNL     1       4.810  -0.858  -0.571  1.00  0.00     0.178 HD
ENDBRANCH  10  29
TORSDOF 7
