REMARK  8 active torsions:
REMARK  status: ('A' for Active; 'I' for Inactive)
REMARK    1  A    between atoms: C3_3  and  O1_4 
REMARK    2  A    between atoms: C3_3  and  C4_6 
REMARK    3  A    between atoms: N1_12  and  C10_13 
REMARK    4  A    between atoms: C10_13  and  C11_14 
REMARK    5  A    between atoms: C15_18  and  C16_19 
REMARK    6  A    between atoms: C20_23  and  C21_24 
REMARK       I    between atoms: C21_24  and  N2_26 
REMARK    7  A    between atoms: N3_31  and  C23_32 
REMARK    8  A    between atoms: C23_32  and  O4_33 
ROOT
HETATM    1  C1  UNL     1      -1.635  -0.624  -5.695  1.00  0.00     0.015 C 
HETATM    2  C2  UNL     1      -0.956  -0.185  -4.811  1.00  0.00    -0.085 C 
HETATM    3  C3  UNL     1      -0.068   0.314  -3.740  1.00  0.00     0.202 C 
ENDROOT
BRANCH   3   4
HETATM    4  O1  UNL     1       0.926  -0.676  -3.514  1.00  0.00    -0.383 OA
ATOM      5  H1  UNL     1       1.497  -0.355  -2.826  1.00  0.00     0.211 HD
ENDBRANCH   3   4
BRANCH   3   6
HETATM    6  C4  UNL     1      -0.865   0.588  -2.419  1.00  0.00     0.066 C 
HETATM    7  C5  UNL     1      -0.811  -0.450  -1.272  1.00  0.00     0.200 C 
HETATM    8  C6  UNL     1      -0.642   1.110  -0.187  1.00  0.00     0.044 C 
HETATM    9  N1  UNL     1      -1.783  -0.727  -0.245  1.00  0.00    -0.050 N 
HETATM   10  C7  UNL     1      -0.363   1.694  -1.451  1.00  0.00    -0.021 C 
HETATM   11  C8  UNL     1      -1.949   2.014  -1.043  1.00  0.00     0.038 C 
HETATM   12  C19 UNL     1       1.077   0.906  -0.777  1.00  0.00     0.047 C 
HETATM   13  C9  UNL     1      -2.826   0.628  -0.473  1.00  0.00     0.240 C 
HETATM   14  C15 UNL     1       1.022  -0.199   0.599  1.00  0.00     0.070 C 
HETATM   15  C20 UNL     1       2.467   1.515  -0.697  1.00  0.00     0.178 C 
HETATM   16  C14 UNL     1      -0.466  -1.098   0.799  1.00  0.00     0.271 C 
HETATM   17  N3  UNL     1       2.303  -0.786   0.134  1.00  0.00    -0.318 N 
HETATM   18  C22 UNL     1       3.212   0.222  -0.292  1.00  0.00     0.236 C 
HETATM   19  O3  UNL     1       4.426   0.080  -0.386  1.00  0.00    -0.272 OA
BRANCH  14  20
HETATM   20  C16 UNL     1       1.389   0.295   2.111  1.00  0.00     0.008 C 
HETATM   21  C17 UNL     1       0.343   1.067   2.951  1.00  0.00     0.012 C 
HETATM   22  C18 UNL     1       1.817  -0.901   2.999  1.00  0.00     0.012 C 
ENDBRANCH  14  20
BRANCH  17  23
HETATM   23  C23 UNL     1       2.719  -2.159   0.230  1.00  0.00     0.293 C 
BRANCH  23  24
HETATM   24  O4  UNL     1       2.513  -2.701  -1.052  1.00  0.00    -0.382 OA
ATOM     25  H4  UNL     1       2.788  -3.608  -0.989  1.00  0.00     0.211 HD
ENDBRANCH  23  24
ENDBRANCH  17  23
BRANCH  15  26
HETATM   26  C21 UNL     1       2.630   2.690   0.227  1.00  0.00     0.241 C 
HETATM   27  O2  UNL     1       1.681   3.410   0.498  1.00  0.00    -0.272 OA
HETATM   28  N2  UNL     1       3.924   2.902   0.662  1.00  0.00    -0.292 N 
HETATM   29 BR1  UNL     1       4.338   4.335   1.827  1.00  0.00     0.049 Br
ATOM     30  H2  UNL     1       4.667   2.277   0.351  1.00  0.00     0.176 HD
ENDBRANCH  15  26
BRANCH   9  31
HETATM   31  C10 UNL     1      -2.642  -1.964  -0.318  1.00  0.00     0.331 C 
BRANCH  31  32
HETATM   32  C11 UNL     1      -3.392  -1.972   0.954  1.00  0.00    -0.079 C 
HETATM   33  C12 UNL     1      -3.877  -1.822   2.045  1.00  0.00    -0.109 C 
HETATM   34  C13 UNL     1      -4.339  -1.526   3.409  1.00  0.00     0.112 C 
ENDBRANCH  31  32
ENDBRANCH   9  31
ENDBRANCH   3   6
TORSDOF 8
