REMARK  6 active torsions:
REMARK  status: ('A' for Active; 'I' for Inactive)
REMARK    1  A    between atoms: N1_2  and  C3_4 
REMARK    2  A    between atoms: C8_9  and  O1_10 
REMARK    3  A    between atoms: C10_13  and  C11_14 
REMARK    4  A    between atoms: C11_14  and  N2_15 
REMARK    5  A    between atoms: N3_18  and  C12_20 
REMARK    6  A    between atoms: C12_20  and  N4_23 
ROOT
HETATM    1  C3  UNL     1      -2.027   1.001  -0.261  1.00  0.00     0.238 C 
HETATM    2  C4  UNL     1      -1.339   0.173   0.874  1.00  0.00     0.059 C 
HETATM    3  C5  UNL     1      -2.260  -0.721   1.647  1.00  0.00    -0.022 C 
HETATM    4  C6  UNL     1      -2.425  -1.902   1.025  1.00  0.00    -0.022 C 
HETATM    5  C7  UNL     1      -1.644  -1.945  -0.247  1.00  0.00     0.054 C 
HETATM    6  C8  UNL     1      -2.365  -1.298  -1.465  1.00  0.00     0.134 C 
HETATM    7  C9  UNL     1      -1.500  -0.028  -1.303  1.00  0.00     0.066 C 
HETATM    8  C10 UNL     1      -0.679  -0.726  -0.219  1.00  0.00     0.044 C 
ENDROOT
BRANCH   8   9
HETATM    9  C11 UNL     1       0.861  -0.868  -0.264  1.00  0.00     0.083 C 
HETATM   10  N3  UNL     1       1.524  -0.698   0.820  1.00  0.00    -0.348 N 
ATOM     11  H3  UNL     1       1.007  -0.519   1.681  1.00  0.00     0.163 HD
BRANCH   9  12
HETATM   12  N2  UNL     1       1.375  -1.115  -1.501  1.00  0.00    -0.388 N 
ATOM     13  H22 UNL     1       0.847  -1.250  -2.363  1.00  0.00     0.157 HD
ATOM     14  H21 UNL     1       2.390  -1.209  -1.531  1.00  0.00     0.157 HD
ENDBRANCH   9  12
BRANCH  10  15
HETATM   15  C12 UNL     1       2.974  -0.748   0.884  1.00  0.00     0.189 C 
HETATM   16  C13 UNL     1       3.497  -2.184   0.746  1.00  0.00     0.070 C 
HETATM   17  C14 UNL     1       3.349  -0.219   2.284  1.00  0.00     0.070 C 
BRANCH  15  18
HETATM   18  N4  UNL     1       3.596   0.113  -0.124  1.00  0.00    -0.053 N 
ATOM     19  H43 UNL     1       3.259  -0.109  -1.061  1.00  0.00     0.277 HD
ATOM     20  H42 UNL     1       3.255   1.072  -0.054  1.00  0.00     0.277 HD
ATOM     21  H41 UNL     1       4.614   0.078  -0.079  1.00  0.00     0.277 HD
ENDBRANCH  15  18
ENDBRANCH  10  15
ENDBRANCH   8   9
BRANCH   1  22
HETATM   22  N1  UNL     1      -1.308   2.282  -0.497  1.00  0.00     0.085 N 
HETATM   23  C1  UNL     1      -1.453   3.171   0.665  1.00  0.00     0.309 C 
HETATM   24  C2  UNL     1      -1.897   2.962  -1.662  1.00  0.00     0.309 C 
ENDBRANCH   1  22
BRANCH   6  25
HETATM   25  O1  UNL     1      -2.187  -1.997  -2.719  1.00  0.00    -0.394 OA
ATOM     26  H1  UNL     1      -2.627  -1.602  -3.463  1.00  0.00     0.210 HD
ENDBRANCH   6  25
TORSDOF 6
