REMARK  5 active torsions:
REMARK  status: ('A' for Active; 'I' for Inactive)
REMARK    1  A    between atoms: N1_2  and  C2_5 
REMARK    2  A    between atoms: C7_12  and  C8_13 
REMARK    3  A    between atoms: C8_13  and  O1_14 
REMARK    4  A    between atoms: C8_13  and  O2_16 
REMARK    5  A    between atoms: C12_21  and  C13_22 
ROOT
HETATM    1  C2  UNL     1      -2.632   0.262  -0.005  1.00  0.00     0.195 C 
HETATM    2  C3  UNL     1      -1.676  -0.395   1.029  1.00  0.00     0.029 C 
HETATM    3  C4  UNL     1      -1.234  -1.336  -0.109  1.00  0.00     0.021 C 
HETATM    4  C5  UNL     1       0.159  -1.328   0.505  1.00  0.00     0.086 C 
HETATM    5  N2  UNL     1       0.984  -1.610  -0.625  1.00  0.00    -0.411 N 
ATOM      6  H2  UNL     1       0.666  -2.365  -1.233  1.00  0.00     0.154 HD
HETATM    7  C6  UNL     1       2.191  -0.972  -1.008  1.00  0.00     0.091 C 
HETATM    8  C7  UNL     1       3.001  -0.118  -0.032  1.00  0.00     0.068 C 
HETATM    9  C9  UNL     1       2.541   1.123  -0.784  1.00  0.00     0.007 C 
HETATM   10  C10 UNL     1       1.902   0.235  -1.877  1.00  0.00     0.018 C 
HETATM   11  C11 UNL     1       0.683   1.131  -1.869  1.00  0.00     0.002 C 
HETATM   12  C12 UNL     1      -0.659   1.033  -1.188  1.00  0.00     0.002 C 
HETATM   13  C13 UNL     1      -1.592  -0.190  -1.111  1.00  0.00     0.028 C 
HETATM   14  C14 UNL     1      -0.020   1.307   0.160  1.00  0.00     0.002 C 
HETATM   15  C15 UNL     1      -0.143   0.073   1.035  1.00  0.00     0.020 C 
HETATM   16  C16 UNL     1       1.221   1.801  -0.556  1.00  0.00     0.000 C 
ENDROOT
BRANCH   8  17
HETATM   17  C8  UNL     1       3.269  -0.184   1.464  1.00  0.00     0.260 C 
BRANCH  17  18
HETATM   18  O1  UNL     1       3.147  -1.504   1.948  1.00  0.00    -0.371 OA
ATOM     19  H1  UNL     1       3.314  -1.545   2.882  1.00  0.00     0.212 HD
ENDBRANCH  17  18
BRANCH  17  20
HETATM   20  O2  UNL     1       2.421   0.658   2.199  1.00  0.00    -0.371 OA
ATOM     21  H2  UNL     1       2.588   0.617   3.133  1.00  0.00     0.212 HD
ENDBRANCH  17  20
ENDBRANCH   8  17
BRANCH   1  22
HETATM   22  N1  UNL     1      -3.852  -0.553  -0.145  1.00  0.00    -0.074 N 
HETATM   23  C1  UNL     1      -4.847  -0.114   0.827  1.00  0.00     0.267 C 
ATOM     24  H12 UNL     1      -3.658  -1.552  -0.073  1.00  0.00     0.277 HD
ATOM     25  H11 UNL     1      -4.214  -0.543  -1.098  1.00  0.00     0.277 HD
ENDBRANCH   1  22
TORSDOF 5
