REMARK  4 active torsions:
REMARK  status: ('A' for Active; 'I' for Inactive)
REMARK    1  A    between atoms: C9_12  and  C10_13 
REMARK    2  A    between atoms: C10_13  and  N1_14 
REMARK    3  A    between atoms: N2_17  and  C13_18 
REMARK    4  A    between atoms: C13_18  and  C14_19 
ROOT
HETATM    1  C1  UNL     1       2.671  -2.788   0.078  1.00  0.00     0.082 C 
HETATM    2  C2  UNL     1       2.509  -1.310   0.354  1.00  0.00     0.191 C 
HETATM    3  O1  UNL     1       3.436  -0.563  -0.469  1.00  0.00    -0.343 OA
HETATM    4  C3  UNL     1       3.101   0.696  -1.113  1.00  0.00     0.175 C 
HETATM    5  C4  UNL     1       3.007   1.927  -0.162  1.00  0.00     0.154 C 
HETATM    6  C5  UNL     1       2.540   1.531   1.202  1.00  0.00     0.055 C 
HETATM    7  C6  UNL     1       1.228   0.735   0.825  1.00  0.00     0.078 C 
HETATM    8  C7  UNL     1       1.423  -0.351   2.030  1.00  0.00     0.278 C 
HETATM    9  O2  UNL     1       0.294  -1.077   1.467  1.00  0.00    -0.348 OA
HETATM   10  C8  UNL     1       1.078  -0.805   0.235  1.00  0.00     0.203 C 
HETATM   11  O3  UNL     1       2.647  -1.084   1.752  1.00  0.00    -0.322 OA
HETATM   12  C9  UNL     1       0.934   1.394  -0.574  1.00  0.00     0.112 C 
HETATM   13  O6  UNL     1       1.777   2.595  -0.528  1.00  0.00    -0.368 OA
HETATM   14  C16 UNL     1       1.695   0.712  -1.750  1.00  0.00     0.151 C 
HETATM   15 CL1  UNL     1       1.634   1.677  -3.262  1.00  0.00    -0.119 Cl
ENDROOT
BRANCH  12  16
HETATM   16  C10 UNL     1      -0.505   1.867  -0.747  1.00  0.00     0.170 C 
BRANCH  16  17
HETATM   17  N1  UNL     1      -1.555   0.840  -0.790  1.00  0.00    -0.349 N 
HETATM   18  C11 UNL     1      -1.880   0.057  -1.887  1.00  0.00     0.109 C 
HETATM   19  C12 UNL     1      -3.057  -0.566  -1.596  1.00  0.00     0.109 C 
HETATM   20  N2  UNL     1      -3.462  -0.087  -0.366  1.00  0.00    -0.342 N 
HETATM   21  C15 UNL     1      -2.496   0.678   0.166  1.00  0.00     0.185 C 
BRANCH  20  22
HETATM   22  C13 UNL     1      -4.775  -0.344   0.263  1.00  0.00     0.242 C 
BRANCH  22  23
HETATM   23  C14 UNL     1      -4.689  -1.322   1.421  1.00  0.00     0.191 C 
HETATM   24  O4  UNL     1      -5.555  -2.121   1.740  1.00  0.00    -0.647 OA
HETATM   25  O5  UNL     1      -3.553  -1.205   2.143  1.00  0.00    -0.647 OA
ENDBRANCH  22  23
ENDBRANCH  20  22
ENDBRANCH  16  17
ENDBRANCH  12  16
TORSDOF 4
