REMARK  4 active torsions:
REMARK  status: ('A' for Active; 'I' for Inactive)
REMARK    1  A    between atoms: O1_2  and  C2_3 
REMARK    2  A    between atoms: C2_3  and  O2_4 
REMARK    3  A    between atoms: C9_12  and  C10_13 
REMARK    4  A    between atoms: C10_13  and  C11_14 
ROOT
HETATM    1  C2  UNL     1       1.082   1.898  -0.337  1.00  0.00     0.195 C 
HETATM    2  C3  UNL     1      -0.105   2.417   0.515  1.00  0.00     0.080 C 
HETATM    3  C4  UNL     1      -0.918   1.281   1.177  1.00  0.00     0.036 C 
HETATM    4  C5  UNL     1       0.108   0.312   1.836  1.00  0.00     0.080 C 
HETATM    5  C6  UNL     1      -0.552  -0.944   2.427  1.00  0.00     0.045 C 
HETATM    6  C7  UNL     1      -1.316  -1.563   1.170  1.00  0.00    -0.002 C 
HETATM    7  C8  UNL     1      -2.575  -0.668   0.976  1.00  0.00     0.016 C 
HETATM    8  C9  UNL     1      -1.694   0.309   0.105  1.00  0.00    -0.019 C 
HETATM    9  C13 UNL     1      -0.957  -1.200  -0.492  1.00  0.00    -0.031 C 
HETATM   10  C14 UNL     1      -1.814  -2.030  -1.480  1.00  0.00     0.016 C 
HETATM   11  C15 UNL     1       0.632  -1.303  -1.225  1.00  0.00     0.019 C 
HETATM   12  C16 UNL     1       2.042  -0.570  -0.551  1.00  0.00     0.043 C 
HETATM   13  C17 UNL     1       2.887  -1.413   0.516  1.00  0.00     0.020 C 
HETATM   14  C18 UNL     1       2.480  -2.883   0.600  1.00  0.00     0.023 C 
HETATM   15  C19 UNL     1       4.378  -1.306   0.163  1.00  0.00     0.023 C 
HETATM   16  C20 UNL     1       2.707  -0.739   1.946  1.00  0.00     0.145 C 
HETATM   17  O4  UNL     1       3.258  -1.177   2.955  1.00  0.00    -0.296 OA
HETATM   18  C21 UNL     1       1.788   0.557   1.869  1.00  0.00     0.132 C 
HETATM   19  C22 UNL     1       1.567   0.591   0.302  1.00  0.00     0.136 C 
HETATM   20  O5  UNL     1       0.524  -0.244   0.657  1.00  0.00    -0.361 OA
ENDROOT
BRANCH   1  21
HETATM   21  O1  UNL     1       0.595   1.690  -1.663  1.00  0.00    -0.357 OA
HETATM   22  C1  UNL     1       1.430   2.155  -2.709  1.00  0.00     0.205 C 
ENDBRANCH   1  21
BRANCH   1  23
HETATM   23  O2  UNL     1       2.111   2.883  -0.269  1.00  0.00    -0.363 OA
ATOM     24  H2  UNL     1       2.435   3.021   0.613  1.00  0.00     0.213 HD
ENDBRANCH   1  23
BRANCH   8  25
HETATM   25  C10 UNL     1      -2.557   1.078  -0.905  1.00  0.00     0.088 C 
BRANCH  25  26
HETATM   26  C11 UNL     1      -3.653   1.927  -0.288  1.00  0.00     0.123 C 
HETATM   27  C12 UNL     1      -5.075   1.478  -0.508  1.00  0.00     0.091 C 
HETATM   28  O3  UNL     1      -3.404   2.933   0.376  1.00  0.00    -0.298 OA
ENDBRANCH  25  26
ENDBRANCH   8  25
TORSDOF 4
