REMARK  3 active torsions:
REMARK  status: ('A' for Active; 'I' for Inactive)
REMARK    1  A    between atoms: C11_12  and  C13_14 
REMARK    2  A    between atoms: C14_16  and  O3_17 
REMARK    3  A    between atoms: O3_17  and  C15_18 
ROOT
HETATM    1  C1  UNL     1      -1.660   0.268   2.437  1.00  0.00     0.023 C 
HETATM    2  C2  UNL     1      -1.889   0.386   1.125  1.00  0.00    -0.012 C 
HETATM    3  C3  UNL     1      -1.067   1.290   0.212  1.00  0.00     0.170 C 
HETATM    4  O1  UNL     1      -0.286   2.130   0.658  1.00  0.00    -0.291 OA
HETATM    5  C4  UNL     1      -1.348   1.099  -1.346  1.00  0.00     0.070 C 
HETATM    6  C5  UNL     1      -2.712   1.855  -0.957  1.00  0.00    -0.003 C 
HETATM    7  C6  UNL     1      -3.630   1.185  -0.199  1.00  0.00    -0.077 C 
HETATM    8  C7  UNL     1      -4.962   1.660   0.256  1.00  0.00     0.044 C 
HETATM    9  C8  UNL     1      -3.044  -0.136   0.302  1.00  0.00     0.055 C 
HETATM   10  C9  UNL     1      -2.562  -0.955  -0.981  1.00  0.00     0.017 C 
HETATM   11  C10 UNL     1      -2.340   0.082  -2.101  1.00  0.00     0.031 C 
HETATM   12  C11 UNL     1      -1.124  -1.516  -0.956  1.00  0.00     0.041 C 
HETATM   13  C12 UNL     1      -0.708  -2.311   0.288  1.00  0.00     0.026 C 
HETATM   14  C14 UNL     1      -0.292  -0.223  -1.307  1.00  0.00     0.158 C 
ENDROOT
BRANCH  14  15
HETATM   15  O3  UNL     1       0.843  -0.132  -0.449  1.00  0.00    -0.366 OA
BRANCH  15  16
HETATM   16  C15 UNL     1       2.119  -0.120  -1.064  1.00  0.00     0.215 C 
HETATM   17  C16 UNL     1       2.525   1.286  -1.342  1.00  0.00     0.016 C 
HETATM   18  C17 UNL     1       3.373   1.999  -0.594  1.00  0.00     0.050 C 
HETATM   19  C18 UNL     1       3.968   1.448   0.646  1.00  0.00     0.164 C 
HETATM   20  O4  UNL     1       4.680   2.192   1.320  1.00  0.00    -0.292 OA
HETATM   21  C19 UNL     1       3.658   0.011   1.051  1.00  0.00     0.081 C 
HETATM   22  C20 UNL     1       4.963  -0.642   1.536  1.00  0.00     0.032 C 
HETATM   23  C21 UNL     1       2.639   0.029   2.197  1.00  0.00     0.032 C 
HETATM   24  C22 UNL     1       3.094  -0.810  -0.106  1.00  0.00     0.174 C 
HETATM   25  O5  UNL     1       3.328  -2.018  -0.232  1.00  0.00    -0.293 OA
ENDBRANCH  15  16
ENDBRANCH  14  15
BRANCH  12  26
HETATM   26  C13 UNL     1      -0.904  -2.512  -2.101  1.00  0.00     0.243 C 
HETATM   27  O2  UNL     1      -1.797  -2.979  -2.798  1.00  0.00    -0.306 OA
ENDBRANCH  12  26
TORSDOF 3
