REMARK  0 active torsions:
REMARK  status: ('A' for Active; 'I' for Inactive)
ROOT
HETATM    1  C1  UNL     1      -1.636   1.211  -0.077  1.00  0.00     0.047 C 
HETATM    2  C2  UNL     1      -0.773   0.124   0.546  1.00  0.00     0.287 C 
HETATM    3  C3  UNL     1      -0.363  -0.953  -0.415  1.00  0.00     0.464 C 
HETATM    4  N1  UNL     1       0.320  -1.982   0.407  1.00  0.00     0.018 N 
ATOM      5  H11 UNL     1       0.624  -2.882   0.036  1.00  0.00     0.284 HD
ATOM      6  H12 UNL     1      -0.151  -2.518   1.135  1.00  0.00     0.284 HD
HETATM    7  C4  UNL     1       1.245  -0.875   0.693  1.00  0.00     0.661 C 
HETATM    8  N2  UNL     1       0.605   0.466   0.910  1.00  0.00     0.186 N 
HETATM    9  C5  UNL     1       1.288   0.812  -0.370  1.00  0.00     0.556 C 
HETATM   10  N3  UNL     1       1.055  -0.597  -0.779  1.00  0.00     0.211 N 
ENDROOT
TORSDOF 0
