REMARK  13 active torsions:
REMARK  status: ('A' for Active; 'I' for Inactive)
REMARK    1  A    between atoms: C2_2  and  N1_3 
REMARK    2  A    between atoms: N1_3  and  C5_6 
REMARK    3  A    between atoms: C5_6  and  C6_7 
REMARK    4  A    between atoms: C5_6  and  C26_35 
REMARK    5  A    between atoms: C6_7  and  C7_8 
REMARK       I    between atoms: C26_35  and  N5_37 
REMARK    6  A    between atoms: N5_37  and  C27_39 
REMARK    7  A    between atoms: C27_39  and  C28_40 
REMARK    8  A    between atoms: C27_39  and  N8_52 
REMARK       I    between atoms: C28_40  and  N6_42 
REMARK    9  A    between atoms: N6_42  and  C30_44 
REMARK   10  A    between atoms: C30_44  and  C31_45 
REMARK   11  A    between atoms: C31_45  and  C32_46 
REMARK   12  A    between atoms: C32_46  and  C33_47 
REMARK   13  A    between atoms: C33_47  and  N7_48 
ROOT
HETATM    1  C6  UNL     1      -1.877   0.522   0.794  1.00  0.00     0.060 C 
ENDROOT
BRANCH   1   2
HETATM    2  C5  UNL     1      -1.372  -0.228  -0.214  1.00  0.00     0.282 C 
BRANCH   2   3
HETATM    3  N1  UNL     1      -2.343  -0.670  -1.282  1.00  0.00    -0.062 N 
HETATM    4  C3  UNL     1      -3.404  -1.620  -0.724  1.00  0.00     0.273 C 
HETATM    5  C4  UNL     1      -3.080   0.561  -1.825  1.00  0.00     0.273 C 
BRANCH   3   6
HETATM    6  C2  UNL     1      -1.581  -1.246  -2.503  1.00  0.00     0.233 C 
HETATM    7  C1  UNL     1      -1.345  -2.750  -2.490  1.00  0.00     0.035 C 
ENDBRANCH   3   6
ENDBRANCH   2   3
BRANCH   2   8
HETATM    8  C26 UNL     1      -0.449  -1.360   0.279  1.00  0.00     0.251 C 
HETATM    9  O3  UNL     1      -0.873  -2.442   0.648  1.00  0.00    -0.271 OA
HETATM   10  N5  UNL     1       0.895  -1.082   0.154  1.00  0.00    -0.324 N 
ATOM     11  H5  UNL     1       1.206  -0.158  -0.146  1.00  0.00     0.165 HD
BRANCH  10  12
HETATM   12  C27 UNL     1       1.864  -2.124   0.456  1.00  0.00     0.382 C 
BRANCH  12  13
HETATM   13  C28 UNL     1       2.262  -2.034   1.978  1.00  0.00     0.270 C 
HETATM   14  O4  UNL     1       2.445  -0.901   2.447  1.00  0.00    -0.269 OA
HETATM   15  N6  UNL     1       2.486  -3.182   2.731  1.00  0.00    -0.353 N 
HETATM   16  C29 UNL     1       3.025  -3.015   4.084  1.00  0.00     0.152 C 
BRANCH  15  17
HETATM   17  C30 UNL     1       2.221  -4.573   2.338  1.00  0.00     0.125 C 
BRANCH  17  18
HETATM   18  C31 UNL     1       0.749  -4.989   2.194  1.00  0.00     0.021 C 
BRANCH  18  19
HETATM   19  C32 UNL     1      -0.182  -4.544   3.323  1.00  0.00     0.029 C 
BRANCH  19  20
HETATM   20  C33 UNL     1       0.025  -5.314   4.622  1.00  0.00     0.229 C 
BRANCH  20  21
HETATM   21  N7  UNL     1      -0.443  -4.518   5.749  1.00  0.00    -0.079 N 
ATOM     22  H73 UNL     1      -0.005  -3.597   5.776  1.00  0.00     0.274 HD
ATOM     23  H72 UNL     1      -1.411  -4.219   5.631  1.00  0.00     0.274 HD
ATOM     24  H71 UNL     1      -0.304  -5.033   6.618  1.00  0.00     0.274 HD
ENDBRANCH  20  21
ENDBRANCH  19  20
ENDBRANCH  18  19
ENDBRANCH  17  18
ENDBRANCH  15  17
ENDBRANCH  12  13
BRANCH  12  25
HETATM   25  N8  UNL     1       3.087  -1.919  -0.521  1.00  0.00    -0.049 N 
HETATM   26  C34 UNL     1       3.950  -3.179  -0.529  1.00  0.00     0.274 C 
HETATM   27  C35 UNL     1       2.628  -1.676  -1.957  1.00  0.00     0.274 C 
HETATM   28  C36 UNL     1       3.970  -0.761  -0.076  1.00  0.00     0.274 C 
ENDBRANCH  12  25
ENDBRANCH  10  12
ENDBRANCH   2   8
ENDBRANCH   1   2
BRANCH   1  29
HETATM   29  C7  UNL     1      -1.460   1.994   1.147  1.00  0.00     0.013 C 
HETATM   30  C8  UNL     1      -2.713   2.764   1.584  1.00  0.00     0.023 C 
HETATM   31  C9  UNL     1      -0.647   2.645   0.017  1.00  0.00    -0.014 C 
HETATM   32  C10 UNL     1       0.713   2.346   0.284  1.00  0.00     0.038 C 
HETATM   33  C14 UNL     1      -0.981   3.424  -1.100  1.00  0.00    -0.035 C 
HETATM   34  C11 UNL     1       1.706   2.510  -0.662  1.00  0.00     0.060 C 
HETATM   35  N4  UNL     1       0.921   1.675   1.522  1.00  0.00    -0.380 N 
HETATM   36  C12 UNL     1       1.323   3.053  -1.869  1.00  0.00     0.050 C 
HETATM   37  C13 UNL     1       0.090   3.717  -1.972  1.00  0.00     0.006 C 
HETATM   38  N3  UNL     1       2.080   2.744  -3.032  1.00  0.00    -0.308 N 
HETATM   39  C20 UNL     1      -0.085   4.558  -3.166  1.00  0.00    -0.018 C 
HETATM   40  C19 UNL     1      -0.528   3.756  -4.141  1.00  0.00     0.089 C 
HETATM   41  C21 UNL     1       0.953   5.624  -3.392  1.00  0.00     0.052 C 
HETATM   42  C18 UNL     1      -1.988   3.394  -3.916  1.00  0.00     0.180 C 
HETATM   43  N2  UNL     1       0.267   2.723  -4.609  1.00  0.00    -0.305 N 
HETATM   44  C16 UNL     1      -2.771   4.263  -2.899  1.00  0.00     0.062 C 
HETATM   45  O1  UNL     1      -2.452   2.361  -4.405  1.00  0.00    -0.290 OA
HETATM   46  C15 UNL     1      -2.379   3.939  -1.419  1.00  0.00     0.052 C 
HETATM   47  C17 UNL     1      -4.276   4.097  -3.118  1.00  0.00     0.018 C 
HETATM   48  C22 UNL     1       1.498   2.294  -4.197  1.00  0.00     0.325 C 
ATOM     49  H2  UNL     1      -0.130   2.197  -5.387  1.00  0.00     0.171 HD
HETATM   50  O2  UNL     1       2.081   1.410  -4.829  1.00  0.00    -0.247 OA
ATOM     51  H3  UNL     1       3.093   2.860  -3.003  1.00  0.00     0.170 HD
HETATM   52  C23 UNL     1      -0.319   2.028   2.280  1.00  0.00     0.035 C 
ATOM     53  H4  UNL     1       1.712   1.102   1.816  1.00  0.00     0.160 HD
HETATM   54  C24 UNL     1      -0.497   1.018   3.425  1.00  0.00     0.039 C 
HETATM   55  C25 UNL     1      -0.149   3.436   2.924  1.00  0.00     0.039 C 
ENDBRANCH   1  29
TORSDOF 13
