REMARK  1 active torsions:
REMARK  status: ('A' for Active; 'I' for Inactive)
REMARK    1  A    between atoms: C3_3  and  O1_4 
ROOT
HETATM    1  C1  UNL     1       0.832  -3.861  -0.039  1.00  0.00     0.014 C 
HETATM    2  C2  UNL     1       0.691  -2.345   0.071  1.00  0.00     0.030 C 
HETATM    3  C3  UNL     1       2.301  -1.547   0.322  1.00  0.00     0.067 C 
HETATM    4  C4  UNL     1       2.660  -1.244   1.836  1.00  0.00     0.074 C 
HETATM    5  C5  UNL     1       2.481   0.276   2.261  1.00  0.00     0.228 C 
HETATM    6  C6  UNL     1       1.157   0.721   1.694  1.00  0.00     0.078 C 
HETATM    7  C7  UNL     1       2.034   1.068   0.380  1.00  0.00     0.167 C 
HETATM    8  C8  UNL     1       2.756  -0.156  -0.340  1.00  0.00     0.080 C 
HETATM    9  C9  UNL     1       1.363   2.209  -0.656  1.00  0.00     0.087 C 
HETATM   10  C10 UNL     1      -0.153   1.762  -1.140  1.00  0.00     0.114 C 
HETATM   11  C11 UNL     1      -1.372   2.259  -1.895  1.00  0.00     0.046 C 
HETATM   12  C12 UNL     1      -2.491   1.053  -1.783  1.00  0.00     0.009 C 
HETATM   13  C13 UNL     1      -2.299   0.020  -0.558  1.00  0.00    -0.004 C 
HETATM   14  C14 UNL     1      -1.918  -1.498  -0.684  1.00  0.00     0.021 C 
HETATM   15  C15 UNL     1      -0.358  -1.810  -1.131  1.00  0.00     0.011 C 
HETATM   16  C16 UNL     1      -0.442  -2.304  -2.576  1.00  0.00     0.224 C 
HETATM   17  O2  UNL     1      -1.196  -1.269  -3.283  1.00  0.00    -0.234 OA
HETATM   18  O3  UNL     1      -0.471   0.055  -3.392  1.00  0.00    -0.199 OA
HETATM   19  C17 UNL     1       0.191   0.489  -2.185  1.00  0.00     0.116 C 
HETATM   20  C18 UNL     1       0.502  -0.665  -1.399  1.00  0.00     0.024 C 
HETATM   21  C19 UNL     1      -2.803   0.685   0.743  1.00  0.00    -0.022 C 
HETATM   22  C20 UNL     1      -4.300   1.034   0.724  1.00  0.00     0.017 C 
HETATM   23  C21 UNL     1      -2.583  -0.185   1.996  1.00  0.00     0.017 C 
HETATM   24  C22 UNL     1      -1.934   1.984   0.822  1.00  0.00     0.178 C 
HETATM   25  O4  UNL     1      -0.605   1.779   0.284  1.00  0.00    -0.372 OA
HETATM   26  N1  UNL     1       3.126   1.375   1.387  1.00  0.00     0.099 N 
HETATM   27  C23 UNL     1       3.051   2.703   1.986  1.00  0.00     0.311 C 
ENDROOT
BRANCH   3  28
HETATM   28  O1  UNL     1       3.255  -2.504  -0.184  1.00  0.00    -0.389 OA
ATOM     29  H1  UNL     1       4.098  -2.086  -0.053  1.00  0.00     0.210 HD
ENDBRANCH   3  28
TORSDOF 1
