REMARK  1 active torsions:
REMARK  status: ('A' for Active; 'I' for Inactive)
REMARK    1  A    between atoms: C14_17  and  O4_18 
ROOT
HETATM    1  C1  UNL     1       4.737  -0.865   0.664  1.00  0.00     0.010 C 
HETATM    2  C2  UNL     1       3.492  -0.006   0.906  1.00  0.00    -0.011 C 
HETATM    3  C3  UNL     1       3.019  -0.223   2.366  1.00  0.00     0.008 C 
HETATM    4  C4  UNL     1       1.505  -0.298   2.593  1.00  0.00     0.044 C 
HETATM    5  C5  UNL     1       0.694   0.919   2.094  1.00  0.00     0.124 C 
HETATM    6  C6  UNL     1       0.335   1.734   3.366  1.00  0.00     0.052 C 
HETATM    7  O1  UNL     1       1.616   1.915   1.439  1.00  0.00    -0.226 OA
HETATM    8  O2  UNL     1       1.641   1.992  -0.075  1.00  0.00    -0.225 OA
HETATM    9  C7  UNL     1       1.036   0.789  -0.554  1.00  0.00     0.132 C 
HETATM   10  C8  UNL     1      -0.496   1.330  -0.719  1.00  0.00     0.171 C 
HETATM   11  O3  UNL     1      -0.786   1.754   0.550  1.00  0.00    -0.367 OA
HETATM   12  C9  UNL     1      -0.634   0.519   1.287  1.00  0.00     0.104 C 
HETATM   13  C10 UNL     1      -2.054   0.716   1.970  1.00  0.00     0.042 C 
HETATM   14  C11 UNL     1      -3.249   1.190   0.944  1.00  0.00     0.011 C 
HETATM   15  C12 UNL     1      -3.160   0.948  -0.645  1.00  0.00     0.031 C 
HETATM   16  C13 UNL     1      -1.773   0.489  -1.033  1.00  0.00     0.087 C 
HETATM   17  C14 UNL     1      -1.968  -0.892  -0.350  1.00  0.00     0.175 C 
HETATM   18  O5  UNL     1      -2.857  -1.413  -1.299  1.00  0.00    -0.344 OA
HETATM   19  C15 UNL     1      -3.906  -0.319  -1.294  1.00  0.00     0.061 C 
HETATM   20  C16 UNL     1      -4.268  -0.069  -2.770  1.00  0.00     0.046 C 
HETATM   21  C17 UNL     1      -5.180  -0.773  -0.575  1.00  0.00     0.046 C 
HETATM   22  C18 UNL     1      -0.595  -1.000   0.204  1.00  0.00     0.087 C 
HETATM   23  C19 UNL     1       0.227  -1.315  -1.163  1.00  0.00     0.021 C 
HETATM   24  C20 UNL     1       1.095  -0.138  -1.736  1.00  0.00     0.035 C 
HETATM   25  C21 UNL     1       2.640  -0.335  -1.633  1.00  0.00    -0.034 C 
HETATM   26  C22 UNL     1       3.151  -1.651  -2.236  1.00  0.00     0.016 C 
HETATM   27  C23 UNL     1       3.440   0.824  -2.248  1.00  0.00     0.016 C 
HETATM   28  C24 UNL     1       2.363  -0.360  -0.080  1.00  0.00     0.038 C 
ENDROOT
BRANCH  17  29
HETATM   29  O4  UNL     1      -2.703  -1.313   0.783  1.00  0.00    -0.364 OA
ATOM     30  H4  UNL     1      -2.822  -2.158   1.201  1.00  0.00     0.213 HD
ENDBRANCH  17  29
TORSDOF 1
