REMARK  8 active torsions:
REMARK  status: ('A' for Active; 'I' for Inactive)
REMARK    1  A    between atoms: C2_2  and  C5_5 
REMARK    2  A    between atoms: C8_8  and  O1_9 
REMARK    3  A    between atoms: N1_15  and  C13_16 
REMARK    4  A    between atoms: C13_16  and  C14_17 
REMARK    5  A    between atoms: C19_22  and  C20_23 
REMARK    6  A    between atoms: C20_23  and  C21_24 
REMARK    7  A    between atoms: N2_30  and  C25_31 
REMARK    8  A    between atoms: C25_31  and  C26_32 
ROOT
HETATM    1  C5  UNL     1       2.744  -1.172   0.089  1.00  0.00     0.001 C 
HETATM    2  C6  UNL     1       2.164  -1.642  -1.227  1.00  0.00     0.014 C 
HETATM    3  C7  UNL     1       1.438  -0.408  -1.805  1.00  0.00     0.033 C 
HETATM    4  C8  UNL     1       2.101   0.800  -1.081  1.00  0.00     0.099 C 
HETATM    5  C9  UNL     1       2.009   0.136   0.318  1.00  0.00     0.039 C 
HETATM    6  C10 UNL     1       0.418   0.539   0.010  1.00  0.00     0.011 C 
HETATM    7  C11 UNL     1      -0.352   0.678   1.298  1.00  0.00     0.032 C 
HETATM    8  C12 UNL     1      -1.836   0.466   1.222  1.00  0.00     0.118 C 
HETATM    9  N1  UNL     1      -2.132  -0.956   1.210  1.00  0.00    -0.407 N 
HETATM   10  C17 UNL     1      -1.848  -1.749  -0.006  1.00  0.00     0.089 A 
HETATM   11  C18 UNL     1      -2.498  -1.266  -1.239  1.00  0.00     0.038 A 
HETATM   12  C19 UNL     1      -0.970  -1.441  -1.243  1.00  0.00     0.000 A 
HETATM   13  C22 UNL     1      -0.051  -0.181  -1.306  1.00  0.00    -0.012 C 
HETATM   14  C23 UNL     1      -0.671   0.808  -2.353  1.00  0.00     0.042 C 
HETATM   15  C24 UNL     1      -0.790   2.221  -1.843  1.00  0.00     0.274 C 
HETATM   16  N2  UNL     1       0.532   2.702  -1.480  1.00  0.00     0.097 N 
HETATM   17  C29 UNL     1       1.150   1.873  -0.434  1.00  0.00     0.267 C 
ENDROOT
BRANCH   1  18
HETATM   18  C2  UNL     1       2.795  -2.178   1.266  1.00  0.00    -0.047 C 
HETATM   19  C1  UNL     1       3.518  -3.459   0.802  1.00  0.00     0.015 C 
HETATM   20  C3  UNL     1       1.425  -2.597   1.815  1.00  0.00     0.015 C 
HETATM   21  C4  UNL     1       3.623  -1.578   2.424  1.00  0.00     0.015 C 
ENDBRANCH   1  18
BRANCH   4  22
HETATM   22  O1  UNL     1       3.354   1.216  -1.628  1.00  0.00    -0.387 OA
ATOM     23  H1  UNL     1       3.759   1.953  -1.186  1.00  0.00     0.210 HD
ENDBRANCH   4  22
BRANCH  12  24
HETATM   24  C20 UNL     1      -0.673  -2.498  -2.350  1.00  0.00     0.125 C 
BRANCH  24  25
HETATM   25  C21 UNL     1      -0.997  -3.927  -1.996  1.00  0.00     0.173 C 
HETATM   26  O2  UNL     1      -1.957  -4.562  -2.396  1.00  0.00    -0.648 OA
HETATM   27  O3  UNL     1      -0.111  -4.475  -1.145  1.00  0.00    -0.648 OA
ENDBRANCH  24  25
ENDBRANCH  12  24
BRANCH  16  28
HETATM   28  C25 UNL     1       0.390   4.089  -0.987  1.00  0.00     0.277 C 
BRANCH  28  29
HETATM   29  C26 UNL     1       1.710   4.794  -0.928  1.00  0.00     0.014 A 
HETATM   30  C27 UNL     1       1.774   6.189  -0.353  1.00  0.00     0.007 A 
HETATM   31  C28 UNL     1       2.399   5.040   0.391  1.00  0.00     0.007 A 
ENDBRANCH  28  29
ENDBRANCH  16  28
BRANCH   9  32
HETATM   32  C13 UNL     1      -3.444  -1.256   1.825  1.00  0.00     0.121 C 
BRANCH  32  33
HETATM   33  C14 UNL     1      -4.614  -0.450   1.326  1.00  0.00     0.003 A 
HETATM   34  C15 UNL     1      -5.124   0.759   2.087  1.00  0.00     0.007 A 
HETATM   35  C16 UNL     1      -5.918  -0.517   2.090  1.00  0.00     0.007 A 
ENDBRANCH  32  33
ENDBRANCH   9  32
TORSDOF 8
