REMARK  14 active torsions:
REMARK  status: ('A' for Active; 'I' for Inactive)
REMARK    1  A    between atoms: C2_2  and  C3_3 
REMARK    2  A    between atoms: C3_3  and  C6_6 
REMARK    3  A    between atoms: C6_6  and  O1_7 
REMARK    4  A    between atoms: C12_14  and  O3_15 
REMARK    5  A    between atoms: C13_17  and  C14_18 
REMARK    6  A    between atoms: C14_18  and  C15_19 
REMARK    7  A    between atoms: C15_19  and  C16_20 
REMARK    8  A    between atoms: C15_19  and  C19_23 
REMARK    9  A    between atoms: C23_27  and  C24_28 
REMARK   10  A    between atoms: C24_28  and  O4_29 
REMARK   11  A    between atoms: O4_29  and  C25_30 
REMARK   12  A    between atoms: C28_34  and  O6_35 
REMARK   13  A    between atoms: O6_35  and  C29_36 
REMARK   14  A    between atoms: C29_36  and  C30_38 
ROOT
HETATM    1  C6  UNL     1       2.323  -2.329   0.787  1.00  0.00     0.145 C 
HETATM    2  C8  UNL     1       3.506  -1.430   0.487  1.00  0.00     0.014 C 
HETATM    3  C9  UNL     1       3.471  -0.522  -0.492  1.00  0.00    -0.012 C 
HETATM    4  C10 UNL     1       2.248  -0.446  -1.404  1.00  0.00     0.042 C 
HETATM    5  C11 UNL     1       2.363  -1.576  -2.398  1.00  0.00     0.189 C 
HETATM    6  O2  UNL     1       1.848  -2.713  -1.672  1.00  0.00    -0.350 OA
HETATM    7  C12 UNL     1       1.257  -2.207  -0.420  1.00  0.00     0.211 C 
HETATM    8  C13 UNL     1       0.770  -0.783  -0.820  1.00  0.00     0.056 C 
HETATM    9  C27 UNL     1       0.831   0.719  -0.344  1.00  0.00     0.054 C 
HETATM   10  C28 UNL     1       1.825   1.049  -1.495  1.00  0.00     0.149 C 
ENDROOT
BRANCH   8  11
HETATM   11  C14 UNL     1      -0.428  -0.871  -1.895  1.00  0.00    -0.002 C 
BRANCH  11  12
HETATM   12  C15 UNL     1      -1.937  -1.125  -1.589  1.00  0.00    -0.051 C 
BRANCH  12  13
HETATM   13  C16 UNL     1      -2.377  -2.509  -1.122  1.00  0.00    -0.065 C 
HETATM   14  C17 UNL     1      -2.335  -3.552  -1.974  1.00  0.00     0.019 C 
HETATM   15  C18 UNL     1      -2.886  -2.720   0.277  1.00  0.00     0.048 C 
ENDBRANCH  12  13
BRANCH  12  16
HETATM   16  C19 UNL     1      -2.873  -0.007  -1.058  1.00  0.00     0.029 A 
HETATM   17  C20 UNL     1      -2.779   1.392  -1.730  1.00  0.00    -0.009 A 
HETATM   18  C21 UNL     1      -3.922   1.744  -2.670  1.00  0.00     0.010 C 
HETATM   19  C22 UNL     1      -2.840   2.055  -0.346  1.00  0.00     0.012 A 
HETATM   20  C23 UNL     1      -3.010   0.683   0.342  1.00  0.00     0.019 A 
BRANCH  20  21
HETATM   21  C24 UNL     1      -2.050   0.423   1.483  1.00  0.00     0.184 C 
BRANCH  21  22
HETATM   22  O4  UNL     1      -2.675  -0.367   2.517  1.00  0.00    -0.321 OA
BRANCH  22  23
HETATM   23  C25 UNL     1      -3.199   0.204   3.629  1.00  0.00     0.254 C 
HETATM   24  C26 UNL     1      -3.848   1.546   3.454  1.00  0.00     0.126 C 
HETATM   25  O5  UNL     1      -3.202  -0.384   4.706  1.00  0.00    -0.266 OA
ENDBRANCH  22  23
ENDBRANCH  21  22
ENDBRANCH  20  21
ENDBRANCH  12  16
ENDBRANCH  11  12
ENDBRANCH   8  11
BRANCH   7  26
HETATM   26  O3  UNL     1       0.168  -3.064  -0.170  1.00  0.00    -0.362 OA
ATOM     27  H3  UNL     1      -0.459  -2.992  -0.880  1.00  0.00     0.213 HD
ENDBRANCH   7  26
BRANCH  10  28
HETATM   28  O6  UNL     1       1.286   1.524  -2.746  1.00  0.00    -0.311 OA
BRANCH  28  29
HETATM   29  C29 UNL     1       1.945   2.592  -3.291  1.00  0.00     0.295 C 
HETATM   30  O7  UNL     1       2.544   2.498  -4.358  1.00  0.00    -0.259 OA
BRANCH  29  31
HETATM   31  C30 UNL     1       1.844   3.829  -2.538  1.00  0.00     0.064 A 
HETATM   32  C31 UNL     1       2.666   4.922  -2.717  1.00  0.00     0.159 A 
HETATM   33  O8  UNL     1       2.353   5.915  -1.846  1.00  0.00    -0.326 OA
HETATM   34  C32 UNL     1       1.295   5.481  -1.109  1.00  0.00     0.049 A 
HETATM   35  C33 UNL     1       0.766   6.413  -0.094  1.00  0.00     0.076 C 
HETATM   36  C34 UNL     1       0.942   4.206  -1.498  1.00  0.00     0.051 A 
ENDBRANCH  29  31
ENDBRANCH  28  29
ENDBRANCH  10  28
BRANCH   1  37
HETATM   37  C3  UNL     1       1.804  -2.029   2.303  1.00  0.00     0.010 C 
HETATM   38  C4  UNL     1       2.839  -2.601   3.324  1.00  0.00     0.023 C 
HETATM   39  C5  UNL     1       0.483  -2.760   2.622  1.00  0.00     0.023 C 
BRANCH  37  40
HETATM   40  C2  UNL     1       1.735  -0.539   2.675  1.00  0.00    -0.025 C 
HETATM   41  C1  UNL     1       0.795   0.098   3.385  1.00  0.00     0.008 C 
ENDBRANCH  37  40
ENDBRANCH   1  37
BRANCH   1  42
HETATM   42  O1  UNL     1       2.723  -3.741   0.830  1.00  0.00    -0.374 OA
HETATM   43  C7  UNL     1       3.848  -4.168   0.074  1.00  0.00     0.203 C 
ENDBRANCH   1  42
TORSDOF 14
