REMARK  15 active torsions:
REMARK  status: ('A' for Active; 'I' for Inactive)
REMARK    1  A    between atoms: C2_2  and  C3_3 
REMARK    2  A    between atoms: C3_3  and  C4_4 
REMARK    3  A    between atoms: C4_4  and  C5_5 
REMARK    4  A    between atoms: C5_5  and  C6_6 
REMARK    5  A    between atoms: C6_6  and  C7_7 
REMARK    6  A    between atoms: C7_7  and  C8_8 
REMARK    7  A    between atoms: C8_8  and  O2_10 
REMARK    8  A    between atoms: O2_10  and  C9_11 
REMARK    9  A    between atoms: C12_16  and  C13_17 
REMARK   10  A    between atoms: C13_17  and  O5_18 
REMARK   11  A    between atoms: C14_20  and  O6_21 
REMARK   12  A    between atoms: C15_23  and  O7_24 
REMARK   13  A    between atoms: C16_26  and  O8_27 
REMARK   14  A    between atoms: C19_31  and  O9_32 
REMARK   15  A    between atoms: C22_36  and  O10_37 
ROOT
HETATM    1  C9  UNL     1       0.560   1.749  -0.340  1.00  0.00     0.178 C 
HETATM    2  C10 UNL     1       1.559   2.532   0.338  1.00  0.00     0.162 C 
HETATM    3  O3  UNL     1       2.323   1.300   0.848  1.00  0.00    -0.343 OA
HETATM    4  C11 UNL     1       2.251   0.131  -0.132  1.00  0.00     0.206 C 
HETATM    5  O4  UNL     1       3.599  -0.403  -0.195  1.00  0.00    -0.342 OA
HETATM    6  C12 UNL     1       4.091  -1.055   1.003  1.00  0.00     0.180 C 
HETATM    7  C14 UNL     1       3.189  -2.235   1.394  1.00  0.00     0.180 C 
HETATM    8  C15 UNL     1       1.706  -1.860   1.351  1.00  0.00     0.183 C 
HETATM    9  C16 UNL     1       1.407  -1.189   0.011  1.00  0.00     0.212 C 
HETATM   10  C17 UNL     1       1.797   1.014  -1.245  1.00  0.00     0.076 C 
HETATM   11  C18 UNL     1       3.366   1.737  -1.576  1.00  0.00     0.052 C 
HETATM   12  C19 UNL     1       3.442   3.166  -1.118  1.00  0.00     0.126 C 
HETATM   13  C20 UNL     1       1.991   3.433  -0.947  1.00  0.00     0.048 C 
HETATM   14  C21 UNL     1       1.285   2.960  -2.455  1.00  0.00     0.042 C 
HETATM   15  C22 UNL     1       1.164   1.343  -2.557  1.00  0.00     0.135 C 
ENDROOT
BRANCH   9  16
HETATM   16  O8  UNL     1       0.011  -1.203  -0.285  1.00  0.00    -0.387 OA
ATOM     17  H8  UNL     1      -0.499  -2.000  -0.199  1.00  0.00     0.210 HD
ENDBRANCH   9  16
BRANCH   6  18
HETATM   18  C13 UNL     1       4.441  -0.091   2.161  1.00  0.00     0.198 C 
BRANCH  18  19
HETATM   19  O5  UNL     1       3.324   0.307   2.948  1.00  0.00    -0.398 OA
ATOM     20  H5  UNL     1       3.539   0.899   3.659  1.00  0.00     0.209 HD
ENDBRANCH  18  19
ENDBRANCH   6  18
BRANCH   8  21
HETATM   21  O7  UNL     1       0.926  -3.069   1.479  1.00  0.00    -0.390 OA
ATOM     22  H7  UNL     1       0.005  -2.836   1.452  1.00  0.00     0.210 HD
ENDBRANCH   8  21
BRANCH   1  23
HETATM   23  O2  UNL     1      -0.209   0.986   0.592  1.00  0.00    -0.312 OA
BRANCH  23  24
HETATM   24  C8  UNL     1      -1.196   1.672   1.223  1.00  0.00     0.259 C 
HETATM   25  O1  UNL     1      -1.290   2.897   1.263  1.00  0.00    -0.265 OA
BRANCH  24  26
HETATM   26  C7  UNL     1      -2.231   0.717   1.754  1.00  0.00     0.111 C 
BRANCH  26  27
HETATM   27  C6  UNL     1      -3.262   0.439   0.659  1.00  0.00     0.010 C 
BRANCH  27  28
HETATM   28  C5  UNL     1      -4.531  -0.209   1.209  1.00  0.00     0.000 C 
BRANCH  28  29
HETATM   29  C4  UNL     1      -5.607  -0.369   0.129  1.00  0.00     0.000 C 
BRANCH  29  30
HETATM   30  C3  UNL     1      -5.331  -1.502  -0.864  1.00  0.00    -0.000 C 
BRANCH  30  31
HETATM   31  C2  UNL     1      -5.677  -2.863  -0.259  1.00  0.00    -0.005 C 
HETATM   32  C1  UNL     1      -5.284  -4.005  -1.181  1.00  0.00     0.005 C 
ENDBRANCH  30  31
ENDBRANCH  29  30
ENDBRANCH  28  29
ENDBRANCH  27  28
ENDBRANCH  26  27
ENDBRANCH  24  26
ENDBRANCH  23  24
ENDBRANCH   1  23
BRANCH  15  33
HETATM   33  O10 UNL     1       1.817   0.821  -3.695  1.00  0.00    -0.394 OA
ATOM     34  H10 UNL     1       1.414   1.030  -4.530  1.00  0.00     0.210 HD
ENDBRANCH  15  33
BRANCH   7  35
HETATM   35  O6  UNL     1       3.494  -2.807   2.669  1.00  0.00    -0.390 OA
ATOM     36  H6  UNL     1       2.936  -3.537   2.911  1.00  0.00     0.210 HD
ENDBRANCH   7  35
BRANCH  12  37
HETATM   37  O9  UNL     1       4.015   4.010  -2.096  1.00  0.00    -0.395 OA
ATOM     38  H9  UNL     1       4.063   4.914  -1.806  1.00  0.00     0.210 HD
ENDBRANCH  12  37
TORSDOF 15
