REMARK  9 active torsions:
REMARK  status: ('A' for Active; 'I' for Inactive)
REMARK    1  A    between atoms: C3_3  and  O1_4 
REMARK    2  A    between atoms: C6_8  and  O2_9 
REMARK    3  A    between atoms: N1_19  and  C15_20 
REMARK    4  A    between atoms: C15_20  and  C16_21 
REMARK    5  A    between atoms: C16_21  and  C17_22 
REMARK    6  A    between atoms: C17_22  and  C18_23 
REMARK    7  A    between atoms: C18_23  and  C19_24 
REMARK    8  A    between atoms: C19_24  and  C20_25 
REMARK    9  A    between atoms: C20_25  and  N2_26 
ROOT
HETATM    1  C1  UNL     1       4.276  -2.220  -1.362  1.00  0.00     0.027 C 
HETATM    2  C2  UNL     1       3.391  -1.762  -0.454  1.00  0.00     0.004 C 
HETATM    3  C3  UNL     1       3.151  -2.473   0.805  1.00  0.00     0.084 C 
HETATM    4  C4  UNL     1       2.901  -1.773   1.935  1.00  0.00     0.008 C 
HETATM    5  C5  UNL     1       2.610  -2.447   3.245  1.00  0.00     0.054 C 
HETATM    6  C6  UNL     1       2.879  -0.301   1.875  1.00  0.00     0.108 C 
HETATM    7  C7  UNL     1       2.819   0.386   0.709  1.00  0.00     0.121 C 
HETATM    8  C8  UNL     1       2.826  -0.394  -0.595  1.00  0.00     0.039 C 
HETATM    9  C9  UNL     1       2.249   0.098  -1.738  1.00  0.00     0.044 C 
HETATM   10  C10 UNL     1       2.210   1.574  -1.806  1.00  0.00     0.040 C 
HETATM   11  C11 UNL     1       1.205   2.084  -1.079  1.00  0.00     0.018 C 
HETATM   12  C12 UNL     1      -0.183   1.503  -1.257  1.00  0.00     0.043 C 
HETATM   13  C13 UNL     1      -0.524   0.978  -2.683  1.00  0.00     0.024 C 
HETATM   14  C14 UNL     1       0.575   0.315  -3.547  1.00  0.00     0.123 C 
HETATM   15  N1  UNL     1       1.516  -0.529  -2.766  1.00  0.00    -0.380 N 
HETATM   16  C25 UNL     1       1.719   2.542   0.255  1.00  0.00     0.461 C 
HETATM   17  N3  UNL     1       0.692   2.699   1.273  1.00  0.00     0.023 N 
ATOM     18  H31 UNL     1       0.636   2.023   2.034  1.00  0.00     0.286 HD
ATOM     19  H32 UNL     1      -0.283   2.526   1.029  1.00  0.00     0.286 HD
HETATM   20  C26 UNL     1       1.125   4.060   1.559  1.00  0.00     0.432 C 
HETATM   21  C27 UNL     1       0.058   5.109   1.296  1.00  0.00     0.067 C 
HETATM   22  C28 UNL     1       0.038   5.236  -0.215  1.00  0.00     0.034 C 
HETATM   23  C29 UNL     1       1.465   4.890  -0.606  1.00  0.00     0.282 C 
HETATM   24  N4  UNL     1       2.015   3.974   0.398  1.00  0.00     0.189 N 
HETATM   25  O3  UNL     1       2.864   1.794   0.748  1.00  0.00    -0.281 OA
ENDROOT
BRANCH  15  26
HETATM   26  C15 UNL     1       1.438  -1.965  -3.073  1.00  0.00     0.123 C 
BRANCH  26  27
HETATM   27  C16 UNL     1       0.058  -2.593  -2.842  1.00  0.00     0.020 C 
BRANCH  27  28
HETATM   28  C17 UNL     1      -0.396  -2.622  -1.380  1.00  0.00     0.002 C 
BRANCH  28  29
HETATM   29  C18 UNL     1      -1.836  -3.143  -1.287  1.00  0.00     0.002 C 
BRANCH  29  30
HETATM   30  C19 UNL     1      -2.463  -3.019   0.105  1.00  0.00     0.030 C 
BRANCH  30  31
HETATM   31  C20 UNL     1      -2.812  -1.570   0.475  1.00  0.00     0.272 C 
BRANCH  31  32
HETATM   32  N2  UNL     1      -3.396  -1.528   1.821  1.00  0.00     0.089 N 
HETATM   33  C21 UNL     1      -4.867  -1.646   1.835  1.00  0.00     0.282 C 
HETATM   34  C22 UNL     1      -5.668  -0.429   1.335  1.00  0.00     0.104 C 
HETATM   35  S1  UNL     1      -5.276   1.107   2.228  1.00  0.00    -0.166 SA
HETATM   36  C23 UNL     1      -3.465   1.007   2.104  1.00  0.00     0.104 C 
HETATM   37  C24 UNL     1      -2.952  -0.354   2.592  1.00  0.00     0.282 C 
ENDBRANCH  31  32
ENDBRANCH  30  31
ENDBRANCH  29  30
ENDBRANCH  28  29
ENDBRANCH  27  28
ENDBRANCH  26  27
ENDBRANCH  15  26
BRANCH   3  38
HETATM   38  O1  UNL     1       3.167  -3.852   0.787  1.00  0.00    -0.359 OA
ATOM     39  H1  UNL     1       3.011  -4.313   1.603  1.00  0.00     0.217 HD
ENDBRANCH   3  38
BRANCH   6  40
HETATM   40  O2  UNL     1       2.906   0.376   3.083  1.00  0.00    -0.357 OA
ATOM     41  H2  UNL     1       2.892   1.325   3.044  1.00  0.00     0.217 HD
ENDBRANCH   6  40
TORSDOF 9
