REMARK  2 active torsions:
REMARK  status: ('A' for Active; 'I' for Inactive)
REMARK    1  A    between atoms: C7_7  and  N1_8 
REMARK       I    between atoms: C8_10  and  N2_11 
REMARK       I    between atoms: C8_10  and  N4_32 
REMARK    2  A    between atoms: N4_32  and  C26_34 
ROOT
HETATM    1  N1  UNL     1      -1.435   0.436  -2.251  1.00  0.00    -0.191 N 
ATOM      2  H1  UNL     1      -1.266   0.370  -3.255  1.00  0.00     0.184 HD
HETATM    3  C8  UNL     1      -0.622   1.154  -1.525  1.00  0.00     0.683 C 
HETATM    4  N2  UNL     1      -0.813   1.351  -0.196  1.00  0.00    -0.189 N 
ATOM      5  H2  UNL     1      -1.448   2.089   0.108  1.00  0.00     0.184 HD
HETATM    6  C9  UNL     1      -0.214   0.630   0.699  1.00  0.00     0.083 C 
HETATM    7  C10 UNL     1       0.685  -0.633   0.508  1.00  0.00     0.049 C 
HETATM    8  N3  UNL     1       0.397  -1.624   1.338  1.00  0.00    -0.360 N 
ATOM      9  H3  UNL     1      -0.523  -2.064   1.317  1.00  0.00     0.165 HD
HETATM   10  C11 UNL     1       1.379  -2.065   2.253  1.00  0.00     0.014 C 
HETATM   11  C12 UNL     1       1.371  -1.542   3.513  1.00  0.00     0.036 C 
HETATM   12  C13 UNL     1       0.449  -0.409   3.796  1.00  0.00    -0.034 C 
HETATM   13  C14 UNL     1      -0.827  -0.628   4.326  1.00  0.00     0.011 C 
HETATM   14  C15 UNL     1      -1.912   0.099   3.819  1.00  0.00     0.002 C 
HETATM   15  C16 UNL     1      -1.730   0.843   2.653  1.00  0.00     0.014 C 
HETATM   16  C17 UNL     1      -0.433   0.987   2.157  1.00  0.00    -0.006 C 
HETATM   17  C18 UNL     1       0.654   0.691   2.967  1.00  0.00     0.025 C 
HETATM   18  C19 UNL     1       2.533  -2.973   1.775  1.00  0.00     0.095 C 
HETATM   19  C20 UNL     1       3.126  -2.391   0.479  1.00  0.00    -0.055 C 
HETATM   20  C21 UNL     1       2.997  -3.144  -0.692  1.00  0.00     0.007 C 
HETATM   21  C22 UNL     1       2.362  -2.540  -1.770  1.00  0.00    -0.002 C 
HETATM   22  C23 UNL     1       1.765  -1.287  -1.572  1.00  0.00    -0.012 C 
HETATM   23  C24 UNL     1       1.938  -0.618  -0.348  1.00  0.00     0.083 C 
HETATM   24  C25 UNL     1       3.046  -0.998   0.388  1.00  0.00    -0.005 C 
HETATM   25  N4  UNL     1       0.424   1.777  -2.169  1.00  0.00    -0.192 N 
ATOM     26  H4  UNL     1       0.793   1.366  -3.027  1.00  0.00     0.184 HD
ENDROOT
BRANCH   1  27
HETATM   27  C7  UNL     1      -2.536  -0.251  -1.703  1.00  0.00     0.055 A 
HETATM   28  C2  UNL     1      -2.712  -1.615  -2.005  1.00  0.00    -0.035 A 
HETATM   29  C1  UNL     1      -1.786  -2.316  -2.957  1.00  0.00     0.050 C 
HETATM   30  C3  UNL     1      -3.783  -2.330  -1.446  1.00  0.00     0.009 A 
HETATM   31  C4  UNL     1      -4.713  -1.686  -0.636  1.00  0.00     0.001 A 
HETATM   32  C5  UNL     1      -4.598  -0.320  -0.402  1.00  0.00     0.002 A 
HETATM   33  C6  UNL     1      -3.522   0.391  -0.942  1.00  0.00     0.030 A 
ENDBRANCH   1  27
BRANCH  25  34
HETATM   34  C26 UNL     1       1.000   2.966  -1.678  1.00  0.00     0.049 A 
HETATM   35  C27 UNL     1       0.268   4.154  -1.576  1.00  0.00     0.030 A 
HETATM   36  C28 UNL     1       0.880   5.324  -1.116  1.00  0.00     0.002 A 
HETATM   37  C29 UNL     1       2.228   5.322  -0.766  1.00  0.00     0.000 A 
HETATM   38  C30 UNL     1       2.969   4.148  -0.882  1.00  0.00     0.002 A 
HETATM   39  C31 UNL     1       2.362   2.981  -1.353  1.00  0.00     0.030 A 
ENDBRANCH  25  34
TORSDOF 2
