REMARK  1 active torsions:
REMARK  status: ('A' for Active; 'I' for Inactive)
REMARK    1  A    between atoms: C2_2  and  O1_3 
ROOT
HETATM    1  C1  UNL     1       2.330  -2.248  -0.407  1.00  0.00     0.046 C 
HETATM    2  C2  UNL     1       1.469  -1.268   0.416  1.00  0.00     0.059 C 
HETATM    3  C3  UNL     1       0.495  -2.098   1.252  1.00  0.00     0.038 C 
HETATM    4  C4  UNL     1      -0.457  -1.286   2.119  1.00  0.00     0.006 C 
HETATM    5  C5  UNL     1      -1.809  -1.110   1.457  1.00  0.00     0.038 C 
HETATM    6  C6  UNL     1      -1.827  -0.271   0.180  1.00  0.00     0.065 C 
HETATM    7  C7  UNL     1      -3.204  -0.466  -0.493  1.00  0.00     0.046 C 
HETATM    8  O2  UNL     1      -1.642   1.139   0.473  1.00  0.00    -0.368 OA
HETATM    9  C8  UNL     1      -0.743   1.293  -0.656  1.00  0.00     0.072 A 
HETATM   10  C9  UNL     1      -1.316   2.242  -1.684  1.00  0.00     0.047 C 
HETATM   11  C10 UNL     1      -0.711  -0.233  -0.885  1.00  0.00     0.063 A 
HETATM   12  C11 UNL     1       0.792  -0.252  -0.523  1.00  0.00     0.040 A 
HETATM   13  C12 UNL     1       0.783   1.322  -0.337  1.00  0.00    -0.009 A 
HETATM   14  C13 UNL     1       1.665   1.994  -1.406  1.00  0.00     0.018 C 
HETATM   15  C14 UNL     1       1.062   1.994   1.009  1.00  0.00     0.018 C 
ENDROOT
BRANCH   2  16
HETATM   16  O1  UNL     1       2.361  -0.595   1.302  1.00  0.00    -0.390 OA
ATOM     17  H1  UNL     1       1.831   0.009   1.809  1.00  0.00     0.210 HD
ENDBRANCH   2  16
TORSDOF 1
