REMARK  2 active torsions:
REMARK  status: ('A' for Active; 'I' for Inactive)
REMARK    1  A    between atoms: C2_2  and  C3_3 
REMARK    2  A    between atoms: C7_9  and  N1_10 
ROOT
HETATM    1  C3  UNL     1      -1.708   0.364   0.288  1.00  0.00     0.040 C 
HETATM    2  C4  UNL     1      -0.765  -0.038  -0.868  1.00  0.00     0.044 C 
HETATM    3  C5  UNL     1      -0.257  -1.245  -0.042  1.00  0.00     0.110 C 
HETATM    4 CL1  UNL     1      -0.657  -2.878  -0.585  1.00  0.00    -0.112 Cl
HETATM    5  C6  UNL     1      -0.994  -0.669   1.176  1.00  0.00     0.160 C 
HETATM    6  O1  UNL     1       0.240  -0.266   1.812  1.00  0.00    -0.355 OA
HETATM    7  C7  UNL     1       1.007  -1.007   0.811  1.00  0.00     0.269 C 
ENDROOT
BRANCH   7   8
HETATM    8  N1  UNL     1       2.071  -0.327   0.108  1.00  0.00    -0.272 N 
HETATM    9  C8  UNL     1       2.662   0.827   0.547  1.00  0.00     0.114 A 
HETATM   10  C9  UNL     1       3.675   1.098  -0.340  1.00  0.00     0.037 A 
HETATM   11  C10 UNL     1       3.619   0.047  -1.276  1.00  0.00     0.108 A 
HETATM   12  N2  UNL     1       2.639  -0.823  -1.009  1.00  0.00    -0.308 N 
ATOM     13  H2  UNL     1       2.382  -1.663  -1.528  1.00  0.00     0.186 HD
ENDBRANCH   7   8
BRANCH   1  14
HETATM   14  C2  UNL     1      -3.150   0.087   0.049  1.00  0.00    -0.030 C 
HETATM   15  C1  UNL     1      -4.021   1.089  -0.108  1.00  0.00     0.007 C 
ENDBRANCH   1  14
TORSDOF 2
