REMARK  3 active torsions:
REMARK  status: ('A' for Active; 'I' for Inactive)
REMARK    1  A    between atoms: C2_2  and  O2_4 
REMARK    2  A    between atoms: O2_4  and  C3_5 
REMARK    3  A    between atoms: C11_16  and  C13_18 
ROOT
HETATM    1  C3  UNL     1      -1.077   0.180   0.822  1.00  0.00     0.130 C 
HETATM    2  C4  UNL     1       0.042   0.930   0.673  1.00  0.00    -0.004 C 
HETATM    3  C5  UNL     1       1.190   0.677   1.641  1.00  0.00     0.043 C 
HETATM    4  C6  UNL     1       2.026  -0.570   1.345  1.00  0.00     0.046 C 
HETATM    5  C7  UNL     1       1.606  -1.335   0.070  1.00  0.00     0.100 C 
HETATM    6  C8  UNL     1       2.608  -2.486  -0.132  1.00  0.00     0.050 C 
HETATM    7  C9  UNL     1       0.185  -1.950   0.154  1.00  0.00     0.127 C 
HETATM    8  C10 UNL     1      -0.736  -1.242   1.153  1.00  0.00     0.186 C 
HETATM    9  O3  UNL     1      -1.167  -1.776   2.172  1.00  0.00    -0.290 OA
HETATM   10  O4  UNL     1       1.863  -0.440  -1.047  1.00  0.00    -0.228 OA
HETATM   11  O5  UNL     1       0.630   0.224  -1.494  1.00  0.00    -0.223 OA
HETATM   12  C11 UNL     1       0.420   1.443  -0.725  1.00  0.00     0.131 C 
HETATM   13  C12 UNL     1       1.709   2.299  -0.758  1.00  0.00     0.056 C 
ENDROOT
BRANCH   1  14
HETATM   14  O2  UNL     1      -2.327   0.523   0.276  1.00  0.00    -0.275 OA
BRANCH  14  15
HETATM   15  C2  UNL     1      -3.190  -0.450  -0.155  1.00  0.00     0.260 C 
HETATM   16  C1  UNL     1      -4.561   0.132  -0.337  1.00  0.00     0.126 C 
HETATM   17  O1  UNL     1      -2.919  -1.624  -0.364  1.00  0.00    -0.265 OA
ENDBRANCH  14  15
ENDBRANCH   1  14
BRANCH  12  18
HETATM   18  C13 UNL     1      -0.675   2.311  -1.421  1.00  0.00     0.160 C 
HETATM   19 CL1  UNL     1      -1.755   1.449  -2.556  1.00  0.00    -0.127 Cl
ENDBRANCH  12  18
TORSDOF 3
