REMARK  7 active torsions:
REMARK  status: ('A' for Active; 'I' for Inactive)
REMARK    1  A    between atoms: C11_12  and  C13_14 
REMARK    2  A    between atoms: C13_14  and  O3_16 
REMARK    3  A    between atoms: O3_16  and  C14_17 
REMARK    4  A    between atoms: C20_24  and  C21_25 
REMARK    5  A    between atoms: C20_24  and  O7_35 
REMARK    6  A    between atoms: C21_25  and  N1_26 
REMARK    7  A    between atoms: C23_28  and  C24_29 
ROOT
HETATM    1  C1  UNL     1       0.544  -3.219  -2.993  1.00  0.00     0.023 C 
HETATM    2  C2  UNL     1      -0.036  -2.555  -1.980  1.00  0.00    -0.012 C 
HETATM    3  C3  UNL     1       0.155  -0.998  -1.868  1.00  0.00     0.167 C 
HETATM    4  O1  UNL     1       0.653  -0.298  -2.737  1.00  0.00    -0.292 OA
HETATM    5  C4  UNL     1      -0.332  -0.540  -0.482  1.00  0.00     0.061 C 
HETATM    6  C5  UNL     1      -1.845  -0.984  -0.946  1.00  0.00     0.022 C 
HETATM    7  C6  UNL     1      -2.230  -2.436  -1.108  1.00  0.00     0.015 C 
HETATM    8  C7  UNL     1      -0.963  -3.186  -0.865  1.00  0.00     0.053 C 
HETATM    9  C8  UNL     1      -0.677  -3.136   0.743  1.00  0.00    -0.042 C 
HETATM   10  C9  UNL     1      -1.601  -2.418   1.813  1.00  0.00     0.003 C 
HETATM   11  C10 UNL     1      -2.280  -0.998   1.821  1.00  0.00    -0.007 C 
HETATM   12  C11 UNL     1      -1.632   0.455   1.577  1.00  0.00     0.063 C 
HETATM   13  C12 UNL     1      -0.852   0.834   2.859  1.00  0.00     0.030 C 
HETATM   14  C16 UNL     1      -0.769   0.741   0.217  1.00  0.00     0.044 C 
HETATM   15  C17 UNL     1       0.791  -2.860   1.112  1.00  0.00     0.162 C 
HETATM   16  O4  UNL     1       1.463  -2.407  -0.059  1.00  0.00    -0.365 OA
HETATM   17  C18 UNL     1       0.958  -1.081   0.265  1.00  0.00     0.119 A 
HETATM   18  C19 UNL     1       1.182  -1.458   1.696  1.00  0.00     0.097 A 
HETATM   19  C20 UNL     1       2.011  -0.287   0.954  1.00  0.00     0.120 A 
ENDROOT
BRANCH  19  20
HETATM   20  C21 UNL     1       3.419  -0.468   0.384  1.00  0.00     0.190 C 
BRANCH  20  21
HETATM   21  N1  UNL     1       3.880   0.614  -0.494  1.00  0.00    -0.300 N 
HETATM   22  C22 UNL     1       3.142   1.477  -1.253  1.00  0.00     0.130 A 
HETATM   23  C23 UNL     1       4.031   2.272  -1.954  1.00  0.00     0.074 A 
HETATM   24  C25 UNL     1       5.288   1.814  -1.509  1.00  0.00     0.127 A 
HETATM   25  N2  UNL     1       5.209   0.836  -0.607  1.00  0.00    -0.309 N 
ATOM     26  H2  UNL     1       5.971   0.366  -0.118  1.00  0.00     0.186 HD
BRANCH  23  27
HETATM   27  C24 UNL     1       3.771   3.321  -2.917  1.00  0.00     0.212 C 
HETATM   28  O5  UNL     1       4.624   3.924  -3.543  1.00  0.00    -0.644 OA
HETATM   29  O6  UNL     1       2.459   3.616  -3.098  1.00  0.00    -0.644 OA
ENDBRANCH  23  27
ENDBRANCH  20  21
ENDBRANCH  19  20
BRANCH  19  30
HETATM   30  O7  UNL     1       1.726   1.018   1.525  1.00  0.00    -0.379 OA
HETATM   31  C26 UNL     1       2.780   1.714   2.188  1.00  0.00     0.202 C 
ENDBRANCH  19  30
BRANCH  12  32
HETATM   32  C13 UNL     1      -2.860   1.438   1.583  1.00  0.00     0.271 C 
HETATM   33  O2  UNL     1      -3.326   1.983   2.572  1.00  0.00    -0.264 OA
BRANCH  32  34
HETATM   34  O3  UNL     1      -3.388   1.574   0.334  1.00  0.00    -0.321 OA
BRANCH  34  35
HETATM   35  C14 UNL     1      -4.449   2.528   0.191  1.00  0.00     0.174 C 
HETATM   36  C15 UNL     1      -4.624   2.766  -1.298  1.00  0.00     0.034 C 
ENDBRANCH  34  35
ENDBRANCH  32  34
ENDBRANCH  12  32
TORSDOF 7
