REMARK  1 active torsions:
REMARK  status: ('A' for Active; 'I' for Inactive)
REMARK    1  A    between atoms: C20_28  and  N6_29 
ROOT
HETATM    1  C1  UNL     1       1.579  -1.409   2.442  1.00  0.00     0.030 C 
HETATM    2  C2  UNL     1       0.831  -0.769   1.222  1.00  0.00     0.034 C 
HETATM    3  C3  UNL     1      -0.196   0.323   1.799  1.00  0.00     0.007 C 
HETATM    4  C4  UNL     1      -1.155   1.231   1.007  1.00  0.00     0.006 A 
HETATM    5  C5  UNL     1      -2.137   1.896   1.766  1.00  0.00     0.018 A 
HETATM    6  C6  UNL     1      -3.025   2.786   1.163  1.00  0.00     0.042 A 
HETATM    7  C7  UNL     1      -2.928   2.981  -0.204  1.00  0.00     0.115 A 
HETATM    8  C8  UNL     1      -3.827   3.874  -0.880  1.00  0.00     0.117 C 
HETATM    9  N1  UNL     1      -4.589   4.577  -1.398  1.00  0.00    -0.190 NA
HETATM   10  N2  UNL     1      -2.023   2.351  -0.984  1.00  0.00    -0.333 N 
ATOM     11  H2  UNL     1      -2.009   2.478  -1.996  1.00  0.00     0.168 HD
HETATM   12  C9  UNL     1      -1.141   1.548  -0.362  1.00  0.00     0.116 A 
HETATM   13  N3  UNL     1      -0.158   1.027  -1.180  1.00  0.00    -0.340 N 
ATOM     14  H3  UNL     1       0.783   1.421  -1.179  1.00  0.00     0.167 HD
HETATM   15  C10 UNL     1      -0.453   0.037  -1.941  1.00  0.00     0.064 C 
HETATM   16  C11 UNL     1      -1.705  -0.393  -2.615  1.00  0.00     0.049 C 
HETATM   17  C12 UNL     1      -2.184  -1.610  -2.280  1.00  0.00     0.099 C 
HETATM   18  N4  UNL     1      -1.598  -2.324  -1.205  1.00  0.00    -0.330 N 
HETATM   19  C13 UNL     1      -2.339  -3.172  -0.461  1.00  0.00     0.096 C 
HETATM   20  C14 UNL     1      -1.940  -3.457   0.843  1.00  0.00     0.018 C 
HETATM   21  C15 UNL     1      -0.842  -2.782   1.387  1.00  0.00     0.012 C 
HETATM   22  C16 UNL     1      -0.062  -1.923   0.596  1.00  0.00    -0.012 C 
HETATM   23  C17 UNL     1      -0.376  -1.960  -0.758  1.00  0.00     0.075 C 
HETATM   24  C18 UNL     1       0.405  -1.147  -1.651  1.00  0.00     0.088 C 
HETATM   25  N5  UNL     1       1.682  -1.304  -1.621  1.00  0.00    -0.350 N 
ATOM     26  H5  UNL     1       2.161  -2.092  -2.057  1.00  0.00     0.166 HD
HETATM   27  C19 UNL     1       2.346  -0.288  -0.932  1.00  0.00     0.073 A 
HETATM   28  C20 UNL     1       3.364   0.464  -1.544  1.00  0.00     0.130 A 
HETATM   29  C21 UNL     1       4.069   1.454  -0.858  1.00  0.00     0.038 A 
HETATM   30  C22 UNL     1       3.730   1.718   0.460  1.00  0.00     0.003 A 
HETATM   31  C23 UNL     1       2.701   1.000   1.078  1.00  0.00     0.011 A 
HETATM   32  C24 UNL     1       1.982  -0.032   0.419  1.00  0.00    -0.012 A 
ENDROOT
BRANCH  28  33
HETATM   33  N6  UNL     1       3.676   0.250  -2.945  1.00  0.00    -0.113 N 
HETATM   34  O1  UNL     1       4.866   0.074  -3.237  1.00  0.00    -0.532 OA
HETATM   35  O2  UNL     1       2.738   0.305  -3.756  1.00  0.00    -0.532 OA
ENDBRANCH  28  33
TORSDOF 1
