REMARK  6 active torsions:
REMARK  status: ('A' for Active; 'I' for Inactive)
REMARK    1  A    between atoms: C2_2  and  C3_3 
REMARK    2  A    between atoms: C3_3  and  C4_4 
REMARK    3  A    between atoms: C4_4  and  N1_5 
REMARK    4  A    between atoms: C18_21  and  O3_22 
REMARK    5  A    between atoms: C19_24  and  O4_25 
REMARK    6  A    between atoms: C23_30  and  O5_31 
ROOT
HETATM    1  N1  UNL     1       1.562  -0.782  -1.083  1.00  0.00    -0.371 N 
HETATM    2  C5  UNL     1       0.374  -1.603  -1.329  1.00  0.00     0.153 C 
HETATM    3  C6  UNL     1       0.649  -2.844  -2.186  1.00  0.00     0.040 C 
HETATM    4  C7  UNL     1      -0.323  -1.974  -0.025  1.00  0.00     0.184 C 
HETATM    5  O1  UNL     1      -0.226  -3.113   0.446  1.00  0.00    -0.292 OA
HETATM    6  C8  UNL     1      -1.119  -0.830   0.642  1.00  0.00     0.138 C 
HETATM    7  O2  UNL     1      -2.206  -1.322   1.581  1.00  0.00    -0.360 OA
HETATM    8  C9  UNL     1      -2.643   0.083   1.438  1.00  0.00     0.071 C 
HETATM    9  C10 UNL     1      -4.116   0.285   1.576  1.00  0.00     0.039 C 
HETATM   10  C11 UNL     1      -4.653  -0.596   0.443  1.00  0.00     0.012 C 
HETATM   11  C12 UNL     1      -3.627  -0.459  -0.712  1.00  0.00    -0.038 C 
HETATM   12  C13 UNL     1      -3.442  -1.765  -1.481  1.00  0.00     0.015 C 
HETATM   13  C14 UNL     1      -4.095   0.642  -1.682  1.00  0.00     0.015 C 
HETATM   14  C15 UNL     1      -2.296  -0.022  -0.057  1.00  0.00     0.071 C 
HETATM   15  C16 UNL     1      -1.572   0.947   2.064  1.00  0.00     0.050 C 
HETATM   16  C17 UNL     1      -0.336   0.157   1.531  1.00  0.00     0.074 C 
HETATM   17  C18 UNL     1       0.902   0.894   0.915  1.00  0.00     0.131 C 
HETATM   18  C19 UNL     1       0.982   2.437   1.150  1.00  0.00     0.159 C 
HETATM   19  C20 UNL     1       0.298   3.270   0.073  1.00  0.00     0.042 C 
HETATM   20  C21 UNL     1       0.903   3.033  -1.314  1.00  0.00     0.018 C 
HETATM   21  C22 UNL     1       2.322   3.599  -1.429  1.00  0.00     0.013 C 
HETATM   22  C23 UNL     1       0.851   1.543  -1.682  1.00  0.00     0.170 C 
HETATM   23  C24 UNL     1       1.413   0.599  -0.565  1.00  0.00     0.052 C 
ENDROOT
BRANCH   1  24
HETATM   24  C4  UNL     1       2.835  -1.435  -0.768  1.00  0.00     0.123 C 
BRANCH  24  25
HETATM   25  C3  UNL     1       2.905  -2.249   0.529  1.00  0.00     0.019 C 
BRANCH  25  26
HETATM   26  C2  UNL     1       4.265  -2.080   1.214  1.00  0.00    -0.003 C 
HETATM   27  C1  UNL     1       4.288  -2.746   2.579  1.00  0.00     0.005 C 
ENDBRANCH  25  26
ENDBRANCH  24  25
ENDBRANCH   1  24
BRANCH  17  28
HETATM   28  O3  UNL     1       2.006   0.415   1.770  1.00  0.00    -0.381 OA
ATOM     29  H3  UNL     1       2.757   0.862   1.397  1.00  0.00     0.211 HD
ENDBRANCH  17  28
BRANCH  22  30
HETATM   30  O5  UNL     1      -0.497   1.243  -2.016  1.00  0.00    -0.389 OA
ATOM     31  H5  UNL     1      -0.529   0.321  -2.244  1.00  0.00     0.210 HD
ENDBRANCH  22  30
BRANCH  18  32
HETATM   32  O4  UNL     1       0.509   2.788   2.452  1.00  0.00    -0.392 OA
ATOM     33  H4  UNL     1       0.558   3.726   2.595  1.00  0.00     0.210 HD
ENDBRANCH  18  32
TORSDOF 6
