REMARK  8 active torsions:
REMARK  status: ('A' for Active; 'I' for Inactive)
REMARK    1  A    between atoms: C6_6  and  C7_7 
REMARK    2  A    between atoms: C11_11  and  N1_18 
REMARK    3  A    between atoms: C13_13  and  O1_14 
REMARK    4  A    between atoms: C18_21  and  O2_22 
REMARK    5  A    between atoms: N2_25  and  C20_26 
REMARK    6  A    between atoms: C20_26  and  C21_27 
REMARK    7  A    between atoms: C25_31  and  C26_32 
REMARK    8  A    between atoms: C26_32  and  O3_33 
ROOT
HETATM    1  C1  UNL     1      -4.258  -1.245   0.155  1.00  0.00     0.017 C 
HETATM    2  C2  UNL     1      -3.288  -0.086   0.557  1.00  0.00    -0.014 C 
HETATM    3  C3  UNL     1      -4.273   1.111   0.754  1.00  0.00     0.017 C 
HETATM    4  C4  UNL     1      -2.572  -0.473   1.875  1.00  0.00     0.011 C 
HETATM    5  C5  UNL     1      -1.471  -1.542   1.722  1.00  0.00     0.009 C 
HETATM    6  C6  UNL     1      -0.446  -1.326   0.533  1.00  0.00     0.026 C 
HETATM    7  N1  UNL     1       1.368  -0.041  -1.271  1.00  0.00     0.107 N 
HETATM    8  C16 UNL     1       0.795  -0.844  -2.371  1.00  0.00     0.277 C 
HETATM    9  C17 UNL     1      -0.670  -1.158  -2.196  1.00  0.00     0.071 C 
HETATM   10  C18 UNL     1      -1.284  -1.170  -0.782  1.00  0.00     0.095 C 
HETATM   11  C19 UNL     1      -2.154   0.197  -0.562  1.00  0.00     0.265 C 
HETATM   12  N2  UNL     1      -1.175   1.358  -0.336  1.00  0.00     0.099 N 
HETATM   13  C24 UNL     1      -0.453   1.796  -1.562  1.00  0.00     0.311 C 
HETATM   14  C25 UNL     1       1.083   1.402  -1.699  1.00  0.00     0.275 C 
ENDROOT
BRANCH  12  15
HETATM   15  C20 UNL     1      -1.650   2.518   0.422  1.00  0.00     0.277 C 
BRANCH  15  16
HETATM   16  C21 UNL     1      -0.549   3.319   1.070  1.00  0.00     0.014 A 
HETATM   17  C22 UNL     1      -0.730   3.828   2.487  1.00  0.00     0.007 A 
HETATM   18  C23 UNL     1       0.259   2.736   2.210  1.00  0.00     0.007 A 
ENDBRANCH  15  16
ENDBRANCH  12  15
BRANCH  10  19
HETATM   19  O2  UNL     1      -2.123  -2.338  -0.885  1.00  0.00    -0.387 OA
ATOM     20  H2  UNL     1      -2.631  -2.243  -1.682  1.00  0.00     0.210 HD
ENDBRANCH  10  19
BRANCH  14  21
HETATM   21  C26 UNL     1       1.978   2.548  -1.164  1.00  0.00     0.201 C 
BRANCH  21  22
HETATM   22  O3  UNL     1       1.763   3.750  -1.913  1.00  0.00    -0.399 OA
ATOM     23  H3  UNL     1       2.312   4.453  -1.585  1.00  0.00     0.209 HD
ENDBRANCH  21  22
ENDBRANCH  14  21
BRANCH   6  24
HETATM   24  C7  UNL     1       0.715  -2.374   0.694  1.00  0.00    -0.004 C 
HETATM   25  C8  UNL     1       1.693  -1.860   1.771  1.00  0.00     0.010 C 
HETATM   26  C9  UNL     1       2.837  -1.016   1.250  1.00  0.00    -0.002 C 
HETATM   27  C10 UNL     1       2.992   0.337   0.502  1.00  0.00     0.047 C 
HETATM   28  C15 UNL     1       3.464  -1.565   0.042  1.00  0.00     0.063 C 
HETATM   29  C11 UNL     1       2.809  -0.268  -0.924  1.00  0.00     0.170 C 
HETATM   30  C12 UNL     1       3.421  -1.282  -1.908  1.00  0.00     0.080 C 
HETATM   31  C13 UNL     1       2.881  -2.518  -0.931  1.00  0.00     0.067 C 
HETATM   32  C14 UNL     1       1.479  -3.050  -0.482  1.00  0.00     0.043 C 
BRANCH  31  33
HETATM   33  O1  UNL     1       3.693  -3.695  -1.207  1.00  0.00    -0.389 OA
ATOM     34  H1  UNL     1       3.385  -4.400  -0.650  1.00  0.00     0.210 HD
ENDBRANCH  31  33
ENDBRANCH   6  24
TORSDOF 8
