REMARK  4 active torsions:
REMARK  status: ('A' for Active; 'I' for Inactive)
REMARK    1  A    between atoms: C2_2  and  C4_4 
REMARK    2  A    between atoms: C4_4  and  C5_5 
REMARK    3  A    between atoms: C19_23  and  O3_24 
REMARK    4  A    between atoms: C22_28  and  O4_29 
ROOT
HETATM    1  C5  UNL     1      -2.011   2.147   0.733  1.00  0.00     0.171 C 
HETATM    2  O1  UNL     1      -1.639   3.482   0.372  1.00  0.00    -0.312 OA
HETATM    3  C6  UNL     1      -0.417   3.804   0.825  1.00  0.00     0.260 C 
HETATM    4  O2  UNL     1      -0.194   4.721   1.600  1.00  0.00    -0.265 OA
HETATM    5  C7  UNL     1       0.617   2.972   0.151  1.00  0.00     0.124 C 
HETATM    6  C8  UNL     1       0.542   1.454   0.525  1.00  0.00     0.014 C 
HETATM    7  C9  UNL     1       1.510   0.628  -0.332  1.00  0.00     0.005 C 
HETATM    8  C10 UNL     1       2.200  -0.626   0.451  1.00  0.00     0.011 C 
HETATM    9  C11 UNL     1       1.588  -0.518   1.776  1.00  0.00    -0.003 C 
HETATM   10  C12 UNL     1       0.519  -1.624   1.724  1.00  0.00     0.013 C 
HETATM   11  C13 UNL     1       1.125  -3.035   2.031  1.00  0.00     0.009 C 
HETATM   12  C14 UNL     1      -0.016  -3.672   1.223  1.00  0.00     0.026 C 
HETATM   13  C15 UNL     1      -0.160  -2.353   0.404  1.00  0.00     0.086 C 
HETATM   14  N1  UNL     1       0.700  -2.520  -0.804  1.00  0.00    -0.388 N 
ATOM     15  H1  UNL     1       1.310  -3.332  -0.900  1.00  0.00     0.159 HD
HETATM   16  C16 UNL     1       0.651  -1.469  -1.877  1.00  0.00     0.011 C 
HETATM   17  C17 UNL     1      -0.717  -0.649  -1.979  1.00  0.00     0.024 C 
HETATM   18  C18 UNL     1      -1.162   0.693  -1.284  1.00  0.00     0.016 C 
HETATM   19  C19 UNL     1      -0.977   1.028   0.250  1.00  0.00     0.111 C 
HETATM   20  C20 UNL     1       2.148  -0.777  -2.471  1.00  0.00     0.060 C 
HETATM   21  C21 UNL     1       2.974  -1.945  -3.052  1.00  0.00     0.019 C 
HETATM   22  C22 UNL     1       3.298   0.245  -1.648  1.00  0.00     0.132 C 
HETATM   23  C23 UNL     1       2.766   1.351  -0.593  1.00  0.00     0.020 C 
HETATM   24  C24 UNL     1       2.950   1.610   1.021  1.00  0.00     0.013 C 
HETATM   25  C25 UNL     1       1.435   1.055   1.704  1.00  0.00     0.003 C 
ENDROOT
BRANCH   1  26
HETATM   26  C4  UNL     1      -3.498   2.061   0.295  1.00  0.00     0.039 C 
BRANCH  26  27
HETATM   27  C2  UNL     1      -4.432   0.941   0.788  1.00  0.00    -0.020 C 
HETATM   28  C1  UNL     1      -4.328   0.668   2.287  1.00  0.00     0.009 C 
HETATM   29  C3  UNL     1      -4.359  -0.349  -0.024  1.00  0.00     0.009 C 
ENDBRANCH  26  27
ENDBRANCH   1  26
BRANCH  19  30
HETATM   30  O3  UNL     1      -1.373  -0.080   1.014  1.00  0.00    -0.382 OA
ATOM     31  H3  UNL     1      -0.758  -0.745   0.727  1.00  0.00     0.211 HD
ENDBRANCH  19  30
BRANCH  22  32
HETATM   32  O4  UNL     1       3.965   1.002  -2.676  1.00  0.00    -0.394 OA
ATOM     33  H4  UNL     1       4.591   1.558  -2.228  1.00  0.00     0.210 HD
ENDBRANCH  22  32
TORSDOF 4
