REMARK  2 active torsions:
REMARK  status: ('A' for Active; 'I' for Inactive)
REMARK    1  A    between atoms: O1_2  and  C2_3 
REMARK    2  A    between atoms: C2_3  and  C3_5 
ROOT
HETATM    1  C3  UNL     1       0.969  -0.733  -1.370  1.00  0.00     0.108 C 
HETATM    2  C4  UNL     1       0.308   0.622  -1.910  1.00  0.00     0.065 C 
HETATM    3  C5  UNL     1       0.945   1.989  -1.583  1.00  0.00     0.070 C 
HETATM    4  C6  UNL     1       0.433   2.816  -0.408  1.00  0.00    -0.008 C 
HETATM    5  C7  UNL     1       0.953   2.458   0.979  1.00  0.00     0.005 C 
HETATM    6  C8  UNL     1       0.454   1.117   1.478  1.00  0.00     0.007 C 
HETATM    7  C9  UNL     1      -1.057   0.843   1.309  1.00  0.00     0.005 C 
HETATM    8  C10 UNL     1      -1.506  -0.673   1.291  1.00  0.00    -0.030 C 
HETATM    9  C11 UNL     1      -2.123  -0.995   2.680  1.00  0.00     0.016 C 
HETATM   10  C12 UNL     1      -0.281  -1.650   1.115  1.00  0.00     0.084 C 
HETATM   11  C13 UNL     1       0.841  -1.663  -0.042  1.00  0.00     0.202 C 
HETATM   12  O3  UNL     1       2.107  -1.682   0.693  1.00  0.00    -0.349 OA
HETATM   13  C14 UNL     1       2.449  -3.054   0.893  1.00  0.00     0.198 C 
HETATM   14  C15 UNL     1       1.934  -3.712  -0.347  1.00  0.00     0.198 C 
HETATM   15  O4  UNL     1       0.708  -3.035  -0.587  1.00  0.00    -0.349 OA
HETATM   16  C16 UNL     1      -2.696  -1.010   0.236  1.00  0.00     0.000 C 
HETATM   17  C17 UNL     1      -3.452   0.062  -0.800  1.00  0.00     0.045 C 
HETATM   18  C18 UNL     1      -1.959   0.491  -0.983  1.00  0.00     0.076 C 
HETATM   19  C19 UNL     1      -1.970  -1.200  -1.058  1.00  0.00     0.045 C 
HETATM   20  O5  UNL     1      -1.136   0.785  -2.114  1.00  0.00    -0.343 OA
HETATM   21  C20 UNL     1      -1.748   1.578   0.161  1.00  0.00    -0.007 C 
HETATM   22  C21 UNL     1      -3.068   2.188   0.776  1.00  0.00     0.019 C 
HETATM   23  C22 UNL     1      -1.074   2.861  -0.377  1.00  0.00     0.017 C 
ENDROOT
BRANCH   1  24
HETATM   24  C2  UNL     1       2.453  -0.650  -1.722  1.00  0.00     0.296 C 
HETATM   25  O2  UNL     1       2.957  -1.201  -2.695  1.00  0.00    -0.259 OA
BRANCH  24  26
HETATM   26  O1  UNL     1       3.141   0.138  -0.847  1.00  0.00    -0.323 OA
HETATM   27  C1  UNL     1       4.549   0.199  -1.066  1.00  0.00     0.213 C 
ENDBRANCH  24  26
ENDBRANCH   1  24
TORSDOF 2
