REMARK  0 active torsions:
REMARK  status: ('A' for Active; 'I' for Inactive)
ROOT
HETATM    1  C1  UNL     1      -2.346  -1.728  -1.201  1.00  0.00     0.015 C 
HETATM    2  C2  UNL     1      -1.837  -0.569  -0.338  1.00  0.00    -0.040 C 
HETATM    3  C3  UNL     1      -1.657  -0.999   1.131  1.00  0.00     0.010 C 
HETATM    4  C4  UNL     1      -1.932   0.260   1.966  1.00  0.00     0.016 C 
HETATM    5  C5  UNL     1      -2.375   1.331   0.966  1.00  0.00     0.050 C 
HETATM    6  C6  UNL     1      -2.890   0.535  -0.221  1.00  0.00     0.024 C 
HETATM    7  S1  UNL     1      -1.010   2.390   0.391  1.00  0.00    -0.130 SA
HETATM    8  C7  UNL     1       0.229   1.098  -0.170  1.00  0.00     0.136 C 
HETATM    9  C8  UNL     1      -0.525  -0.003  -0.953  1.00  0.00     0.055 C 
HETATM   10  C9  UNL     1       1.356   1.837  -0.885  1.00  0.00     0.065 C 
HETATM   11  N1  UNL     1       2.082   1.412  -1.886  1.00  0.00    -0.302 N 
ATOM     12  H1  UNL     1       2.391   2.019  -2.645  1.00  0.00     0.186 HD
HETATM   13  N2  UNL     1       2.394   0.062  -1.823  1.00  0.00    -0.283 N 
ATOM     14  H2  UNL     1       2.533  -0.458  -2.690  1.00  0.00     0.188 HD
HETATM   15  C10 UNL     1       2.520  -0.592  -0.622  1.00  0.00     0.162 A 
HETATM   16  N3  UNL     1       3.278  -1.718  -0.457  1.00  0.00    -0.335 N 
ATOM     17  H3  UNL     1       3.814  -2.197  -1.181  1.00  0.00     0.168 HD
HETATM   18  C11 UNL     1       3.185  -2.085   0.860  1.00  0.00     0.183 A 
HETATM   19  N4  UNL     1       2.401  -1.281   1.544  1.00  0.00    -0.338 N 
ATOM     20  H4  UNL     1       2.166  -1.336   2.535  1.00  0.00     0.167 HD
HETATM   21  C12 UNL     1       1.972  -0.358   0.637  1.00  0.00     0.155 A 
HETATM   22  N5  UNL     1       1.106   0.671   0.951  1.00  0.00    -0.116 NA
HETATM   23  O1  UNL     1       1.836   1.877   1.353  1.00  0.00    -0.289 OA
HETATM   24  C13 UNL     1       2.042   2.697   0.146  1.00  0.00     0.251 C 
ENDROOT
TORSDOF 0
