REMARK  10 active torsions:
REMARK  status: ('A' for Active; 'I' for Inactive)
REMARK    1  A    between atoms: C2_2  and  C3_3 
REMARK    2  A    between atoms: C8_8  and  C9_9 
REMARK    3  A    between atoms: C19_21  and  O2_22 
REMARK    4  A    between atoms: N1_24  and  C20_25 
REMARK    5  A    between atoms: C20_25  and  C21_26 
REMARK    6  A    between atoms: C20_25  and  C22_29 
REMARK    7  A    between atoms: C21_26  and  O3_27 
REMARK    8  A    between atoms: C22_29  and  O4_30 
REMARK    9  A    between atoms: C22_29  and  C23_32 
REMARK   10  A    between atoms: C25_34  and  O5_35 
ROOT
HETATM    1  C3  UNL     1       1.137   2.339   0.939  1.00  0.00     0.028 C 
HETATM    2  C4  UNL     1       0.018   3.398   0.724  1.00  0.00     0.003 C 
HETATM    3  C5  UNL     1       0.310   4.132  -0.387  1.00  0.00     0.015 C 
HETATM    4  C6  UNL     1      -0.335   3.312  -1.503  1.00  0.00     0.025 C 
HETATM    5  C7  UNL     1      -1.739   3.208  -0.906  1.00  0.00     0.019 C 
HETATM    6  C8  UNL     1      -1.473   2.973   0.608  1.00  0.00     0.024 C 
HETATM    7  C17 UNL     1       0.388   1.957  -1.510  1.00  0.00     0.008 C 
HETATM    8  C18 UNL     1       1.109   1.475  -0.336  1.00  0.00     0.008 C 
HETATM    9  C19 UNL     1       1.663   0.266  -0.693  1.00  0.00     0.152 C 
HETATM   10  N1  UNL     1       1.154  -0.086  -1.930  1.00  0.00    -0.298 N 
HETATM   11  C25 UNL     1       0.451   0.982  -2.475  1.00  0.00     0.152 C 
ENDROOT
BRANCH   6  12
HETATM   12  C9  UNL     1      -1.928   1.623   1.158  1.00  0.00    -0.051 A 
HETATM   13  C10 UNL     1      -2.232   1.516   2.529  1.00  0.00     0.008 A 
HETATM   14  C11 UNL     1      -2.695   0.318   3.104  1.00  0.00     0.016 A 
HETATM   15  C12 UNL     1      -2.906  -0.798   2.275  1.00  0.00     0.017 A 
HETATM   16  C13 UNL     1      -3.380  -2.123   2.419  1.00  0.00     0.046 A 
HETATM   17  C15 UNL     1      -2.608  -0.673   0.924  1.00  0.00     0.087 A 
HETATM   18 BR1  UNL     1      -3.929  -2.919   4.021  1.00  0.00    -0.048 Br
HETATM   19  C14 UNL     1      -3.365  -2.707   1.180  1.00  0.00     0.162 A 
HETATM   20  O1  UNL     1      -2.877  -1.834   0.259  1.00  0.00    -0.321 OA
HETATM   21  C16 UNL     1      -2.110   0.490   0.339  1.00  0.00     0.045 A 
ENDBRANCH   6  12
BRANCH   1  22
HETATM   22  C2  UNL     1       1.071   1.596   2.280  1.00  0.00     0.005 C 
HETATM   23  C1  UNL     1       2.427   1.537   2.977  1.00  0.00     0.006 C 
ENDBRANCH   1  22
BRANCH   9  24
HETATM   24  O2  UNL     1       2.489  -0.545  -0.050  1.00  0.00    -0.345 OA
ATOM     25  H2  UNL     1       2.871  -1.379  -0.296  1.00  0.00     0.219 HD
ENDBRANCH   9  24
BRANCH  11  26
HETATM   26  O5  UNL     1      -0.099   0.996  -3.686  1.00  0.00    -0.345 OA
ATOM     27  H5  UNL     1      -0.055   0.322  -4.354  1.00  0.00     0.219 HD
ENDBRANCH  11  26
BRANCH  10  28
HETATM   28  C20 UNL     1       1.239  -1.426  -2.509  1.00  0.00     0.146 C 
BRANCH  28  29
HETATM   29  C21 UNL     1       2.661  -1.822  -2.928  1.00  0.00     0.192 C 
BRANCH  29  30
HETATM   30  O3  UNL     1       2.632  -2.899  -3.868  1.00  0.00    -0.399 OA
ATOM     31  H3  UNL     1       3.512  -3.144  -4.127  1.00  0.00     0.209 HD
ENDBRANCH  29  30
ENDBRANCH  28  29
BRANCH  28  32
HETATM   32  C22 UNL     1       0.458  -2.501  -1.699  1.00  0.00     0.143 C 
BRANCH  32  33
HETATM   33  O4  UNL     1       0.074  -3.534  -2.637  1.00  0.00    -0.393 OA
ATOM     34  H4  UNL     1      -0.403  -4.190  -2.143  1.00  0.00     0.210 HD
ENDBRANCH  32  33
BRANCH  32  35
HETATM   35  C23 UNL     1       1.203  -3.218  -0.558  1.00  0.00     0.029 C 
HETATM   36  C24 UNL     1       0.474  -3.098   0.775  1.00  0.00     0.007 C 
ENDBRANCH  32  35
ENDBRANCH  28  32
ENDBRANCH  10  28
TORSDOF 10
