REMARK  10 active torsions:
REMARK  status: ('A' for Active; 'I' for Inactive)
REMARK    1  A    between atoms: C2_2  and  O1_3 
REMARK    2  A    between atoms: O1_3  and  C3_4 
REMARK    3  A    between atoms: C3_4  and  C4_6 
REMARK    4  A    between atoms: C7_10  and  O3_11 
REMARK    5  A    between atoms: N2_17  and  C12_18 
REMARK    6  A    between atoms: C12_18  and  C13_19 
REMARK    7  A    between atoms: C13_19  and  C14_20 
REMARK    8  A    between atoms: C18_26  and  N3_27 
REMARK       I    between atoms: N3_27  and  C19_29 
REMARK    9  A    between atoms: C19_29  and  O5_31 
REMARK   10  A    between atoms: O5_31  and  C20_32 
ROOT
HETATM    1  C4  UNL     1      -1.585   2.940  -1.464  1.00  0.00     0.102 C 
HETATM    2  C5  UNL     1      -1.358   1.715  -0.751  1.00  0.00     0.012 C 
HETATM    3  C6  UNL     1      -2.116   0.713  -1.345  1.00  0.00     0.063 C 
HETATM    4  N1  UNL     1      -2.050   1.131  -2.658  1.00  0.00    -0.327 N 
HETATM    5  C7  UNL     1      -2.197   2.517  -2.640  1.00  0.00     0.160 C 
HETATM    6  C8  UNL     1      -1.089   0.489  -3.559  1.00  0.00     0.133 C 
HETATM    7  C9  UNL     1       0.352   0.395  -2.990  1.00  0.00     0.049 C 
HETATM    8  C10 UNL     1       0.598  -0.342  -1.623  1.00  0.00     0.086 A 
HETATM    9  C11 UNL     1      -0.311  -1.601  -1.417  1.00  0.00     0.301 C 
HETATM   10  N2  UNL     1      -1.446  -1.518  -0.454  1.00  0.00     0.105 N 
HETATM   11  C15 UNL     1      -2.590  -0.653  -0.869  1.00  0.00     0.195 C 
HETATM   12  C16 UNL     1      -3.506  -1.335  -1.919  1.00  0.00     0.056 C 
HETATM   13  C17 UNL     1      -3.504  -0.300   0.339  1.00  0.00     0.056 C 
HETATM   14  S1  UNL     1       2.393  -1.046  -1.761  1.00  0.00    -0.075 SA
HETATM   15  C18 UNL     1       2.919  -0.311  -0.249  1.00  0.00     0.150 A 
HETATM   16  N4  UNL     1       1.923   0.449   0.286  1.00  0.00    -0.339 N 
ATOM     17  H4  UNL     1       2.079   0.935   1.169  1.00  0.00     0.168 HD
HETATM   18  C23 UNL     1       0.709   0.568  -0.351  1.00  0.00     0.033 A 
HETATM   19  C24 UNL     1      -0.243   1.426   0.074  1.00  0.00     0.041 C 
ENDROOT
BRANCH  15  20
HETATM   20  N3  UNL     1       4.114  -0.548   0.154  1.00  0.00    -0.283 N 
HETATM   21  C19 UNL     1       4.471   0.166   1.253  1.00  0.00     0.367 C 
HETATM   22  O4  UNL     1       4.816   1.342   1.199  1.00  0.00    -0.238 OA
ATOM     23  H3  UNL     1       4.737  -1.210  -0.308  1.00  0.00     0.173 HD
BRANCH  21  24
HETATM   24  O5  UNL     1       4.299  -0.465   2.448  1.00  0.00    -0.299 OA
BRANCH  24  25
HETATM   25  C20 UNL     1       4.224  -1.905   2.557  1.00  0.00     0.125 C 
HETATM   26  C21 UNL     1       2.801  -2.332   2.926  1.00  0.00     0.040 C 
HETATM   27  C22 UNL     1       5.187  -2.283   3.683  1.00  0.00     0.040 C 
ENDBRANCH  24  25
ENDBRANCH  21  24
ENDBRANCH  15  20
BRANCH  10  28
HETATM   28  C12 UNL     1      -1.763  -2.898  -0.004  1.00  0.00     0.276 C 
BRANCH  28  29
HETATM   29  C13 UNL     1      -2.465  -3.006   1.345  1.00  0.00     0.061 C 
BRANCH  29  30
HETATM   30  C14 UNL     1      -2.235  -4.364   1.981  1.00  0.00     0.223 C 
HETATM   31  F1  UNL     1      -3.003  -4.454   3.096  1.00  0.00    -0.255 F 
ENDBRANCH  29  30
ENDBRANCH  28  29
ENDBRANCH  10  28
BRANCH   1  32
HETATM   32  C3  UNL     1      -1.115   4.292  -1.171  1.00  0.00     0.298 C 
HETATM   33  O2  UNL     1      -1.332   5.276  -1.869  1.00  0.00    -0.259 OA
BRANCH  32  34
HETATM   34  O1  UNL     1      -0.329   4.330  -0.049  1.00  0.00    -0.318 OA
BRANCH  34  35
HETATM   35  C2  UNL     1       0.412   5.541   0.140  1.00  0.00     0.174 C 
HETATM   36  C1  UNL     1       1.315   5.338   1.344  1.00  0.00     0.034 C 
ENDBRANCH  34  35
ENDBRANCH  32  34
ENDBRANCH   1  32
BRANCH   5  37
HETATM   37  O3  UNL     1      -2.608   3.181  -3.713  1.00  0.00    -0.345 OA
ATOM     38  H3  UNL     1      -3.026   2.892  -4.516  1.00  0.00     0.219 HD
ENDBRANCH   5  37
TORSDOF 10
