REMARK  10 active torsions:
REMARK  status: ('A' for Active; 'I' for Inactive)
REMARK    1  A    between atoms: C2_2  and  C3_4 
REMARK    2  A    between atoms: C3_4  and  N1_5 
REMARK    3  A    between atoms: C8_10  and  O1_11 
REMARK    4  A    between atoms: N2_20  and  C16_21 
REMARK    5  A    between atoms: C16_21  and  C17_22 
REMARK    6  A    between atoms: C17_22  and  C18_23 
REMARK    7  A    between atoms: N3_26  and  C21_27 
REMARK    8  A    between atoms: C21_27  and  C22_28 
REMARK    9  A    between atoms: C22_28  and  O2_29 
REMARK   10  A    between atoms: C28_36  and  O3_37 
ROOT
HETATM    1  N1  UNL     1       2.935   0.497  -1.128  1.00  0.00     0.106 N 
HETATM    2  C4  UNL     1       3.938  -0.499  -0.698  1.00  0.00     0.275 C 
HETATM    3  C5  UNL     1       3.464  -1.644   0.188  1.00  0.00     0.048 C 
HETATM    4  C6  UNL     1       2.547  -1.113   1.241  1.00  0.00     0.033 A 
HETATM    5  C7  UNL     1       2.987   0.327   1.766  1.00  0.00    -0.027 C 
HETATM    6  C8  UNL     1       3.511   0.603   3.029  1.00  0.00     0.069 C 
HETATM    7  C9  UNL     1       3.114   1.770   3.681  1.00  0.00     0.033 C 
HETATM    8  C10 UNL     1       2.042   2.484   3.140  1.00  0.00    -0.019 C 
HETATM    9  C11 UNL     1       1.565   2.086   1.891  1.00  0.00     0.019 C 
HETATM   10  C12 UNL     1       2.364   1.381   1.036  1.00  0.00     0.065 C 
HETATM   11  C13 UNL     1       1.741   0.907  -0.286  1.00  0.00     0.177 C 
HETATM   12  C14 UNL     1       0.766   1.093  -1.480  1.00  0.00     0.087 C 
HETATM   13  C15 UNL     1       0.535  -0.346  -2.174  1.00  0.00     0.061 C 
HETATM   14  N2  UNL     1       0.030  -1.595  -1.525  1.00  0.00    -0.388 N 
HETATM   15  C25 UNL     1       0.220  -1.969  -0.098  1.00  0.00     0.096 C 
HETATM   16  C26 UNL     1       0.715  -3.397   0.181  1.00  0.00     0.029 C 
HETATM   17  C27 UNL     1       1.190  -3.358   1.651  1.00  0.00     0.042 C 
HETATM   18  C28 UNL     1       1.495  -1.912   1.974  1.00  0.00     0.082 A 
HETATM   19  C29 UNL     1       1.004  -1.079   0.836  1.00  0.00     0.033 A 
HETATM   20  C30 UNL     1       0.565   0.315   0.637  1.00  0.00     0.041 C 
HETATM   21  C31 UNL     1       0.233   1.363   1.750  1.00  0.00     0.017 C 
ENDROOT
BRANCH  14  22
HETATM   22  C16 UNL     1      -1.281  -2.030  -2.044  1.00  0.00     0.122 C 
BRANCH  22  23
HETATM   23  C17 UNL     1      -2.365  -0.934  -2.002  1.00  0.00     0.024 C 
BRANCH  23  24
HETATM   24  C18 UNL     1      -3.784  -1.431  -1.645  1.00  0.00    -0.010 C 
HETATM   25  C19 UNL     1      -3.918  -1.863  -0.177  1.00  0.00     0.035 C 
HETATM   26  C20 UNL     1      -3.736  -0.699   0.813  1.00  0.00     0.273 C 
HETATM   27  N3  UNL     1      -3.939   0.621   0.196  1.00  0.00     0.090 N 
HETATM   28  C23 UNL     1      -5.088   0.602  -0.708  1.00  0.00     0.273 C 
HETATM   29  C24 UNL     1      -4.827  -0.321  -1.913  1.00  0.00     0.035 C 
BRANCH  27  30
HETATM   30  C21 UNL     1      -4.002   1.681   1.208  1.00  0.00     0.298 C 
BRANCH  30  31
HETATM   31  C22 UNL     1      -3.624   3.055   0.634  1.00  0.00     0.194 C 
BRANCH  31  32
HETATM   32  O2  UNL     1      -3.525   4.012   1.686  1.00  0.00    -0.399 OA
ATOM     33  H2  UNL     1      -3.291   4.862   1.331  1.00  0.00     0.209 HD
ENDBRANCH  31  32
ENDBRANCH  30  31
ENDBRANCH  27  30
ENDBRANCH  23  24
ENDBRANCH  22  23
ENDBRANCH  14  22
BRANCH  18  34
HETATM   34  O3  UNL     1       1.136  -1.508   3.298  1.00  0.00    -0.388 OA
ATOM     35  H3  UNL     1       0.474  -2.010   3.759  1.00  0.00     0.210 HD
ENDBRANCH  18  34
BRANCH   1  36
HETATM   36  C3  UNL     1       3.661   1.712  -1.605  1.00  0.00     0.342 C 
BRANCH  36  37
HETATM   37  C2  UNL     1       4.291   1.543  -2.967  1.00  0.00     0.113 C 
HETATM   38  C1  UNL     1       3.823   2.103  -4.088  1.00  0.00     0.053 C 
HETATM   39  F1  UNL     1       5.448   0.847  -3.058  1.00  0.00    -0.210 F 
ENDBRANCH  36  37
ENDBRANCH   1  36
BRANCH   6  40
HETATM   40  O1  UNL     1       4.247  -0.346   3.675  1.00  0.00    -0.360 OA
ATOM     41  H1  UNL     1       4.604  -0.158   4.535  1.00  0.00     0.217 HD
ENDBRANCH   6  40
TORSDOF 10
