REMARK  4 active torsions:
REMARK  status: ('A' for Active; 'I' for Inactive)
REMARK    1  A    between atoms: C1_2  and  C2_4 
REMARK    2  A    between atoms: C9_11  and  C10_12 
REMARK    3  A    between atoms: N1_13  and  O3_15 
REMARK    4  A    between atoms: O3_15  and  C11_16 
ROOT
HETATM    1  C2  UNL     1      -3.249  -2.008  -0.005  1.00  0.00     0.087 C 
HETATM    2  C3  UNL     1      -2.191  -1.540   1.022  1.00  0.00     0.020 C 
HETATM    3  C4  UNL     1      -1.440  -0.268   0.632  1.00  0.00    -0.004 C 
HETATM    4  C5  UNL     1      -2.336   0.977   0.694  1.00  0.00     0.006 C 
HETATM    5  C6  UNL     1      -2.962   1.103  -0.692  1.00  0.00     0.006 C 
HETATM    6  C7  UNL     1      -2.377  -0.056  -1.509  1.00  0.00    -0.004 C 
HETATM    7  C8  UNL     1      -3.239  -1.326  -1.402  1.00  0.00     0.020 C 
HETATM    8  C9  UNL     1      -1.052  -0.373  -0.839  1.00  0.00     0.034 C 
ENDROOT
BRANCH   8   9
HETATM    9  C10 UNL     1       0.104   0.537  -1.124  1.00  0.00     0.092 C 
HETATM   10  N1  UNL     1       1.241  -0.009  -1.369  1.00  0.00    -0.281 N 
ATOM     11  H1  UNL     1       1.398  -1.008  -1.499  1.00  0.00     0.193 HD
BRANCH  10  12
HETATM   12  O3  UNL     1       2.227   0.974  -1.430  1.00  0.00    -0.271 OA
BRANCH  12  13
HETATM   13  C11 UNL     1       3.465   0.368  -1.002  1.00  0.00     0.219 C 
HETATM   14  C12 UNL     1       3.637   0.027   0.514  1.00  0.00     0.257 C 
HETATM   15  C13 UNL     1       3.227   1.233   1.334  1.00  0.00     0.047 C 
HETATM   16  N2  UNL     1       5.155   0.189   0.257  1.00  0.00     0.104 N 
HETATM   17  C14 UNL     1       4.337   2.046   0.709  1.00  0.00     0.052 C 
HETATM   18  C15 UNL     1       5.624   1.321   1.137  1.00  0.00     0.280 C 
HETATM   19  C16 UNL     1       4.593   1.356  -0.659  1.00  0.00     0.262 C 
ENDBRANCH  12  13
ENDBRANCH  10  12
ENDBRANCH   8   9
BRANCH   1  20
HETATM   20  C1  UNL     1      -4.640  -1.935   0.597  1.00  0.00     0.177 C 
HETATM   21  O1  UNL     1      -5.145  -0.907   1.034  1.00  0.00    -0.648 OA
HETATM   22  O2  UNL     1      -5.303  -3.112   0.597  1.00  0.00    -0.648 OA
ENDBRANCH   1  20
TORSDOF 4
