REMARK  8 active torsions:
REMARK  status: ('A' for Active; 'I' for Inactive)
REMARK    1  A    between atoms: C2_2  and  O1_3 
REMARK    2  A    between atoms: O1_3  and  C3_4 
REMARK    3  A    between atoms: C3_4  and  C4_6 
REMARK    4  A    between atoms: C4_6  and  C5_7 
REMARK    5  A    between atoms: C7_9  and  C8_10 
REMARK    6  A    between atoms: C21_24  and  C22_25 
REMARK    7  A    between atoms: C22_25  and  O4_26 
REMARK    8  A    between atoms: C23_28  and  O5_29 
ROOT
HETATM    1  C5  UNL     1       2.329   1.585   0.596  1.00  0.00    -0.006 C 
HETATM    2  C6  UNL     1       1.694   2.598  -0.164  1.00  0.00     0.021 C 
HETATM    3  C7  UNL     1       0.358   2.514  -0.616  1.00  0.00    -0.024 C 
HETATM    4  C10 UNL     1      -0.379   1.350  -0.314  1.00  0.00     0.087 C 
HETATM    5  C11 UNL     1       0.152   0.444   0.734  1.00  0.00     0.008 C 
HETATM    6  C12 UNL     1       1.459   0.674   1.245  1.00  0.00    -0.039 C 
HETATM    7  C13 UNL     1       1.916  -0.176   2.413  1.00  0.00     0.050 C 
HETATM    8  C14 UNL     1      -0.446  -0.980   1.197  1.00  0.00    -0.055 C 
HETATM    9  C15 UNL     1      -0.424  -2.618   0.898  1.00  0.00     0.036 C 
HETATM   10  C16 UNL     1      -1.539  -3.036  -0.200  1.00  0.00     0.012 C 
HETATM   11  C17 UNL     1      -2.797  -2.213   0.105  1.00  0.00     0.031 C 
HETATM   12  C18 UNL     1      -2.228  -0.850   0.352  1.00  0.00     0.017 C 
HETATM   13  C19 UNL     1      -2.891   0.612   0.515  1.00  0.00     0.059 C 
HETATM   14  C20 UNL     1      -3.731  -0.237   1.404  1.00  0.00     0.143 C 
HETATM   15  O3  UNL     1      -4.645  -1.048   0.507  1.00  0.00    -0.368 OA
HETATM   16  C21 UNL     1      -3.938  -1.616  -0.689  1.00  0.00     0.115 C 
HETATM   17  C23 UNL     1      -3.559  -0.362  -1.693  1.00  0.00     0.190 C 
HETATM   18  C24 UNL     1      -2.852   0.904  -0.932  1.00  0.00     0.099 C 
HETATM   19  C25 UNL     1      -3.603   2.186  -1.245  1.00  0.00     0.050 C 
HETATM   20  O6  UNL     1      -1.417   1.107  -1.269  1.00  0.00    -0.336 OA
HETATM   21  C26 UNL     1      -1.948  -0.721   1.788  1.00  0.00     0.012 C 
HETATM   22  C27 UNL     1      -2.083  -1.419   3.129  1.00  0.00     0.023 C 
ENDROOT
BRANCH   1  23
HETATM   23  C4  UNL     1       3.963   1.442   0.449  1.00  0.00     0.177 C 
HETATM   24  C28 UNL     1       4.857   2.510   1.126  1.00  0.00     0.080 C 
HETATM   25  C29 UNL     1       5.508   2.659  -0.243  1.00  0.00     0.173 C 
HETATM   26  O7  UNL     1       4.429   1.942  -0.875  1.00  0.00    -0.365 OA
BRANCH  23  27
HETATM   27  C3  UNL     1       4.370  -0.091   0.671  1.00  0.00     0.298 C 
HETATM   28  O2  UNL     1       4.822  -0.563   1.712  1.00  0.00    -0.261 OA
BRANCH  27  29
HETATM   29  O1  UNL     1       4.082  -0.847  -0.432  1.00  0.00    -0.319 OA
BRANCH  29  30
HETATM   30  C2  UNL     1       3.916  -2.266  -0.303  1.00  0.00     0.174 C 
HETATM   31  C1  UNL     1       5.107  -3.011   0.275  1.00  0.00     0.034 C 
ENDBRANCH  29  30
ENDBRANCH  27  29
ENDBRANCH  23  27
ENDBRANCH   1  23
BRANCH   3  32
HETATM   32  C8  UNL     1      -0.249   3.685  -1.351  1.00  0.00     0.037 C 
HETATM   33  C9  UNL     1       0.561   4.309  -2.482  1.00  0.00     0.010 C 
ENDBRANCH   3  32
BRANCH  17  34
HETATM   34  O5  UNL     1      -2.739  -0.829  -2.782  1.00  0.00    -0.389 OA
ATOM     35  H5  UNL     1      -2.521  -0.107  -3.360  1.00  0.00     0.210 HD
ENDBRANCH  17  34
BRANCH  16  36
HETATM   36  C22 UNL     1      -4.722  -2.700  -1.418  1.00  0.00     0.205 C 
BRANCH  36  37
HETATM   37  O4  UNL     1      -3.883  -3.437  -2.300  1.00  0.00    -0.398 OA
ATOM     38  H4  UNL     1      -4.372  -4.113  -2.755  1.00  0.00     0.209 HD
ENDBRANCH  36  37
ENDBRANCH  16  36
TORSDOF 8
