REMARK  6 active torsions:
REMARK  status: ('A' for Active; 'I' for Inactive)
REMARK    1  A    between atoms: C15_18  and  C16_19 
REMARK    2  A    between atoms: C16_19  and  C18_21 
REMARK       I    between atoms: C18_21  and  N1_23 
REMARK    3  A    between atoms: N1_23  and  C19_25 
REMARK    4  A    between atoms: C19_25  and  C20_26 
REMARK    5  A    between atoms: C20_26  and  O4_27 
REMARK    6  A    between atoms: C22_29  and  O5_31 
ROOT
HETATM    1  C1  UNL     1       5.255   1.168   1.185  1.00  0.00     0.017 C 
HETATM    2  C2  UNL     1       4.029   0.804   0.777  1.00  0.00    -0.054 C 
HETATM    3  C3  UNL     1       3.033   0.019   1.466  1.00  0.00     0.029 C 
HETATM    4  C4  UNL     1       1.908   1.128   1.881  1.00  0.00     0.053 C 
HETATM    5  C5  UNL     1       0.803   1.031   0.854  1.00  0.00     0.121 C 
HETATM    6  O1  UNL     1       0.050  -0.164   1.276  1.00  0.00    -0.227 OA
HETATM    7  O2  UNL     1       0.874  -1.185   1.957  1.00  0.00    -0.228 OA
HETATM    8  C6  UNL     1       1.599  -2.029   1.013  1.00  0.00     0.103 C 
HETATM    9  C7  UNL     1       2.364  -2.995   1.977  1.00  0.00     0.050 C 
HETATM   10  C8  UNL     1       0.711  -2.934   0.167  1.00  0.00     0.029 C 
HETATM   11  C9  UNL     1      -0.617  -3.329   0.835  1.00  0.00     0.014 C 
HETATM   12  C10 UNL     1       0.503  -2.337  -1.191  1.00  0.00     0.082 C 
HETATM   13  S1  UNL     1       0.007  -0.610  -1.157  1.00  0.00    -0.152 SA
HETATM   14  C11 UNL     1       1.559   0.937  -0.472  1.00  0.00     0.073 C 
HETATM   15  C12 UNL     1       1.545   2.240  -1.403  1.00  0.00     0.034 C 
HETATM   16  C13 UNL     1       0.649   1.666  -2.380  1.00  0.00     0.024 C 
HETATM   17  C14 UNL     1      -0.671   1.986  -1.313  1.00  0.00     0.016 C 
HETATM   18  C15 UNL     1      -0.316   2.082   0.407  1.00  0.00     0.038 C 
HETATM   19  C22 UNL     1       1.766   0.263  -2.792  1.00  0.00     0.084 C 
HETATM   20  C23 UNL     1       1.203  -0.628  -3.928  1.00  0.00     0.049 C 
HETATM   21  C24 UNL     1       2.782  -0.703  -1.533  1.00  0.00     0.164 C 
HETATM   22  O6  UNL     1       3.878   0.219  -1.436  1.00  0.00    -0.371 OA
HETATM   23  C25 UNL     1       3.333   1.106  -0.477  1.00  0.00     0.172 C 
HETATM   24  C26 UNL     1       2.673  -1.161   0.279  1.00  0.00     0.064 C 
ENDROOT
BRANCH  18  25
HETATM   25  C16 UNL     1      -1.574   2.269   1.295  1.00  0.00     0.081 C 
HETATM   26  C17 UNL     1      -1.196   2.413   2.776  1.00  0.00     0.020 C 
BRANCH  25  27
HETATM   27  C18 UNL     1      -2.740   1.283   1.171  1.00  0.00     0.222 C 
HETATM   28  O3  UNL     1      -2.897   0.325   1.921  1.00  0.00    -0.273 OA
HETATM   29  N1  UNL     1      -3.679   1.638   0.214  1.00  0.00    -0.359 N 
ATOM     30  H1  UNL     1      -3.405   2.223  -0.576  1.00  0.00     0.162 HD
BRANCH  29  31
HETATM   31  C19 UNL     1      -5.059   1.177   0.334  1.00  0.00     0.148 C 
BRANCH  31  32
HETATM   32  C20 UNL     1      -5.293  -0.301   0.025  1.00  0.00     0.186 C 
BRANCH  32  33
HETATM   33  O4  UNL     1      -6.703  -0.564   0.098  1.00  0.00    -0.394 OA
HETATM   34  C21 UNL     1      -6.975  -1.953  -0.026  1.00  0.00     0.201 C 
ENDBRANCH  32  33
ENDBRANCH  31  32
ENDBRANCH  29  31
ENDBRANCH  25  27
ENDBRANCH  18  25
BRANCH  19  35
HETATM   35  O5  UNL     1       2.826   0.952  -3.580  1.00  0.00    -0.387 OA
ATOM     36  H5  UNL     1       3.403   0.228  -3.793  1.00  0.00     0.210 HD
ENDBRANCH  19  35
TORSDOF 6
