REMARK  8 active torsions:
REMARK  status: ('A' for Active; 'I' for Inactive)
REMARK    1  A    between atoms: O1_2  and  C2_3 
REMARK    2  A    between atoms: C2_3  and  C3_4 
REMARK    3  A    between atoms: C15_17  and  O2_18 
REMARK    4  A    between atoms: C18_21  and  C19_22 
REMARK    5  A    between atoms: C24_29  and  O5_30 
REMARK    6  A    between atoms: C25_32  and  C26_33 
REMARK    7  A    between atoms: C26_33  and  O6_34 
REMARK    8  A    between atoms: O6_34  and  C27_35 
ROOT
HETATM    1  C3  UNL     1      -0.250  -0.779  -0.921  1.00  0.00     0.047 C 
HETATM    2  C4  UNL     1      -0.321  -1.954   0.250  1.00  0.00     0.071 C 
HETATM    3  C5  UNL     1      -0.704  -3.248  -0.341  1.00  0.00     0.071 C 
HETATM    4  N1  UNL     1      -1.022  -4.265  -0.800  1.00  0.00    -0.196 NA
HETATM    5  C6  UNL     1       0.200  -2.217   1.740  1.00  0.00     0.017 C 
HETATM    6  C7  UNL     1      -0.240  -1.145   2.731  1.00  0.00     0.012 C 
HETATM    7  C8  UNL     1      -1.595  -0.393   2.478  1.00  0.00    -0.003 C 
HETATM    8  C9  UNL     1      -1.612   0.816   3.471  1.00  0.00     0.005 C 
HETATM    9  C10 UNL     1      -2.615   1.917   3.207  1.00  0.00     0.000 C 
HETATM   10  C11 UNL     1      -3.842   1.371   2.520  1.00  0.00     0.001 C 
HETATM   11  C12 UNL     1      -3.465   0.916   1.120  1.00  0.00     0.012 C 
HETATM   12  C13 UNL     1      -2.304  -0.176   1.010  1.00  0.00    -0.008 C 
HETATM   13  C14 UNL     1      -3.117  -1.516   0.830  1.00  0.00     0.019 C 
HETATM   14  C15 UNL     1      -1.403   0.221  -0.384  1.00  0.00     0.081 C 
HETATM   15  C17 UNL     1      -0.653   1.520  -0.156  1.00  0.00     0.056 C 
HETATM   16  C18 UNL     1       0.526   1.342   0.745  1.00  0.00     0.099 C 
HETATM   17  C20 UNL     1       1.456   0.144   0.512  1.00  0.00    -0.012 C 
HETATM   18  C21 UNL     1       2.690   0.375   1.451  1.00  0.00     0.018 C 
HETATM   19  C22 UNL     1       1.022  -1.429   0.257  1.00  0.00     0.026 C 
HETATM   20  C23 UNL     1       1.844  -2.284   1.039  1.00  0.00     0.028 C 
HETATM   21  C24 UNL     1       2.746  -1.504  -0.349  1.00  0.00     0.135 C 
HETATM   22  C25 UNL     1       1.567  -0.227  -0.888  1.00  0.00     0.031 C 
ENDROOT
BRANCH   1  23
HETATM   23  C2  UNL     1      -0.426  -1.309  -2.381  1.00  0.00     0.182 C 
BRANCH  23  24
HETATM   24  O1  UNL     1      -0.393  -0.219  -3.298  1.00  0.00    -0.395 OA
HETATM   25  C1  UNL     1      -0.564  -0.640  -4.644  1.00  0.00     0.201 C 
ENDBRANCH  23  24
ENDBRANCH   1  23
BRANCH  14  26
HETATM   26  O2  UNL     1      -2.274   0.665  -1.450  1.00  0.00    -0.383 OA
HETATM   27  C16 UNL     1      -3.335  -0.091  -1.979  1.00  0.00     0.202 C 
ENDBRANCH  14  26
BRANCH  22  28
HETATM   28  C26 UNL     1       2.135   0.596  -2.020  1.00  0.00     0.192 C 
BRANCH  28  29
HETATM   29  O6  UNL     1       3.416   1.100  -1.610  1.00  0.00    -0.321 OA
BRANCH  29  30
HETATM   30  C27 UNL     1       4.388   1.176  -2.552  1.00  0.00     0.254 C 
HETATM   31  C28 UNL     1       5.616   1.777  -1.933  1.00  0.00     0.126 C 
HETATM   32  O7  UNL     1       4.315   0.795  -3.711  1.00  0.00    -0.266 OA
ENDBRANCH  29  30
ENDBRANCH  28  29
ENDBRANCH  22  28
BRANCH  21  33
HETATM   33  O5  UNL     1       3.004  -2.452  -1.389  1.00  0.00    -0.394 OA
ATOM     34  H5  UNL     1       3.472  -2.047  -2.110  1.00  0.00     0.210 HD
ENDBRANCH  21  33
BRANCH  16  35
HETATM   35  C19 UNL     1       1.246   2.692   0.713  1.00  0.00     0.177 C 
HETATM   36  O3  UNL     1       2.051   3.090  -0.112  1.00  0.00    -0.648 OA
HETATM   37  O4  UNL     1       0.859   3.502   1.720  1.00  0.00    -0.648 OA
ENDBRANCH  16  35
TORSDOF 8
