REMARK  8 active torsions:
REMARK  status: ('A' for Active; 'I' for Inactive)
REMARK    1  A    between atoms: C2_2  and  C3_3 
REMARK    2  A    between atoms: C3_3  and  C4_4 
REMARK    3  A    between atoms: C4_4  and  C5_5 
REMARK    4  A    between atoms: C5_5  and  N1_6 
REMARK    5  A    between atoms: C9_10  and  O1_11 
REMARK    6  A    between atoms: C14_18  and  O3_19 
REMARK    7  A    between atoms: C18_24  and  C19_25 
REMARK    8  A    between atoms: C20_26  and  C21_27 
ROOT
HETATM    1  N1  UNL     1       0.755   0.822  -2.107  1.00  0.00     0.096 N 
HETATM    2  C6  UNL     1       1.952   0.266  -2.722  1.00  0.00     0.273 C 
HETATM    3  C7  UNL     1       2.140  -1.194  -2.406  1.00  0.00     0.038 C 
HETATM    4  C8  UNL     1       2.140  -1.631  -0.956  1.00  0.00     0.033 C 
HETATM    5  C9  UNL     1       3.141  -1.476   0.115  1.00  0.00     0.074 C 
HETATM    6  C10 UNL     1       3.119  -0.022   0.709  1.00  0.00     0.070 C 
HETATM    7  C11 UNL     1       2.016  -0.318   1.679  1.00  0.00     0.075 C 
HETATM    8  C12 UNL     1       1.570   1.030   2.142  1.00  0.00     0.135 C 
HETATM    9  O2  UNL     1       0.839   1.228   3.102  1.00  0.00    -0.297 OA
HETATM   10  C13 UNL     1       2.118   2.103   1.280  1.00  0.00     0.119 C 
HETATM   11  C14 UNL     1       2.356   1.223   0.029  1.00  0.00     0.102 C 
HETATM   12  C15 UNL     1       0.822   1.067  -0.652  1.00  0.00     0.258 C 
HETATM   13  C16 UNL     1      -0.319   0.131   0.107  1.00  0.00     0.045 C 
HETATM   14  C17 UNL     1      -0.043  -1.400   0.120  1.00  0.00     0.006 C 
HETATM   15  C18 UNL     1       0.369  -2.826   0.712  1.00  0.00     0.020 C 
HETATM   16  C24 UNL     1       1.903  -2.465   0.980  1.00  0.00     0.039 C 
HETATM   17  C25 UNL     1       1.342  -1.127   0.544  1.00  0.00    -0.012 C 
ENDROOT
BRANCH   1  18
HETATM   18  C5  UNL     1       0.191   1.942  -2.894  1.00  0.00     0.273 C 
BRANCH  18  19
HETATM   19  C4  UNL     1      -1.337   2.082  -2.726  1.00  0.00     0.030 C 
BRANCH  19  20
HETATM   20  C3  UNL     1      -1.789   3.314  -1.933  1.00  0.00     0.001 C 
BRANCH  20  21
HETATM   21  C2  UNL     1      -2.891   2.984  -0.926  1.00  0.00    -0.005 C 
HETATM   22  C1  UNL     1      -3.486   4.238  -0.301  1.00  0.00     0.005 C 
ENDBRANCH  20  21
ENDBRANCH  19  20
ENDBRANCH  18  19
ENDBRANCH   1  18
BRANCH  11  23
HETATM   23  O3  UNL     1       3.279   1.956  -0.768  1.00  0.00    -0.387 OA
ATOM     24  H3  UNL     1       2.829   2.690  -1.169  1.00  0.00     0.210 HD
ENDBRANCH  11  23
BRANCH   5  25
HETATM   25  O1  UNL     1       4.439  -2.061  -0.005  1.00  0.00    -0.388 OA
ATOM     26  H1  UNL     1       5.084  -1.961   0.685  1.00  0.00     0.210 HD
ENDBRANCH   5  25
BRANCH  15  27
HETATM   27  C19 UNL     1      -0.410  -3.316   1.880  1.00  0.00    -0.025 C 
HETATM   28  C20 UNL     1      -1.565  -2.742   2.261  1.00  0.00    -0.026 C 
BRANCH  28  29
HETATM   29  C21 UNL     1      -2.505  -3.336   3.215  1.00  0.00     0.008 A 
HETATM   30  C22 UNL     1      -3.681  -4.048   2.574  1.00  0.00     0.009 A 
HETATM   31  C23 UNL     1      -3.904  -2.805   3.385  1.00  0.00     0.009 A 
ENDBRANCH  28  29
ENDBRANCH  15  27
TORSDOF 8
