REMARK  2 active torsions:
REMARK  status: ('A' for Active; 'I' for Inactive)
REMARK    1  A    between atoms: C6_7  and  N1_8 
REMARK    2  A    between atoms: N1_8  and  C7_11 
ROOT
HETATM    1  N1  UNL     1      -0.225   0.010   0.630  1.00  0.00    -0.064 N 
ATOM      2  H11 UNL     1      -0.264  -1.009   0.656  1.00  0.00     0.278 HD
ATOM      3  H12 UNL     1       0.041   0.181   1.600  1.00  0.00     0.278 HD
ENDROOT
BRANCH   1   4
HETATM    4  C6  UNL     1      -1.539   0.594   0.318  1.00  0.00     0.213 C 
HETATM    5  C1  UNL     1      -2.388  -0.236  -0.726  1.00  0.00     0.066 C 
HETATM    6 CL1  UNL     1      -1.811  -0.671  -2.317  1.00  0.00    -0.117 Cl
HETATM    7  C2  UNL     1      -3.755   0.481  -0.691  1.00  0.00     0.028 C 
HETATM    8  C5  UNL     1      -2.544  -1.305   0.406  1.00  0.00     0.034 C 
HETATM    9  C3  UNL     1      -3.916   0.646   0.826  1.00  0.00     0.009 C 
HETATM   10  C4  UNL     1      -2.614  -0.012   1.283  1.00  0.00     0.020 C 
ENDBRANCH   1   4
BRANCH   1  11
HETATM   11  C7  UNL     1       0.799   0.484  -0.299  1.00  0.00     0.192 C 
HETATM   12  C8  UNL     1       1.962   1.271   0.389  1.00  0.00     0.047 C 
HETATM   13  C9  UNL     1       3.092   0.429  -0.145  1.00  0.00    -0.013 C 
HETATM   14  C10 UNL     1       4.405  -0.013   0.415  1.00  0.00    -0.020 C 
HETATM   15  C12 UNL     1       2.605  -1.021   0.281  1.00  0.00     0.026 C 
HETATM   16  C14 UNL     1       2.778  -0.002  -1.613  1.00  0.00     0.021 C 
HETATM   17  C11 UNL     1       4.094  -1.323   0.231  1.00  0.00    -0.024 C 
HETATM   18  C13 UNL     1       1.624  -0.708  -0.875  1.00  0.00     0.026 C 
ENDBRANCH   1  11
TORSDOF 2
