REMARK  3 active torsions:
REMARK  status: ('A' for Active; 'I' for Inactive)
REMARK    1  A    between atoms: C2_2  and  C3_3 
REMARK    2  A    between atoms: C15_17  and  C16_18 
REMARK    3  A    between atoms: C16_18  and  C17_19 
ROOT
HETATM    1  C3  UNL     1       1.264   0.045  -0.314  1.00  0.00    -0.035 C 
HETATM    2  C4  UNL     1       0.434  -1.102  -0.242  1.00  0.00     0.016 C 
HETATM    3  N1  UNL     1      -0.243  -1.329   0.968  1.00  0.00    -0.387 N 
ATOM      4  H1  UNL     1       0.138  -1.390   1.912  1.00  0.00     0.159 HD
HETATM    5  C5  UNL     1      -1.588  -1.452   0.544  1.00  0.00     0.090 C 
HETATM    6  C6  UNL     1      -1.312  -2.417  -0.432  1.00  0.00     0.014 C 
HETATM    7  C7  UNL     1      -1.241  -3.894  -0.317  1.00  0.00     0.012 C 
HETATM    8  C8  UNL     1      -0.497  -1.538  -1.207  1.00  0.00     0.042 C 
HETATM    9  C9  UNL     1      -1.101  -0.436  -2.052  1.00  0.00     0.016 C 
HETATM   10  C10 UNL     1      -1.744   0.562  -1.053  1.00  0.00    -0.003 C 
HETATM   11  C11 UNL     1      -2.366  -0.153   0.213  1.00  0.00     0.013 C 
HETATM   12  C12 UNL     1      -2.327   0.889   1.333  1.00  0.00     0.007 C 
HETATM   13  C13 UNL     1      -1.774   2.160   0.692  1.00  0.00     0.006 C 
HETATM   14  C14 UNL     1      -0.845   1.694  -0.451  1.00  0.00    -0.002 C 
HETATM   15  C15 UNL     1       0.693   1.455  -0.070  1.00  0.00     0.027 C 
ENDROOT
BRANCH  15  16
HETATM   16  C16 UNL     1       1.070   1.985   1.339  1.00  0.00     0.041 C 
BRANCH  16  17
HETATM   17  C17 UNL     1       2.556   1.979   1.668  1.00  0.00     0.222 C 
HETATM   18  F1  UNL     1       3.224   2.722   0.746  1.00  0.00    -0.255 F 
ENDBRANCH  16  17
ENDBRANCH  15  16
BRANCH   1  19
HETATM   19  C2  UNL     1       2.515  -0.122  -0.796  1.00  0.00    -0.022 C 
HETATM   20  C1  UNL     1       3.208  -1.400  -1.162  1.00  0.00     0.036 C 
ENDBRANCH   1  19
TORSDOF 3
