REMARK  3 active torsions:
REMARK  status: ('A' for Active; 'I' for Inactive)
REMARK    1  A    between atoms: C4_6  and  C5_7 
REMARK    2  A    between atoms: C5_7  and  C6_8 
REMARK    3  A    between atoms: C6_8  and  C7_9 
ROOT
HETATM    1  C7  UNL     1      -1.267   0.673   1.498  1.00  0.00    -0.008 C 
HETATM    2  C8  UNL     1      -2.517  -0.221   1.767  1.00  0.00     0.018 C 
HETATM    3  C9  UNL     1      -2.934  -0.424   0.320  1.00  0.00     0.004 C 
HETATM    4  C10 UNL     1      -2.714   0.963  -0.389  1.00  0.00    -0.002 C 
HETATM    5  C11 UNL     1      -3.013   1.428  -1.804  1.00  0.00     0.011 C 
HETATM    6  C12 UNL     1      -1.249   0.585  -0.055  1.00  0.00     0.002 C 
HETATM    7  C13 UNL     1      -1.587  -0.904  -0.307  1.00  0.00     0.039 C 
HETATM    8  C14 UNL     1      -2.401  -1.552  -1.435  1.00  0.00     0.210 C 
HETATM    9  F1  UNL     1      -2.009  -2.812  -1.757  1.00  0.00    -0.246 F 
HETATM   10  C15 UNL     1      -3.658  -1.487  -0.508  1.00  0.00     0.213 C 
HETATM   11  F2  UNL     1      -4.811  -1.098  -1.099  1.00  0.00    -0.246 F 
ENDROOT
BRANCH   1  12
HETATM   12  C6  UNL     1       0.009   0.167   2.172  1.00  0.00     0.009 C 
BRANCH  12  13
HETATM   13  C5  UNL     1       1.247   1.017   1.836  1.00  0.00     0.041 C 
BRANCH  13  14
HETATM   14  C4  UNL     1       2.310   0.244   1.109  1.00  0.00    -0.035 A 
HETATM   15  C3  UNL     1       3.044  -0.791   1.656  1.00  0.00     0.095 A 
HETATM   16  N1  UNL     1       3.906  -1.265   0.709  1.00  0.00    -0.368 N 
HETATM   17  C2  UNL     1       3.758  -0.547  -0.449  1.00  0.00     0.011 A 
ATOM     18  H1  UNL     1       4.560  -2.036   0.843  1.00  0.00     0.165 HD
HETATM   19  C1  UNL     1       4.581  -0.853  -1.648  1.00  0.00     0.068 C 
HETATM   20  C16 UNL     1       2.787   0.420  -0.234  1.00  0.00    -0.032 A 
HETATM   21  C17 UNL     1       2.342   1.431  -1.234  1.00  0.00     0.050 C 
ENDBRANCH  13  14
ENDBRANCH  12  13
ENDBRANCH   1  12
TORSDOF 3
