REMARK  6 active torsions:
REMARK  status: ('A' for Active; 'I' for Inactive)
REMARK    1  A    between atoms: C2_2  and  C3_3 
REMARK    2  A    between atoms: C3_3  and  N1_4 
REMARK    3  A    between atoms: N1_4  and  C4_5 
REMARK       I    between atoms: N1_4  and  C17_24 
REMARK    4  A    between atoms: C4_5  and  C5_6 
REMARK    5  A    between atoms: C17_24  and  C18_26 
REMARK    6  A    between atoms: C18_26  and  C19_27 
ROOT
HETATM    1  C5  UNL     1      -0.969  -0.752   1.069  1.00  0.00    -0.001 C 
HETATM    2  C6  UNL     1      -2.085  -0.685   1.890  1.00  0.00     0.242 C 
HETATM    3  C7  UNL     1      -1.935   0.080   3.164  1.00  0.00     0.010 C 
HETATM    4  C8  UNL     1      -2.355   1.379   3.129  1.00  0.00    -0.003 C 
HETATM    5  C9  UNL     1      -2.812   1.966   1.827  1.00  0.00     0.011 C 
HETATM    6  C10 UNL     1      -3.108   1.071   0.833  1.00  0.00     0.247 C 
HETATM    7  N2  UNL     1      -3.322  -0.262   1.301  1.00  0.00    -0.052 N 
ATOM      8  H21 UNL     1      -4.120  -0.347   1.930  1.00  0.00     0.279 HD
ATOM      9  H22 UNL     1      -3.664  -0.895   0.578  1.00  0.00     0.279 HD
HETATM   10  C11 UNL     1      -2.205   1.011  -0.285  1.00  0.00     0.026 A 
HETATM   11  C12 UNL     1      -1.175   0.047  -0.133  1.00  0.00     0.049 A 
HETATM   12  N3  UNL     1      -0.387   0.044  -1.271  1.00  0.00    -0.356 N 
ATOM     13  H3  UNL     1       0.431  -0.534  -1.462  1.00  0.00     0.166 HD
HETATM   14  C13 UNL     1      -0.940   0.971  -2.066  1.00  0.00     0.045 A 
HETATM   15  C14 UNL     1      -1.990   1.576  -1.500  1.00  0.00     0.045 A 
HETATM   16  N4  UNL     1      -2.239   2.359  -2.555  1.00  0.00    -0.280 NA
HETATM   17  C15 UNL     1      -3.590   2.384  -3.085  1.00  0.00     0.117 C 
HETATM   18  C16 UNL     1      -1.172   1.683  -3.307  1.00  0.00     0.154 A 
ENDROOT
BRANCH   1  19
HETATM   19  C4  UNL     1       0.365  -1.205   1.609  1.00  0.00     0.165 C 
BRANCH  19  20
HETATM   20  N1  UNL     1       1.208  -1.804   0.566  1.00  0.00    -0.345 N 
HETATM   21  C17 UNL     1       2.571  -1.489   0.590  1.00  0.00     0.220 C 
HETATM   22  O1  UNL     1       3.458  -2.343   0.557  1.00  0.00    -0.273 OA
BRANCH  20  23
HETATM   23  C3  UNL     1       0.861  -3.173   0.193  1.00  0.00     0.152 C 
BRANCH  23  24
HETATM   24  C2  UNL     1       1.198  -3.381  -1.258  1.00  0.00    -0.017 C 
HETATM   25  C1  UNL     1       0.309  -3.413  -2.260  1.00  0.00     0.008 C 
ENDBRANCH  23  24
ENDBRANCH  20  23
BRANCH  21  26
HETATM   26  C18 UNL     1       2.901  -0.005   0.488  1.00  0.00     0.103 C 
BRANCH  26  27
HETATM   27  C19 UNL     1       4.162   0.352   1.266  1.00  0.00     0.005 C 
HETATM   28  C20 UNL     1       4.515   1.819   1.088  1.00  0.00     0.005 C 
ENDBRANCH  26  27
ENDBRANCH  21  26
ENDBRANCH  19  20
ENDBRANCH   1  19
TORSDOF 6
