REMARK  3 active torsions:
REMARK  status: ('A' for Active; 'I' for Inactive)
REMARK    1  A    between atoms: C4_4  and  C5_5 
REMARK    2  A    between atoms: C14_15  and  C15_16 
REMARK    3  A    between atoms: C15_16  and  O2_17 
ROOT
HETATM    1  C5  UNL     1      -0.849   0.193  -0.236  1.00  0.00     0.009 C 
HETATM    2  C6  UNL     1      -0.508  -1.486  -0.835  1.00  0.00     0.022 C 
HETATM    3  C7  UNL     1       1.291  -1.643  -0.578  1.00  0.00     0.008 C 
HETATM    4  C8  UNL     1       0.683  -1.078   0.555  1.00  0.00     0.031 C 
HETATM    5  C9  UNL     1       0.367   0.075  -0.926  1.00  0.00     0.015 C 
HETATM    6  C10 UNL     1       1.301   1.099  -0.513  1.00  0.00     0.035 C 
HETATM    7  C11 UNL     1       0.274   1.323   0.647  1.00  0.00     0.140 C 
HETATM    8  O1  UNL     1       0.988   0.827   1.835  1.00  0.00    -0.372 OA
HETATM    9  C12 UNL     1       1.740  -0.314   1.290  1.00  0.00     0.072 C 
HETATM   10  C13 UNL     1       2.552  -1.013   2.348  1.00  0.00     0.047 C 
HETATM   11  C14 UNL     1       2.291  -0.133  -0.159  1.00  0.00     0.023 C 
ENDROOT
BRANCH   1  12
HETATM   12  C4  UNL     1      -1.967   0.854  -0.939  1.00  0.00    -0.012 C 
HETATM   13  C2  UNL     1      -3.239   0.705  -0.526  1.00  0.00    -0.090 C 
HETATM   14  C1  UNL     1      -4.368   1.390  -1.250  1.00  0.00     0.042 C 
HETATM   15  C3  UNL     1      -3.668  -0.125   0.653  1.00  0.00     0.042 C 
ENDBRANCH   1  12
BRANCH  11  16
HETATM   16  C15 UNL     1       3.749  -0.094  -0.492  1.00  0.00     0.177 C 
BRANCH  16  17
HETATM   17  O2  UNL     1       4.372   1.000   0.166  1.00  0.00    -0.400 OA
ATOM     18  H2  UNL     1       5.298   1.025  -0.045  1.00  0.00     0.209 HD
ENDBRANCH  16  17
ENDBRANCH  11  16
TORSDOF 3
