REMARK  4 active torsions:
REMARK  status: ('A' for Active; 'I' for Inactive)
REMARK    1  A    between atoms: C2_2  and  C3_3 
REMARK    2  A    between atoms: C7_7  and  C8_8 
REMARK    3  A    between atoms: C8_8  and  O2_10 
REMARK    4  A    between atoms: C16_18  and  O3_19 
ROOT
HETATM    1  C3  UNL     1      -0.615  -0.287  -0.143  1.00  0.00    -0.018 C 
HETATM    2  C4  UNL     1      -0.201  -1.606   0.579  1.00  0.00    -0.004 C 
HETATM    3  C5  UNL     1      -1.460  -2.036   1.323  1.00  0.00     0.006 C 
HETATM    4  C6  UNL     1      -1.916  -0.726   1.953  1.00  0.00     0.016 C 
HETATM    5  C7  UNL     1      -1.616   0.369   0.904  1.00  0.00     0.095 C 
HETATM    6  C10 UNL     1       0.425  -2.701  -0.285  1.00  0.00     0.010 C 
HETATM    7  C11 UNL     1       1.714  -2.254  -1.004  1.00  0.00    -0.009 C 
HETATM    8  C12 UNL     1       1.560  -1.438  -2.279  1.00  0.00     0.010 C 
HETATM    9  C13 UNL     1       1.686  -0.204  -1.383  1.00  0.00    -0.002 C 
HETATM   10  C14 UNL     1       2.645  -1.056  -0.424  1.00  0.00    -0.004 C 
HETATM   11  C15 UNL     1       2.926   0.239   0.396  1.00  0.00     0.037 C 
HETATM   12  C16 UNL     1       1.583   0.916   0.679  1.00  0.00     0.123 C 
HETATM   13  C17 UNL     1       0.662   0.545  -0.505  1.00  0.00     0.028 C 
ENDROOT
BRANCH   5  14
HETATM   14  C8  UNL     1      -1.228   1.692   1.548  1.00  0.00     0.263 C 
HETATM   15  O1  UNL     1      -0.760   1.821   2.673  1.00  0.00    -0.265 OA
BRANCH  14  16
HETATM   16  O2  UNL     1      -1.515   2.718   0.697  1.00  0.00    -0.326 OA
HETATM   17  C9  UNL     1      -1.207   4.012   1.211  1.00  0.00     0.213 C 
ENDBRANCH  14  16
ENDBRANCH   5  14
BRANCH   1  18
HETATM   18  C2  UNL     1      -1.501  -0.589  -1.412  1.00  0.00     0.007 C 
HETATM   19  C1  UNL     1      -1.837   0.607  -2.294  1.00  0.00     0.006 C 
ENDBRANCH   1  18
BRANCH  12  20
HETATM   20  O3  UNL     1       1.780   2.323   0.707  1.00  0.00    -0.395 OA
ATOM     21  H3  UNL     1       0.946   2.743   0.883  1.00  0.00     0.210 HD
ENDBRANCH  12  20
TORSDOF 4
