REMARK  3 active torsions:
REMARK  status: ('A' for Active; 'I' for Inactive)
REMARK    1  A    between atoms: O1_1  and  C1_3 
REMARK    2  A    between atoms: C8_10  and  C9_11 
REMARK    3  A    between atoms: C9_11  and  N1_12 
ROOT
HETATM    1  C1  UNL     1      -1.816  -1.787  -0.211  1.00  0.00     0.125 C 
HETATM    2  C2  UNL     1      -2.175  -0.672  -1.237  1.00  0.00     0.042 C 
HETATM    3  C3  UNL     1      -2.275   0.274  -0.072  1.00  0.00    -0.023 C 
HETATM    4  C4  UNL     1      -2.067   1.780  -0.162  1.00  0.00    -0.004 C 
HETATM    5  C5  UNL     1      -3.500   1.822  -0.825  1.00  0.00     0.011 C 
HETATM    6  C6  UNL     1      -3.669   0.782   0.348  1.00  0.00    -0.004 C 
HETATM    7  C7  UNL     1      -2.876   1.858   1.190  1.00  0.00     0.011 C 
HETATM    8  C8  UNL     1      -1.546  -0.672   0.861  1.00  0.00     0.052 C 
ENDROOT
BRANCH   8   9
HETATM    9  C9  UNL     1      -0.089  -0.473   1.302  1.00  0.00     0.280 C 
BRANCH   9  10
HETATM   10  N1  UNL     1       0.879  -0.540   0.200  1.00  0.00     0.093 N 
HETATM   11  C10 UNL     1       1.165   0.767  -0.421  1.00  0.00     0.277 C 
HETATM   12  C11 UNL     1       2.663   0.891  -0.769  1.00  0.00     0.014 C 
HETATM   13  C12 UNL     1       3.454   0.894   0.549  1.00  0.00     0.008 C 
HETATM   14  C16 UNL     1       3.082  -0.336  -1.595  1.00  0.00     0.008 C 
HETATM   15  C13 UNL     1       3.072  -0.344   1.370  1.00  0.00     0.036 C 
HETATM   16  C14 UNL     1       2.128  -1.246   0.553  1.00  0.00     0.223 C 
HETATM   17  C15 UNL     1       2.815  -1.608  -0.780  1.00  0.00     0.036 C 
ENDBRANCH   9  10
ENDBRANCH   8   9
BRANCH   1  18
HETATM   18  O1  UNL     1      -2.894  -2.693   0.111  1.00  0.00    -0.395 OA
ATOM     19  H1  UNL     1      -2.675  -3.373   0.737  1.00  0.00     0.210 HD
ENDBRANCH   1  18
TORSDOF 3
