REMARK  5 active torsions:
REMARK  status: ('A' for Active; 'I' for Inactive)
REMARK    1  A    between atoms: N1_1  and  C1_4 
REMARK    2  A    between atoms: C9_23  and  O3_24 
REMARK    3  A    between atoms: C9_23  and  C10_26 
REMARK    4  A    between atoms: C10_26  and  O4_27 
REMARK    5  A    between atoms: O4_27  and  N8_28 
ROOT
HETATM    1  C1  UNL     1      -4.303   0.532  -0.676  1.00  0.00     0.680 A 
HETATM    2  N2  UNL     1      -3.200  -0.186  -1.006  1.00  0.00    -0.168 N 
ATOM      3  H2  UNL     1      -3.244  -0.801  -1.818  1.00  0.00     0.186 HD
HETATM    4  C2  UNL     1      -2.032  -0.121  -0.297  1.00  0.00     0.190 A 
HETATM    5  C3  UNL     1      -1.885   0.692   0.767  1.00  0.00     0.150 A 
HETATM    6  C4  UNL     1      -3.092   1.499   1.176  1.00  0.00     0.290 A 
HETATM    7  O1  UNL     1      -3.051   2.212   2.177  1.00  0.00    -0.265 OA
HETATM    8  N3  UNL     1      -4.213   1.367   0.398  1.00  0.00    -0.154 N 
ATOM      9  H3  UNL     1      -5.030   1.928   0.637  1.00  0.00     0.187 HD
HETATM   10  N4  UNL     1      -0.712   0.794   1.505  1.00  0.00    -0.372 N 
ATOM     11  H4  UNL     1      -0.508   1.630   2.052  1.00  0.00     0.160 HD
HETATM   12  C5  UNL     1       0.204  -0.311   1.475  1.00  0.00     0.152 C 
HETATM   13  C6  UNL     1      -0.094  -1.335   0.314  1.00  0.00     0.188 C 
HETATM   14  O2  UNL     1      -0.987  -0.912  -0.757  1.00  0.00    -0.324 OA
HETATM   15  C7  UNL     1       1.390  -1.284   0.053  1.00  0.00     0.144 C 
HETATM   16  C8  UNL     1       2.311  -2.506   0.149  1.00  0.00     0.235 C 
HETATM   17  N5  UNL     1       3.193  -1.714  -0.764  1.00  0.00    -0.122 NA
HETATM   18  N6  UNL     1       1.861  -1.430  -1.373  1.00  0.00    -0.126 NA
HETATM   19  N7  UNL     1       1.682  -2.899  -1.155  1.00  0.00    -0.122 NA
HETATM   20  C9  UNL     1       1.621  -0.003   0.834  1.00  0.00     0.133 C 
ENDROOT
BRANCH  20  21
HETATM   21  O3  UNL     1       2.676  -0.026   1.843  1.00  0.00    -0.383 OA
ATOM     22  H3  UNL     1       3.525   0.159   1.459  1.00  0.00     0.210 HD
ENDBRANCH  20  21
BRANCH  20  23
HETATM   23  C10 UNL     1       1.740   1.266  -0.032  1.00  0.00     0.250 C 
BRANCH  23  24
HETATM   24  O4  UNL     1       3.085   1.362  -0.503  1.00  0.00    -0.218 OA
BRANCH  24  25
HETATM   25  N8  UNL     1       3.277   2.418  -1.417  1.00  0.00     0.005 N 
HETATM   26  O5  UNL     1       2.330   3.186  -1.598  1.00  0.00    -0.511 OA
HETATM   27  O6  UNL     1       4.409   2.438  -1.894  1.00  0.00    -0.511 OA
ENDBRANCH  24  25
ENDBRANCH  23  24
ENDBRANCH  20  23
BRANCH   1  28
HETATM   28  N1  UNL     1      -5.436   0.497  -1.275  1.00  0.00    -0.234 N 
ATOM     29  H12 UNL     1      -5.503  -0.128  -2.079  1.00  0.00     0.174 HD
ATOM     30  H11 UNL     1      -6.265   1.037  -1.027  1.00  0.00     0.174 HD
ENDBRANCH   1  28
TORSDOF 5
