REMARK  3 active torsions:
REMARK  status: ('A' for Active; 'I' for Inactive)
REMARK    1  A    between atoms: C5_5  and  C6_6 
REMARK    2  A    between atoms: C11_13  and  O3_14 
REMARK    3  A    between atoms: C12_16  and  O4_17 
ROOT
HETATM    1  C1  UNL     1      -1.505   2.422   1.803  1.00  0.00     0.016 C 
HETATM    2  C2  UNL     1      -0.780   1.276   1.117  1.00  0.00    -0.032 A 
HETATM    3  C3  UNL     1      -0.701  -0.343   2.190  1.00  0.00     0.016 C 
HETATM    4  C4  UNL     1      -0.699  -1.640   0.863  1.00  0.00     0.009 C 
HETATM    5  C5  UNL     1       0.653  -1.739   0.006  1.00  0.00     0.062 C 
HETATM    6  C7  UNL     1       1.066  -0.301  -0.304  1.00  0.00    -0.010 C 
HETATM    7  O2  UNL     1       0.225   0.256   0.656  1.00  0.00     0.000 OA
HETATM    8  C8  UNL     1      -1.587   0.306   0.467  1.00  0.00     0.011 A 
HETATM    9  C9  UNL     1      -1.730  -1.033  -0.119  1.00  0.00    -0.006 C 
HETATM   10  C10 UNL     1      -3.115  -1.652   0.145  1.00  0.00     0.019 C 
HETATM   11  C11 UNL     1      -1.584  -0.561  -1.613  1.00  0.00     0.156 C 
HETATM   12  C12 UNL     1      -1.515   1.052  -1.735  1.00  0.00     0.152 C 
HETATM   13  C13 UNL     1      -0.444   1.667  -0.715  1.00  0.00     0.030 C 
HETATM   14  C14 UNL     1       0.871   0.917  -1.268  1.00  0.00     0.004 C 
HETATM   15  C15 UNL     1       2.209   1.505  -0.798  1.00  0.00     0.015 C 
HETATM   16  C16 UNL     1       2.601   0.107  -0.250  1.00  0.00    -0.038 C 
HETATM   17  C17 UNL     1       3.264   0.242   1.120  1.00  0.00     0.015 C 
HETATM   18  C18 UNL     1       3.490  -0.666  -1.230  1.00  0.00     0.015 C 
ENDROOT
BRANCH   5  19
HETATM   19  C6  UNL     1       1.609  -2.518   0.871  1.00  0.00     0.236 C 
HETATM   20  O1  UNL     1       2.268  -3.466   0.454  1.00  0.00    -0.306 OA
ENDBRANCH   5  19
BRANCH  11  21
HETATM   21  O3  UNL     1      -2.699  -0.981  -2.413  1.00  0.00    -0.392 OA
ATOM     22  H3  UNL     1      -2.611  -0.696  -3.315  1.00  0.00     0.210 HD
ENDBRANCH  11  21
BRANCH  12  23
HETATM   23  O4  UNL     1      -2.816   1.595  -1.479  1.00  0.00    -0.393 OA
ATOM     24  H4  UNL     1      -2.776   2.541  -1.551  1.00  0.00     0.210 HD
ENDBRANCH  12  23
TORSDOF 3
