REMARK  3 active torsions:
REMARK  status: ('A' for Active; 'I' for Inactive)
REMARK    1  A    between atoms: O1_2  and  C2_3 
REMARK    2  A    between atoms: C4_5  and  O2_6 
REMARK    3  A    between atoms: C14_18  and  O4_19 
ROOT
HETATM    1  C2  UNL     1      -2.166  -1.331   0.168  1.00  0.00     0.159 C 
HETATM    2  C3  UNL     1      -2.859  -0.519   1.273  1.00  0.00     0.067 C 
HETATM    3  C4  UNL     1      -2.713   0.966   0.900  1.00  0.00     0.130 C 
HETATM    4  C5  UNL     1      -1.631   1.063  -0.170  1.00  0.00     0.087 C 
HETATM    5  C6  UNL     1      -0.093   1.323   0.151  1.00  0.00     0.077 C 
HETATM    6  C7  UNL     1       0.495   1.535  -1.285  1.00  0.00     0.039 C 
HETATM    7  C8  UNL     1       0.250   0.358  -2.216  1.00  0.00     0.013 C 
HETATM    8  C9  UNL     1      -0.095  -0.895  -1.418  1.00  0.00     0.052 C 
HETATM    9  C10 UNL     1       1.226  -1.599  -0.878  1.00  0.00     0.125 C 
HETATM   10  C11 UNL     1       0.931  -3.068  -0.567  1.00  0.00     0.040 C 
HETATM   11  O3  UNL     1       1.839  -1.086   0.329  1.00  0.00    -0.378 OA
HETATM   12  C12 UNL     1       2.654   0.090   0.254  1.00  0.00     0.147 C 
HETATM   13  C13 UNL     1       4.066  -0.395   0.622  1.00  0.00     0.042 C 
HETATM   14  C14 UNL     1       2.226   1.300   1.232  1.00  0.00     0.153 C 
HETATM   15  C15 UNL     1       0.782   2.003   1.183  1.00  0.00     0.048 C 
HETATM   16  C16 UNL     1       0.777   3.518   0.997  1.00  0.00     0.016 C 
HETATM   17  C17 UNL     1      -1.056  -0.418  -0.312  1.00  0.00     0.103 C 
HETATM   18  O5  UNL     1      -0.173  -0.033   0.756  1.00  0.00    -0.364 OA
ENDROOT
BRANCH   1  19
HETATM   19  O1  UNL     1      -3.066  -1.561  -0.917  1.00  0.00    -0.388 OA
HETATM   20  C1  UNL     1      -3.543  -2.898  -0.953  1.00  0.00     0.202 C 
ENDBRANCH   1  19
BRANCH   3  21
HETATM   21  O2  UNL     1      -3.935   1.474   0.367  1.00  0.00    -0.395 OA
ATOM     22  H2  UNL     1      -3.845   2.391   0.137  1.00  0.00     0.210 HD
ENDBRANCH   3  21
BRANCH  14  23
HETATM   23  O4  UNL     1       3.218   2.338   1.121  1.00  0.00    -0.393 OA
ATOM     24  H4  UNL     1       2.966   3.050   1.697  1.00  0.00     0.210 HD
ENDBRANCH  14  23
TORSDOF 3
