REMARK  5 active torsions:
REMARK  status: ('A' for Active; 'I' for Inactive)
REMARK    1  A    between atoms: O1_2  and  C2_3 
REMARK    2  A    between atoms: C2_3  and  C3_5 
REMARK    3  A    between atoms: C3_5  and  C4_6 
REMARK    4  A    between atoms: C3_5  and  C23_34 
REMARK       I    between atoms: N2_21  and  C17_23 
REMARK       I    between atoms: C17_23  and  N3_25 
REMARK    5  A    between atoms: N3_25  and  C18_27 
ROOT
HETATM    1  C4  UNL     1       1.236   2.174   1.521  1.00  0.00    -0.004 C 
HETATM    2  C5  UNL     1       0.679   3.500   1.219  1.00  0.00     0.071 C 
HETATM    3  C6  UNL     1       0.065   3.743   0.018  1.00  0.00     0.017 C 
HETATM    4  C7  UNL     1      -0.606   2.714  -0.754  1.00  0.00     0.044 C 
HETATM    5  N1  UNL     1      -0.586   2.903  -2.122  1.00  0.00    -0.355 N 
ATOM      6  H1  UNL     1      -0.260   3.755  -2.578  1.00  0.00     0.166 HD
HETATM    7  C8  UNL     1      -1.058   1.803  -2.791  1.00  0.00     0.044 A 
HETATM    8  C9  UNL     1      -1.119   1.541  -4.167  1.00  0.00     0.031 A 
HETATM    9  C10 UNL     1      -1.765   0.368  -4.584  1.00  0.00     0.009 A 
HETATM   10  C11 UNL     1      -2.309  -0.528  -3.663  1.00  0.00    -0.061 A 
HETATM   11  C12 UNL     1      -3.019  -1.764  -4.130  1.00  0.00     0.048 C 
HETATM   12  C13 UNL     1      -2.137  -0.278  -2.296  1.00  0.00     0.021 A 
HETATM   13  C14 UNL     1      -1.550   0.930  -1.830  1.00  0.00     0.007 A 
HETATM   14  C15 UNL     1      -1.314   1.514  -0.517  1.00  0.00     0.047 C 
HETATM   15  C16 UNL     1      -1.756   0.867   0.747  1.00  0.00     0.123 C 
HETATM   16  N2  UNL     1      -2.884   0.224   0.691  1.00  0.00    -0.294 N 
ATOM     17  H2  UNL     1      -3.500   0.300  -0.119  1.00  0.00     0.172 HD
HETATM   18  C17 UNL     1      -3.209  -0.554   1.756  1.00  0.00     0.322 C 
HETATM   19  O3  UNL     1      -2.820  -0.377   2.910  1.00  0.00    -0.247 OA
HETATM   20  N3  UNL     1      -3.902  -1.634   1.313  1.00  0.00    -0.339 N 
ATOM     21  H3  UNL     1      -4.650  -1.515   0.630  1.00  0.00     0.164 HD
HETATM   22  N4  UNL     1      -0.911   0.915   1.852  1.00  0.00    -0.341 N 
ATOM     23  H4  UNL     1      -0.946   0.169   2.547  1.00  0.00     0.167 HD
HETATM   24  C21 UNL     1      -0.081   1.896   2.008  1.00  0.00     0.039 C 
HETATM   25  C22 UNL     1      -0.144   3.189   2.395  1.00  0.00     0.017 C 
ENDROOT
BRANCH   1  26
HETATM   26  C3  UNL     1       2.433   1.554   1.375  1.00  0.00     0.069 C 
BRANCH  26  27
HETATM   27  C2  UNL     1       3.566   2.517   1.495  1.00  0.00     0.293 C 
HETATM   28  O2  UNL     1       4.348   2.450   2.445  1.00  0.00    -0.259 OA
BRANCH  27  29
HETATM   29  O1  UNL     1       3.612   3.438   0.503  1.00  0.00    -0.323 OA
HETATM   30  C1  UNL     1       4.776   4.279   0.581  1.00  0.00     0.213 C 
ENDBRANCH  27  29
ENDBRANCH  26  27
BRANCH  26  31
HETATM   31  C23 UNL     1       2.857   0.124   1.617  1.00  0.00     0.240 C 
HETATM   32  N5  UNL     1       4.227  -0.138   1.259  1.00  0.00    -0.276 N 
HETATM   33  S1  UNL     1       4.593  -0.242  -0.333  1.00  0.00     0.326 S 
ATOM     34  H5  UNL     1       4.945  -0.255   1.974  1.00  0.00     0.176 HD
HETATM   35  O4  UNL     1       5.907  -0.851  -0.369  1.00  0.00    -0.182 OA
HETATM   36  O5  UNL     1       4.338   1.010  -0.992  1.00  0.00    -0.182 OA
HETATM   37  N6  UNL     1       3.469  -1.337  -0.827  1.00  0.00    -0.214 N 
HETATM   38  C24 UNL     1       3.648  -1.912  -2.177  1.00  0.00     0.176 C 
HETATM   39  C25 UNL     1       2.315  -1.625  -0.090  1.00  0.00     0.336 C 
HETATM   40  O6  UNL     1       1.607  -2.563  -0.450  1.00  0.00    -0.246 OA
HETATM   41  N7  UNL     1       2.014  -0.908   1.054  1.00  0.00    -0.311 N 
HETATM   42  C26 UNL     1       0.894  -1.391   1.842  1.00  0.00     0.157 C 
ENDBRANCH  26  31
ENDBRANCH   1  26
BRANCH  20  43
HETATM   43  C18 UNL     1      -3.578  -2.963   1.813  1.00  0.00     0.078 C 
HETATM   44  C19 UNL     1      -4.027  -3.195   3.251  1.00  0.00     0.032 C 
HETATM   45  C20 UNL     1      -4.227  -4.018   0.934  1.00  0.00     0.032 C 
ENDBRANCH  20  43
TORSDOF 5
