REMARK  6 active torsions:
REMARK  status: ('A' for Active; 'I' for Inactive)
REMARK    1  A    between atoms: C3_3  and  C4_4 
REMARK    2  A    between atoms: C4_4  and  C5_5 
REMARK    3  A    between atoms: C7_7  and  O1_8 
REMARK    4  A    between atoms: C10_11  and  O2_12 
REMARK    5  A    between atoms: C19_25  and  O4_26 
REMARK    6  A    between atoms: C25_33  and  O5_34 
ROOT
HETATM    1  C1  UNL     1      -4.394   4.137  -0.801  1.00  0.00     0.012 C 
HETATM    2  C2  UNL     1      -4.494   3.001  -0.434  1.00  0.00    -0.117 C 
HETATM    3  C3  UNL     1      -4.633   1.589  -0.012  1.00  0.00     0.097 C 
ENDROOT
BRANCH   3   4
HETATM    4  C4  UNL     1      -4.040   0.665  -1.076  1.00  0.00     0.040 C 
BRANCH   4   5
HETATM    5  C5  UNL     1      -4.228  -0.805  -0.851  1.00  0.00    -0.011 C 
HETATM    6  C6  UNL     1      -3.353  -1.716  -0.368  1.00  0.00     0.004 C 
HETATM    7  C7  UNL     1      -3.674  -3.157  -0.387  1.00  0.00     0.081 C 
HETATM    8  C12 UNL     1      -2.057  -1.438   0.313  1.00  0.00    -0.013 C 
HETATM    9  C9  UNL     1      -2.649  -4.038  -0.397  1.00  0.00     0.075 C 
HETATM   10  C10 UNL     1      -1.255  -3.573  -0.400  1.00  0.00     0.079 C 
HETATM   11  C11 UNL     1      -0.909  -2.294  -0.074  1.00  0.00     0.009 C 
HETATM   12  C22 UNL     1       0.571  -1.915   0.032  1.00  0.00     0.023 C 
HETATM   13  C21 UNL     1       1.148  -0.494  -0.241  1.00  0.00    -0.034 C 
HETATM   14  C20 UNL     1       2.331  -0.149   0.391  1.00  0.00     0.123 C 
HETATM   15  C23 UNL     1       0.527   0.257  -1.412  1.00  0.00    -0.021 C 
HETATM   16  C19 UNL     1       2.632  -0.323   1.921  1.00  0.00     0.135 C 
HETATM   17  C33 UNL     1       3.527  -0.736  -0.394  1.00  0.00     0.172 C 
HETATM   18  C18 UNL     1       2.696   1.006   2.720  1.00  0.00     0.046 C 
HETATM   19  C16 UNL     1       1.423   1.564   3.375  1.00  0.00     0.076 C 
HETATM   20  C15 UNL     1       0.433   0.464   3.720  1.00  0.00     0.221 C 
HETATM   21  C17 UNL     1       0.785   2.686   2.562  1.00  0.00     0.020 C 
HETATM   22  N1  UNL     1      -0.392   0.154   2.672  1.00  0.00    -0.357 N 
HETATM   23  O3  UNL     1       0.455  -0.140   4.783  1.00  0.00    -0.273 OA
HETATM   24  C14 UNL     1      -1.259  -0.975   2.698  1.00  0.00     0.150 C 
ATOM     25  H1  UNL     1      -0.385   0.752   1.845  1.00  0.00     0.162 HD
HETATM   26  C13 UNL     1      -2.158  -0.841   1.518  1.00  0.00     0.006 C 
HETATM   27  C28 UNL     1       3.790  -0.165  -1.700  1.00  0.00     0.034 C 
HETATM   28  O6  UNL     1       4.174  -1.720  -0.065  1.00  0.00    -0.291 OA
HETATM   29  C27 UNL     1       3.007  -0.784  -2.659  1.00  0.00     0.032 C 
HETATM   30  C29 UNL     1       4.241   1.165  -1.812  1.00  0.00     0.021 C 
HETATM   31  C26 UNL     1       2.208   0.132  -3.276  1.00  0.00     0.014 C 
HETATM   32  C25 UNL     1       0.807   0.232  -2.755  1.00  0.00     0.083 C 
HETATM   33  C32 UNL     1       2.763   1.382  -3.628  1.00  0.00     0.104 C 
HETATM   34  N2  UNL     1       3.800   1.871  -2.896  1.00  0.00    -0.363 N 
HETATM   35  C31 UNL     1       4.236   3.253  -3.142  1.00  0.00     0.155 C 
HETATM   36  C30 UNL     1       4.958   1.864  -0.693  1.00  0.00     0.069 C 
HETATM   37  C24 UNL     1      -0.418   1.352  -0.932  1.00  0.00     0.052 C 
BRANCH   7  38
HETATM   38  O1  UNL     1      -5.007  -3.489  -0.337  1.00  0.00    -0.355 OA
HETATM   39  C8  UNL     1      -5.333  -4.257   0.822  1.00  0.00     0.210 C 
ENDBRANCH   7  38
BRANCH  10  40
HETATM   40  O2  UNL     1      -0.304  -4.531  -0.692  1.00  0.00    -0.360 OA
ATOM     41  H2  UNL     1       0.597  -4.230  -0.694  1.00  0.00     0.217 HD
ENDBRANCH  10  40
BRANCH  16  42
HETATM   42  O4  UNL     1       3.934  -0.869   2.171  1.00  0.00    -0.394 OA
ATOM     43  H4  UNL     1       3.895  -1.682   1.682  1.00  0.00     0.210 HD
ENDBRANCH  16  42
BRANCH  32  44
HETATM   44  O5  UNL     1       0.004   0.861  -3.689  1.00  0.00    -0.359 OA
ATOM     45  H5  UNL     1       0.198   0.844  -4.619  1.00  0.00     0.217 HD
ENDBRANCH  32  44
ENDBRANCH   4   5
ENDBRANCH   3   4
TORSDOF 6
