REMARK  5 active torsions:
REMARK  status: ('A' for Active; 'I' for Inactive)
REMARK    1  A    between atoms: S1_2  and  C2_3 
REMARK    2  A    between atoms: N1_5  and  C3_7 
REMARK    3  A    between atoms: C13_18  and  C14_19 
REMARK       I    between atoms: C14_19  and  N3_21 
REMARK    4  A    between atoms: C19_26  and  C20_27 
REMARK       I    between atoms: C20_27  and  N4_29 
REMARK    5  A    between atoms: C26_36  and  O3_37 
ROOT
HETATM    1  C14 UNL     1      -1.479   1.113   0.340  1.00  0.00     0.224 C 
HETATM    2  O1  UNL     1      -2.127   1.281  -0.686  1.00  0.00    -0.277 OA
HETATM    3  N3  UNL     1      -0.362   1.948   0.672  1.00  0.00    -0.238 NA
HETATM    4  C15 UNL     1      -0.710   2.810   1.818  1.00  0.00     0.099 C 
HETATM    5  C16 UNL     1       0.140   4.074   1.990  1.00  0.00     0.015 C 
HETATM    6  C17 UNL     1       1.536   3.889   1.455  1.00  0.00     0.003 C 
HETATM    7  C18 UNL     1       1.497   3.496  -0.015  1.00  0.00     0.030 C 
HETATM    8  C19 UNL     1       0.235   2.692  -0.471  1.00  0.00     0.158 C 
ENDROOT
BRANCH   1   9
HETATM    9  C13 UNL     1      -1.635  -0.134   1.264  1.00  0.00     0.177 A 
HETATM   10  C7  UNL     1      -1.892  -0.005   2.781  1.00  0.00    -0.009 A 
HETATM   11  C6  UNL     1      -3.503   0.849   2.344  1.00  0.00     0.019 C 
HETATM   12  C8  UNL     1      -1.452  -1.850   2.795  1.00  0.00     0.019 C 
HETATM   13  C12 UNL     1      -2.888  -0.615   3.753  1.00  0.00     0.043 A 
HETATM   14  C5  UNL     1      -4.531  -0.370   2.036  1.00  0.00     0.019 C 
HETATM   15  C4  UNL     1      -4.763  -0.869   0.564  1.00  0.00     0.060 C 
HETATM   16  C11 UNL     1      -3.537  -1.312   2.579  1.00  0.00     0.039 A 
HETATM   17  C3  UNL     1      -3.514  -1.711   0.210  1.00  0.00     0.105 C 
HETATM   18  C10 UNL     1      -3.284  -3.028   1.008  1.00  0.00     0.060 C 
HETATM   19  N2  UNL     1      -2.787  -0.970   1.151  1.00  0.00    -0.364 N 
HETATM   20  C9  UNL     1      -2.844  -2.594   2.444  1.00  0.00     0.019 C 
BRANCH  17  21
HETATM   21  N1  UNL     1      -2.857  -1.625  -1.048  1.00  0.00    -0.349 N 
HETATM   22  C2  UNL     1      -3.301  -1.842  -2.318  1.00  0.00     0.136 C 
HETATM   23  S2  UNL     1      -2.188  -2.158  -3.526  1.00  0.00    -0.053 SA
ATOM     24  H1  UNL     1      -1.876  -1.351  -0.989  1.00  0.00     0.163 HD
BRANCH  22  25
HETATM   25  S1  UNL     1      -5.015  -1.789  -2.599  1.00  0.00    -0.105 SA
HETATM   26  C1  UNL     1      -5.216  -0.009  -2.915  1.00  0.00     0.098 C 
ENDBRANCH  22  25
ENDBRANCH  17  21
ENDBRANCH   1   9
BRANCH   8  27
HETATM   27  C20 UNL     1       0.750   1.994  -1.794  1.00  0.00     0.238 C 
HETATM   28  O2  UNL     1       0.610   2.585  -2.878  1.00  0.00    -0.272 OA
HETATM   29  N4  UNL     1       1.671   0.936  -1.675  1.00  0.00    -0.349 N 
HETATM   30  C21 UNL     1       1.229  -0.342  -1.169  1.00  0.00     0.156 C 
HETATM   31  C29 UNL     1       2.673   0.829  -2.724  1.00  0.00     0.132 C 
HETATM   32  C22 UNL     1       2.056  -0.813   0.028  1.00  0.00     0.292 C 
HETATM   33  N5  UNL     1       3.429  -1.297  -0.255  1.00  0.00     0.090 N 
HETATM   34  C23 UNL     1       3.992  -1.784   1.018  1.00  0.00     0.310 C 
HETATM   35  C24 UNL     1       4.315  -0.288  -0.894  1.00  0.00     0.230 C 
HETATM   36  C25 UNL     1       5.711  -0.891  -1.202  1.00  0.00     0.068 C 
HETATM   37  C28 UNL     1       3.972   0.107  -2.355  1.00  0.00     0.039 C 
HETATM   38  C26 UNL     1       5.468  -1.802  -2.411  1.00  0.00     0.120 C 
HETATM   39  C27 UNL     1       4.258  -1.183  -3.143  1.00  0.00     0.040 C 
BRANCH  38  40
HETATM   40  O3  UNL     1       6.629  -1.820  -3.232  1.00  0.00    -0.396 OA
ATOM     41  H3  UNL     1       6.478  -2.384  -3.981  1.00  0.00     0.210 HD
ENDBRANCH  38  40
ENDBRANCH   8  27
TORSDOF 5
