REMARK  3 active torsions:
REMARK  status: ('A' for Active; 'I' for Inactive)
REMARK    1  A    between atoms: C6_6  and  C7_7 
REMARK    2  A    between atoms: C14_16  and  O3_17 
REMARK    3  A    between atoms: C29_38  and  O6_39 
ROOT
HETATM    1  C1  UNL     1       0.368   0.061   3.324  1.00  0.00     0.013 C 
HETATM    2  C2  UNL     1      -0.243   0.043   1.928  1.00  0.00     0.022 C 
HETATM    3  C3  UNL     1       0.011  -1.202   0.994  1.00  0.00     0.017 C 
HETATM    4  C4  UNL     1       0.654  -0.617  -0.322  1.00  0.00     0.010 C 
HETATM    5  C5  UNL     1       2.130  -0.815  -0.913  1.00  0.00     0.021 C 
HETATM    6  C6  UNL     1       2.280   0.360  -1.890  1.00  0.00     0.029 C 
HETATM    7  C8  UNL     1       3.681   0.638  -2.365  1.00  0.00     0.009 A 
HETATM    8  C9  UNL     1       3.992   1.955  -3.039  1.00  0.00     0.014 A 
HETATM    9  C10 UNL     1       4.263   1.754  -1.570  1.00  0.00     0.021 A 
HETATM   10  C11 UNL     1       3.277   2.127  -0.499  1.00  0.00     0.132 C 
HETATM   11  O2  UNL     1       3.732   1.660   0.768  1.00  0.00    -0.384 OA
HETATM   12  C12 UNL     1       3.849   0.239   0.892  1.00  0.00     0.181 C 
HETATM   13  C13 UNL     1       2.526  -0.454   0.575  1.00  0.00     0.025 C 
HETATM   14  C14 UNL     1       2.369  -1.746   1.451  1.00  0.00     0.147 C 
HETATM   15  C15 UNL     1       0.937  -2.366   1.405  1.00  0.00     0.068 C 
HETATM   16  C16 UNL     1       0.607  -3.039   2.751  1.00  0.00     0.028 C 
HETATM   17  C17 UNL     1       0.716  -3.469   0.311  1.00  0.00     0.229 C 
HETATM   18  O4  UNL     1       1.547  -3.724  -0.553  1.00  0.00    -0.273 OA
HETATM   19  N1  UNL     1      -0.543  -4.058   0.318  1.00  0.00    -0.360 N 
ATOM     20  H1  UNL     1      -0.962  -4.329   1.208  1.00  0.00     0.162 HD
HETATM   21  C18 UNL     1      -1.284  -4.299  -0.928  1.00  0.00     0.135 C 
HETATM   22  C19 UNL     1      -1.974  -2.996  -1.315  1.00  0.00     0.128 C 
HETATM   23  S1  UNL     1      -3.361  -3.130  -2.459  1.00  0.00     0.016 S 
HETATM   24  O5  UNL     1      -2.821  -3.651  -3.758  1.00  0.00    -0.258 OA
HETATM   25  C20 UNL     1      -3.616  -1.307  -2.660  1.00  0.00     0.109 C 
HETATM   26  C21 UNL     1      -4.155  -0.646  -1.389  1.00  0.00     0.016 C 
HETATM   27  C22 UNL     1      -4.363   0.872  -1.538  1.00  0.00     0.027 C 
HETATM   28  C23 UNL     1      -4.206   1.563  -0.203  1.00  0.00    -0.031 C 
HETATM   29  C24 UNL     1      -3.480   2.680  -0.011  1.00  0.00    -0.031 C 
HETATM   30  C25 UNL     1      -3.178   3.285   1.340  1.00  0.00     0.027 C 
HETATM   31  C26 UNL     1      -1.774   3.929   1.441  1.00  0.00     0.004 C 
HETATM   32  C27 UNL     1      -0.784   3.222   2.394  1.00  0.00     0.003 C 
HETATM   33  C28 UNL     1       0.451   2.576   1.723  1.00  0.00     0.039 C 
HETATM   34  C29 UNL     1       0.178   1.233   1.045  1.00  0.00     0.071 C 
HETATM   35  C30 UNL     1       1.338   0.657   0.250  1.00  0.00     0.015 C 
HETATM   36  C31 UNL     1       1.925   1.494  -0.900  1.00  0.00     0.044 C 
ENDROOT
BRANCH   6  37
HETATM   37  C7  UNL     1       1.331   0.239  -3.079  1.00  0.00     0.242 C 
HETATM   38  O1  UNL     1       0.365   0.972  -3.265  1.00  0.00    -0.306 OA
ENDBRANCH   6  37
BRANCH  14  39
HETATM   39  O3  UNL     1       3.400  -2.679   1.130  1.00  0.00    -0.393 OA
ATOM     40  H3  UNL     1       3.305  -3.461   1.660  1.00  0.00     0.210 HD
ENDBRANCH  14  39
BRANCH  34  41
HETATM   41  O6  UNL     1      -0.905   1.429   0.127  1.00  0.00    -0.389 OA
ATOM     42  H6  UNL     1      -0.645   2.163  -0.418  1.00  0.00     0.210 HD
ENDBRANCH  34  41
TORSDOF 3
