REMARK  12 active torsions:
REMARK  status: ('A' for Active; 'I' for Inactive)
REMARK    1  A    between atoms: C2_2  and  O2_4 
REMARK    2  A    between atoms: O2_4  and  C3_5 
REMARK    3  A    between atoms: C8_10  and  C9_11 
REMARK    4  A    between atoms: C9_11  and  O3_14 
REMARK    5  A    between atoms: C21_25  and  O4_26 
REMARK    6  A    between atoms: C22_28  and  O5_29 
REMARK    7  A    between atoms: C25_33  and  O6_34 
REMARK    8  A    between atoms: O6_34  and  C26_35 
REMARK    9  A    between atoms: C26_35  and  C27_37 
REMARK   10  A    between atoms: C27_37  and  C28_38 
REMARK   11  A    between atoms: C28_38  and  C29_39 
REMARK   12  A    between atoms: C32_42  and  C33_43 
ROOT
HETATM    1  C3  UNL     1      -2.244  -1.524  -0.943  1.00  0.00     0.074 C 
HETATM    2  C4  UNL     1      -1.465  -2.787  -1.298  1.00  0.00     0.038 C 
HETATM    3  C5  UNL     1      -0.000  -3.071  -0.946  1.00  0.00    -0.065 C 
HETATM    4  C6  UNL     1       0.986  -2.314  -1.819  1.00  0.00     0.036 C 
HETATM    5  C7  UNL     1       1.053  -0.822  -1.599  1.00  0.00     0.013 C 
HETATM    6  C8  UNL     1       2.007  -0.396  -0.495  1.00  0.00     0.028 C 
HETATM    7  C12 UNL     1       1.548  -0.827   0.961  1.00  0.00    -0.027 C 
HETATM    8  C13 UNL     1       2.688  -0.200   1.899  1.00  0.00     0.016 C 
HETATM    9  C14 UNL     1       0.226  -0.257   1.605  1.00  0.00     0.026 C 
HETATM   10  C15 UNL     1       0.090  -1.059   2.933  1.00  0.00     0.008 C 
HETATM   11  C16 UNL     1       1.019  -2.255   2.821  1.00  0.00     0.007 C 
HETATM   12  C17 UNL     1       1.377  -2.337   1.319  1.00  0.00     0.011 C 
HETATM   13  C18 UNL     1       0.423  -3.358   0.534  1.00  0.00     0.004 C 
HETATM   14  C19 UNL     1       1.423  -4.614   0.407  1.00  0.00     0.025 C 
HETATM   15  C20 UNL     1      -0.754  -4.029   1.336  1.00  0.00     0.026 C 
HETATM   16  C21 UNL     1      -2.154  -3.500   1.698  1.00  0.00     0.093 C 
HETATM   17  C22 UNL     1      -2.793  -2.095   1.498  1.00  0.00     0.093 C 
HETATM   18  C23 UNL     1      -2.311  -0.966   0.519  1.00  0.00     0.084 C 
HETATM   19  C24 UNL     1      -3.591   0.014   0.420  1.00  0.00     0.032 C 
HETATM   20  C25 UNL     1      -1.167   0.053   0.987  1.00  0.00     0.158 C 
ENDROOT
BRANCH  20  21
HETATM   21  O6  UNL     1      -1.788   0.790   2.144  1.00  0.00    -0.314 OA
BRANCH  21  22
HETATM   22  C26 UNL     1      -1.746   2.096   2.472  1.00  0.00     0.259 C 
HETATM   23  O7  UNL     1      -1.814   2.448   3.648  1.00  0.00    -0.265 OA
BRANCH  22  24
HETATM   24  C27 UNL     1      -1.680   3.104   1.364  1.00  0.00     0.116 C 
BRANCH  24  25
HETATM   25  C28 UNL     1      -0.402   3.928   1.480  1.00  0.00     0.048 C 
BRANCH  25  26
HETATM   26  C29 UNL     1      -0.085   4.652   0.193  1.00  0.00    -0.058 A 
HETATM   27  C30 UNL     1       0.572   3.979  -0.844  1.00  0.00     0.008 A 
HETATM   28  C31 UNL     1       0.876   4.638  -2.043  1.00  0.00     0.013 A 
HETATM   29  C32 UNL     1       0.534   5.988  -2.235  1.00  0.00     0.006 A 
HETATM   30  C34 UNL     1      -0.145   6.651  -1.202  1.00  0.00     0.013 A 
HETATM   31  C35 UNL     1      -0.451   5.990  -0.001  1.00  0.00     0.008 A 
BRANCH  29  32
HETATM   32  C33 UNL     1       0.866   6.687  -3.543  1.00  0.00     0.386 C 
HETATM   33  F1  UNL     1       0.697   8.043  -3.524  1.00  0.00    -0.209 F 
HETATM   34  F2  UNL     1       2.155   6.483  -3.938  1.00  0.00    -0.209 F 
ENDBRANCH  29  32
ENDBRANCH  25  26
ENDBRANCH  24  25
ENDBRANCH  22  24
ENDBRANCH  21  22
ENDBRANCH  20  21
BRANCH   1  35
HETATM   35  O2  UNL     1      -2.064  -0.433  -1.880  1.00  0.00    -0.282 OA
BRANCH  35  36
HETATM   36  C2  UNL     1      -2.854  -0.496  -2.994  1.00  0.00     0.259 C 
HETATM   37  C1  UNL     1      -3.827   0.646  -3.030  1.00  0.00     0.126 C 
HETATM   38  O1  UNL     1      -2.858  -1.422  -3.789  1.00  0.00    -0.265 OA
ENDBRANCH  35  36
ENDBRANCH   1  35
BRANCH  17  39
HETATM   39  O5  UNL     1      -3.179  -1.579   2.786  1.00  0.00    -0.361 OA
ATOM     40  H5  UNL     1      -3.569  -0.721   2.664  1.00  0.00     0.217 HD
ENDBRANCH  17  39
BRANCH   6  41
HETATM   41  C9  UNL     1       3.552  -0.544  -1.016  1.00  0.00     0.055 C 
HETATM   42  C10 UNL     1       4.609  -1.195  -0.117  1.00  0.00     0.045 C 
HETATM   43  C11 UNL     1       4.081   0.849  -1.424  1.00  0.00     0.045 C 
BRANCH  41  44
HETATM   44  O3  UNL     1       3.610  -1.267  -2.264  1.00  0.00    -0.390 OA
ATOM     45  H3  UNL     1       4.507  -1.353  -2.566  1.00  0.00     0.210 HD
ENDBRANCH  41  44
ENDBRANCH   6  41
BRANCH  16  46
HETATM   46  O4  UNL     1      -2.434  -3.943   3.062  1.00  0.00    -0.358 OA
ATOM     47  H4  UNL     1      -3.298  -3.617   3.285  1.00  0.00     0.217 HD
ENDBRANCH  16  46
TORSDOF 12
