REMARK  5 active torsions:
REMARK  status: ('A' for Active; 'I' for Inactive)
REMARK    1  A    between atoms: C2_2  and  N1_3 
REMARK       I    between atoms: N1_3  and  C3_5 
REMARK    2  A    between atoms: C3_5  and  C4_7 
REMARK    3  A    between atoms: C4_7  and  S1_8 
REMARK    4  A    between atoms: S1_8  and  C5_9 
REMARK    5  A    between atoms: C7_13  and  C8_14 
REMARK       I    between atoms: C8_14  and  N3_15 
ROOT
HETATM    1  N1  UNL     1      -0.037   1.958  -0.518  1.00  0.00    -0.352 N 
ATOM      2  H1  UNL     1      -0.488   2.836  -0.259  1.00  0.00     0.163 HD
HETATM    3  C3  UNL     1      -0.563   1.296  -1.619  1.00  0.00     0.227 C 
HETATM    4  O1  UNL     1      -0.090   0.268  -2.083  1.00  0.00    -0.273 OA
ENDROOT
BRANCH   3   5
HETATM    5  C4  UNL     1      -1.759   2.017  -2.245  1.00  0.00     0.182 C 
BRANCH   5   6
HETATM    6  S1  UNL     1      -2.868   0.914  -3.166  1.00  0.00    -0.112 SA
BRANCH   6   7
HETATM    7  C5  UNL     1      -3.874   0.284  -1.887  1.00  0.00     0.059 A 
HETATM    8  C6  UNL     1      -4.666   0.987  -1.004  1.00  0.00     0.115 A 
HETATM    9  N2  UNL     1      -5.283   0.227  -0.030  1.00  0.00    -0.354 N 
HETATM   10  C7  UNL     1      -5.045  -1.056  -0.245  1.00  0.00     0.143 A 
ATOM     11  H2  UNL     1      -5.839   0.599   0.740  1.00  0.00     0.166 HD
HETATM   12  S2  UNL     1      -4.030  -1.391  -1.589  1.00  0.00    -0.059 SA
BRANCH  10  13
HETATM   13  C8  UNL     1      -5.580  -2.127   0.595  1.00  0.00     0.273 C 
HETATM   14  N3  UNL     1      -5.425  -3.415   0.148  1.00  0.00    -0.364 N 
ATOM     15  H32 UNL     1      -4.940  -3.555  -0.738  1.00  0.00     0.159 HD
ATOM     16  H31 UNL     1      -5.798  -4.162   0.734  1.00  0.00     0.159 HD
HETATM   17  O2  UNL     1      -6.166  -1.958   1.666  1.00  0.00    -0.266 OA
ENDBRANCH  10  13
ENDBRANCH   6   7
ENDBRANCH   5   6
ENDBRANCH   3   5
BRANCH   1  18
HETATM   18  C2  UNL     1       1.118   1.528   0.332  1.00  0.00     0.030 C 
HETATM   19  C1  UNL     1       1.388   2.762   1.255  1.00  0.00     0.038 C 
HETATM   20  C9  UNL     1       2.459   1.295  -0.513  1.00  0.00     0.035 C 
HETATM   21  C10 UNL     1       3.596   0.464   0.199  1.00  0.00    -0.011 C 
HETATM   22  C11 UNL     1       3.952  -0.954  -0.395  1.00  0.00     0.009 C 
HETATM   23  C16 UNL     1       3.138   0.109   1.583  1.00  0.00     0.014 C 
HETATM   24  C12 UNL     1       2.983  -2.084   0.138  1.00  0.00    -0.013 C 
HETATM   25  C13 UNL     1       2.379  -2.147   1.645  1.00  0.00     0.014 C 
HETATM   26  C15 UNL     1       1.601  -1.534  -0.141  1.00  0.00     0.014 C 
HETATM   27  C14 UNL     1       1.859  -0.707   1.261  1.00  0.00    -0.037 C 
HETATM   28  C17 UNL     1       0.695   0.272   1.221  1.00  0.00     0.040 C 
ENDBRANCH   1  18
TORSDOF 5
