REMARK  2 active torsions:
REMARK  status: ('A' for Active; 'I' for Inactive)
REMARK    1  A    between atoms: O1_1  and  C1_3 
REMARK    2  A    between atoms: C4_6  and  O2_7 
ROOT
HETATM    1  C1  UNL     1       1.082   1.062   0.059  1.00  0.00     0.158 C 
HETATM    2  C2  UNL     1      -0.030   1.095   1.147  1.00  0.00     0.157 C 
HETATM    3  C3  UNL     1      -1.459   0.962   0.554  1.00  0.00     0.072 C 
HETATM    4  C4  UNL     1      -1.500  -0.509   0.053  1.00  0.00     0.183 C 
HETATM    5  C5  UNL     1      -0.072  -0.894   0.399  1.00  0.00     0.199 C 
HETATM    6  O3  UNL     1       0.426  -2.221   0.226  1.00  0.00    -0.352 OA
HETATM    7  C6  UNL     1       1.688  -1.619  -0.234  1.00  0.00     0.184 C 
HETATM    8  C7  UNL     1       0.939  -0.315  -0.610  1.00  0.00     0.106 C 
HETATM    9  O4  UNL     1       0.152  -0.231   1.660  1.00  0.00    -0.344 OA
ENDROOT
BRANCH   1  10
HETATM   10  O1  UNL     1       0.956   2.107  -0.896  1.00  0.00    -0.392 OA
ATOM     11  H1  UNL     1       1.635   2.087  -1.560  1.00  0.00     0.210 HD
ENDBRANCH   1  10
BRANCH   4  12
HETATM   12  O2  UNL     1      -1.787  -0.562  -1.339  1.00  0.00    -0.390 OA
ATOM     13  H2  UNL     1      -1.812  -1.461  -1.645  1.00  0.00     0.210 HD
ENDBRANCH   4  12
TORSDOF 2
