REMARK  7 active torsions:
REMARK  status: ('A' for Active; 'I' for Inactive)
REMARK    1  A    between atoms: O1_2  and  C2_3 
REMARK    2  A    between atoms: C2_3  and  O3_5 
REMARK    3  A    between atoms: O3_5  and  C3_6 
REMARK    4  A    between atoms: C3_6  and  C4_7 
REMARK    5  A    between atoms: C4_7  and  C5_8 
REMARK    6  A    between atoms: C19_27  and  C20_29 
REMARK    7  A    between atoms: C20_29  and  O6_30 
ROOT
HETATM    1  C3  UNL     1      -1.306  -2.005  -0.216  1.00  0.00     0.066 C 
HETATM    2  C7  UNL     1      -0.314  -1.107  -0.110  1.00  0.00    -0.004 C 
HETATM    3  C8  UNL     1       1.007  -1.476  -0.396  1.00  0.00     0.211 C 
HETATM    4  N1  UNL     1       1.899  -1.376   0.575  1.00  0.00    -0.285 N 
ATOM      5  H1  UNL     1       2.791  -1.868   0.534  1.00  0.00     0.188 HD
HETATM    6  O4  UNL     1       1.506  -0.432   1.836  1.00  0.00    -0.270 OA
HETATM    7  C9  UNL     1       0.828   0.989   1.788  1.00  0.00     0.118 C 
HETATM    8  C10 UNL     1       0.581   1.314   3.261  1.00  0.00     0.052 C 
HETATM    9  C11 UNL     1       1.295   2.386   1.007  1.00  0.00     0.064 C 
HETATM   10  C12 UNL     1       0.009   2.848   0.177  1.00  0.00     0.157 C 
HETATM   11  O5  UNL     1      -1.038   2.131   0.779  1.00  0.00    -0.374 OA
HETATM   12  C13 UNL     1      -0.448   0.870   1.023  1.00  0.00     0.175 C 
HETATM   13  C14 UNL     1       0.192   0.332  -0.226  1.00  0.00     0.058 C 
HETATM   14  C15 UNL     1       2.060   0.794  -0.356  1.00  0.00     0.030 C 
HETATM   15  C16 UNL     1       2.248   2.241  -0.150  1.00  0.00    -0.032 C 
HETATM   16  C17 UNL     1       3.682   2.655   0.135  1.00  0.00     0.016 C 
HETATM   17  C18 UNL     1       1.683   2.862  -1.426  1.00  0.00     0.041 C 
HETATM   18  C19 UNL     1       0.243   2.371  -1.370  1.00  0.00     0.103 C 
HETATM   19 CL2  UNL     1      -0.749   3.360  -2.488  1.00  0.00    -0.113 Cl
HETATM   20  C20 UNL     1      -0.056   0.769  -1.616  1.00  0.00     0.158 C 
HETATM   21  C21 UNL     1       0.910  -0.627  -1.890  1.00  0.00     0.193 C 
HETATM   22  O7  UNL     1       1.392  -0.992  -2.943  1.00  0.00    -0.292 OA
ENDROOT
BRANCH   1  23
HETATM   23  O3  UNL     1      -2.589  -1.732  -0.761  1.00  0.00    -0.260 OA
BRANCH  23  24
HETATM   24  C2  UNL     1      -3.528  -0.838  -0.338  1.00  0.00     0.411 C 
HETATM   25  O2  UNL     1      -4.521  -0.553  -0.999  1.00  0.00    -0.229 OA
BRANCH  24  26
HETATM   26  O1  UNL     1      -3.258  -0.375   0.907  1.00  0.00    -0.303 OA
HETATM   27  C1  UNL     1      -4.181   0.613   1.353  1.00  0.00     0.215 C 
ENDBRANCH  24  26
ENDBRANCH  23  24
ENDBRANCH   1  23
BRANCH   1  28
HETATM   28  C4  UNL     1      -1.081  -3.487   0.018  1.00  0.00     0.085 C 
BRANCH  28  29
HETATM   29  C5  UNL     1      -0.722  -4.265  -1.257  1.00  0.00     0.084 C 
HETATM   30  C6  UNL     1       0.265  -5.384  -0.943  1.00  0.00     0.027 C 
HETATM   31 CL1  UNL     1      -2.193  -4.968  -1.994  1.00  0.00    -0.125 Cl
ENDBRANCH  28  29
ENDBRANCH   1  28
BRANCH  20  32
HETATM   32  O6  UNL     1      -1.410   0.579  -1.995  1.00  0.00    -0.379 OA
ATOM     33  H6  UNL     1      -1.569   0.860  -2.888  1.00  0.00     0.211 HD
ENDBRANCH  20  32
TORSDOF 7
