REMARK  10 active torsions:
REMARK  status: ('A' for Active; 'I' for Inactive)
REMARK    1  A    between atoms: C9_9  and  O1_10 
REMARK    2  A    between atoms: C9_9  and  C10_12 
REMARK       I    between atoms: C10_12  and  N1_14 
REMARK    3  A    between atoms: C11_16  and  C12_17 
REMARK    4  A    between atoms: C13_18  and  C14_19 
REMARK    5  A    between atoms: C14_19  and  C15_21 
REMARK    6  A    between atoms: C15_21  and  C16_22 
REMARK    7  A    between atoms: C17_25  and  N3_26 
REMARK    8  A    between atoms: N3_26  and  N4_28 
REMARK    9  A    between atoms: N4_28  and  O4_30 
REMARK   10  A    between atoms: C29_44  and  O5_45 
ROOT
HETATM    1  C1  UNL     1       1.621   2.167   3.628  1.00  0.00     0.011 C 
HETATM    2  C2  UNL     1       2.392   1.634   2.372  1.00  0.00    -0.010 C 
HETATM    3  C3  UNL     1       2.891   2.883   1.637  1.00  0.00     0.005 C 
HETATM    4  C4  UNL     1       3.476   2.742   0.261  1.00  0.00     0.007 C 
HETATM    5  C5  UNL     1       2.716   1.819  -0.713  1.00  0.00     0.006 C 
HETATM    6  C6  UNL     1       1.074   2.328  -0.953  1.00  0.00    -0.002 C 
HETATM    7  C7  UNL     1       0.714   2.153  -2.482  1.00  0.00     0.019 C 
HETATM    8  C8  UNL     1       1.092   3.920  -0.924  1.00  0.00     0.019 C 
HETATM    9  C9  UNL     1      -0.165   1.875   0.095  1.00  0.00     0.153 C 
HETATM   10  C20 UNL     1      -0.280   0.373   0.678  1.00  0.00     0.001 C 
HETATM   11  C21 UNL     1      -1.446  -0.433   0.076  1.00  0.00     0.019 C 
HETATM   12  C22 UNL     1      -0.288   0.093   2.255  1.00  0.00     0.014 C 
HETATM   13  C23 UNL     1       1.153  -0.468   2.647  1.00  0.00     0.011 C 
HETATM   14  C24 UNL     1       2.019   0.231   1.576  1.00  0.00    -0.032 C 
HETATM   15  C25 UNL     1       3.380  -0.173   1.014  1.00  0.00     0.021 C 
HETATM   16  C26 UNL     1       3.385   0.273  -0.499  1.00  0.00    -0.025 C 
HETATM   17  C27 UNL     1       4.822   0.248  -1.089  1.00  0.00     0.013 C 
HETATM   18  C28 UNL     1       4.629   0.068  -2.597  1.00  0.00     0.033 C 
HETATM   19  C29 UNL     1       3.299  -0.673  -2.772  1.00  0.00     0.127 C 
HETATM   20  C30 UNL     1       2.748  -0.863  -1.337  1.00  0.00    -0.010 C 
HETATM   21  C31 UNL     1       3.147  -2.322  -0.947  1.00  0.00     0.018 C 
HETATM   22  C32 UNL     1       1.283  -0.719  -1.063  1.00  0.00     0.019 C 
HETATM   23  C33 UNL     1       1.012  -0.318   0.411  1.00  0.00     0.007 C 
ENDROOT
BRANCH   9  24
HETATM   24  O1  UNL     1      -0.006   2.722   1.260  1.00  0.00    -0.378 OA
ATOM     25  H1  UNL     1      -0.705   2.467   1.851  1.00  0.00     0.211 HD
ENDBRANCH   9  24
BRANCH   9  26
HETATM   26  C10 UNL     1      -1.614   2.349  -0.368  1.00  0.00     0.257 C 
HETATM   27  O2  UNL     1      -2.400   2.781   0.485  1.00  0.00    -0.270 OA
HETATM   28  N1  UNL     1      -1.948   2.236  -1.694  1.00  0.00    -0.335 N 
HETATM   29  C11 UNL     1      -3.075   1.715  -2.050  1.00  0.00     0.091 C 
ATOM     30  H1  UNL     1      -1.298   2.567  -2.407  1.00  0.00     0.168 HD
BRANCH  29  31
HETATM   31  C12 UNL     1      -4.135   1.111  -1.207  1.00  0.00     0.021 C 
HETATM   32  C13 UNL     1      -4.918   0.168  -1.744  1.00  0.00     0.052 C 
BRANCH  32  33
HETATM   33  C14 UNL     1      -5.898  -0.653  -0.978  1.00  0.00     0.154 C 
HETATM   34  O3  UNL     1      -6.753  -1.271  -1.613  1.00  0.00    -0.293 OA
BRANCH  33  35
HETATM   35  C15 UNL     1      -5.802  -0.782   0.522  1.00  0.00     0.137 C 
BRANCH  35  36
HETATM   36  C16 UNL     1      -5.404  -2.149   0.958  1.00  0.00     0.029 A 
HETATM   37  N2  UNL     1      -4.316  -2.757   0.613  1.00  0.00    -0.196 N 
HETATM   38  C17 UNL     1      -4.329  -3.933   1.328  1.00  0.00     0.694 A 
ATOM     39  H2  UNL     1      -3.605  -2.436  -0.044  1.00  0.00     0.184 HD
HETATM   40  N5  UNL     1      -5.352  -4.112   2.115  1.00  0.00    -0.219 N 
HETATM   41  C19 UNL     1      -6.218  -2.941   1.917  1.00  0.00     0.191 A 
ATOM     42  H5  UNL     1      -5.518  -4.901   2.739  1.00  0.00     0.178 HD
BRANCH  38  43
HETATM   43  N3  UNL     1      -3.334  -4.846   1.271  1.00  0.00    -0.111 N 
ATOM     44  H3  UNL     1      -3.482  -5.733   1.752  1.00  0.00     0.208 HD
BRANCH  43  45
HETATM   45  N4  UNL     1      -2.120  -4.670   0.606  1.00  0.00    -0.192 N 
HETATM   46  C18 UNL     1      -2.043  -4.382  -0.827  1.00  0.00     0.208 C 
BRANCH  45  47
HETATM   47  O4  UNL     1      -1.108  -4.903   1.237  1.00  0.00    -0.272 OA
ATOM     48  H4  UNL     1      -0.281  -4.783   0.784  1.00  0.00     0.246 HD
ENDBRANCH  45  47
ENDBRANCH  43  45
ENDBRANCH  38  43
ENDBRANCH  35  36
ENDBRANCH  33  35
ENDBRANCH  32  33
ENDBRANCH  29  31
ENDBRANCH   9  26
BRANCH  19  49
HETATM   49  O5  UNL     1       2.452   0.057  -3.633  1.00  0.00    -0.395 OA
ATOM     50  H5  UNL     1       1.628  -0.402  -3.741  1.00  0.00     0.210 HD
ENDBRANCH  19  49
TORSDOF 10
