REMARK  4 active torsions:
REMARK  status: ('A' for Active; 'I' for Inactive)
REMARK    1  A    between atoms: C2_2  and  N1_4 
REMARK    2  A    between atoms: C3_6  and  C4_7 
REMARK    3  A    between atoms: C8_14  and  N3_15 
REMARK    4  A    between atoms: C10_19  and  N4_20 
ROOT
HETATM    1  C4  UNL     1       2.743   1.605  -0.391  1.00  0.00     0.011 C 
HETATM    2  C5  UNL     1       3.193   2.856  -0.111  1.00  0.00     0.157 C 
HETATM    3  O1  UNL     1       2.472   4.077  -0.217  1.00  0.00    -0.305 OA
HETATM    4  C6  UNL     1       1.237   3.789  -0.735  1.00  0.00     0.147 C 
HETATM    5  N2  UNL     1       1.194   3.363  -1.972  1.00  0.00    -0.334 N 
ATOM      6  H2  UNL     1       1.370   3.939  -2.795  1.00  0.00     0.168 HD
HETATM    7  C7  UNL     1       0.865   1.978  -1.999  1.00  0.00     0.075 C 
HETATM    8  C8  UNL     1      -0.305   1.511  -2.595  1.00  0.00     0.132 C 
HETATM    9  C9  UNL     1      -1.132   0.628  -1.901  1.00  0.00     0.064 C 
HETATM   10  C10 UNL     1      -0.855   0.414  -0.548  1.00  0.00     0.022 C 
HETATM   11  C17 UNL     1       0.332   0.999  -0.030  1.00  0.00     0.094 C 
HETATM   12  C18 UNL     1       1.375   1.261  -0.908  1.00  0.00    -0.002 C 
HETATM   13  C19 UNL     1       0.034   2.201   0.849  1.00  0.00    -0.007 C 
HETATM   14  C20 UNL     1       0.364   3.466   0.486  1.00  0.00     0.053 C 
ENDROOT
BRANCH  10  15
HETATM   15  N4  UNL     1      -1.705  -0.311   0.289  1.00  0.00    -0.380 N 
HETATM   16  C11 UNL     1      -3.152  -0.073   0.265  1.00  0.00     0.129 C 
HETATM   17  C12 UNL     1      -3.998  -1.345   0.417  1.00  0.00     0.030 C 
HETATM   18  C13 UNL     1      -4.050  -1.801   1.869  1.00  0.00     0.174 C 
HETATM   19  C15 UNL     1      -3.299  -2.522  -0.230  1.00  0.00     0.042 C 
HETATM   20  O4  UNL     1      -2.885  -2.616   2.075  1.00  0.00    -0.384 OA
HETATM   21  C14 UNL     1      -2.206  -2.726   0.802  1.00  0.00     0.139 C 
HETATM   22  C16 UNL     1      -1.144  -1.614   0.711  1.00  0.00     0.154 C 
ENDBRANCH  10  15
BRANCH   8  23
HETATM   23  N3  UNL     1      -0.704   1.990  -3.894  1.00  0.00    -0.113 N 
HETATM   24  O2  UNL     1       0.157   2.013  -4.784  1.00  0.00    -0.532 OA
HETATM   25  O3  UNL     1      -1.900   2.271  -4.047  1.00  0.00    -0.532 OA
ENDBRANCH   8  23
BRANCH   1  26
HETATM   26  C3  UNL     1       3.710   0.521  -0.103  1.00  0.00     0.098 C 
HETATM   27  N1  UNL     1       3.381  -0.557   0.517  1.00  0.00    -0.381 N 
ATOM     28  H1  UNL     1       2.422  -0.731   0.818  1.00  0.00     0.160 HD
BRANCH  27  29
HETATM   29  C2  UNL     1       4.454  -1.521   0.769  1.00  0.00     0.174 C 
HETATM   30  C1  UNL     1       3.909  -2.556   1.744  1.00  0.00     0.049 C 
HETATM   31 CL1  UNL     1       5.902  -0.774   1.504  1.00  0.00    -0.103 Cl
ENDBRANCH  27  29
ENDBRANCH   1  26
TORSDOF 4
