REMARK  7 active torsions:
REMARK  status: ('A' for Active; 'I' for Inactive)
REMARK    1  A    between atoms: O1_2  and  C2_3 
REMARK    2  A    between atoms: C8_11  and  O2_12 
REMARK    3  A    between atoms: C10_15  and  O3_16 
REMARK    4  A    between atoms: C12_20  and  O4_21 
REMARK    5  A    between atoms: C14_24  and  C15_25 
REMARK    6  A    between atoms: C21_31  and  O5_32 
REMARK    7  A    between atoms: C23_34  and  O6_35 
ROOT
HETATM    1  C2  UNL     1       4.038   0.108  -0.151  1.00  0.00     0.105 C 
HETATM    2  C3  UNL     1       3.638  -0.275  -1.428  1.00  0.00     0.054 C 
HETATM    3  C4  UNL     1       2.278  -0.493  -1.719  1.00  0.00     0.004 C 
HETATM    4  C5  UNL     1       1.828  -0.680  -3.119  1.00  0.00     0.068 C 
HETATM    5 CL1  UNL     1       2.968  -1.296  -4.279  1.00  0.00    -0.082 Cl
HETATM    6  C6  UNL     1       0.565  -0.354  -3.465  1.00  0.00     0.070 C 
HETATM    7 CL2  UNL     1      -0.045  -0.584  -5.078  1.00  0.00    -0.081 Cl
HETATM    8  C7  UNL     1      -0.406   0.092  -2.429  1.00  0.00     0.033 C 
HETATM    9  C8  UNL     1      -1.484   0.969  -2.688  1.00  0.00     0.094 C 
HETATM   10  C9  UNL     1      -2.269   1.166  -1.551  1.00  0.00     0.064 A 
HETATM   11  C10 UNL     1      -3.323   2.041  -1.443  1.00  0.00     0.158 A 
HETATM   12  N1  UNL     1      -3.816   1.911  -0.165  1.00  0.00    -0.311 N 
HETATM   13  C11 UNL     1      -4.834   2.762   0.407  1.00  0.00     0.160 C 
HETATM   14  C12 UNL     1      -3.170   0.877   0.503  1.00  0.00     0.155 A 
HETATM   15  C13 UNL     1      -2.171   0.413  -0.335  1.00  0.00     0.040 A 
HETATM   16  C14 UNL     1      -1.221  -0.610  -0.120  1.00  0.00    -0.023 C 
HETATM   17  C19 UNL     1      -0.164  -0.435  -1.089  1.00  0.00     0.001 C 
HETATM   18  C20 UNL     1       1.296  -0.403  -0.687  1.00  0.00     0.024 C 
HETATM   19  C21 UNL     1       1.729  -0.005   0.611  1.00  0.00     0.116 C 
HETATM   20  C23 UNL     1       3.082   0.325   0.839  1.00  0.00     0.136 C 
ENDROOT
BRANCH  16  21
HETATM   21  C15 UNL     1      -1.468  -1.992   0.533  1.00  0.00    -0.022 C 
HETATM   22  C16 UNL     1      -2.448  -2.741  -0.413  1.00  0.00     0.019 C 
HETATM   23  C17 UNL     1      -2.103  -1.953   1.930  1.00  0.00     0.019 C 
HETATM   24  C18 UNL     1      -0.209  -2.886   0.636  1.00  0.00     0.019 C 
ENDBRANCH  16  21
BRANCH  14  25
HETATM   25  O4  UNL     1      -3.492   0.542   1.751  1.00  0.00    -0.345 OA
ATOM     26  H4  UNL     1      -3.051  -0.165   2.207  1.00  0.00     0.219 HD
ENDBRANCH  14  25
BRANCH   9  27
HETATM   27  O2  UNL     1      -1.730   1.620  -3.861  1.00  0.00    -0.359 OA
ATOM     28  H2  UNL     1      -2.454   2.209  -4.035  1.00  0.00     0.217 HD
ENDBRANCH   9  27
BRANCH  11  29
HETATM   29  O3  UNL     1      -3.852   2.897  -2.313  1.00  0.00    -0.345 OA
ATOM     30  H3  UNL     1      -4.581   3.502  -2.238  1.00  0.00     0.219 HD
ENDBRANCH  11  29
BRANCH  19  31
HETATM   31  O5  UNL     1       0.770   0.232   1.571  1.00  0.00    -0.352 OA
HETATM   32  C22 UNL     1       1.118  -0.142   2.901  1.00  0.00     0.210 C 
ENDBRANCH  19  31
BRANCH  20  33
HETATM   33  O6  UNL     1       3.470   0.997   1.976  1.00  0.00    -0.351 OA
HETATM   34  C24 UNL     1       3.132   2.385   1.834  1.00  0.00     0.210 C 
ENDBRANCH  20  33
BRANCH   1  35
HETATM   35  O1  UNL     1       5.359   0.442   0.006  1.00  0.00    -0.353 OA
HETATM   36  C1  UNL     1       5.996  -0.338   1.022  1.00  0.00     0.210 C 
ENDBRANCH   1  35
TORSDOF 7
