REMARK  4 active torsions:
REMARK  status: ('A' for Active; 'I' for Inactive)
REMARK    1  A    between atoms: C2_2  and  C3_4 
REMARK    2  A    between atoms: C4_5  and  C5_6 
REMARK    3  A    between atoms: C5_6  and  N1_7 
REMARK    4  A    between atoms: C9_14  and  N3_15 
ROOT
HETATM    1  C3  UNL     1       1.291  -1.010  -0.201  1.00  0.00     0.073 C 
HETATM    2  C4  UNL     1       0.375   0.284  -0.624  1.00  0.00    -0.012 C 
HETATM    3  C10 UNL     1       1.006   1.699  -0.955  1.00  0.00     0.016 C 
HETATM    4  C11 UNL     1       2.151   2.124   0.039  1.00  0.00    -0.013 C 
HETATM    5  C12 UNL     1       1.750   2.678   1.449  1.00  0.00     0.009 C 
HETATM    6  C13 UNL     1       2.026   1.723   2.700  1.00  0.00    -0.017 C 
HETATM    7  C14 UNL     1       1.101   2.092   3.862  1.00  0.00     0.010 C 
HETATM    8  C15 UNL     1       1.977   0.161   2.431  1.00  0.00     0.014 C 
HETATM    9  C16 UNL     1       1.781  -0.016   0.943  1.00  0.00    -0.028 C 
HETATM   10  C17 UNL     1       2.890   0.846   0.277  1.00  0.00     0.015 C 
HETATM   11  C18 UNL     1       0.158   0.334   0.885  1.00  0.00     0.022 C 
ENDROOT
BRANCH   2  12
HETATM   12  C5  UNL     1      -0.797  -0.045  -1.556  1.00  0.00     0.131 C 
BRANCH  12  13
HETATM   13  N1  UNL     1      -1.833  -0.771  -0.819  1.00  0.00    -0.375 N 
HETATM   14  C6  UNL     1      -2.941  -1.076  -1.413  1.00  0.00     0.118 A 
HETATM   15  C7  UNL     1      -3.251  -0.829  -2.863  1.00  0.00     0.066 A 
HETATM   16  N4  UNL     1      -3.930  -1.659  -0.650  1.00  0.00    -0.177 N 
HETATM   17  C8  UNL     1      -4.502  -1.144  -3.230  1.00  0.00     0.110 A 
HETATM   18  N2  UNL     1      -5.436  -1.658  -2.362  1.00  0.00    -0.202 N 
HETATM   19  C9  UNL     1      -5.209  -1.929  -1.042  1.00  0.00     0.677 A 
ATOM     20  H2  UNL     1      -6.367  -1.851  -2.731  1.00  0.00     0.183 HD
ATOM     21  H4  UNL     1      -3.680  -1.915   0.305  1.00  0.00     0.185 HD
ATOM     22  H1  UNL     1      -1.682  -1.034   0.155  1.00  0.00     0.161 HD
BRANCH  19  23
HETATM   23  N3  UNL     1      -6.148  -2.380  -0.282  1.00  0.00    -0.234 N 
ATOM     24  H32 UNL     1      -7.104  -2.582  -0.575  1.00  0.00     0.174 HD
ATOM     25  H31 UNL     1      -5.979  -2.582   0.703  1.00  0.00     0.174 HD
ENDBRANCH  19  23
ENDBRANCH  12  13
ENDBRANCH   2  12
BRANCH   1  26
HETATM   26  C2  UNL     1       2.236  -1.581  -1.287  1.00  0.00     0.128 C 
HETATM   27  C1  UNL     1       3.249  -2.602  -0.829  1.00  0.00     0.091 C 
HETATM   28  O1  UNL     1       2.178  -1.275  -2.484  1.00  0.00    -0.298 OA
ENDBRANCH   1  26
TORSDOF 4
