REMARK  14 active torsions:
REMARK  status: ('A' for Active; 'I' for Inactive)
REMARK    1  A    between atoms: C2_2  and  C3_3 
REMARK    2  A    between atoms: C3_3  and  C4_4 
REMARK    3  A    between atoms: C4_4  and  C5_5 
REMARK    4  A    between atoms: C5_5  and  O1_6 
REMARK    5  A    between atoms: O1_6  and  C6_7 
REMARK       I    between atoms: C6_7  and  N1_9 
REMARK    6  A    between atoms: N1_9  and  C7_11 
REMARK    7  A    between atoms: C7_11  and  C8_12 
REMARK    8  A    between atoms: C7_11  and  C15_21 
REMARK    9  A    between atoms: C8_12  and  C9_13 
REMARK   10  A    between atoms: C10_14  and  C11_15 
REMARK   11  A    between atoms: C11_15  and  C12_16 
REMARK   12  A    between atoms: C12_16  and  C13_17 
REMARK   13  A    between atoms: C13_17  and  C14_18 
REMARK   14  A    between atoms: C15_21  and  C16_23 
REMARK       I    between atoms: N2_28  and  C21_29 
ROOT
HETATM    1  C15 UNL     1      -0.827   0.120   3.238  1.00  0.00     0.201 C 
HETATM    2  O5  UNL     1      -1.072  -0.450   4.306  1.00  0.00    -0.288 OA
ENDROOT
BRANCH   1   3
HETATM    3  C7  UNL     1      -1.956   0.673   2.362  1.00  0.00     0.166 C 
BRANCH   3   4
HETATM    4  N1  UNL     1      -3.192  -0.078   2.601  1.00  0.00    -0.325 N 
HETATM    5  C6  UNL     1      -3.928  -0.761   1.677  1.00  0.00     0.361 C 
HETATM    6  O2  UNL     1      -4.979  -1.305   1.977  1.00  0.00    -0.238 OA
ATOM      7  H1  UNL     1      -3.539  -0.091   3.560  1.00  0.00     0.165 HD
BRANCH   5   8
HETATM    8  O1  UNL     1      -3.379  -0.766   0.432  1.00  0.00    -0.304 OA
BRANCH   8   9
HETATM    9  C5  UNL     1      -4.176  -1.370  -0.604  1.00  0.00     0.180 C 
BRANCH   9  10
HETATM   10  C4  UNL     1      -3.919  -2.876  -0.712  1.00  0.00     0.027 C 
BRANCH  10  11
HETATM   11  C3  UNL     1      -2.933  -3.286  -1.817  1.00  0.00     0.002 C 
BRANCH  11  12
HETATM   12  C2  UNL     1      -3.441  -2.955  -3.224  1.00  0.00    -0.004 C 
HETATM   13  C1  UNL     1      -2.698  -3.726  -4.307  1.00  0.00     0.005 C 
ENDBRANCH  11  12
ENDBRANCH  10  11
ENDBRANCH   9  10
ENDBRANCH   8   9
ENDBRANCH   5   8
ENDBRANCH   3   4
BRANCH   3  14
HETATM   14  C8  UNL     1      -2.145   2.175   2.620  1.00  0.00     0.060 C 
BRANCH  14  15
HETATM   15  C9  UNL     1      -2.791   2.812   1.418  1.00  0.00    -0.028 C 
HETATM   16  C10 UNL     1      -2.085   3.207   0.348  1.00  0.00    -0.031 C 
BRANCH  16  17
HETATM   17  C11 UNL     1      -2.717   3.656  -0.938  1.00  0.00     0.027 C 
BRANCH  17  18
HETATM   18  C12 UNL     1      -2.218   5.014  -1.447  1.00  0.00     0.014 C 
BRANCH  18  19
HETATM   19  C13 UNL     1      -0.718   5.112  -1.735  1.00  0.00     0.113 C 
BRANCH  19  20
HETATM   20  C14 UNL     1      -0.295   4.306  -2.933  1.00  0.00     0.172 C 
HETATM   21  O3  UNL     1      -1.012   3.739  -3.736  1.00  0.00    -0.648 OA
HETATM   22  O4  UNL     1       1.044   4.309  -3.083  1.00  0.00    -0.648 OA
ENDBRANCH  19  20
ENDBRANCH  18  19
ENDBRANCH  17  18
ENDBRANCH  16  17
ENDBRANCH  14  15
ENDBRANCH   3  14
ENDBRANCH   1   3
BRANCH   1  23
HETATM   23  C16 UNL     1       0.634   0.401   2.795  1.00  0.00     0.096 C 
HETATM   24  C17 UNL     1       1.647  -0.685   3.423  1.00  0.00     0.089 C 
HETATM   25  C18 UNL     1       2.721  -1.104   2.443  1.00  0.00     0.075 C 
HETATM   26  C19 UNL     1       1.799  -1.911   1.525  1.00  0.00     0.048 C 
HETATM   27  C23 UNL     1       3.742  -2.204   2.142  1.00  0.00     0.237 C 
HETATM   28  C31 UNL     1       3.698   0.149   2.275  1.00  0.00     0.291 C 
HETATM   29  C20 UNL     1       2.360  -2.036   0.327  1.00  0.00     0.108 C 
HETATM   30  N2  UNL     1       3.679  -2.331   0.688  1.00  0.00    -0.282 N 
HETATM   31  C24 UNL     1       1.957  -0.756  -0.448  1.00  0.00     0.009 C 
HETATM   32  C21 UNL     1       4.459  -3.265   0.053  1.00  0.00     0.222 C 
HETATM   33  C22 UNL     1       3.762  -4.400  -0.663  1.00  0.00     0.117 C 
HETATM   34  O6  UNL     1       5.690  -3.187   0.025  1.00  0.00    -0.273 OA
HETATM   35  C25 UNL     1       0.923  -0.956  -1.619  1.00  0.00     0.017 C 
HETATM   36  C27 UNL     1       0.584  -0.128   0.310  1.00  0.00     0.139 C 
HETATM   37  C28 UNL     1       3.109   0.092  -1.027  1.00  0.00     0.044 C 
HETATM   38  C26 UNL     1       0.164   0.321  -1.091  1.00  0.00     0.034 C 
HETATM   39  O8  UNL     1       0.770   0.808   1.407  1.00  0.00    -0.345 OA
HETATM   40  C29 UNL     1       4.151   0.600  -0.045  1.00  0.00     0.273 C 
HETATM   41  N3  UNL     1       3.513   1.099   1.171  1.00  0.00     0.085 N 
HETATM   42  C30 UNL     1       4.064   2.415   1.520  1.00  0.00     0.309 C 
HETATM   43  O7  UNL     1       4.481  -2.761   2.933  1.00  0.00    -0.272 OA
ENDBRANCH   1  23
TORSDOF 14
