REMARK  8 active torsions:
REMARK  status: ('A' for Active; 'I' for Inactive)
REMARK    1  A    between atoms: C6_6  and  O1_7 
REMARK    2  A    between atoms: O1_7  and  C7_8 
REMARK    3  A    between atoms: C9_10  and  O2_11 
REMARK    4  A    between atoms: C14_18  and  O4_19 
REMARK    5  A    between atoms: C18_24  and  O5_25 
REMARK    6  A    between atoms: O5_25  and  O6_26 
REMARK    7  A    between atoms: C20_29  and  O7_30 
REMARK    8  A    between atoms: C27_38  and  O8_39 
ROOT
HETATM    1  C1  UNL     1      -2.614  -0.679   2.878  1.00  0.00     0.019 C 
HETATM    2  C2  UNL     1      -1.862  -0.297   1.811  1.00  0.00    -0.060 C 
HETATM    3  C3  UNL     1      -1.103   0.948   1.911  1.00  0.00    -0.056 C 
HETATM    4  C4  UNL     1      -0.123   1.162   2.825  1.00  0.00     0.047 C 
HETATM    5  C5  UNL     1       1.161   0.460   2.410  1.00  0.00     0.046 C 
HETATM    6  C6  UNL     1       1.588   0.910   0.977  1.00  0.00     0.155 C 
HETATM    7  C14 UNL     1       0.511   1.728   0.169  1.00  0.00     0.160 C 
HETATM    8  C15 UNL     1      -0.864   2.059   0.890  1.00  0.00     0.015 C 
HETATM    9  C16 UNL     1      -1.921   2.430  -0.173  1.00  0.00     0.020 C 
HETATM   10  C17 UNL     1      -3.369   2.298   0.275  1.00  0.00     0.043 C 
HETATM   11  C18 UNL     1      -4.325   1.774  -0.766  1.00  0.00     0.107 A 
HETATM   12  C19 UNL     1      -4.016   0.973  -2.000  1.00  0.00     0.060 A 
HETATM   13  C20 UNL     1      -3.015  -0.117  -2.180  1.00  0.00     0.130 C 
HETATM   14  C21 UNL     1      -3.768  -0.901  -1.087  1.00  0.00     0.023 C 
HETATM   15  C22 UNL     1      -3.094  -1.718   0.009  1.00  0.00     0.016 C 
HETATM   16  C23 UNL     1      -1.744  -1.206   0.586  1.00  0.00     0.014 C 
HETATM   17  C24 UNL     1      -0.924  -2.470   0.972  1.00  0.00     0.015 C 
HETATM   18  C25 UNL     1      -4.586   0.296  -0.773  1.00  0.00     0.040 A 
HETATM   19  C26 UNL     1      -0.724   3.253   1.876  1.00  0.00     0.049 C 
HETATM   20  C27 UNL     1       0.028   2.659   3.057  1.00  0.00     0.127 C 
ENDROOT
BRANCH   6  21
HETATM   21  O1  UNL     1       1.867  -0.251   0.164  1.00  0.00    -0.353 OA
BRANCH  21  22
HETATM   22  C7  UNL     1       3.203  -0.753   0.247  1.00  0.00     0.263 C 
HETATM   23  C8  UNL     1       4.059  -0.052  -0.815  1.00  0.00     0.092 C 
HETATM   24  C9  UNL     1       3.772  -0.487  -2.252  1.00  0.00     0.122 C 
HETATM   25  C10 UNL     1       4.518  -1.767  -2.632  1.00  0.00     0.034 C 
HETATM   26  C11 UNL     1       4.027  -3.005  -1.901  1.00  0.00     0.034 C 
HETATM   27  C12 UNL     1       4.163  -2.914  -0.376  1.00  0.00     0.120 C 
HETATM   28  C13 UNL     1       4.029  -4.317   0.214  1.00  0.00     0.039 C 
HETATM   29  O3  UNL     1       3.081  -2.164   0.155  1.00  0.00    -0.356 OA
BRANCH  24  30
HETATM   30  O2  UNL     1       4.262   0.528  -3.139  1.00  0.00    -0.395 OA
ATOM     31  H2  UNL     1       4.084   0.258  -4.032  1.00  0.00     0.210 HD
ENDBRANCH  24  30
ENDBRANCH  21  22
ENDBRANCH   6  21
BRANCH   7  32
HETATM   32  O4  UNL     1       1.122   2.929  -0.342  1.00  0.00    -0.392 OA
ATOM     33  H4  UNL     1       0.473   3.422  -0.829  1.00  0.00     0.210 HD
ENDBRANCH   7  32
BRANCH  20  34
HETATM   34  O8  UNL     1       1.374   3.094   3.033  1.00  0.00    -0.395 OA
ATOM     35  H8  UNL     1       1.468   4.028   3.178  1.00  0.00     0.210 HD
ENDBRANCH  20  34
BRANCH  11  36
HETATM   36  O5  UNL     1      -5.543   2.559  -0.833  1.00  0.00    -0.231 OA
BRANCH  36  37
HETATM   37  O6  UNL     1      -5.216   3.705  -1.667  1.00  0.00    -0.250 OA
ATOM     38  H6  UNL     1      -6.014   4.219  -1.711  1.00  0.00     0.253 HD
ENDBRANCH  36  37
ENDBRANCH  11  36
BRANCH  13  39
HETATM   39  O7  UNL     1      -2.978  -0.733  -3.485  1.00  0.00    -0.395 OA
ATOM     40  H7  UNL     1      -2.340  -1.428  -3.600  1.00  0.00     0.210 HD
ENDBRANCH  13  39
TORSDOF 8
