REMARK  6 active torsions:
REMARK  status: ('A' for Active; 'I' for Inactive)
REMARK    1  A    between atoms: C2_2  and  C4_4 
REMARK    2  A    between atoms: C5_5  and  C6_6 
REMARK    3  A    between atoms: C12_13  and  O1_14 
REMARK    4  A    between atoms: C13_16  and  O2_17 
REMARK    5  A    between atoms: O2_17  and  C14_18 
REMARK    6  A    between atoms: C14_18  and  C15_19 
ROOT
HETATM    1  C6  UNL     1       0.438   1.667   0.898  1.00  0.00     0.137 C 
HETATM    2  C7  UNL     1       1.000   0.339   1.573  1.00  0.00     0.070 C 
HETATM    3  C8  UNL     1       1.530  -0.793   0.634  1.00  0.00    -0.013 C 
HETATM    4  C9  UNL     1       2.699  -0.474  -0.026  1.00  0.00    -0.033 C 
HETATM    5  C10 UNL     1       2.402   0.200  -1.197  1.00  0.00     0.024 C 
HETATM    6  C11 UNL     1       1.336  -0.205  -2.009  1.00  0.00     0.060 C 
HETATM    7 BR1  UNL     1       1.026   0.594  -3.698  1.00  0.00    -0.047 Br
HETATM    8  C12 UNL     1       0.456  -1.151  -1.488  1.00  0.00     0.118 C 
HETATM    9  C13 UNL     1       0.544  -1.441  -0.126  1.00  0.00     0.110 C 
HETATM   10  C16 UNL     1       2.690   1.616  -0.846  1.00  0.00     0.079 C 
HETATM   11  N1  UNL     1       3.856   2.030  -0.446  1.00  0.00    -0.384 N 
ATOM     12  H1  UNL     1       4.104   3.009  -0.306  1.00  0.00     0.160 HD
HETATM   13  C17 UNL     1       4.778   0.890  -0.220  1.00  0.00     0.125 C 
HETATM   14  C18 UNL     1       4.031  -0.171   0.631  1.00  0.00     0.060 C 
HETATM   15  S1  UNL     1       1.310   2.630  -0.497  1.00  0.00    -0.094 SA
ENDROOT
BRANCH   1  16
HETATM   16  C5  UNL     1      -0.984   1.502   0.461  1.00  0.00    -0.090 C 
HETATM   17  C4  UNL     1      -2.093   1.419   0.003  1.00  0.00    -0.101 C 
BRANCH  17  18
HETATM   18  C2  UNL     1      -3.392   1.336  -0.712  1.00  0.00     0.057 C 
HETATM   19  C1  UNL     1      -4.568   1.777   0.156  1.00  0.00     0.023 C 
HETATM   20  C3  UNL     1      -3.348   2.168  -1.993  1.00  0.00     0.023 C 
ENDBRANCH  17  18
ENDBRANCH   1  16
BRANCH   9  21
HETATM   21  O2  UNL     1      -0.470  -2.136   0.464  1.00  0.00    -0.337 OA
BRANCH  21  22
HETATM   22  C14 UNL     1       0.069  -3.223   1.230  1.00  0.00     0.288 C 
BRANCH  22  23
HETATM   23  C15 UNL     1      -1.120  -4.076   1.621  1.00  0.00     0.198 C 
HETATM   24  O3  UNL     1      -1.162  -5.289   1.502  1.00  0.00    -0.646 OA
HETATM   25  O4  UNL     1      -2.140  -3.350   2.156  1.00  0.00    -0.646 OA
ENDBRANCH  22  23
ENDBRANCH  21  22
ENDBRANCH   9  21
BRANCH   8  26
HETATM   26  O1  UNL     1      -0.585  -1.644  -2.223  1.00  0.00    -0.357 OA
ATOM     27  H1  UNL     1      -1.185  -2.289  -1.868  1.00  0.00     0.218 HD
ENDBRANCH   8  26
TORSDOF 6
