REMARK  11 active torsions:
REMARK  status: ('A' for Active; 'I' for Inactive)
REMARK    1  A    between atoms: C3_3  and  N1_4 
REMARK       I    between atoms: N2_8  and  C7_9 
REMARK    2  A    between atoms: C7_9  and  C8_11 
REMARK    3  A    between atoms: C10_13  and  C11_14 
REMARK    4  A    between atoms: C11_14  and  C12_15 
REMARK    5  A    between atoms: C14_17  and  C15_18 
REMARK    6  A    between atoms: C16_21  and  C17_22 
REMARK       I    between atoms: C17_22  and  N3_24 
REMARK    7  A    between atoms: N3_24  and  C18_26 
REMARK    8  A    between atoms: C25_33  and  O5_34 
REMARK    9  A    between atoms: N4_39  and  C29_40 
REMARK   10  A    between atoms: C29_40  and  C30_41 
REMARK   11  A    between atoms: C30_41  and  O6_42 
ROOT
HETATM    1  C1  UNL     1       5.004   3.808   4.835  1.00  0.00     0.013 C 
HETATM    2  C2  UNL     1       4.399   3.621   3.811  1.00  0.00    -0.087 C 
HETATM    3  C3  UNL     1       3.639   3.339   2.588  1.00  0.00     0.364 C 
ENDROOT
BRANCH   3   4
HETATM    4  N1  UNL     1       4.428   2.499   1.679  1.00  0.00     0.100 N 
HETATM    5  C4  UNL     1       3.598   1.486   1.028  1.00  0.00     0.275 C 
HETATM    6  C5  UNL     1       4.271   0.620  -0.042  1.00  0.00     0.050 C 
HETATM    7  C6  UNL     1       4.788   1.370  -1.266  1.00  0.00     0.128 C 
HETATM    8  N2  UNL     1       4.199   2.699  -1.407  1.00  0.00    -0.346 N 
HETATM    9  C7  UNL     1       3.122   3.015  -2.216  1.00  0.00     0.249 C 
HETATM   10  C34 UNL     1       4.780   3.757  -0.569  1.00  0.00     0.156 C 
HETATM   11  O1  UNL     1       2.687   4.149  -2.391  1.00  0.00    -0.268 OA
HETATM   12  C35 UNL     1       5.323   3.283   0.807  1.00  0.00     0.293 C 
BRANCH   9  13
HETATM   13  C8  UNL     1       2.351   1.872  -2.783  1.00  0.00     0.002 C 
HETATM   14  C9  UNL     1       2.856   1.190  -4.010  1.00  0.00     0.054 C 
HETATM   15  C10 UNL     1       1.173   1.662  -2.167  1.00  0.00    -0.012 C 
BRANCH  15  16
HETATM   16  C11 UNL     1       0.171   0.627  -2.573  1.00  0.00     0.061 C 
BRANCH  16  17
HETATM   17  C12 UNL     1      -0.895   0.225  -1.512  1.00  0.00     0.202 C 
HETATM   18  C13 UNL     1      -0.284  -0.159  -0.105  1.00  0.00     0.068 C 
HETATM   19  C14 UNL     1      -0.532  -1.611   0.424  1.00  0.00     0.114 C 
HETATM   20  C25 UNL     1      -1.013   0.617   0.905  1.00  0.00     0.073 C 
HETATM   21  C16 UNL     1      -1.855  -1.548   1.390  1.00  0.00     0.065 C 
HETATM   22  C22 UNL     1      -1.664  -1.415   2.902  1.00  0.00     0.021 C 
HETATM   23  C26 UNL     1      -2.474  -0.204   0.777  1.00  0.00     0.015 C 
HETATM   24  C23 UNL     1      -0.559  -0.482   3.293  1.00  0.00     0.004 C 
HETATM   25  C24 UNL     1      -0.431   0.688   2.351  1.00  0.00     0.039 C 
HETATM   26  C27 UNL     1      -3.308   1.023   1.046  1.00  0.00     0.042 C 
HETATM   27  C32 UNL     1      -3.337  -0.804  -0.531  1.00  0.00     0.020 C 
HETATM   28  C28 UNL     1      -3.133   1.911  -0.268  1.00  0.00     0.239 C 
HETATM   29  N4  UNL     1      -2.374   1.115  -1.559  1.00  0.00    -0.060 N 
HETATM   30  C31 UNL     1      -3.369   0.030  -1.800  1.00  0.00     0.243 C 
HETATM   31  C33 UNL     1      -4.832  -1.098  -0.180  1.00  0.00     0.012 C 
BRANCH  19  32
HETATM   32  C15 UNL     1       0.761  -2.143   1.034  1.00  0.00     0.178 C 
HETATM   33  O2  UNL     1       1.885  -1.757   0.762  1.00  0.00    -0.648 OA
HETATM   34  O3  UNL     1       0.601  -3.153   1.905  1.00  0.00    -0.648 OA
ENDBRANCH  19  32
BRANCH  21  35
HETATM   35  C17 UNL     1      -2.594  -2.929   1.242  1.00  0.00     0.228 C 
HETATM   36  O4  UNL     1      -3.803  -3.059   1.375  1.00  0.00    -0.273 OA
HETATM   37  N3  UNL     1      -1.767  -4.003   1.002  1.00  0.00    -0.352 N 
ATOM     38  H3  UNL     1      -0.765  -3.853   1.123  1.00  0.00     0.163 HD
BRANCH  37  39
HETATM   39  C18 UNL     1      -2.195  -5.346   0.588  1.00  0.00     0.022 C 
HETATM   40  C19 UNL     1      -3.043  -5.273  -0.691  1.00  0.00     0.037 C 
HETATM   41  C20 UNL     1      -2.971  -6.069   1.694  1.00  0.00     0.037 C 
HETATM   42  C21 UNL     1      -0.922  -6.155   0.260  1.00  0.00     0.037 C 
ENDBRANCH  37  39
ENDBRANCH  21  35
BRANCH  29  43
HETATM   43  C29 UNL     1      -2.454   2.097  -2.753  1.00  0.00     0.263 C 
BRANCH  43  44
HETATM   44  C30 UNL     1      -1.611   3.371  -2.601  1.00  0.00     0.192 C 
BRANCH  44  45
HETATM   45  O6  UNL     1      -0.747   3.487  -3.727  1.00  0.00    -0.399 OA
ATOM     46  H6  UNL     1      -0.225   4.275  -3.633  1.00  0.00     0.209 HD
ENDBRANCH  44  45
ENDBRANCH  43  44
ENDBRANCH  29  43
BRANCH  20  47
HETATM   47  O5  UNL     1      -0.865   1.987   0.511  1.00  0.00    -0.389 OA
ATOM     48  H5  UNL     1      -1.337   2.489   1.165  1.00  0.00     0.210 HD
ENDBRANCH  20  47
ENDBRANCH  16  17
ENDBRANCH  15  16
ENDBRANCH   9  13
ENDBRANCH   3   4
TORSDOF 11
