REMARK  7 active torsions:
REMARK  status: ('A' for Active; 'I' for Inactive)
REMARK    1  A    between atoms: C8_8  and  C9_9 
REMARK    2  A    between atoms: C8_8  and  C17_21 
REMARK    3  A    between atoms: C9_9  and  C10_10 
REMARK    4  A    between atoms: C10_10  and  C11_11 
REMARK    5  A    between atoms: C17_21  and  C18_22 
REMARK    6  A    between atoms: C18_22  and  C19_23 
REMARK    7  A    between atoms: C26_30  and  C27_31 
ROOT
HETATM    1  C1  UNL     1       1.203   2.022   3.228  1.00  0.00     0.010 C 
HETATM    2  C2  UNL     1       1.597   2.446   1.807  1.00  0.00    -0.018 C 
HETATM    3  C3  UNL     1       3.051   2.100   1.541  1.00  0.00     0.005 C 
HETATM    4  C4  UNL     1       3.501   2.306   0.102  1.00  0.00     0.010 C 
HETATM    5  C5  UNL     1       2.393   2.515  -0.969  1.00  0.00    -0.040 C 
HETATM    6  C6  UNL     1       2.083   4.041  -1.034  1.00  0.00     0.015 C 
HETATM    7  C7  UNL     1       3.044   2.163  -2.334  1.00  0.00     0.015 C 
HETATM    8  C8  UNL     1       1.065   1.662  -0.687  1.00  0.00    -0.033 C 
HETATM    9  C31 UNL     1       0.606   1.857   0.791  1.00  0.00     0.014 C 
ENDROOT
BRANCH   8  10
HETATM   10  C9  UNL     1       1.223   0.127  -0.976  1.00  0.00     0.017 C 
BRANCH  10  11
HETATM   11  C10 UNL     1       2.247  -0.689  -0.180  1.00  0.00     0.066 C 
BRANCH  11  12
HETATM   12  C11 UNL     1       2.043  -2.176  -0.337  1.00  0.00     0.055 C 
HETATM   13  C12 UNL     1       1.834  -3.015   0.685  1.00  0.00     0.036 C 
HETATM   14  C13 UNL     1       1.618  -4.489   0.502  1.00  0.00     0.046 C 
HETATM   15  C14 UNL     1       0.156  -4.838   0.807  1.00  0.00     0.042 C 
HETATM   16  C15 UNL     1       2.543  -5.270   1.443  1.00  0.00     0.042 C 
HETATM   17  N1  UNL     1       1.933  -4.846  -0.868  1.00  0.00    -0.349 N 
HETATM   18  C16 UNL     1       2.043  -3.973  -1.910  1.00  0.00     0.216 C 
ATOM     19  H1  UNL     1       2.085  -5.834  -1.069  1.00  0.00     0.163 HD
HETATM   20  S1  UNL     1       2.174  -4.477  -3.483  1.00  0.00    -0.033 SA
HETATM   21  O1  UNL     1       2.089  -2.633  -1.667  1.00  0.00    -0.289 OA
ENDBRANCH  11  12
ENDBRANCH  10  11
ENDBRANCH   8  10
BRANCH   8  22
HETATM   22  C17 UNL     1      -0.112   2.193  -1.623  1.00  0.00     0.011 C 
BRANCH  22  23
HETATM   23  C18 UNL     1      -1.268   1.295  -2.109  1.00  0.00     0.012 C 
BRANCH  23  24
HETATM   24  C19 UNL     1      -2.410   0.933  -1.139  1.00  0.00    -0.019 A 
HETATM   25  C20 UNL     1      -2.953   1.951  -0.084  1.00  0.00    -0.004 A 
HETATM   26  C21 UNL     1      -2.946   1.617   1.394  1.00  0.00     0.010 C 
HETATM   27  C30 UNL     1      -4.305   2.035  -0.815  1.00  0.00     0.011 A 
HETATM   28  C22 UNL     1      -3.596   0.253   1.512  1.00  0.00    -0.009 C 
HETATM   29  C23 UNL     1      -2.947  -0.592   2.653  1.00  0.00     0.005 C 
HETATM   30  C25 UNL     1      -3.232  -0.930   0.585  1.00  0.00     0.006 C 
HETATM   31  C24 UNL     1      -2.084  -1.259   1.556  1.00  0.00     0.006 C 
HETATM   32  C26 UNL     1      -2.800  -0.585  -0.869  1.00  0.00     0.025 A 
HETATM   33  C28 UNL     1      -4.134  -0.362  -1.663  1.00  0.00     0.023 A 
HETATM   34  C29 UNL     1      -3.774   1.093  -1.886  1.00  0.00    -0.003 A 
BRANCH  32  35
HETATM   35  C27 UNL     1      -1.883  -1.697  -1.530  1.00  0.00     0.241 C 
HETATM   36  O2  UNL     1      -1.876  -2.054  -2.708  1.00  0.00    -0.306 OA
ENDBRANCH  32  35
ENDBRANCH  23  24
ENDBRANCH  22  23
ENDBRANCH   8  22
TORSDOF 7
