REMARK  10 active torsions:
REMARK  status: ('A' for Active; 'I' for Inactive)
REMARK    1  A    between atoms: C2_2  and  C3_3 
REMARK    2  A    between atoms: C3_3  and  C4_4 
REMARK    3  A    between atoms: C4_4  and  C5_5 
REMARK    4  A    between atoms: C5_5  and  C6_6 
REMARK    5  A    between atoms: C6_6  and  O1_7 
REMARK    6  A    between atoms: O1_7  and  C7_8 
REMARK    7  A    between atoms: C7_8  and  C8_10 
REMARK    8  A    between atoms: C8_10  and  C9_11 
REMARK    9  A    between atoms: N1_18  and  C16_19 
REMARK   10  A    between atoms: C16_19  and  C17_20 
ROOT
HETATM    1  C9  UNL     1      -0.345   1.521   0.675  1.00  0.00     0.024 C 
HETATM    2  C10 UNL     1       0.521   2.765   0.565  1.00  0.00    -0.018 C 
HETATM    3  C11 UNL     1       1.808   2.688   0.941  1.00  0.00    -0.077 C 
HETATM    4  C12 UNL     1       2.298   1.728   1.971  1.00  0.00     0.046 C 
HETATM    5  C13 UNL     1       2.780   0.620   1.036  1.00  0.00    -0.010 C 
HETATM    6  C14 UNL     1       3.691  -0.348   1.792  1.00  0.00     0.032 C 
HETATM    7  C15 UNL     1       2.713  -1.253   2.550  1.00  0.00     0.123 C 
HETATM    8  N1  UNL     1       1.409  -1.023   1.919  1.00  0.00    -0.387 N 
HETATM    9  C21 UNL     1       1.616  -0.343   0.637  1.00  0.00     0.097 C 
HETATM   10  C22 UNL     1       0.372   0.308  -0.055  1.00  0.00     0.018 C 
HETATM   11  C23 UNL     1       0.650   0.528  -1.582  1.00  0.00     0.012 C 
HETATM   12  C24 UNL     1       1.931   1.227  -2.118  1.00  0.00    -0.013 C 
HETATM   13  C25 UNL     1       3.243   0.783  -1.475  1.00  0.00     0.011 C 
HETATM   14  C26 UNL     1       3.482   1.420  -0.107  1.00  0.00     0.006 C 
HETATM   15  C27 UNL     1       2.982   2.918   0.005  1.00  0.00     0.027 C 
HETATM   16  C28 UNL     1       2.769   3.614  -1.371  1.00  0.00    -0.040 C 
HETATM   17  C29 UNL     1       2.208   5.055  -1.212  1.00  0.00     0.015 C 
HETATM   18  C30 UNL     1       4.138   3.832  -2.064  1.00  0.00     0.015 C 
HETATM   19  C31 UNL     1       1.828   2.768  -2.276  1.00  0.00     0.014 C 
ENDROOT
BRANCH   1  20
HETATM   20  C8  UNL     1      -1.717   1.804   0.023  1.00  0.00     0.120 C 
BRANCH  20  21
HETATM   21  C7  UNL     1      -2.890   1.713   0.952  1.00  0.00     0.259 C 
HETATM   22  O2  UNL     1      -3.509   2.676   1.391  1.00  0.00    -0.265 OA
BRANCH  21  23
HETATM   23  O1  UNL     1      -3.253   0.416   1.095  1.00  0.00    -0.321 OA
BRANCH  23  24
HETATM   24  C6  UNL     1      -4.636   0.207   1.402  1.00  0.00     0.178 C 
BRANCH  24  25
HETATM   25  C5  UNL     1      -4.881  -1.301   1.380  1.00  0.00     0.027 C 
BRANCH  25  26
HETATM   26  C4  UNL     1      -4.470  -1.983   0.064  1.00  0.00     0.002 C 
BRANCH  26  27
HETATM   27  C3  UNL     1      -5.404  -1.654  -1.105  1.00  0.00    -0.000 C 
BRANCH  27  28
HETATM   28  C2  UNL     1      -4.884  -2.195  -2.442  1.00  0.00    -0.005 C 
HETATM   29  C1  UNL     1      -3.845  -1.279  -3.071  1.00  0.00     0.005 C 
ENDBRANCH  27  28
ENDBRANCH  26  27
ENDBRANCH  25  26
ENDBRANCH  24  25
ENDBRANCH  23  24
ENDBRANCH  21  23
ENDBRANCH  20  21
ENDBRANCH   1  20
BRANCH   8  30
HETATM   30  C16 UNL     1       0.387  -2.030   2.154  1.00  0.00     0.067 C 
BRANCH  30  31
HETATM   31  C17 UNL     1       0.306  -3.383   1.371  1.00  0.00    -0.019 C 
HETATM   32  C18 UNL     1       1.646  -4.128   1.314  1.00  0.00     0.020 C 
HETATM   33  C19 UNL     1      -0.697  -4.287   2.123  1.00  0.00     0.020 C 
HETATM   34  C20 UNL     1      -0.228  -3.204  -0.058  1.00  0.00     0.020 C 
ENDBRANCH  30  31
ENDBRANCH   8  30
TORSDOF 10
