REMARK  7 active torsions:
REMARK  status: ('A' for Active; 'I' for Inactive)
REMARK    1  A    between atoms: C3_3  and  S1_4 
REMARK    2  A    between atoms: S1_4  and  C4_5 
REMARK    3  A    between atoms: C6_10  and  N2_11 
REMARK    4  A    between atoms: C10_17  and  O1_18 
REMARK    5  A    between atoms: C12_21  and  C13_22 
REMARK    6  A    between atoms: C16_29  and  C17_31 
REMARK    7  A    between atoms: C20_34  and  C21_35 
ROOT
HETATM    1  C1  UNL     1       0.563   0.261  -3.479  1.00  0.00     0.016 C 
HETATM    2  C2  UNL     1       1.717   0.799  -2.601  1.00  0.00     0.038 C 
HETATM    3  C3  UNL     1       1.265   1.603  -1.359  1.00  0.00     0.012 C 
HETATM    4  C12 UNL     1       2.127   1.631  -0.321  1.00  0.00     0.109 C 
HETATM    5  N4  UNL     1       3.316   0.889  -0.415  1.00  0.00    -0.195 NA
HETATM    6  C14 UNL     1       3.741   0.696  -1.737  1.00  0.00     0.212 C 
HETATM    7  O4  UNL     1       4.559   1.377  -2.333  1.00  0.00    -0.279 OA
HETATM    8  C15 UNL     1       2.893  -0.380  -2.373  1.00  0.00     0.107 C 
HETATM    9  C16 UNL     1       3.273  -1.367  -1.094  1.00  0.00     0.079 C 
HETATM   10 CL1  UNL     1       4.994  -1.919  -1.496  1.00  0.00    -0.116 Cl
HETATM   11  C20 UNL     1       3.204  -0.459   0.146  1.00  0.00     0.197 C 
ENDROOT
BRANCH   3  12
HETATM   12  S1  UNL     1      -0.228   2.503  -1.406  1.00  0.00    -0.125 SA
BRANCH  12  13
HETATM   13  C4  UNL     1      -1.281   1.576  -0.244  1.00  0.00     0.080 C 
HETATM   14  C5  UNL     1      -1.885   2.522   0.808  1.00  0.00     0.250 C 
HETATM   15  N1  UNL     1      -2.669   1.756   1.783  1.00  0.00    -0.050 N 
HETATM   16  C6  UNL     1      -3.803   1.065   1.132  1.00  0.00     0.320 C 
ATOM     17  H12 UNL     1      -2.084   1.105   2.307  1.00  0.00     0.279 HD
ATOM     18  H11 UNL     1      -2.981   2.342   2.557  1.00  0.00     0.279 HD
HETATM   19  C10 UNL     1      -3.351   0.142  -0.036  1.00  0.00     0.170 C 
HETATM   20  C11 UNL     1      -2.413   0.881  -1.000  1.00  0.00     0.053 C 
BRANCH  16  21
HETATM   21  N2  UNL     1      -4.490   0.300   2.180  1.00  0.00    -0.321 N 
HETATM   22  C7  UNL     1      -5.840   0.263   2.410  1.00  0.00     0.111 A 
HETATM   23  C8  UNL     1      -6.004  -0.584   3.487  1.00  0.00     0.106 A 
HETATM   24  N3  UNL     1      -4.792  -1.060   3.912  1.00  0.00    -0.361 N 
HETATM   25  C9  UNL     1      -3.901  -0.516   3.110  1.00  0.00     0.184 A 
ATOM     26  H3  UNL     1      -4.617  -1.701   4.686  1.00  0.00     0.166 HD
ENDBRANCH  16  21
BRANCH  19  27
HETATM   27  O1  UNL     1      -4.484  -0.278  -0.803  1.00  0.00    -0.392 OA
ATOM     28  H1  UNL     1      -4.208  -0.842  -1.516  1.00  0.00     0.210 HD
ENDBRANCH  19  27
ENDBRANCH  12  13
ENDBRANCH   3  12
BRANCH   4  29
HETATM   29  C13 UNL     1       1.852   2.287   0.981  1.00  0.00     0.222 C 
HETATM   30  O2  UNL     1       1.768   1.703   2.050  1.00  0.00    -0.643 OA
HETATM   31  O3  UNL     1       1.746   3.622   0.882  1.00  0.00    -0.643 OA
ENDBRANCH   4  29
BRANCH   9  32
HETATM   32  C17 UNL     1       2.403  -2.716  -0.979  1.00  0.00     0.004 C 
HETATM   33  C18 UNL     1       0.959  -2.482  -0.475  1.00  0.00     0.011 C 
HETATM   34  C19 UNL     1       3.040  -3.846  -0.118  1.00  0.00     0.011 C 
ENDBRANCH   9  32
BRANCH  11  35
HETATM   35  C21 UNL     1       4.252  -0.729   1.222  1.00  0.00     0.194 C 
HETATM   36  O5  UNL     1       4.361  -1.758   1.880  1.00  0.00    -0.647 OA
HETATM   37  O6  UNL     1       5.096   0.281   1.491  1.00  0.00    -0.647 OA
ENDBRANCH  11  35
TORSDOF 7
