REMARK  12 active torsions:
REMARK  status: ('A' for Active; 'I' for Inactive)
REMARK    1  A    between atoms: C3_3  and  O1_4 
REMARK    2  A    between atoms: C5_7  and  O2_8 
REMARK    3  A    between atoms: O2_8  and  C6_9 
REMARK    4  A    between atoms: C6_9  and  C7_11 
REMARK    5  A    between atoms: C7_11  and  C9_13 
REMARK    6  A    between atoms: C11_15  and  O4_17 
REMARK    7  A    between atoms: C15_21  and  O5_22 
REMARK    8  A    between atoms: C16_24  and  O6_25 
REMARK    9  A    between atoms: O6_25  and  C17_26 
REMARK   10  A    between atoms: C17_26  and  C18_28 
REMARK   11  A    between atoms: C18_28  and  C19_29 
REMARK   12  A    between atoms: C25_35  and  O8_36 
ROOT
HETATM    1  C1  UNL     1       2.382   2.397   0.689  1.00  0.00     0.018 C 
HETATM    2  C2  UNL     1       1.939   1.151   0.416  1.00  0.00    -0.040 C 
HETATM    3  C3  UNL     1       1.841   0.057   1.508  1.00  0.00     0.155 C 
HETATM    4  C4  UNL     1       0.487  -0.715   1.752  1.00  0.00     0.067 C 
HETATM    5  C5  UNL     1      -0.763   0.243   1.772  1.00  0.00     0.178 C 
HETATM    6  C11 UNL     1      -1.250   0.285   0.283  1.00  0.00     0.106 C 
HETATM    7  C12 UNL     1      -2.731  -0.103   0.144  1.00  0.00     0.053 C 
HETATM    8  C13 UNL     1      -0.290  -0.699  -0.363  1.00  0.00    -0.026 C 
HETATM    9  C14 UNL     1       0.819  -0.519  -1.133  1.00  0.00    -0.022 C 
HETATM   10  C15 UNL     1       1.653  -1.770  -1.236  1.00  0.00     0.179 C 
HETATM   11  C16 UNL     1       1.182  -2.609  -0.039  1.00  0.00     0.177 C 
HETATM   12  C21 UNL     1       0.071  -1.774   0.653  1.00  0.00     0.021 C 
HETATM   13  C22 UNL     1      -1.038  -2.717   1.156  1.00  0.00     0.023 C 
HETATM   14  C23 UNL     1       1.593   0.788  -1.037  1.00  0.00     0.077 A 
HETATM   15  C24 UNL     1       1.115   1.917  -2.012  1.00  0.00     0.066 A 
HETATM   16  C25 UNL     1       2.454   1.948  -2.781  1.00  0.00     0.193 A 
HETATM   17  C27 UNL     1       2.926   0.768  -1.912  1.00  0.00     0.172 A 
HETATM   18  O9  UNL     1       3.942   0.105  -1.923  1.00  0.00    -0.294 OA
ENDROOT
BRANCH   5  19
HETATM   19  O2  UNL     1      -0.479   1.562   2.253  1.00  0.00    -0.312 OA
BRANCH  19  20
HETATM   20  C6  UNL     1      -1.474   2.091   3.005  1.00  0.00     0.263 C 
HETATM   21  O3  UNL     1      -2.008   1.518   3.950  1.00  0.00    -0.265 OA
BRANCH  20  22
HETATM   22  C7  UNL     1      -1.919   3.423   2.442  1.00  0.00     0.081 C 
HETATM   23  C8  UNL     1      -1.381   4.568   3.288  1.00  0.00     0.020 C 
BRANCH  22  24
HETATM   24  C9  UNL     1      -3.455   3.429   2.356  1.00  0.00     0.010 C 
HETATM   25  C10 UNL     1      -3.974   4.257   1.194  1.00  0.00     0.006 C 
ENDBRANCH  22  24
ENDBRANCH  20  22
ENDBRANCH  19  20
ENDBRANCH   5  19
BRANCH   6  26
HETATM   26  O4  UNL     1      -1.126   1.569  -0.305  1.00  0.00    -0.383 OA
ATOM     27  H4  UNL     1      -1.421   1.594  -1.208  1.00  0.00     0.211 HD
ENDBRANCH   6  26
BRANCH   3  28
HETATM   28  O1  UNL     1       2.256   0.599   2.769  1.00  0.00    -0.391 OA
ATOM     29  H1  UNL     1       2.196  -0.072   3.439  1.00  0.00     0.210 HD
ENDBRANCH   3  28
BRANCH  11  30
HETATM   30  O6  UNL     1       0.672  -3.877  -0.496  1.00  0.00    -0.312 OA
BRANCH  30  31
HETATM   31  C17 UNL     1       1.616  -4.766  -0.873  1.00  0.00     0.259 C 
HETATM   32  O7  UNL     1       2.821  -4.592  -0.738  1.00  0.00    -0.265 OA
BRANCH  31  33
HETATM   33  C18 UNL     1       1.043  -6.009  -1.515  1.00  0.00     0.111 C 
BRANCH  33  34
HETATM   34  C19 UNL     1      -0.450  -6.250  -1.305  1.00  0.00     0.005 C 
HETATM   35  C20 UNL     1      -1.312  -5.455  -2.277  1.00  0.00     0.005 C 
ENDBRANCH  33  34
ENDBRANCH  31  33
ENDBRANCH  30  31
ENDBRANCH  11  30
BRANCH  10  36
HETATM   36  O5  UNL     1       1.378  -2.339  -2.510  1.00  0.00    -0.388 OA
ATOM     37  H5  UNL     1       1.904  -3.128  -2.575  1.00  0.00     0.210 HD
ENDBRANCH  10  36
BRANCH  16  38
HETATM   38  O8  UNL     1       3.280   3.130  -2.636  1.00  0.00    -0.383 OA
HETATM   39  C26 UNL     1       2.999   4.210  -3.512  1.00  0.00     0.202 C 
ENDBRANCH  16  38
TORSDOF 12
