REMARK  7 active torsions:
REMARK  status: ('A' for Active; 'I' for Inactive)
REMARK    1  A    between atoms: C2_2  and  C3_3 
REMARK    2  A    between atoms: C2_2  and  C4_5 
REMARK    3  A    between atoms: C4_5  and  N1_6 
REMARK       I    between atoms: N1_6  and  C5_8 
REMARK    4  A    between atoms: C5_8  and  C6_10 
REMARK    5  A    between atoms: C7_11  and  C8_12 
REMARK    6  A    between atoms: C18_23  and  O3_24 
REMARK    7  A    between atoms: C23_32  and  O5_33 
ROOT
HETATM    1  C8  UNL     1       0.717   2.633  -0.663  1.00  0.00     0.040 C 
HETATM    2  C9  UNL     1       0.640   3.954  -1.439  1.00  0.00     0.026 C 
HETATM    3  C10 UNL     1      -0.151   2.449   0.687  1.00  0.00     0.078 C 
HETATM    4  C11 UNL     1      -1.332   3.436   0.799  1.00  0.00     0.047 C 
HETATM    5  O2  UNL     1       0.285   2.242   2.049  1.00  0.00    -0.378 OA
HETATM    6  C12 UNL     1      -0.586   1.184   2.567  1.00  0.00     0.174 C 
HETATM    7  C13 UNL     1      -0.971   0.297   1.339  1.00  0.00     0.020 C 
HETATM    8  C14 UNL     1      -2.425   0.057   0.982  1.00  0.00     0.015 C 
HETATM    9  C15 UNL     1      -2.734  -1.372   0.424  1.00  0.00     0.030 C 
HETATM   10  C16 UNL     1      -4.226  -1.434  -0.085  1.00  0.00     0.020 C 
HETATM   11  C17 UNL     1      -5.077  -2.197   0.941  1.00  0.00     0.013 C 
HETATM   12  C18 UNL     1      -4.407  -1.955  -1.547  1.00  0.00     0.154 C 
HETATM   13  C19 UNL     1      -3.065  -2.394  -2.143  1.00  0.00     0.197 C 
HETATM   14  O4  UNL     1      -2.400  -3.229  -1.137  1.00  0.00    -0.365 OA
HETATM   15  C20 UNL     1      -1.767  -1.970  -0.639  1.00  0.00     0.103 C 
HETATM   16  C21 UNL     1      -0.387  -2.424  -0.149  1.00  0.00     0.050 C 
HETATM   17  C22 UNL     1      -1.789  -1.460  -2.134  1.00  0.00     0.190 C 
HETATM   18  F1  UNL     1      -0.751  -1.956  -2.878  1.00  0.00    -0.234 F 
HETATM   19  C23 UNL     1      -1.994  -0.037  -2.629  1.00  0.00     0.195 C 
HETATM   20  C24 UNL     1      -0.855   0.953  -2.393  1.00  0.00     0.191 A 
HETATM   21  O6  UNL     1      -1.431   2.060  -1.677  1.00  0.00    -0.365 OA
HETATM   22  C25 UNL     1      -0.257   1.497  -1.110  1.00  0.00     0.110 A 
HETATM   23  C26 UNL     1      -0.200   0.935   0.219  1.00  0.00     0.066 C 
ENDROOT
BRANCH   1  24
HETATM   24  C7  UNL     1       2.163   2.200  -0.580  1.00  0.00    -0.006 C 
HETATM   25  C6  UNL     1       2.956   2.695   0.388  1.00  0.00     0.071 C 
BRANCH  25  26
HETATM   26  C5  UNL     1       4.325   2.220   0.727  1.00  0.00     0.240 C 
HETATM   27  N1  UNL     1       4.585   0.925   0.340  1.00  0.00    -0.357 N 
ATOM     28  H1  UNL     1       4.186   0.549  -0.520  1.00  0.00     0.162 HD
HETATM   29  O1  UNL     1       5.068   2.897   1.428  1.00  0.00    -0.269 OA
BRANCH  27  30
HETATM   30  C4  UNL     1       5.435   0.107   1.178  1.00  0.00     0.128 C 
BRANCH  30  31
HETATM   31  C2  UNL     1       5.363  -1.393   0.840  1.00  0.00     0.013 C 
HETATM   32  C1  UNL     1       3.913  -1.906   0.811  1.00  0.00     0.012 C 
BRANCH  31  33
HETATM   33  C3  UNL     1       6.186  -2.158   1.885  1.00  0.00     0.120 C 
HETATM   34 CL1  UNL     1       6.512  -3.837   1.393  1.00  0.00    -0.130 Cl
ENDBRANCH  31  33
ENDBRANCH  30  31
ENDBRANCH  27  30
ENDBRANCH  25  26
ENDBRANCH   1  24
BRANCH  19  35
HETATM   35  O5  UNL     1      -3.236   0.508  -2.169  1.00  0.00    -0.389 OA
ATOM     36  H5  UNL     1      -3.364   1.397  -2.478  1.00  0.00     0.210 HD
ENDBRANCH  19  35
BRANCH  12  37
HETATM   37  O3  UNL     1      -5.316  -3.062  -1.565  1.00  0.00    -0.392 OA
ATOM     38  H3  UNL     1      -5.426  -3.379  -2.454  1.00  0.00     0.210 HD
ENDBRANCH  12  37
TORSDOF 7
