REMARK  1 active torsions:
REMARK  status: ('A' for Active; 'I' for Inactive)
REMARK    1  A    between atoms: N4_11  and  N5_13 
ROOT
HETATM    1  N1  UNL     1      -3.817   1.315  -0.090  1.00  0.00    -0.197 NA
HETATM    2  C1  UNL     1      -2.829   0.713  -0.023  1.00  0.00     0.066 C 
HETATM    3  C2  UNL     1      -1.592  -0.068   0.081  1.00  0.00     0.120 C 
HETATM    4  C3  UNL     1      -0.975  -0.312  -1.317  1.00  0.00     0.118 C 
HETATM    5  N2  UNL     1       0.463  -0.671  -1.201  1.00  0.00    -0.256 NA
HETATM    6  C4  UNL     1       0.693  -1.898  -0.397  1.00  0.00     0.113 C 
HETATM    7  C5  UNL     1       0.944  -1.331   1.017  1.00  0.00     0.113 C 
HETATM    8  N3  UNL     1       0.805   0.136   0.808  1.00  0.00    -0.256 NA
HETATM    9  C6  UNL     1      -0.590   0.615   1.044  1.00  0.00     0.118 C 
HETATM   10  C7  UNL     1       1.133   0.354  -0.539  1.00  0.00     0.150 C 
HETATM   11  N4  UNL     1       1.732   1.361  -1.079  1.00  0.00    -0.287 N 
ATOM     12  H4  UNL     1       1.792   1.493  -2.089  1.00  0.00     0.188 HD
ENDROOT
BRANCH  11  13
HETATM   13  N5  UNL     1       2.275   2.228  -0.191  1.00  0.00    -0.343 N 
ATOM     14  H52 UNL     1       2.207   2.083   0.816  1.00  0.00     0.176 HD
ATOM     15  H51 UNL     1       2.749   3.024  -0.618  1.00  0.00     0.176 HD
ENDBRANCH  11  13
TORSDOF 1
