REMARK  11 active torsions:
REMARK  status: ('A' for Active; 'I' for Inactive)
REMARK    1  A    between atoms: O1_2  and  C2_3 
REMARK    2  A    between atoms: C14_15  and  O2_16 
REMARK    3  A    between atoms: O2_16  and  C15_17 
REMARK    4  A    between atoms: C15_17  and  C16_19 
REMARK       I    between atoms: C16_19  and  N1_20 
REMARK    5  A    between atoms: C18_25  and  O5_26 
REMARK    6  A    between atoms: O5_26  and  C19_27 
REMARK    7  A    between atoms: C22_31  and  C24_33 
REMARK    8  A    between atoms: C25_34  and  C26_35 
REMARK    9  A    between atoms: C26_35  and  C27_37 
REMARK   10  A    between atoms: C27_37  and  O8_39 
REMARK   11  A    between atoms: C27_37  and  C29_41 
ROOT
HETATM    1  C2  UNL     1      -1.024  -0.466   1.742  1.00  0.00     0.137 C 
HETATM    2  C3  UNL     1      -1.526  -0.738   0.337  1.00  0.00     0.022 C 
HETATM    3  C4  UNL     1      -2.717  -0.166   0.160  1.00  0.00     0.020 C 
HETATM    4  C5  UNL     1      -2.572   1.228  -0.421  1.00  0.00    -0.004 C 
HETATM    5  C6  UNL     1      -1.633   1.633  -1.620  1.00  0.00     0.023 C 
HETATM    6  C7  UNL     1      -0.438   1.076  -0.848  1.00  0.00    -0.033 C 
HETATM    7  C8  UNL     1       0.836   1.596  -1.491  1.00  0.00     0.016 C 
HETATM    8  C9  UNL     1      -0.526  -0.484  -0.777  1.00  0.00     0.006 C 
HETATM    9  C10 UNL     1      -0.844  -1.056  -2.140  1.00  0.00     0.006 A 
HETATM   10  C11 UNL     1      -1.529  -2.365  -2.353  1.00  0.00     0.022 A 
HETATM   11  C12 UNL     1      -2.220  -1.109  -2.908  1.00  0.00     0.010 A 
HETATM   12  C13 UNL     1      -2.091  -0.878  -4.408  1.00  0.00     0.023 C 
HETATM   13  C14 UNL     1      -3.714  -0.859  -2.438  1.00  0.00     0.064 C 
HETATM   14  C17 UNL     1      -4.289   0.599  -2.208  1.00  0.00     0.040 C 
HETATM   15  C18 UNL     1      -3.932   1.590  -1.016  1.00  0.00     0.166 C 
HETATM   16  C21 UNL     1      -1.137   1.784   0.429  1.00  0.00     0.020 C 
HETATM   17  C22 UNL     1      -0.770   1.120   1.816  1.00  0.00     0.005 C 
HETATM   18  C23 UNL     1      -1.725   1.736   2.856  1.00  0.00     0.022 C 
ENDROOT
BRANCH  17  19
HETATM   19  C24 UNL     1       0.665   1.371   2.292  1.00  0.00    -0.011 C 
HETATM   20  C25 UNL     1       1.712   1.994   1.721  1.00  0.00     0.050 C 
BRANCH  20  21
HETATM   21  C26 UNL     1       3.081   1.827   2.341  1.00  0.00     0.183 C 
HETATM   22  O7  UNL     1       3.200   1.776   3.568  1.00  0.00    -0.290 OA
BRANCH  21  23
HETATM   23  C27 UNL     1       4.314   1.678   1.391  1.00  0.00     0.122 C 
HETATM   24  C28 UNL     1       5.429   2.585   1.941  1.00  0.00     0.055 C 
BRANCH  23  25
HETATM   25  O8  UNL     1       4.059   2.106   0.054  1.00  0.00    -0.382 OA
ATOM     26  H8  UNL     1       4.808   2.015  -0.523  1.00  0.00     0.211 HD
ENDBRANCH  23  25
BRANCH  23  27
HETATM   27  C29 UNL     1       4.767   0.172   1.340  1.00  0.00     0.039 C 
HETATM   28  C30 UNL     1       3.701  -0.723   0.676  1.00  0.00     0.020 C 
HETATM   29  C31 UNL     1       4.387  -1.821  -0.137  1.00  0.00     0.052 C 
HETATM   30  C32 UNL     1       4.298  -3.200   0.492  1.00  0.00     0.018 C 
HETATM   31  C33 UNL     1       5.817  -1.357  -0.227  1.00  0.00     0.135 C 
HETATM   32  O9  UNL     1       6.678  -1.965  -0.847  1.00  0.00    -0.297 OA
HETATM   33  C34 UNL     1       6.071  -0.073   0.539  1.00  0.00     0.059 C 
HETATM   34  C35 UNL     1       7.292  -0.255   1.439  1.00  0.00     0.018 C 
ENDBRANCH  23  27
ENDBRANCH  21  23
ENDBRANCH  20  21
ENDBRANCH  17  19
BRANCH   1  35
HETATM   35  O1  UNL     1       0.152  -1.237   1.966  1.00  0.00    -0.389 OA
HETATM   36  C1  UNL     1      -0.106  -2.385   2.758  1.00  0.00     0.202 C 
ENDBRANCH   1  35
BRANCH  15  37
HETATM   37  O5  UNL     1      -4.954   1.545   0.015  1.00  0.00    -0.311 OA
BRANCH  37  38
HETATM   38  C19 UNL     1      -5.983   2.433  -0.120  1.00  0.00     0.255 C 
HETATM   39  C20 UNL     1      -5.684   3.734   0.569  1.00  0.00     0.126 C 
HETATM   40  O6  UNL     1      -7.044   2.175  -0.673  1.00  0.00    -0.266 OA
ENDBRANCH  37  38
ENDBRANCH  15  37
BRANCH  13  41
HETATM   41  O2  UNL     1      -4.088  -1.835  -1.445  1.00  0.00    -0.275 OA
BRANCH  41  42
HETATM   42  C15 UNL     1      -4.817  -2.870  -1.935  1.00  0.00     0.356 C 
HETATM   43  O3  UNL     1      -5.588  -2.835  -2.876  1.00  0.00    -0.253 OA
BRANCH  42  44
HETATM   44  C16 UNL     1      -4.426  -4.189  -1.223  1.00  0.00     0.315 C 
HETATM   45  N1  UNL     1      -4.054  -4.095   0.096  1.00  0.00    -0.361 N 
ATOM     46  H12 UNL     1      -4.070  -3.205   0.594  1.00  0.00     0.159 HD
ATOM     47  H11 UNL     1      -3.797  -4.964   0.565  1.00  0.00     0.159 HD
HETATM   48  O4  UNL     1      -4.407  -5.255  -1.820  1.00  0.00    -0.262 OA
ENDBRANCH  42  44
ENDBRANCH  41  42
ENDBRANCH  13  41
TORSDOF 11
