REMARK  6 active torsions:
REMARK  status: ('A' for Active; 'I' for Inactive)
REMARK    1  A    between atoms: C2_2  and  C3_3 
REMARK    2  A    between atoms: C5_5  and  N1_6 
REMARK       I    between atoms: N1_6  and  C6_8 
REMARK    3  A    between atoms: C6_8  and  C7_10 
REMARK    4  A    between atoms: C16_20  and  C17_21 
REMARK       I    between atoms: C17_21  and  N2_23 
REMARK    5  A    between atoms: N2_23  and  C18_25 
REMARK    6  A    between atoms: C24_33  and  C25_34 
ROOT
HETATM    1  C3  UNL     1       1.085  -2.551  -1.635  1.00  0.00    -0.009 C 
HETATM    2  C4  UNL     1      -0.240  -3.097  -2.186  1.00  0.00     0.018 C 
HETATM    3  C5  UNL     1       0.995  -1.778  -0.268  1.00  0.00     0.107 C 
HETATM    4  C16 UNL     1       1.224  -0.440  -0.998  1.00  0.00     0.116 C 
HETATM    5  C24 UNL     1       1.550  -1.227  -2.315  1.00  0.00     0.112 C 
ENDROOT
BRANCH   3   6
HETATM    6  N1  UNL     1      -0.215  -2.143   0.496  1.00  0.00    -0.354 N 
HETATM    7  C6  UNL     1      -1.173  -1.495   1.209  1.00  0.00     0.222 C 
HETATM    8  O1  UNL     1      -1.845  -2.199   1.966  1.00  0.00    -0.273 OA
ATOM      9  H1  UNL     1      -0.374  -3.150   0.486  1.00  0.00     0.162 HD
BRANCH   7  10
HETATM   10  C7  UNL     1      -1.461  -0.015   1.027  1.00  0.00     0.081 C 
HETATM   11  C8  UNL     1      -2.450   0.129  -0.232  1.00  0.00     0.019 C 
HETATM   12  C9  UNL     1      -3.462   1.333  -0.250  1.00  0.00    -0.009 C 
HETATM   13  C10 UNL     1      -4.981   1.018   0.011  1.00  0.00     0.037 C 
HETATM   14  C14 UNL     1      -3.105   2.188   0.923  1.00  0.00     0.043 C 
HETATM   15  C11 UNL     1      -5.203   0.735   1.521  1.00  0.00     0.125 C 
HETATM   16  C12 UNL     1      -4.679   1.636   2.732  1.00  0.00     0.070 C 
HETATM   17  O2  UNL     1      -4.076  -0.102   1.846  1.00  0.00    -0.375 OA
HETATM   18  C13 UNL     1      -3.303   1.202   2.124  1.00  0.00     0.065 C 
HETATM   19  C15 UNL     1      -1.939   0.633   2.402  1.00  0.00     0.052 C 
ENDBRANCH   7  10
ENDBRANCH   3   6
BRANCH   1  20
HETATM   20  C2  UNL     1       2.166  -3.650  -1.523  1.00  0.00     0.007 C 
HETATM   21  C1  UNL     1       2.544  -4.261  -2.863  1.00  0.00     0.006 C 
ENDBRANCH   1  20
BRANCH   4  22
HETATM   22  C17 UNL     1       2.452   0.404  -0.486  1.00  0.00     0.229 C 
HETATM   23  O3  UNL     1       3.623   0.053  -0.659  1.00  0.00    -0.273 OA
HETATM   24  N2  UNL     1       2.105   1.531   0.251  1.00  0.00    -0.326 N 
ATOM     25  H2  UNL     1       1.131   1.833   0.281  1.00  0.00     0.169 HD
BRANCH  24  26
HETATM   26  C18 UNL     1       3.087   2.264   0.960  1.00  0.00     0.052 A 
HETATM   27  C19 UNL     1       2.914   2.347   2.345  1.00  0.00     0.032 A 
HETATM   28  C20 UNL     1       3.872   2.978   3.142  1.00  0.00     0.021 A 
HETATM   29  C21 UNL     1       4.986   3.566   2.545  1.00  0.00     0.012 A 
HETATM   30 BR1  UNL     1       6.276   4.420   3.632  1.00  0.00    -0.051 Br
HETATM   31  C22 UNL     1       5.143   3.543   1.161  1.00  0.00     0.040 A 
HETATM   32  C23 UNL     1       4.190   2.897   0.361  1.00  0.00     0.039 A 
HETATM   33 BR2  UNL     1       4.380   3.072  -1.525  1.00  0.00    -0.049 Br
ENDBRANCH  24  26
ENDBRANCH   4  22
BRANCH   5  34
HETATM   34  C25 UNL     1       0.877  -0.783  -3.633  1.00  0.00     0.178 C 
HETATM   35  O4  UNL     1       1.086  -1.214  -4.762  1.00  0.00    -0.648 OA
HETATM   36  O5  UNL     1      -0.049   0.195  -3.489  1.00  0.00    -0.648 OA
ENDBRANCH   5  34
TORSDOF 6
