REMARK  8 active torsions:
REMARK  status: ('A' for Active; 'I' for Inactive)
REMARK    1  A    between atoms: C2_2  and  C3_3 
REMARK    2  A    between atoms: C2_2  and  C5_8 
REMARK       I    between atoms: C3_3  and  N1_5 
REMARK    3  A    between atoms: C11_14  and  C12_15 
REMARK    4  A    between atoms: C12_15  and  O2_16 
REMARK    5  A    between atoms: C12_15  and  C13_18 
REMARK    6  A    between atoms: C22_29  and  O4_30 
REMARK    7  A    between atoms: O4_30  and  C23_31 
REMARK       I    between atoms: C23_31  and  N2_33 
REMARK    8  A    between atoms: N2_33  and  C24_35 
ROOT
HETATM    1  C13 UNL     1       0.439  -0.465   1.079  1.00  0.00     0.181 C 
HETATM    2  O3  UNL     1      -0.141  -0.840   2.347  1.00  0.00    -0.376 OA
HETATM    3  C14 UNL     1       0.714  -1.452   3.345  1.00  0.00     0.208 C 
HETATM    4  C15 UNL     1       0.389  -2.961   3.403  1.00  0.00    -0.017 C 
HETATM    5  C16 UNL     1      -0.987  -3.216   3.286  1.00  0.00     0.011 C 
HETATM    6  C17 UNL     1      -1.415  -3.513   2.005  1.00  0.00     0.008 C 
HETATM    7  C18 UNL     1      -0.415  -3.670   1.040  1.00  0.00    -0.054 C 
HETATM    8  C19 UNL     1       0.850  -4.129   1.410  1.00  0.00     0.027 C 
HETATM    9  C20 UNL     1       1.267  -3.761   2.674  1.00  0.00     0.019 C 
HETATM   10 BR1  UNL     1       3.092  -3.912   3.142  1.00  0.00    -0.050 Br
HETATM   11  C21 UNL     1      -0.486  -2.767  -0.175  1.00  0.00     0.073 C 
HETATM   12  C22 UNL     1       0.473  -1.531  -0.089  1.00  0.00     0.169 C 
ENDROOT
BRANCH   1  13
HETATM   13  C12 UNL     1      -0.372   0.812   0.697  1.00  0.00     0.158 C 
BRANCH  13  14
HETATM   14  C11 UNL     1       0.128   1.588  -0.553  1.00  0.00     0.047 C 
HETATM   15  C5  UNL     1      -0.810   1.812  -1.789  1.00  0.00    -0.058 C 
HETATM   16  C6  UNL     1      -1.796   2.999  -1.665  1.00  0.00     0.036 C 
HETATM   17  C7  UNL     1      -1.805   3.643  -0.286  1.00  0.00     0.008 C 
HETATM   18  C8  UNL     1      -0.395   4.040   0.173  1.00  0.00    -0.018 C 
HETATM   19  C9  UNL     1      -0.409   4.432   1.654  1.00  0.00     0.010 C 
HETATM   20  C10 UNL     1       0.679   2.972  -0.125  1.00  0.00     0.016 C 
BRANCH  15  21
HETATM   21  C2  UNL     1      -1.334   0.573  -2.511  1.00  0.00     0.025 C 
HETATM   22  C1  UNL     1      -0.556  -0.077  -3.399  1.00  0.00     0.029 C 
BRANCH  21  23
HETATM   23  C3  UNL     1      -2.741   0.053  -2.415  1.00  0.00     0.250 C 
HETATM   24  O1  UNL     1      -3.230  -0.666  -3.284  1.00  0.00    -0.268 OA
HETATM   25  N1  UNL     1      -3.421   0.417  -1.288  1.00  0.00    -0.361 N 
HETATM   26  C4  UNL     1      -4.700  -0.148  -0.966  1.00  0.00     0.149 C 
ATOM     27  H1  UNL     1      -3.010   1.107  -0.660  1.00  0.00     0.162 HD
ENDBRANCH  21  23
ENDBRANCH  15  21
ENDBRANCH  13  14
BRANCH  13  28
HETATM   28  O2  UNL     1      -1.754   0.480   0.656  1.00  0.00    -0.392 OA
ATOM     29  H2  UNL     1      -2.060   0.006   1.420  1.00  0.00     0.210 HD
ENDBRANCH  13  28
ENDBRANCH   1  13
BRANCH  12  30
HETATM   30  O4  UNL     1       1.884  -1.902  -0.172  1.00  0.00    -0.296 OA
BRANCH  30  31
HETATM   31  C23 UNL     1       2.362  -2.185  -1.403  1.00  0.00     0.361 C 
HETATM   32  O5  UNL     1       1.684  -2.502  -2.366  1.00  0.00    -0.238 OA
HETATM   33  N2  UNL     1       3.706  -2.004  -1.500  1.00  0.00    -0.323 N 
ATOM     34  H2  UNL     1       4.165  -2.374  -2.332  1.00  0.00     0.166 HD
BRANCH  33  35
HETATM   35  C24 UNL     1       4.537  -1.339  -0.536  1.00  0.00     0.155 C 
HETATM   36  C25 UNL     1       4.381   0.177  -0.566  1.00  0.00     0.044 C 
HETATM   37 BR2  UNL     1       6.387  -1.759  -0.997  1.00  0.00    -0.069 Br
ENDBRANCH  33  35
ENDBRANCH  30  31
ENDBRANCH  12  30
TORSDOF 8
