REMARK  6 active torsions:
REMARK  status: ('A' for Active; 'I' for Inactive)
REMARK    1  A    between atoms: C4_4  and  N1_5 
REMARK    2  A    between atoms: N1_5  and  C5_7 
REMARK    3  A    between atoms: C6_8  and  N2_9 
REMARK    4  A    between atoms: N2_9  and  C7_11 
REMARK    5  A    between atoms: C10_14  and  C11_15 
REMARK    6  A    between atoms: C11_15  and  N3_16 
ROOT
HETATM    1  C5  UNL     1       1.044  -2.182  -0.309  1.00  0.00     0.114 A 
HETATM    2  C6  UNL     1      -0.150  -1.981  -0.956  1.00  0.00     0.114 A 
HETATM    3  C14 UNL     1      -0.217  -3.400  -1.390  1.00  0.00     0.252 A 
HETATM    4  O1  UNL     1      -0.937  -4.119  -2.036  1.00  0.00    -0.281 OA
HETATM    5  C15 UNL     1       1.035  -3.632  -0.633  1.00  0.00     0.252 A 
HETATM    6  O2  UNL     1       1.703  -4.612  -0.415  1.00  0.00    -0.281 OA
ENDROOT
BRANCH   2   7
HETATM    7  N2  UNL     1      -1.017  -1.012  -1.196  1.00  0.00    -0.380 N 
ATOM      8  H2  UNL     1      -1.193  -0.714  -2.155  1.00  0.00     0.160 HD
BRANCH   7   9
HETATM    9  C7  UNL     1      -1.730  -0.362  -0.084  1.00  0.00     0.082 C 
HETATM   10  C8  UNL     1      -1.820   1.143  -0.348  1.00  0.00     0.025 C 
HETATM   11  C9  UNL     1      -2.671   1.848   0.709  1.00  0.00     0.008 C 
HETATM   12  C10 UNL     1      -4.085   1.250   0.795  1.00  0.00     0.011 C 
HETATM   13  C12 UNL     1      -4.000  -0.261   1.068  1.00  0.00     0.008 C 
HETATM   14  C13 UNL     1      -3.132  -0.978   0.035  1.00  0.00     0.025 C 
BRANCH  12  15
HETATM   15  C11 UNL     1      -4.910   1.991   1.864  1.00  0.00     0.234 C 
BRANCH  15  16
HETATM   16  N3  UNL     1      -6.317   1.611   1.823  1.00  0.00    -0.079 N 
ATOM     17  H33 UNL     1      -6.711   1.745   0.892  1.00  0.00     0.274 HD
ATOM     18  H32 UNL     1      -6.431   0.600   1.901  1.00  0.00     0.274 HD
ATOM     19  H31 UNL     1      -6.863   2.102   2.531  1.00  0.00     0.274 HD
ENDBRANCH  15  16
ENDBRANCH  12  15
ENDBRANCH   7   9
ENDBRANCH   2   7
BRANCH   1  20
HETATM   20  N1  UNL     1       1.962  -1.496   0.362  1.00  0.00    -0.379 N 
ATOM     21  H1  UNL     1       1.800  -1.187   1.321  1.00  0.00     0.160 HD
BRANCH  20  22
HETATM   22  C4  UNL     1       3.208  -1.204  -0.328  1.00  0.00     0.094 C 
HETATM   23  C2  UNL     1       3.225   0.071  -1.237  1.00  0.00    -0.022 C 
HETATM   24  C1  UNL     1       2.049   1.044  -1.194  1.00  0.00     0.017 C 
HETATM   25  C3  UNL     1       3.523  -0.299  -2.699  1.00  0.00     0.017 C 
HETATM   26  C19 UNL     1       4.534   0.499  -0.503  1.00  0.00     0.016 C 
HETATM   27  C16 UNL     1       4.285  -0.580   0.566  1.00  0.00     0.016 C 
HETATM   28  C18 UNL     1       4.413   1.580   0.586  1.00  0.00     0.063 C 
HETATM   29  C17 UNL     1       3.859   0.513   1.555  1.00  0.00     0.023 C 
HETATM   30 BR1  UNL     1       6.127   2.351   1.121  1.00  0.00    -0.091 Br
ENDBRANCH  20  22
ENDBRANCH   1  20
TORSDOF 6
