REMARK  7 active torsions:
REMARK  status: ('A' for Active; 'I' for Inactive)
REMARK    1  A    between atoms: O1_2  and  C2_3 
REMARK    2  A    between atoms: C11_13  and  C12_14 
REMARK    3  A    between atoms: C12_14  and  O2_15 
REMARK    4  A    between atoms: C15_19  and  C16_20 
REMARK    5  A    between atoms: C16_20  and  O3_21 
REMARK    6  A    between atoms: C17_23  and  C18_24 
REMARK    7  A    between atoms: C23_29  and  O4_30 
ROOT
HETATM    1  C2  UNL     1       0.539  -0.965  -0.740  1.00  0.00     0.119 C 
HETATM    2  C3  UNL     1       1.454  -1.602   0.354  1.00  0.00     0.068 C 
HETATM    3  C4  UNL     1       2.460  -2.322  -0.260  1.00  0.00     0.155 C 
HETATM    4  C5  UNL     1       3.557  -2.827   0.438  1.00  0.00     0.047 C 
HETATM    5  C6  UNL     1       3.858  -2.193   1.637  1.00  0.00     0.111 C 
HETATM    6  F1  UNL     1       4.953  -2.546   2.323  1.00  0.00    -0.207 F 
HETATM    7  C7  UNL     1       3.163  -1.040   1.997  1.00  0.00     0.021 C 
HETATM    8  C8  UNL     1       2.117  -0.651   1.146  1.00  0.00     0.028 C 
HETATM    9  C9  UNL     1       2.404   0.532   0.112  1.00  0.00     0.031 C 
HETATM   10  C10 UNL     1       1.469   1.700   0.420  1.00  0.00     0.005 C 
HETATM   11  C11 UNL     1       1.107   3.233   0.543  1.00  0.00     0.020 C 
HETATM   12  C13 UNL     1      -0.261   2.787  -0.137  1.00  0.00     0.013 A 
HETATM   13  C14 UNL     1       0.690   1.928  -0.850  1.00  0.00     0.012 A 
HETATM   14  C15 UNL     1      -0.663   1.388  -0.914  1.00  0.00     0.017 A 
HETATM   15  C17 UNL     1      -0.661  -0.017  -0.205  1.00  0.00    -0.018 C 
HETATM   16  C24 UNL     1       1.901  -0.314  -1.169  1.00  0.00     0.167 C 
HETATM   17  O5  UNL     1       2.811  -1.493  -1.402  1.00  0.00    -0.372 OA
ENDROOT
BRANCH  15  18
HETATM   18  C18 UNL     1      -1.976  -0.708   0.207  1.00  0.00     0.003 A 
HETATM   19  C19 UNL     1      -1.869  -1.589   1.319  1.00  0.00     0.014 A 
HETATM   20  C20 UNL     1      -2.954  -2.306   1.827  1.00  0.00     0.001 A 
HETATM   21  C21 UNL     1      -4.201  -2.161   1.244  1.00  0.00     0.003 A 
HETATM   22  C22 UNL     1      -4.351  -1.297   0.164  1.00  0.00     0.037 A 
HETATM   23  C23 UNL     1      -3.254  -0.580  -0.344  1.00  0.00     0.076 A 
BRANCH  23  24
HETATM   24  O4  UNL     1      -3.498   0.240  -1.401  1.00  0.00    -0.360 OA
ATOM     25  H4  UNL     1      -4.367   0.327  -1.776  1.00  0.00     0.217 HD
ENDBRANCH  23  24
ENDBRANCH  15  18
BRANCH   1  26
HETATM   26  O1  UNL     1       0.139  -1.794  -1.843  1.00  0.00    -0.377 OA
HETATM   27  C1  UNL     1      -0.595  -2.964  -1.525  1.00  0.00     0.203 C 
ENDBRANCH   1  26
BRANCH  14  28
HETATM   28  C16 UNL     1      -1.312   1.459  -2.285  1.00  0.00     0.179 C 
BRANCH  28  29
HETATM   29  O3  UNL     1      -0.512   2.192  -3.216  1.00  0.00    -0.400 OA
ATOM     30  H3  UNL     1      -0.918   2.236  -4.074  1.00  0.00     0.209 HD
ENDBRANCH  28  29
ENDBRANCH  14  28
BRANCH  11  31
HETATM   31  C12 UNL     1       0.985   3.881   1.919  1.00  0.00     0.169 C 
BRANCH  31  32
HETATM   32  O2  UNL     1       0.153   3.122   2.789  1.00  0.00    -0.400 OA
ATOM     33  H2  UNL     1       0.077   3.525   3.646  1.00  0.00     0.209 HD
ENDBRANCH  31  32
ENDBRANCH  11  31
TORSDOF 7
