REMARK  6 active torsions:
REMARK  status: ('A' for Active; 'I' for Inactive)
REMARK    1  A    between atoms: C2_3  and  C3_4 
REMARK    2  A    between atoms: C3_4  and  O1_5 
REMARK    3  A    between atoms: C8_14  and  C9_15 
REMARK    4  A    between atoms: C9_15  and  O3_16 
REMARK    5  A    between atoms: C12_21  and  C13_22 
REMARK    6  A    between atoms: C13_22  and  O5_23 
ROOT
HETATM    1  N1  UNL     1       5.705   0.625  -2.660  1.00  0.00    -0.197 NA
HETATM    2  C1  UNL     1       4.561   0.561  -2.472  1.00  0.00     0.064 C 
HETATM    3  C2  UNL     1       3.117   0.451  -2.267  1.00  0.00     0.185 C 
ENDROOT
BRANCH   3   4
HETATM    4  C3  UNL     1       2.756  -0.107  -0.879  1.00  0.00     0.153 C 
HETATM    5  N2  UNL     1       3.265  -1.413  -0.629  1.00  0.00    -0.328 N 
HETATM    6  C4  UNL     1       2.353  -2.268  -0.059  1.00  0.00     0.227 C 
ATOM      7  H2  UNL     1       4.221  -1.689  -0.853  1.00  0.00     0.165 HD
HETATM    8  O2  UNL     1       2.626  -3.389   0.329  1.00  0.00    -0.273 OA
HETATM    9  C5  UNL     1       0.996  -1.605  -0.016  1.00  0.00     0.122 C 
HETATM   10  C6  UNL     1       0.488  -1.518   1.430  1.00  0.00     0.165 C 
HETATM   11  C18 UNL     1       1.228  -0.275  -0.766  1.00  0.00     0.091 C 
HETATM   12  C7  UNL     1       0.542  -0.153   2.065  1.00  0.00     0.013 C 
HETATM   13  O6  UNL     1      -0.812  -2.142   1.524  1.00  0.00    -0.345 OA
HETATM   14  C8  UNL     1       0.528   0.985   1.345  1.00  0.00    -0.029 C 
HETATM   15  C10 UNL     1       0.455   0.909  -0.168  1.00  0.00     0.162 C 
HETATM   16  O4  UNL     1      -0.885   0.737  -0.683  1.00  0.00    -0.374 OA
HETATM   17  C11 UNL     1      -2.056   0.924   0.142  1.00  0.00     0.140 A 
HETATM   18  C12 UNL     1      -3.410   0.497  -0.505  1.00  0.00     0.048 A 
HETATM   19  C17 UNL     1      -2.329  -0.062   1.300  1.00  0.00     0.080 A 
HETATM   20  C14 UNL     1      -3.627  -0.511   0.636  1.00  0.00     0.032 A 
HETATM   21  C15 UNL     1      -2.979  -1.856   0.489  1.00  0.00     0.012 A 
HETATM   22  C16 UNL     1      -1.839  -1.500   1.120  1.00  0.00     0.051 A 
BRANCH   4  23
HETATM   23  O1  UNL     1       3.266   0.718   0.142  1.00  0.00    -0.369 OA
ATOM     24  H1  UNL     1       3.043   0.374   0.999  1.00  0.00     0.212 HD
ENDBRANCH   4  23
BRANCH  14  25
HETATM   25  C9  UNL     1       0.615   2.353   1.968  1.00  0.00     0.200 C 
BRANCH  25  26
HETATM   26  O3  UNL     1      -0.030   2.370   3.237  1.00  0.00    -0.397 OA
ATOM     27  H3  UNL     1       0.025   3.233   3.630  1.00  0.00     0.209 HD
ENDBRANCH  25  26
ENDBRANCH  14  25
BRANCH  18  28
HETATM   28  C13 UNL     1      -3.435  -0.057  -1.920  1.00  0.00     0.172 C 
BRANCH  28  29
HETATM   29  O5  UNL     1      -3.026   0.957  -2.832  1.00  0.00    -0.400 OA
ATOM     30  H5  UNL     1      -3.042   0.611  -3.716  1.00  0.00     0.209 HD
ENDBRANCH  28  29
ENDBRANCH  18  28
ENDBRANCH   3   4
TORSDOF 6
