REMARK  8 active torsions:
REMARK  status: ('A' for Active; 'I' for Inactive)
REMARK    1  A    between atoms: C3_7  and  C4_8 
REMARK    2  A    between atoms: C4_8  and  O2_9 
REMARK    3  A    between atoms: O2_9  and  C5_10 
REMARK    4  A    between atoms: C7_12  and  C13_22 
REMARK    5  A    between atoms: C8_13  and  O3_14 
REMARK    6  A    between atoms: C12_19  and  O4_20 
REMARK    7  A    between atoms: C14_24  and  O6_25 
REMARK    8  A    between atoms: C14_24  and  C16_28 
ROOT
HETATM    1  C5  UNL     1       0.144   1.398  -0.186  1.00  0.00     0.135 C 
HETATM    2  C6  UNL     1       0.271   0.775  -1.703  1.00  0.00     0.043 C 
HETATM    3  C7  UNL     1       1.775   0.265  -1.897  1.00  0.00     0.056 C 
HETATM    4  C8  UNL     1       2.388   1.375  -0.899  1.00  0.00     0.138 C 
HETATM    5  C9  UNL     1       1.570   0.951   0.564  1.00  0.00     0.036 A 
HETATM    6  C10 UNL     1       1.050  -0.332   0.496  1.00  0.00     0.006 A 
HETATM    7  C11 UNL     1       3.067  -0.338   0.518  1.00  0.00     0.044 A 
HETATM    8  C12 UNL     1       3.637  -1.084  -0.617  1.00  0.00     0.159 C 
HETATM    9  C13 UNL     1       2.256  -1.153  -1.257  1.00  0.00     0.106 C 
HETATM   10  O5  UNL     1       2.066  -2.624  -1.231  1.00  0.00    -0.339 OA
HETATM   11  C14 UNL     1       1.673  -2.286   0.411  1.00  0.00     0.180 C 
HETATM   12  C15 UNL     1       0.927  -1.342  -0.474  1.00  0.00     0.097 C 
HETATM   13  C16 UNL     1       2.210  -0.767   1.525  1.00  0.00     0.046 A 
ENDROOT
BRANCH   1  14
HETATM   14  O2  UNL     1      -1.010   1.056   0.579  1.00  0.00    -0.383 OA
BRANCH  14  15
HETATM   15  C4  UNL     1      -2.258   1.169  -0.102  1.00  0.00     0.193 C 
BRANCH  15  16
HETATM   16  C3  UNL     1      -3.359   1.043   0.941  1.00  0.00     0.164 C 
HETATM   17  C1  UNL     1      -3.510  -0.398   1.426  1.00  0.00     0.234 C 
HETATM   18  O1  UNL     1      -2.604  -1.166   1.724  1.00  0.00    -0.272 OA
HETATM   19  N1  UNL     1      -4.829  -0.763   1.539  1.00  0.00    -0.351 N 
HETATM   20  C2  UNL     1      -5.834   0.192   1.204  1.00  0.00     0.197 C 
ATOM     21  H1  UNL     1      -5.085  -1.698   1.856  1.00  0.00     0.163 HD
HETATM   22  S1  UNL     1      -5.002   1.482   0.272  1.00  0.00    -0.133 SA
ENDBRANCH  15  16
ENDBRANCH  14  15
ENDBRANCH   1  14
BRANCH   4  23
HETATM   23  O3  UNL     1       2.082   2.715  -1.305  1.00  0.00    -0.394 OA
ATOM     24  H3  UNL     1       2.443   3.368  -0.717  1.00  0.00     0.210 HD
ENDBRANCH   4  23
BRANCH   8  25
HETATM   25  O4  UNL     1       4.578  -0.369  -1.395  1.00  0.00    -0.392 OA
ATOM     26  H4  UNL     1       4.946  -0.850  -2.127  1.00  0.00     0.210 HD
ENDBRANCH   8  25
BRANCH  11  27
HETATM   27  O6  UNL     1       0.965  -3.335   1.070  1.00  0.00    -0.364 OA
ATOM     28  H6  UNL     1       0.748  -3.149   1.976  1.00  0.00     0.213 HD
ENDBRANCH  11  27
TORSDOF 8
