REMARK  9 active torsions:
REMARK  status: ('A' for Active; 'I' for Inactive)
REMARK    1  A    between atoms: C5_5  and  S1_6 
REMARK    2  A    between atoms: S1_6  and  C6_7 
REMARK       I    between atoms: N1_9  and  C8_10 
REMARK    3  A    between atoms: C8_10  and  C9_12 
REMARK    4  A    between atoms: C15_18  and  O2_19 
REMARK    5  A    between atoms: C16_21  and  O3_22 
REMARK    6  A    between atoms: C16_21  and  C17_24 
REMARK    7  A    between atoms: C18_25  and  C19_26 
REMARK    8  A    between atoms: C19_26  and  O4_28 
REMARK    9  A    between atoms: C19_26  and  O5_30 
ROOT
HETATM    1  C1  UNL     1      -4.773  -3.641   0.456  1.00  0.00     0.012 C 
HETATM    2  C2  UNL     1      -4.551  -2.593  -0.080  1.00  0.00    -0.111 C 
HETATM    3  C3  UNL     1      -4.287  -1.334  -0.720  1.00  0.00     0.079 A 
HETATM    4  C4  UNL     1      -2.979  -1.174  -1.450  1.00  0.00     0.034 A 
HETATM    5  C5  UNL     1      -3.235  -0.378  -0.199  1.00  0.00     0.064 A 
ENDROOT
BRANCH   5   6
HETATM    6  S1  UNL     1      -2.309  -0.694   1.243  1.00  0.00    -0.152 SA
BRANCH   6   7
HETATM    7  C6  UNL     1      -0.655  -0.050   0.762  1.00  0.00     0.124 C 
HETATM    8  C7  UNL     1       0.463  -0.630   1.638  1.00  0.00     0.147 A 
HETATM    9  N1  UNL     1       1.730  -0.796   0.956  1.00  0.00    -0.331 N 
HETATM   10  C15 UNL     1       0.918   0.786   2.065  1.00  0.00     0.147 A 
HETATM   11  C8  UNL     1       2.153  -1.679  -0.003  1.00  0.00     0.224 C 
HETATM   12  C12 UNL     1       2.275   0.505   1.349  1.00  0.00     0.065 A 
HETATM   13  O1  UNL     1       3.206  -1.526  -0.618  1.00  0.00    -0.273 OA
HETATM   14  C13 UNL     1       3.434   0.288   2.332  1.00  0.00     0.041 C 
HETATM   15  C14 UNL     1       2.718   1.352   0.166  1.00  0.00     0.041 C 
HETATM   16  C16 UNL     1      -0.338   1.365   1.322  1.00  0.00     0.170 C 
BRANCH  11  17
HETATM   17  C9  UNL     1       1.259  -2.892  -0.231  1.00  0.00     0.070 C 
HETATM   18  C10 UNL     1       1.355  -3.370  -1.677  1.00  0.00     0.019 C 
HETATM   19  C11 UNL     1       1.665  -4.004   0.728  1.00  0.00     0.019 C 
ENDBRANCH  11  17
BRANCH  10  20
HETATM   20  O2  UNL     1       0.966   1.074   3.490  1.00  0.00    -0.381 OA
ATOM     21  H2  UNL     1       1.245   1.943   3.752  1.00  0.00     0.211 HD
ENDBRANCH  10  20
BRANCH  16  22
HETATM   22  O3  UNL     1      -1.293   1.924   2.275  1.00  0.00    -0.373 OA
ATOM     23  H3  UNL     1      -1.099   2.789   2.617  1.00  0.00     0.212 HD
ENDBRANCH  16  22
BRANCH  16  24
HETATM   24  C17 UNL     1      -0.192   2.370   0.294  1.00  0.00    -0.058 C 
HETATM   25  C18 UNL     1      -0.213   3.167  -0.607  1.00  0.00    -0.036 C 
BRANCH  25  26
HETATM   26  C19 UNL     1      -0.306   4.090  -1.742  1.00  0.00     0.224 C 
HETATM   27  C20 UNL     1      -1.443   3.684  -2.672  1.00  0.00     0.094 C 
BRANCH  26  28
HETATM   28  O4  UNL     1       0.902   4.081  -2.469  1.00  0.00    -0.356 OA
ATOM     29  H4  UNL     1       0.842   4.679  -3.205  1.00  0.00     0.214 HD
ENDBRANCH  26  28
BRANCH  26  30
HETATM   30  O5  UNL     1      -0.504   5.401  -1.267  1.00  0.00    -0.356 OA
ATOM     31  H5  UNL     1      -0.564   5.999  -2.003  1.00  0.00     0.214 HD
ENDBRANCH  26  30
ENDBRANCH  25  26
ENDBRANCH  16  24
ENDBRANCH   6   7
ENDBRANCH   5   6
TORSDOF 9
