REMARK  5 active torsions:
REMARK  status: ('A' for Active; 'I' for Inactive)
REMARK    1  A    between atoms: O1_2  and  C2_3 
REMARK    2  A    between atoms: C5_7  and  O2_8 
REMARK    3  A    between atoms: C6_10  and  C7_11 
REMARK    4  A    between atoms: C9_14  and  C10_15 
REMARK    5  A    between atoms: C10_15  and  O3_16 
ROOT
HETATM    1  C2  UNL     1       0.035   1.622   0.068  1.00  0.00     0.124 C 
HETATM    2  C3  UNL     1      -0.479   1.166   1.536  1.00  0.00     0.149 C 
HETATM    3  C4  UNL     1       0.203  -0.095   2.155  1.00  0.00     0.305 C 
HETATM    4  N1  UNL     1       0.452  -1.300   1.327  1.00  0.00     0.137 N 
HETATM    5  C5  UNL     1       1.609  -1.003   0.413  1.00  0.00     0.371 C 
HETATM    6  C6  UNL     1       1.521   0.146  -0.683  1.00  0.00     0.069 C 
HETATM    7  C8  UNL     1       0.023   0.548  -1.330  1.00  0.00     0.060 C 
HETATM    8  C9  UNL     1      -0.919  -0.731  -1.673  1.00  0.00     0.034 C 
HETATM    9  C11 UNL     1      -2.346  -1.279  -1.860  1.00  0.00    -0.010 C 
HETATM   10  C12 UNL     1      -3.054  -2.031  -1.209  1.00  0.00    -0.003 C 
HETATM   11  C13 UNL     1      -3.173  -2.601   0.157  1.00  0.00    -0.001 C 
HETATM   12  C14 UNL     1      -2.129  -2.474   1.067  1.00  0.00     0.019 C 
HETATM   13  C15 UNL     1      -0.718  -1.902   0.615  1.00  0.00     0.203 C 
HETATM   14  C16 UNL     1      -0.218  -3.305   0.120  1.00  0.00     0.059 C 
HETATM   15  C17 UNL     1      -1.192  -0.770  -0.216  1.00  0.00    -0.008 C 
HETATM   16  C18 UNL     1      -2.092   0.180   0.253  1.00  0.00     0.092 C 
HETATM   17  N2  UNL     1      -1.910   0.798   1.463  1.00  0.00    -0.384 N 
HETATM   18  C19 UNL     1      -2.873   1.766   1.969  1.00  0.00     0.149 C 
HETATM   19  C20 UNL     1       1.512   1.550  -0.122  1.00  0.00     0.195 A 
HETATM   20  C21 UNL     1       2.588   2.289   0.598  1.00  0.00     0.276 A 
HETATM   21  N3  UNL     1       2.242   2.648  -0.776  1.00  0.00    -0.058 N 
ATOM     22  H31 UNL     1       1.964   3.513  -1.239  1.00  0.00     0.278 HD
ATOM     23  H32 UNL     1       2.769   2.736  -1.645  1.00  0.00     0.278 HD
ENDROOT
BRANCH   1  24
HETATM   24  O1  UNL     1      -0.612   2.888  -0.332  1.00  0.00    -0.380 OA
HETATM   25  C1  UNL     1      -0.492   4.036   0.496  1.00  0.00     0.202 C 
ENDBRANCH   1  24
BRANCH   6  26
HETATM   26  C7  UNL     1       2.570  -0.094  -1.813  1.00  0.00     0.103 C 
HETATM   27  S1  UNL     1       4.354  -0.087  -1.385  1.00  0.00    -0.097 SA
ENDBRANCH   6  26
BRANCH   5  28
HETATM   28  O2  UNL     1       2.731  -0.759   1.260  1.00  0.00    -0.367 OA
ATOM     29  H2  UNL     1       3.462  -0.571   0.683  1.00  0.00     0.212 HD
ENDBRANCH   5  28
BRANCH   8  30
HETATM   30  C10 UNL     1      -0.154  -1.518  -2.785  1.00  0.00     0.182 C 
BRANCH  30  31
HETATM   31  O3  UNL     1       0.675  -2.575  -2.358  1.00  0.00    -0.399 OA
ATOM     32  H3  UNL     1       1.140  -3.054  -3.034  1.00  0.00     0.209 HD
ENDBRANCH  30  31
ENDBRANCH   8  30
TORSDOF 5
