REMARK  3 active torsions:
REMARK  status: ('A' for Active; 'I' for Inactive)
REMARK    1  A    between atoms: C11_12  and  C12_13 
REMARK    2  A    between atoms: C12_13  and  O3_15 
REMARK    3  A    between atoms: O3_15  and  C13_16 
ROOT
HETATM    1  C1  UNL     1       3.972  -0.138   0.410  1.00  0.00     0.023 C 
HETATM    2  C2  UNL     1       2.712  -0.533   0.149  1.00  0.00    -0.017 C 
HETATM    3  C3  UNL     1       2.195  -1.572   1.156  1.00  0.00     0.155 C 
HETATM    4  O1  UNL     1       2.342  -2.766   0.887  1.00  0.00    -0.293 OA
HETATM    5  C4  UNL     1       1.473  -1.143   2.471  1.00  0.00     0.084 C 
HETATM    6  C5  UNL     1      -0.107  -1.318   2.555  1.00  0.00     0.014 C 
HETATM    7  C6  UNL     1      -0.973  -0.306   1.706  1.00  0.00     0.014 C 
HETATM    8  C7  UNL     1       0.085   0.305   0.879  1.00  0.00    -0.025 C 
HETATM    9  C8  UNL     1       0.659   1.677   0.896  1.00  0.00     0.016 C 
HETATM   10  C9  UNL     1       0.264   1.733  -0.587  1.00  0.00     0.001 C 
HETATM   11  C10 UNL     1      -1.063   0.999  -0.057  1.00  0.00     0.019 C 
HETATM   12  C11 UNL     1      -1.507  -0.451   0.112  1.00  0.00     0.062 C 
HETATM   13  C15 UNL     1      -0.112  -0.922  -0.152  1.00  0.00     0.015 C 
HETATM   14  C16 UNL     1       0.739  -1.112  -1.371  1.00  0.00     0.017 C 
HETATM   15  C17 UNL     1       1.954  -0.204  -1.195  1.00  0.00     0.030 C 
HETATM   16  C18 UNL     1       1.443   1.274  -1.511  1.00  0.00    -0.036 C 
HETATM   17  C19 UNL     1       2.601   2.297  -1.415  1.00  0.00     0.016 C 
HETATM   18  C20 UNL     1       0.922   1.392  -2.972  1.00  0.00     0.016 C 
ENDROOT
BRANCH  12  19
HETATM   19  C12 UNL     1      -2.832  -1.015  -0.300  1.00  0.00     0.276 C 
HETATM   20  O2  UNL     1      -3.253  -0.989  -1.458  1.00  0.00    -0.264 OA
BRANCH  19  21
HETATM   21  O3  UNL     1      -3.523  -1.516   0.756  1.00  0.00    -0.245 OA
BRANCH  21  22
HETATM   22  C13 UNL     1      -4.844  -1.733   0.540  1.00  0.00     0.262 C 
HETATM   23  C14 UNL     1      -5.621  -0.536   0.056  1.00  0.00     0.126 C 
HETATM   24  O4  UNL     1      -5.386  -2.790   0.849  1.00  0.00    -0.265 OA
ENDBRANCH  21  22
ENDBRANCH  19  21
ENDBRANCH  12  19
TORSDOF 3
