REMARK  0 active torsions:
REMARK  status: ('A' for Active; 'I' for Inactive)
REMARK       I    between atoms: C2_3  and  N2_4 
ROOT
HETATM    1  C1  UNL     1      -3.776   1.795  -1.297  1.00  0.00     0.175 C 
HETATM    2  N1  UNL     1      -2.620   1.590  -0.416  1.00  0.00    -0.188 N 
HETATM    3  C2  UNL     1      -2.868   0.860   0.722  1.00  0.00     0.682 C 
HETATM    4  N2  UNL     1      -2.621   1.328   1.980  1.00  0.00    -0.167 N 
ATOM      5  H2  UNL     1      -2.369   0.710   2.751  1.00  0.00     0.186 HD
HETATM    6  C3  UNL     1      -2.718   2.487   2.115  1.00  0.00     0.368 C 
HETATM    7  O1  UNL     1      -2.801   3.651   2.268  1.00  0.00    -0.283 OA
HETATM    8  N3  UNL     1      -3.268  -0.357   0.553  1.00  0.00    -0.225 N 
ATOM      9  H3  UNL     1      -4.002  -0.596  -0.114  1.00  0.00     0.177 HD
HETATM   10  C4  UNL     1      -2.612  -1.366   1.369  1.00  0.00     0.143 C 
HETATM   11  C5  UNL     1      -1.677  -2.058   0.369  1.00  0.00     0.016 C 
HETATM   12  C6  UNL     1      -1.428  -1.470  -1.091  1.00  0.00     0.017 C 
HETATM   13  C7  UNL     1      -0.213  -2.446  -1.153  1.00  0.00     0.014 C 
HETATM   14  C8  UNL     1      -0.155  -2.468   0.396  1.00  0.00    -0.007 C 
HETATM   15  C9  UNL     1       1.109  -2.047   1.152  1.00  0.00     0.010 C 
HETATM   16  C10 UNL     1       1.395  -0.552   1.253  1.00  0.00    -0.004 A 
HETATM   17  C11 UNL     1       0.290   0.449   1.560  1.00  0.00     0.014 A 
HETATM   18  C12 UNL     1       0.802   1.432   0.511  1.00  0.00     0.019 A 
HETATM   19  C13 UNL     1      -0.108   2.019  -0.574  1.00  0.00     0.008 C 
HETATM   20  C14 UNL     1      -1.346   1.281  -1.141  1.00  0.00     0.044 C 
HETATM   21  C15 UNL     1      -1.163  -0.111  -1.773  1.00  0.00     0.008 C 
HETATM   22  C16 UNL     1       2.025   0.485   0.241  1.00  0.00    -0.030 A 
HETATM   23  C17 UNL     1       3.350   1.067   0.797  1.00  0.00     0.010 C 
HETATM   24  C18 UNL     1       4.412   0.098   0.288  1.00  0.00     0.001 C 
HETATM   25  C19 UNL     1       3.828  -0.528  -0.977  1.00  0.00     0.001 C 
HETATM   26  C20 UNL     1       2.453   0.110  -1.164  1.00  0.00     0.010 C 
ENDROOT
TORSDOF 0
