REMARK  3 active torsions:
REMARK  status: ('A' for Active; 'I' for Inactive)
REMARK    1  A    between atoms: C16_21  and  C17_22 
REMARK    2  A    between atoms: C17_22  and  C18_23 
REMARK    3  A    between atoms: C18_23  and  O3_24 
ROOT
HETATM    1  O1  UNL     1      -2.119  -0.544  -2.777  1.00  0.00    -0.273 OA
HETATM    2  C1  UNL     1      -1.141  -0.058  -2.224  1.00  0.00     0.231 C 
HETATM    3  N1  UNL     1      -0.865   1.323  -2.184  1.00  0.00    -0.279 N 
ATOM      4  H1  UNL     1      -0.283   1.772  -2.891  1.00  0.00     0.173 HD
HETATM    5  C2  UNL     1      -1.422   2.042  -1.137  1.00  0.00     0.330 C 
HETATM    6  O2  UNL     1      -2.300   2.886  -1.220  1.00  0.00    -0.246 OA
HETATM    7  N2  UNL     1      -0.969   1.601   0.141  1.00  0.00    -0.289 N 
HETATM    8  C3  UNL     1      -1.766   1.529   1.291  1.00  0.00     0.050 A 
HETATM    9  C4  UNL     1      -2.600   2.449   1.925  1.00  0.00     0.031 A 
HETATM   10  C5  UNL     1      -3.450   1.948   2.913  1.00  0.00     0.002 A 
HETATM   11  C6  UNL     1      -3.521   0.578   3.179  1.00  0.00     0.001 A 
HETATM   12  C7  UNL     1      -2.738  -0.345   2.471  1.00  0.00     0.014 A 
HETATM   13  C8  UNL     1      -1.792   0.145   1.558  1.00  0.00    -0.004 A 
HETATM   14  C9  UNL     1      -0.905  -0.369   0.589  1.00  0.00    -0.035 C 
HETATM   15  C10 UNL     1      -0.690  -1.477  -0.246  1.00  0.00     0.053 C 
HETATM   16  C11 UNL     1      -0.029  -2.623   0.419  1.00  0.00    -0.017 C 
HETATM   17  C12 UNL     1       1.161  -2.629   1.051  1.00  0.00    -0.004 C 
HETATM   18  C13 UNL     1       2.130  -1.566   1.296  1.00  0.00    -0.004 C 
HETATM   19  C14 UNL     1       2.227  -0.322   0.784  1.00  0.00    -0.019 C 
HETATM   20  C15 UNL     1       1.280   0.287  -0.179  1.00  0.00     0.041 C 
HETATM   21  C16 UNL     1       1.100  -0.425  -1.375  1.00  0.00     0.011 C 
HETATM   22  C19 UNL     1      -0.166  -0.987  -1.483  1.00  0.00     0.095 C 
HETATM   23  C20 UNL     1       0.056   0.675   0.437  1.00  0.00     0.133 C 
ENDROOT
BRANCH  21  24
HETATM   24  C17 UNL     1       2.057  -0.399  -2.538  1.00  0.00     0.032 C 
BRANCH  24  25
HETATM   25  C18 UNL     1       3.536  -0.561  -2.194  1.00  0.00     0.164 C 
BRANCH  25  26
HETATM   26  O3  UNL     1       4.073   0.651  -1.673  1.00  0.00    -0.401 OA
ATOM     27  H3  UNL     1       4.993   0.550  -1.459  1.00  0.00     0.209 HD
ENDBRANCH  25  26
ENDBRANCH  24  25
ENDBRANCH  21  24
TORSDOF 3
