REMARK  3 active torsions:
REMARK  status: ('A' for Active; 'I' for Inactive)
REMARK    1  A    between atoms: C2_2  and  C3_3 
REMARK    2  A    between atoms: C3_3  and  C4_4 
REMARK    3  A    between atoms: C12_17  and  O3_18 
ROOT
HETATM    1  C4  UNL     1       2.113   0.517   1.155  1.00  0.00     0.074 C 
HETATM    2  C5  UNL     1       3.057   0.945   2.306  1.00  0.00     0.047 C 
HETATM    3  O1  UNL     1       0.970  -0.023   1.888  1.00  0.00    -0.345 OA
HETATM    4  C6  UNL     1      -0.180  -0.116   1.221  1.00  0.00     0.352 C 
HETATM    5  N1  UNL     1      -0.383  -1.101   0.245  1.00  0.00    -0.040 N 
ATOM      6  H11 UNL     1      -0.925  -1.900   0.572  1.00  0.00     0.280 HD
ATOM      7  H12 UNL     1       0.460  -1.622   0.003  1.00  0.00     0.280 HD
HETATM    8  C7  UNL     1      -0.965  -0.425  -0.841  1.00  0.00     0.213 C 
HETATM    9  C8  UNL     1      -0.565   0.886  -0.524  1.00  0.00     0.121 C 
HETATM   10  C9  UNL     1      -1.081   0.848   0.786  1.00  0.00     0.191 C 
HETATM   11  O2  UNL     1      -2.369   0.696   1.210  1.00  0.00    -0.373 OA
HETATM   12  C10 UNL     1      -3.454   0.807   0.270  1.00  0.00     0.147 C 
HETATM   13  C11 UNL     1      -4.630   0.124   0.979  1.00  0.00     0.042 C 
HETATM   14  C12 UNL     1      -3.290   0.311  -1.216  1.00  0.00     0.156 C 
HETATM   15  C13 UNL     1      -2.263  -0.845  -1.494  1.00  0.00     0.010 C 
HETATM   16  C14 UNL     1      -2.761  -2.215  -1.002  1.00  0.00     0.020 C 
HETATM   17  C15 UNL     1      -2.049  -0.953  -3.019  1.00  0.00     0.020 C 
HETATM   18  C16 UNL     1       0.766   1.412  -0.908  1.00  0.00     0.146 C 
HETATM   19  O4  UNL     1       1.042   1.533  -2.099  1.00  0.00    -0.296 OA
HETATM   20  C17 UNL     1       1.789   1.781   0.217  1.00  0.00     0.044 C 
HETATM   21  C18 UNL     1       3.069   2.306  -0.487  1.00  0.00     0.026 C 
HETATM   22  C19 UNL     1       1.222   2.989   1.002  1.00  0.00     0.026 C 
ENDROOT
BRANCH   1  23
HETATM   23  C3  UNL     1       2.818  -0.646   0.368  1.00  0.00     0.038 C 
BRANCH  23  24
HETATM   24  C2  UNL     1       2.998  -1.956   1.157  1.00  0.00    -0.002 C 
HETATM   25  C1  UNL     1       3.649  -3.045   0.315  1.00  0.00     0.005 C 
ENDBRANCH  23  24
ENDBRANCH   1  23
BRANCH  14  26
HETATM   26  O3  UNL     1      -4.558   0.016  -1.821  1.00  0.00    -0.392 OA
ATOM     27  H3  UNL     1      -4.459  -0.283  -2.717  1.00  0.00     0.210 HD
ENDBRANCH  14  26
TORSDOF 3
