REMARK  7 active torsions:
REMARK  status: ('A' for Active; 'I' for Inactive)
REMARK    1  A    between atoms: C2_2  and  N1_3 
REMARK    2  A    between atoms: C6_13  and  N3_14 
REMARK    3  A    between atoms: N3_14  and  C7_16 
REMARK    4  A    between atoms: C7_16  and  C8_17 
REMARK    5  A    between atoms: C8_17  and  N4_18 
REMARK    6  A    between atoms: C8_17  and  O2_22 
REMARK       I    between atoms: N5_26  and  C10_27 
REMARK       I    between atoms: C10_27  and  N7_31 
REMARK    7  A    between atoms: N7_31  and  N8_33 
ROOT
HETATM    1  C1  UNL     1       3.880  -1.637  -0.766  1.00  0.00     0.096 C 
HETATM    2  C2  UNL     1       2.914  -0.994   0.233  1.00  0.00     0.273 C 
HETATM    3  N2  UNL     1       2.476   0.356  -0.122  1.00  0.00    -0.323 N 
ATOM      4  H2  UNL     1       2.843   1.184   0.347  1.00  0.00     0.165 HD
HETATM    5  C3  UNL     1       1.596   0.436  -1.065  1.00  0.00     0.183 C 
HETATM    6  C4  UNL     1       1.196  -0.750  -1.873  1.00  0.00     0.234 C 
HETATM    7  O1  UNL     1       1.624  -1.050  -2.959  1.00  0.00    -0.283 OA
HETATM    8  C5  UNL     1       0.172  -1.363  -1.074  1.00  0.00     0.117 C 
HETATM    9  C6  UNL     1      -0.860  -0.504  -0.885  1.00  0.00     0.118 C 
HETATM   10  C9  UNL     1      -0.617   0.945  -1.471  1.00  0.00     0.295 C 
HETATM   11  O3  UNL     1      -1.482   1.510  -2.130  1.00  0.00    -0.264 OA
HETATM   12  N5  UNL     1       0.683   1.437  -1.264  1.00  0.00    -0.089 N 
HETATM   13  C10 UNL     1       0.780   2.603  -0.545  1.00  0.00     0.701 C 
HETATM   14  N6  UNL     1       0.921   3.721  -1.190  1.00  0.00    -0.233 N 
ATOM     15  H61 UNL     1       0.993   4.587  -0.656  1.00  0.00     0.174 HD
ATOM     16  H62 UNL     1       0.948   3.759  -2.209  1.00  0.00     0.174 HD
HETATM   17  N7  UNL     1       0.744   2.551   0.839  1.00  0.00    -0.138 N 
ATOM     18  H7  UNL     1       0.514   1.691   1.337  1.00  0.00     0.205 HD
HETATM   19  C11 UNL     1       0.624  -2.210   0.047  1.00  0.00     0.261 C 
HETATM   20  O4  UNL     1      -0.077  -3.124   0.474  1.00  0.00    -0.267 OA
HETATM   21  N9  UNL     1       1.821  -1.863   0.644  1.00  0.00    -0.307 N 
ATOM     22  H9  UNL     1       1.968  -2.303   1.553  1.00  0.00     0.167 HD
ENDROOT
BRANCH   9  23
HETATM   23  N3  UNL     1      -1.980  -0.714  -0.077  1.00  0.00    -0.380 N 
ATOM     24  H3  UNL     1      -1.866  -1.194   0.816  1.00  0.00     0.160 HD
BRANCH  23  25
HETATM   25  C7  UNL     1      -3.334  -0.256  -0.484  1.00  0.00     0.180 C 
BRANCH  25  26
HETATM   26  C8  UNL     1      -4.428  -0.588   0.576  1.00  0.00     0.333 C 
BRANCH  26  27
HETATM   27  N4  UNL     1      -4.222  -1.844   1.270  1.00  0.00    -0.051 N 
ATOM     28  H43 UNL     1      -4.128  -2.609   0.602  1.00  0.00     0.277 HD
ATOM     29  H42 UNL     1      -3.295  -1.869   1.694  1.00  0.00     0.277 HD
ATOM     30  H41 UNL     1      -4.938  -2.061   1.963  1.00  0.00     0.277 HD
ENDBRANCH  26  27
BRANCH  26  31
HETATM   31  O2  UNL     1      -4.456   0.414   1.569  1.00  0.00    -0.369 OA
ATOM     32  H2  UNL     1      -5.123   0.212   2.215  1.00  0.00     0.212 HD
ENDBRANCH  26  31
ENDBRANCH  25  26
ENDBRANCH  23  25
ENDBRANCH   9  23
BRANCH   2  33
HETATM   33  N1  UNL     1       3.622  -0.817   1.474  1.00  0.00    -0.034 N 
ATOM     34  H13 UNL     1       4.034  -1.683   1.822  1.00  0.00     0.279 HD
ATOM     35  H12 UNL     1       4.488  -0.290   1.365  1.00  0.00     0.279 HD
ATOM     36  H11 UNL     1       2.979  -0.389   2.139  1.00  0.00     0.279 HD
ENDBRANCH   2  33
BRANCH  17  37
HETATM   37  N8  UNL     1       1.042   3.750   1.528  1.00  0.00    -0.331 N 
ATOM     38  H82 UNL     1       1.270   4.602   1.016  1.00  0.00     0.177 HD
ATOM     39  H81 UNL     1       1.015   3.712   2.547  1.00  0.00     0.177 HD
ENDBRANCH  17  37
TORSDOF 7
