REMARK  9 active torsions:
REMARK  status: ('A' for Active; 'I' for Inactive)
REMARK    1  A    between atoms: C19_22  and  O4_24 
REMARK    2  A    between atoms: C21_26  and  O5_27 
REMARK    3  A    between atoms: C22_29  and  O6_30 
REMARK    4  A    between atoms: O6_30  and  C23_31 
REMARK    5  A    between atoms: C24_33  and  C25_34 
REMARK    6  A    between atoms: C25_34  and  O8_35 
REMARK    7  A    between atoms: C26_37  and  O9_38 
REMARK    8  A    between atoms: C27_40  and  O10_41 
REMARK    9  A    between atoms: C28_43  and  O11_44 
ROOT
HETATM    1  C1  UNL     1       2.314  -2.749   2.301  1.00  0.00     0.010 C 
HETATM    2  C2  UNL     1       1.132  -2.821   1.305  1.00  0.00    -0.012 C 
HETATM    3  C3  UNL     1      -0.014  -3.688   2.021  1.00  0.00     0.010 C 
HETATM    4  C4  UNL     1      -1.520  -3.592   1.555  1.00  0.00     0.075 C 
HETATM    5  C5  UNL     1      -1.687  -2.733   0.290  1.00  0.00     0.228 C 
HETATM    6  O1  UNL     1      -3.015  -2.429  -0.157  1.00  0.00    -0.197 OA
HETATM    7  O2  UNL     1      -2.868  -1.819  -1.504  1.00  0.00    -0.229 OA
HETATM    8  C6  UNL     1      -2.266  -0.499  -1.610  1.00  0.00     0.198 C 
HETATM    9  C7  UNL     1      -3.332   0.595  -1.883  1.00  0.00     0.038 C 
HETATM   10  C8  UNL     1      -4.048   1.303  -0.743  1.00  0.00     0.006 C 
HETATM   11  C9  UNL     1      -3.858   0.737   0.649  1.00  0.00     0.027 C 
HETATM   12  C10 UNL     1      -2.808   1.469   1.465  1.00  0.00    -0.021 C 
HETATM   13  C11 UNL     1      -1.304   1.405   1.126  1.00  0.00    -0.050 C 
HETATM   14  C12 UNL     1      -0.516   0.460   2.018  1.00  0.00     0.069 C 
HETATM   15  C13 UNL     1      -0.457  -1.001   1.606  1.00  0.00     0.134 C 
HETATM   16  O3  UNL     1      -1.463  -1.380   0.721  1.00  0.00    -0.344 OA
HETATM   17  C14 UNL     1       0.763  -1.356   0.826  1.00  0.00     0.026 C 
HETATM   18  C15 UNL     1       0.522  -0.949  -0.749  1.00  0.00     0.036 C 
HETATM   19  C16 UNL     1       0.853  -2.074  -1.764  1.00  0.00    -0.008 C 
HETATM   20  C17 UNL     1       1.511  -1.574  -3.067  1.00  0.00     0.010 C 
HETATM   21  C18 UNL     1      -0.338  -2.952  -2.128  1.00  0.00     0.048 C 
HETATM   22  C19 UNL     1      -1.010  -3.649  -0.937  1.00  0.00     0.113 C 
HETATM   23  C20 UNL     1      -2.088  -4.621  -1.510  1.00  0.00     0.051 C 
HETATM   24  C21 UNL     1      -0.761   0.042  -1.176  1.00  0.00     0.121 C 
HETATM   25  C22 UNL     1      -0.835   1.384  -0.338  1.00  0.00     0.191 C 
ENDROOT
BRANCH  25  26
HETATM   26  O6  UNL     1       0.520   1.905  -0.387  1.00  0.00    -0.346 OA
BRANCH  26  27
HETATM   27  C23 UNL     1       0.628   3.304  -0.190  1.00  0.00     0.292 C 
HETATM   28  O7  UNL     1       1.192   3.600   1.092  1.00  0.00    -0.348 OA
HETATM   29  C24 UNL     1       2.490   2.994   1.278  1.00  0.00     0.179 C 
HETATM   30  C26 UNL     1       3.495   3.558   0.270  1.00  0.00     0.180 C 
HETATM   31  C27 UNL     1       2.955   3.442  -1.158  1.00  0.00     0.183 C 
HETATM   32  C28 UNL     1       1.502   3.922  -1.283  1.00  0.00     0.204 C 
BRANCH  29  33
HETATM   33  C25 UNL     1       2.932   3.240   2.725  1.00  0.00     0.198 C 
BRANCH  33  34
HETATM   34  O8  UNL     1       2.125   2.461   3.614  1.00  0.00    -0.398 OA
ATOM     35  H8  UNL     1       2.399   2.613   4.511  1.00  0.00     0.209 HD
ENDBRANCH  33  34
ENDBRANCH  29  33
BRANCH  30  36
HETATM   36  O9  UNL     1       3.798   4.941   0.539  1.00  0.00    -0.390 OA
ATOM     37  H9  UNL     1       4.422   5.291  -0.086  1.00  0.00     0.210 HD
ENDBRANCH  30  36
BRANCH  31  38
HETATM   38  O10 UNL     1       3.803   4.224  -2.030  1.00  0.00    -0.390 OA
ATOM     39  H10 UNL     1       3.468   4.152  -2.916  1.00  0.00     0.210 HD
ENDBRANCH  31  38
BRANCH  32  40
HETATM   40  O11 UNL     1       1.462   5.357  -1.157  1.00  0.00    -0.388 OA
ATOM     41  H11 UNL     1       2.005   5.741  -1.836  1.00  0.00     0.210 HD
ENDBRANCH  32  40
ENDBRANCH  26  27
ENDBRANCH  25  26
BRANCH  24  42
HETATM   42  O5  UNL     1      -0.240   0.555  -2.489  1.00  0.00    -0.384 OA
ATOM     43  H5  UNL     1       0.623   0.865  -2.240  1.00  0.00     0.210 HD
ENDBRANCH  24  42
BRANCH  22  44
HETATM   44  O4  UNL     1      -0.026  -4.605  -0.454  1.00  0.00    -0.385 OA
ATOM     45  H4  UNL     1       0.358  -5.125  -1.150  1.00  0.00     0.210 HD
ENDBRANCH  22  44
TORSDOF 9
