REMARK  11 active torsions:
REMARK  status: ('A' for Active; 'I' for Inactive)
REMARK    1  A    between atoms: C3_3  and  O1_4 
REMARK    2  A    between atoms: C7_9  and  O2_10 
REMARK    3  A    between atoms: C8_12  and  O3_14 
REMARK    4  A    between atoms: C18_26  and  O6_27 
REMARK    5  A    between atoms: O6_27  and  C19_28 
REMARK    6  A    between atoms: C21_30  and  O7_31 
REMARK    7  A    between atoms: C22_33  and  O8_34 
REMARK    8  A    between atoms: C22_33  and  C23_36 
REMARK    9  A    between atoms: C23_36  and  O9_37 
REMARK   10  A    between atoms: C25_41  and  O11_42 
REMARK   11  A    between atoms: C25_41  and  C26_44 
ROOT
HETATM    1  C1  UNL     1       3.885  -1.495  -2.626  1.00  0.00     0.020 C 
HETATM    2  C2  UNL     1       3.692  -1.046  -1.370  1.00  0.00    -0.023 C 
HETATM    3  C3  UNL     1       4.143   0.364  -0.918  1.00  0.00     0.159 C 
HETATM    4  C4  UNL     1       2.939   1.039  -0.196  1.00  0.00     0.001 C 
HETATM    5  C5  UNL     1       2.917   0.197   1.140  1.00  0.00     0.017 C 
HETATM    6  C6  UNL     1       3.397  -1.268   1.091  1.00  0.00     0.047 C 
HETATM    7  C7  UNL     1       3.133  -1.961  -0.254  1.00  0.00     0.114 C 
HETATM    8  C8  UNL     1       1.595  -2.614  -0.248  1.00  0.00     0.099 C 
HETATM    9  C9  UNL     1       1.706  -3.973   0.487  1.00  0.00     0.050 C 
HETATM   10  C10 UNL     1       0.449  -1.645   0.326  1.00  0.00     0.087 C 
HETATM   11  C11 UNL     1      -0.072  -0.658  -0.745  1.00  0.00    -0.019 C 
HETATM   12  C12 UNL     1       0.811   0.131  -1.675  1.00  0.00    -0.020 C 
HETATM   13  C13 UNL     1       1.711   1.294  -1.232  1.00  0.00    -0.012 C 
HETATM   14  C14 UNL     1       2.245   1.807  -2.644  1.00  0.00     0.021 C 
HETATM   15  C15 UNL     1       0.947   2.577  -0.750  1.00  0.00     0.007 C 
HETATM   16  C16 UNL     1      -0.396   2.758  -0.011  1.00  0.00     0.041 C 
HETATM   17  C17 UNL     1       0.352   2.583   1.317  1.00  0.00     0.165 C 
HETATM   18  O4  UNL     1       0.213   1.258   1.865  1.00  0.00    -0.233 OA
HETATM   19  O5  UNL     1      -1.051   1.239   2.594  1.00  0.00    -0.207 OA
HETATM   20  C18 UNL     1      -1.857   0.147   2.093  1.00  0.00     0.303 C 
HETATM   21  C24 UNL     1      -1.188  -1.216   2.368  1.00  0.00     0.109 C 
HETATM   22  C25 UNL     1      -0.844  -2.151   1.143  1.00  0.00     0.124 C 
HETATM   23  C27 UNL     1       1.669   3.034   0.522  1.00  0.00     0.024 C 
HETATM   24  C28 UNL     1       3.099   2.490   0.326  1.00  0.00     0.021 C 
ENDROOT
BRANCH  20  25
HETATM   25  O6  UNL     1      -3.090   0.173   2.832  1.00  0.00    -0.328 OA
BRANCH  25  26
HETATM   26  C19 UNL     1      -4.223   0.612   2.101  1.00  0.00     0.269 C 
HETATM   27  C20 UNL     1      -4.164   2.049   1.597  1.00  0.00     0.098 C 
HETATM   28  C21 UNL     1      -4.784   1.990   0.212  1.00  0.00     0.187 C 
HETATM   29  C22 UNL     1      -5.279   0.535   0.077  1.00  0.00     0.212 C 
HETATM   30  O10 UNL     1      -4.517  -0.243   0.996  1.00  0.00    -0.321 OA
BRANCH  28  31
HETATM   31  O7  UNL     1      -3.788   2.350  -0.750  1.00  0.00    -0.390 OA
ATOM     32  H7  UNL     1      -4.176   2.313  -1.616  1.00  0.00     0.210 HD
ENDBRANCH  28  31
BRANCH  29  33
HETATM   33  O8  UNL     1      -6.640   0.484   0.504  1.00  0.00    -0.362 OA
ATOM     34  H8  UNL     1      -6.945  -0.412   0.421  1.00  0.00     0.213 HD
ENDBRANCH  29  33
BRANCH  29  35
HETATM   35  C23 UNL     1      -5.130  -0.059  -1.338  1.00  0.00     0.235 C 
BRANCH  35  36
HETATM   36  O9  UNL     1      -5.692   0.797  -2.336  1.00  0.00    -0.395 OA
ATOM     37  H9  UNL     1      -5.600   0.431  -3.208  1.00  0.00     0.209 HD
ENDBRANCH  35  36
ENDBRANCH  29  35
ENDBRANCH  25  26
ENDBRANCH  20  25
BRANCH  22  38
HETATM   38  O11 UNL     1      -2.010  -2.224   0.298  1.00  0.00    -0.382 OA
ATOM     39  H11 UNL     1      -2.772  -2.522   0.780  1.00  0.00     0.211 HD
ENDBRANCH  22  38
BRANCH  22  40
HETATM   40  C26 UNL     1      -0.787  -3.547   1.765  1.00  0.00     0.269 C 
HETATM   41  O12 UNL     1      -0.170  -3.829   2.787  1.00  0.00    -0.304 OA
ENDBRANCH  22  40
BRANCH   8  42
HETATM   42  O3  UNL     1       1.199  -3.012  -1.576  1.00  0.00    -0.386 OA
ATOM     43  H3  UNL     1       0.325  -3.383  -1.573  1.00  0.00     0.210 HD
ENDBRANCH   8  42
BRANCH   7  44
HETATM   44  O2  UNL     1       4.056  -3.085  -0.298  1.00  0.00    -0.382 OA
ATOM     45  H2  UNL     1       3.713  -3.647   0.387  1.00  0.00     0.211 HD
ENDBRANCH   7  44
BRANCH   3  46
HETATM   46  O1  UNL     1       4.728   1.102  -1.976  1.00  0.00    -0.390 OA
ATOM     47  H1  UNL     1       5.005   1.967  -1.699  1.00  0.00     0.210 HD
ENDBRANCH   3  46
TORSDOF 11
