REMARK  9 active torsions:
REMARK  status: ('A' for Active; 'I' for Inactive)
REMARK    1  A    between atoms: O1_2  and  C2_3 
REMARK    2  A    between atoms: C2_3  and  C3_4 
REMARK    3  A    between atoms: C3_4  and  O2_5 
REMARK    4  A    between atoms: O2_5  and  C4_6 
REMARK    5  A    between atoms: C9_12  and  O3_13 
REMARK    6  A    between atoms: N1_19  and  C15_20 
REMARK    7  A    between atoms: C15_20  and  C16_21 
REMARK    8  A    between atoms: C19_24  and  O4_25 
REMARK    9  A    between atoms: C25_33  and  O6_34 
ROOT
HETATM    1  C4  UNL     1       3.206   1.011  -1.617  1.00  0.00     0.123 C 
HETATM    2  C5  UNL     1       3.181   2.378  -1.875  1.00  0.00     0.081 C 
HETATM    3 BR1  UNL     1       4.736   3.450  -1.845  1.00  0.00    -0.045 Br
HETATM    4  C6  UNL     1       1.938   2.953  -2.167  1.00  0.00     0.109 C 
HETATM    5  C7  UNL     1       0.863   2.155  -2.550  1.00  0.00     0.041 C 
HETATM    6  C8  UNL     1       0.793   1.028  -1.763  1.00  0.00     0.024 C 
HETATM    7  C9  UNL     1       1.979   0.339  -1.522  1.00  0.00     0.114 C 
HETATM    8  C11 UNL     1      -0.299   1.031  -0.733  1.00  0.00    -0.013 C 
HETATM    9  C12 UNL     1      -0.525   2.121   0.057  1.00  0.00     0.062 C 
HETATM   10  C13 UNL     1      -1.589   2.107   1.146  1.00  0.00     0.095 C 
HETATM   11  C14 UNL     1      -1.408   1.044   2.255  1.00  0.00     0.279 C 
HETATM   12  N1  UNL     1      -1.755  -0.328   1.837  1.00  0.00     0.093 N 
HETATM   13  C23 UNL     1      -0.803  -0.859   0.842  1.00  0.00     0.277 C 
HETATM   14  C24 UNL     1      -1.056  -0.261  -0.547  1.00  0.00     0.072 C 
HETATM   15  O5  UNL     1       0.207   3.314   0.039  1.00  0.00    -0.289 OA
HETATM   16  C25 UNL     1       0.261   4.236  -1.112  1.00  0.00     0.332 C 
HETATM   17  O7  UNL     1       1.624   4.238  -1.726  1.00  0.00    -0.283 OA
HETATM   18  C27 UNL     1      -0.707   3.854  -2.198  1.00  0.00     0.106 A 
HETATM   19  S1  UNL     1      -2.321   4.394  -2.575  1.00  0.00    -0.048 SA
HETATM   20  C28 UNL     1      -2.447   3.156  -3.871  1.00  0.00     0.143 A 
HETATM   21  N2  UNL     1      -3.490   3.063  -4.607  1.00  0.00    -0.380 N 
ATOM     22  H21 UNL     1      -3.562   2.360  -5.343  1.00  0.00     0.158 HD
ATOM     23  H22 UNL     1      -4.351   3.610  -4.591  1.00  0.00     0.158 HD
HETATM   24  N3  UNL     1      -1.291   2.422  -3.893  1.00  0.00    -0.335 N 
ATOM     25  H3  UNL     1      -1.140   1.642  -4.533  1.00  0.00     0.168 HD
HETATM   26  C29 UNL     1      -0.357   2.830  -2.979  1.00  0.00     0.069 A 
ENDROOT
BRANCH  12  27
HETATM   27  C15 UNL     1      -1.881  -1.229   3.003  1.00  0.00     0.311 C 
BRANCH  27  28
HETATM   28  C16 UNL     1      -2.365  -2.608   2.580  1.00  0.00    -0.027 A 
HETATM   29  C17 UNL     1      -3.526  -2.709   1.790  1.00  0.00     0.012 A 
HETATM   30  C18 UNL     1      -3.902  -3.922   1.218  1.00  0.00     0.040 A 
HETATM   31  C19 UNL     1      -3.110  -5.048   1.413  1.00  0.00     0.106 A 
HETATM   32  C21 UNL     1      -2.000  -4.978   2.259  1.00  0.00     0.150 A 
HETATM   33  F1  UNL     1      -1.238  -6.065   2.456  1.00  0.00    -0.203 F 
HETATM   34  C22 UNL     1      -1.625  -3.769   2.841  1.00  0.00     0.054 A 
BRANCH  31  35
HETATM   35  O4  UNL     1      -3.374  -6.240   0.789  1.00  0.00    -0.353 OA
HETATM   36  C20 UNL     1      -3.542  -6.077  -0.621  1.00  0.00     0.210 C 
ENDBRANCH  31  35
ENDBRANCH  27  28
ENDBRANCH  12  27
BRANCH  16  37
HETATM   37  O6  UNL     1      -0.060   5.566  -0.702  1.00  0.00    -0.333 OA
HETATM   38  C26 UNL     1       0.812   6.043   0.307  1.00  0.00     0.208 C 
ENDBRANCH  16  37
BRANCH   7  39
HETATM   39  O3  UNL     1       1.940  -0.966  -1.109  1.00  0.00    -0.352 OA
HETATM   40  C10 UNL     1       1.688  -1.799  -2.244  1.00  0.00     0.210 C 
ENDBRANCH   7  39
BRANCH   1  41
HETATM   41  O2  UNL     1       4.363   0.289  -1.483  1.00  0.00    -0.345 OA
BRANCH  41  42
HETATM   42  C3  UNL     1       4.961   0.360  -0.177  1.00  0.00     0.202 C 
BRANCH  42  43
HETATM   43  C2  UNL     1       4.175  -0.455   0.841  1.00  0.00     0.193 C 
BRANCH  43  44
HETATM   44  O1  UNL     1       4.859  -0.584   2.083  1.00  0.00    -0.394 OA
HETATM   45  C1  UNL     1       4.039  -1.306   3.004  1.00  0.00     0.201 C 
ENDBRANCH  43  44
ENDBRANCH  42  43
ENDBRANCH  41  42
ENDBRANCH   1  41
TORSDOF 9
