REMARK  9 active torsions:
REMARK  status: ('A' for Active; 'I' for Inactive)
REMARK    1  A    between atoms: C2_2  and  C3_3 
REMARK    2  A    between atoms: C3_3  and  C4_4 
REMARK    3  A    between atoms: C4_4  and  C5_5 
REMARK    4  A    between atoms: C5_5  and  C6_6 
REMARK    5  A    between atoms: C6_6  and  O2_8 
REMARK    6  A    between atoms: O2_8  and  C7_9 
REMARK    7  A    between atoms: C7_9  and  C8_10 
REMARK    8  A    between atoms: C9_11  and  O3_12 
REMARK    9  A    between atoms: C18_23  and  O5_24 
ROOT
HETATM    1  C8  UNL     1      -1.183  -3.359  -1.106  1.00  0.00     0.033 C 
HETATM    2  C9  UNL     1      -0.286  -4.436  -0.991  1.00  0.00     0.077 C 
HETATM    3  C10 UNL     1       0.933  -4.313  -0.295  1.00  0.00     0.049 C 
HETATM    4  C11 UNL     1       1.275  -3.129   0.379  1.00  0.00    -0.014 C 
HETATM    5  C12 UNL     1       2.720  -2.944   0.738  1.00  0.00     0.050 C 
HETATM    6  C13 UNL     1       3.284  -1.727   0.828  1.00  0.00     0.081 A 
HETATM    7  C14 UNL     1       2.639  -0.495   0.892  1.00  0.00     0.021 A 
HETATM    8  C15 UNL     1       1.460   0.066   1.007  1.00  0.00     0.006 C 
HETATM    9  C16 UNL     1       0.363  -0.863   1.259  1.00  0.00     0.192 C 
HETATM   10  O4  UNL     1      -0.498  -0.605   2.088  1.00  0.00    -0.287 OA
HETATM   11  C17 UNL     1       0.291  -2.113   0.435  1.00  0.00     0.059 C 
HETATM   12  C18 UNL     1      -0.845  -2.205  -0.389  1.00  0.00     0.091 C 
HETATM   13  C19 UNL     1       1.435   1.566   0.962  1.00  0.00     0.053 C 
HETATM   14  C20 UNL     1       2.946   2.061   0.746  1.00  0.00    -0.027 C 
HETATM   15  C21 UNL     1       2.975   3.578   0.619  1.00  0.00     0.016 C 
HETATM   16  C22 UNL     1       3.705   1.180  -0.400  1.00  0.00     0.055 C 
HETATM   17  C23 UNL     1       3.928   0.178   0.757  1.00  0.00     0.106 A 
HETATM   18  O6  UNL     1       4.454  -1.167   0.821  1.00  0.00    -0.334 OA
HETATM   19  C24 UNL     1       4.061   1.368   1.753  1.00  0.00    -0.004 C 
HETATM   20  C25 UNL     1       3.627   1.188   3.207  1.00  0.00     0.019 C 
HETATM   21  C26 UNL     1       5.471   1.986   1.752  1.00  0.00     0.019 C 
ENDROOT
BRANCH   1  22
HETATM   22  C7  UNL     1      -2.393  -3.427  -2.030  1.00  0.00     0.223 C 
BRANCH  22  23
HETATM   23  O2  UNL     1      -3.457  -2.460  -1.856  1.00  0.00    -0.317 OA
BRANCH  23  24
HETATM   24  C6  UNL     1      -3.343  -1.276  -2.524  1.00  0.00     0.259 C 
HETATM   25  O1  UNL     1      -2.351  -0.939  -3.162  1.00  0.00    -0.265 OA
BRANCH  24  26
HETATM   26  C5  UNL     1      -4.593  -0.425  -2.374  1.00  0.00     0.111 C 
BRANCH  26  27
HETATM   27  C4  UNL     1      -4.344   1.071  -2.104  1.00  0.00     0.010 C 
BRANCH  27  28
HETATM   28  C3  UNL     1      -3.639   1.373  -0.774  1.00  0.00     0.000 C 
BRANCH  28  29
HETATM   29  C2  UNL     1      -4.166   2.610  -0.032  1.00  0.00    -0.005 C 
HETATM   30  C1  UNL     1      -5.503   2.363   0.650  1.00  0.00     0.005 C 
ENDBRANCH  28  29
ENDBRANCH  27  28
ENDBRANCH  26  27
ENDBRANCH  24  26
ENDBRANCH  23  24
ENDBRANCH  22  23
ENDBRANCH   1  22
BRANCH   2  31
HETATM   31  O3  UNL     1      -0.465  -5.641  -1.615  1.00  0.00    -0.360 OA
ATOM     32  H3  UNL     1       0.141  -6.369  -1.537  1.00  0.00     0.217 HD
ENDBRANCH   2  31
BRANCH  12  33
HETATM   33  O5  UNL     1      -1.536  -1.040  -0.596  1.00  0.00    -0.359 OA
ATOM     34  H5  UNL     1      -1.307  -0.257  -0.109  1.00  0.00     0.217 HD
ENDBRANCH  12  33
TORSDOF 9
