REMARK  8 active torsions:
REMARK  status: ('A' for Active; 'I' for Inactive)
REMARK    1  A    between atoms: C6_6  and  O1_7 
REMARK    2  A    between atoms: O1_7  and  C7_8 
REMARK    3  A    between atoms: C7_8  and  C13_18 
REMARK    4  A    between atoms: C8_9  and  C9_10 
REMARK    5  A    between atoms: C9_10  and  O2_11 
REMARK    6  A    between atoms: C9_10  and  C10_13 
REMARK    7  A    between atoms: C10_13  and  O3_16 
REMARK    8  A    between atoms: C13_18  and  C14_19 
ROOT
HETATM    1  C7  UNL     1      -0.545  -0.649  -0.891  1.00  0.00     0.046 C 
HETATM    2  C8  UNL     1      -0.552  -1.999  -0.850  1.00  0.00     0.039 C 
ENDROOT
BRANCH   1   3
HETATM    3  O1  UNL     1       0.574   0.125  -0.588  1.00  0.00    -0.349 OA
BRANCH   3   4
HETATM    4  C6  UNL     1       1.841  -0.520  -0.791  1.00  0.00     0.145 C 
HETATM    5  C5  UNL     1       3.117   0.334  -1.152  1.00  0.00     0.054 C 
HETATM    6  C4  UNL     1       2.799   1.499  -2.077  1.00  0.00     0.011 C 
HETATM    7  C26 UNL     1       3.315   0.481   0.377  1.00  0.00     0.115 C 
HETATM    8  C3  UNL     1       2.911   2.824  -1.354  1.00  0.00     0.005 C 
HETATM    9  C2  UNL     1       2.161   2.802  -0.016  1.00  0.00    -0.012 C 
HETATM   10  C1  UNL     1       2.181   4.229   0.558  1.00  0.00     0.010 C 
HETATM   11  C25 UNL     1       2.827   1.821   0.974  1.00  0.00     0.028 C 
HETATM   12  C24 UNL     1       2.040   1.601   2.278  1.00  0.00     0.011 C 
HETATM   13  C23 UNL     1       1.608   0.159   2.533  1.00  0.00     0.042 C 
HETATM   14  C21 UNL     1       2.607  -0.868   1.992  1.00  0.00     0.102 C 
HETATM   15  C20 UNL     1       2.595  -0.906   0.484  1.00  0.00     0.091 C 
HETATM   16  C22 UNL     1       2.334  -2.248   2.578  1.00  0.00     0.050 C 
HETATM   17  O5  UNL     1       3.975  -0.488   2.327  1.00  0.00    -0.229 OA
HETATM   18  O4  UNL     1       4.531   0.160   1.086  1.00  0.00    -0.227 OA
ENDBRANCH   3   4
ENDBRANCH   1   3
BRANCH   1  19
HETATM   19  C13 UNL     1      -1.730   0.197  -1.321  1.00  0.00     0.069 C 
BRANCH  19  20
HETATM   20  C14 UNL     1      -2.475   0.804  -0.103  1.00  0.00    -0.009 C 
HETATM   21  C15 UNL     1      -1.955   2.222   0.225  1.00  0.00     0.005 C 
HETATM   22  C16 UNL     1      -2.993   3.041   0.985  1.00  0.00     0.000 C 
HETATM   23  C17 UNL     1      -4.259   3.253   0.151  1.00  0.00     0.000 C 
HETATM   24  C18 UNL     1      -4.548   2.108  -0.820  1.00  0.00     0.000 C 
HETATM   25  C19 UNL     1      -4.005   0.783  -0.302  1.00  0.00     0.005 C 
ENDBRANCH  19  20
ENDBRANCH   1  19
BRANCH   2  26
HETATM   26  C9  UNL     1      -1.652  -2.921  -1.298  1.00  0.00     0.177 C 
BRANCH  26  27
HETATM   27  O2  UNL     1      -1.658  -2.934  -2.736  1.00  0.00    -0.389 OA
ATOM     28  H2  UNL     1      -2.353  -3.517  -3.019  1.00  0.00     0.210 HD
ENDBRANCH  26  27
BRANCH  26  29
HETATM   29  C10 UNL     1      -1.538  -4.412  -0.827  1.00  0.00     0.080 C 
HETATM   30  C11 UNL     1      -0.240  -5.104  -1.284  1.00  0.00     0.048 C 
HETATM   31  C12 UNL     1      -1.710  -4.550   0.686  1.00  0.00     0.048 C 
BRANCH  29  32
HETATM   32  O3  UNL     1      -2.620  -5.137  -1.441  1.00  0.00    -0.388 OA
ATOM     33  H3  UNL     1      -2.551  -6.040  -1.156  1.00  0.00     0.210 HD
ENDBRANCH  29  32
ENDBRANCH  26  29
ENDBRANCH   2  26
TORSDOF 8
