REMARK  6 active torsions:
REMARK  status: ('A' for Active; 'I' for Inactive)
REMARK    1  A    between atoms: C2_2  and  C3_3 
REMARK    2  A    between atoms: C3_3  and  C4_5 
REMARK    3  A    between atoms: C13_14  and  O2_15 
REMARK    4  A    between atoms: C19_22  and  C20_23 
REMARK    5  A    between atoms: C20_23  and  O3_24 
REMARK    6  A    between atoms: O3_24  and  C21_25 
ROOT
HETATM    1  C4  UNL     1      -3.031   1.366   0.067  1.00  0.00     0.071 C 
HETATM    2  C5  UNL     1      -3.055   0.012   0.933  1.00  0.00     0.004 C 
HETATM    3  C6  UNL     1      -2.730   0.673   2.249  1.00  0.00     0.016 C 
HETATM    4  C7  UNL     1      -1.359   0.878   1.394  1.00  0.00    -0.028 C 
HETATM    5  C8  UNL     1      -0.675   1.936   2.269  1.00  0.00     0.016 C 
HETATM    6  C9  UNL     1      -1.437  -0.621   1.219  1.00  0.00     0.011 C 
HETATM    7  C10 UNL     1      -0.376  -1.048   0.147  1.00  0.00    -0.005 C 
HETATM    8  C11 UNL     1       0.245  -2.375   0.585  1.00  0.00     0.019 C 
HETATM    9  C12 UNL     1      -1.185  -1.292  -1.101  1.00  0.00     0.045 C 
HETATM   10  C13 UNL     1      -1.613   0.085  -1.524  1.00  0.00     0.129 C 
HETATM   11  C14 UNL     1      -1.562   1.188  -0.283  1.00  0.00     0.007 C 
HETATM   12  C15 UNL     1      -0.073   1.573  -0.449  1.00  0.00     0.053 C 
HETATM   13  C16 UNL     1       0.718   0.140  -0.112  1.00  0.00     0.079 C 
HETATM   14  C17 UNL     1       1.693  -0.217  -1.247  1.00  0.00     0.040 C 
HETATM   15  C18 UNL     1       3.018   0.497  -1.084  1.00  0.00     0.020 C 
HETATM   16  C19 UNL     1       3.680   0.179   0.249  1.00  0.00     0.110 C 
HETATM   17  C23 UNL     1       2.737   0.476   1.379  1.00  0.00     0.266 C 
HETATM   18  O5  UNL     1       3.137   0.806   2.486  1.00  0.00    -0.265 OA
HETATM   19  O6  UNL     1       1.424   0.256   1.162  1.00  0.00    -0.309 OA
ENDROOT
BRANCH  10  20
HETATM   20  O2  UNL     1      -2.814  -0.066  -2.273  1.00  0.00    -0.395 OA
ATOM     21  H2  UNL     1      -3.085   0.805  -2.540  1.00  0.00     0.210 HD
ENDBRANCH  10  20
BRANCH   1  22
HETATM   22  C3  UNL     1      -4.163   1.559  -0.930  1.00  0.00     0.132 C 
HETATM   23  O1  UNL     1      -4.114   2.509  -1.724  1.00  0.00    -0.298 OA
BRANCH  22  24
HETATM   24  C2  UNL     1      -5.354   0.604  -0.949  1.00  0.00     0.074 C 
HETATM   25  C1  UNL     1      -6.304   0.751   0.223  1.00  0.00     0.013 C 
ENDBRANCH  22  24
ENDBRANCH   1  22
BRANCH  16  26
HETATM   26  C20 UNL     1       4.183  -1.262   0.422  1.00  0.00     0.193 C 
BRANCH  26  27
HETATM   27  O3  UNL     1       5.611  -1.321   0.259  1.00  0.00    -0.321 OA
BRANCH  27  28
HETATM   28  C21 UNL     1       6.067  -1.602  -0.987  1.00  0.00     0.254 C 
HETATM   29  C22 UNL     1       7.562  -1.670  -0.975  1.00  0.00     0.126 C 
HETATM   30  O4  UNL     1       5.376  -1.786  -1.975  1.00  0.00    -0.266 OA
ENDBRANCH  27  28
ENDBRANCH  26  27
ENDBRANCH  16  26
TORSDOF 6
