REMARK  4 active torsions:
REMARK  status: ('A' for Active; 'I' for Inactive)
REMARK    1  A    between atoms: C2_2  and  C4_4 
REMARK    2  A    between atoms: C16_16  and  C17_17 
REMARK    3  A    between atoms: C24_28  and  O5_29 
REMARK    4  A    between atoms: C24_28  and  C25_31 
ROOT
HETATM    1  C4  UNL     1      -1.943   3.763   0.986  1.00  0.00     0.022 C 
HETATM    2  C5  UNL     1      -2.607   2.345   1.234  1.00  0.00     0.003 C 
HETATM    3  C6  UNL     1      -1.744   2.447   2.568  1.00  0.00     0.012 C 
HETATM    4  C7  UNL     1      -0.687   2.962   1.526  1.00  0.00     0.003 C 
HETATM    5  C8  UNL     1      -0.440   1.784   0.575  1.00  0.00     0.052 C 
HETATM    6  C9  UNL     1      -1.866   1.164   0.561  1.00  0.00     0.027 C 
HETATM    7  C10 UNL     1      -2.445   0.544  -0.738  1.00  0.00    -0.081 C 
HETATM    8  C11 UNL     1      -2.258   1.320  -2.041  1.00  0.00     0.043 C 
HETATM    9  C12 UNL     1      -2.217  -1.025  -0.914  1.00  0.00    -0.011 C 
HETATM   10  C13 UNL     1      -0.862  -1.793  -1.340  1.00  0.00    -0.008 C 
HETATM   11  C14 UNL     1      -1.256  -2.735  -2.524  1.00  0.00     0.024 C 
HETATM   12  C15 UNL     1      -0.427  -2.812  -0.201  1.00  0.00    -0.005 C 
HETATM   13  C16 UNL     1      -0.082  -2.597   1.103  1.00  0.00    -0.024 C 
HETATM   14  C20 UNL     1      -0.011  -1.199   1.666  1.00  0.00     0.302 C 
HETATM   15  O1  UNL     1       1.008  -0.854   2.557  1.00  0.00    -0.283 OA
HETATM   16  C21 UNL     1       1.178   0.495   2.317  1.00  0.00     0.305 C 
HETATM   17  O2  UNL     1       1.697   1.251   3.126  1.00  0.00    -0.261 OA
HETATM   18  C22 UNL     1       0.718   0.831   0.910  1.00  0.00     0.219 C 
HETATM   19  O3  UNL     1       0.183  -0.401   0.548  1.00  0.00    -0.327 OA
HETATM   20  C23 UNL     1       1.903   1.191   0.010  1.00  0.00     0.206 C 
HETATM   21  O4  UNL     1       2.401   2.330   0.090  1.00  0.00    -0.291 OA
HETATM   22  C24 UNL     1       2.485   0.213  -1.070  1.00  0.00     0.124 C 
HETATM   23  C28 UNL     1       1.726  -1.078  -1.474  1.00  0.00     0.047 C 
HETATM   24  C29 UNL     1       0.266  -0.855  -1.936  1.00  0.00     0.021 C 
ENDROOT
BRANCH  22  25
HETATM   25  O5  UNL     1       2.485   1.057  -2.255  1.00  0.00    -0.382 OA
ATOM     26  H5  UNL     1       2.837   0.465  -2.909  1.00  0.00     0.211 HD
ENDBRANCH  22  25
BRANCH  22  27
HETATM   27  C25 UNL     1       3.981  -0.082  -0.696  1.00  0.00     0.019 C 
HETATM   28  C26 UNL     1       4.871  -0.367  -1.913  1.00  0.00     0.013 C 
HETATM   29  C27 UNL     1       4.141  -1.218   0.320  1.00  0.00     0.013 C 
ENDBRANCH  22  27
BRANCH   1  30
HETATM   30  C2  UNL     1      -1.991   4.350  -0.378  1.00  0.00    -0.088 C 
HETATM   31  C1  UNL     1      -3.204   4.616  -0.894  1.00  0.00     0.014 C 
HETATM   32  C3  UNL     1      -0.729   4.812  -1.039  1.00  0.00     0.043 C 
ENDBRANCH   1  30
BRANCH  13  33
HETATM   33  C17 UNL     1       0.155  -3.715   2.124  1.00  0.00     0.011 C 
HETATM   34  C18 UNL     1       0.298  -5.132   1.553  1.00  0.00     0.014 C 
HETATM   35  C19 UNL     1      -0.978  -3.719   3.160  1.00  0.00     0.014 C 
ENDBRANCH  13  33
TORSDOF 4
