REMARK  7 active torsions:
REMARK  status: ('A' for Active; 'I' for Inactive)
REMARK    1  A    between atoms: O1_2  and  C2_3 
REMARK    2  A    between atoms: C2_3  and  C3_5 
REMARK    3  A    between atoms: C4_6  and  C6_8 
REMARK    4  A    between atoms: C6_8  and  C7_9 
REMARK    5  A    between atoms: C7_9  and  O4_11 
REMARK    6  A    between atoms: O4_11  and  C8_12 
REMARK    7  A    between atoms: C29_33  and  O5_34 
ROOT
HETATM    1  C8  UNL     1      -0.138  -1.964  -0.790  1.00  0.00     0.141 C 
HETATM    2  C9  UNL     1       0.058  -2.256  -2.320  1.00  0.00     0.011 C 
HETATM    3  C10 UNL     1      -0.916  -1.459  -3.201  1.00  0.00     0.012 C 
HETATM    4  C11 UNL     1       1.521  -2.035  -2.824  1.00  0.00     0.007 C 
HETATM    5  C12 UNL     1       2.639  -2.091  -1.765  1.00  0.00     0.006 C 
HETATM    6  C13 UNL     1       2.215  -1.544  -0.400  1.00  0.00     0.002 C 
HETATM    7  C14 UNL     1       0.875  -0.846  -0.386  1.00  0.00     0.033 C 
HETATM    8  C15 UNL     1       0.769   0.264   0.893  1.00  0.00     0.006 C 
HETATM    9  C16 UNL     1       0.867  -0.719   2.064  1.00  0.00    -0.005 C 
HETATM   10  C17 UNL     1      -0.106  -1.871   2.267  1.00  0.00     0.011 C 
HETATM   11  C18 UNL     1       2.399  -1.177   1.937  1.00  0.00     0.016 C 
HETATM   12  C19 UNL     1       3.090  -0.622   0.446  1.00  0.00    -0.024 C 
HETATM   13  C20 UNL     1       3.033   0.683  -0.873  1.00  0.00     0.023 C 
HETATM   14  C21 UNL     1       4.119   1.324  -0.022  1.00  0.00     0.016 C 
HETATM   15  C22 UNL     1       3.347   0.796   1.183  1.00  0.00     0.004 C 
HETATM   16  C23 UNL     1       1.992   1.430   1.522  1.00  0.00    -0.032 C 
HETATM   17  C24 UNL     1       2.026   2.950   1.157  1.00  0.00     0.016 C 
HETATM   18  C25 UNL     1       1.923   1.635   3.102  1.00  0.00     0.016 C 
HETATM   19  C26 UNL     1       1.866   1.544  -1.620  1.00  0.00    -0.080 C 
HETATM   20  C27 UNL     1       2.487   2.717  -2.410  1.00  0.00     0.043 C 
HETATM   21  C28 UNL     1       0.444   1.973  -0.935  1.00  0.00     0.008 C 
HETATM   22  C29 UNL     1      -0.260   1.187   0.278  1.00  0.00     0.151 C 
ENDROOT
BRANCH   1  23
HETATM   23  O4  UNL     1      -1.493  -1.703  -0.390  1.00  0.00    -0.315 OA
BRANCH  23  24
HETATM   24  C7  UNL     1      -2.271  -2.820  -0.291  1.00  0.00     0.263 C 
HETATM   25  O3  UNL     1      -1.974  -3.909  -0.773  1.00  0.00    -0.265 OA
BRANCH  24  26
HETATM   26  C6  UNL     1      -3.514  -2.663   0.581  1.00  0.00     0.145 C 
BRANCH  26  27
HETATM   27  C4  UNL     1      -4.046  -1.302   0.978  1.00  0.00    -0.069 C 
HETATM   28  C3  UNL     1      -4.253  -0.344   0.046  1.00  0.00     0.085 C 
HETATM   29  C5  UNL     1      -4.397  -1.202   2.439  1.00  0.00     0.044 C 
BRANCH  28  30
HETATM   30  C2  UNL     1      -4.929   0.963   0.241  1.00  0.00     0.282 C 
HETATM   31  O2  UNL     1      -5.657   1.260   1.173  1.00  0.00    -0.260 OA
BRANCH  30  32
HETATM   32  O1  UNL     1      -4.647   1.736  -0.840  1.00  0.00    -0.323 OA
HETATM   33  C1  UNL     1      -5.318   2.997  -0.856  1.00  0.00     0.213 C 
ENDBRANCH  30  32
ENDBRANCH  28  30
ENDBRANCH  26  27
ENDBRANCH  24  26
ENDBRANCH  23  24
ENDBRANCH   1  23
BRANCH  22  34
HETATM   34  O5  UNL     1      -0.821   2.087   1.219  1.00  0.00    -0.391 OA
ATOM     35  H5  UNL     1      -1.467   2.667   0.833  1.00  0.00     0.210 HD
ENDBRANCH  22  34
TORSDOF 7
