REMARK  13 active torsions:
REMARK  status: ('A' for Active; 'I' for Inactive)
REMARK    1  A    between atoms: C6_9  and  C7_10 
REMARK    2  A    between atoms: C7_10  and  O2_11 
REMARK    3  A    between atoms: C10_16  and  O4_17 
REMARK    4  A    between atoms: C15_23  and  O5_24 
REMARK    5  A    between atoms: O5_24  and  C16_25 
REMARK    6  A    between atoms: C16_25  and  C17_26 
REMARK    7  A    between atoms: C17_26  and  C18_27 
REMARK    8  A    between atoms: C18_27  and  C19_28 
REMARK    9  A    between atoms: C19_28  and  C20_29 
REMARK   10  A    between atoms: C20_29  and  C21_30 
REMARK   11  A    between atoms: C21_30  and  C22_31 
REMARK   12  A    between atoms: C22_31  and  N2_32 
REMARK   13  A    between atoms: N2_32  and  C23_34 
ROOT
HETATM    1  C1  UNL     1       2.722   3.397  -2.031  1.00  0.00     0.043 C 
HETATM    2  C2  UNL     1       2.813   2.217  -1.386  1.00  0.00     0.023 C 
HETATM    3  N1  UNL     1       3.832   2.054  -0.461  1.00  0.00    -0.387 N 
ATOM      4  H1  UNL     1       4.096   2.887   0.066  1.00  0.00     0.159 HD
HETATM    5  C3  UNL     1       4.572   0.838  -0.149  1.00  0.00     0.165 C 
HETATM    6  C4  UNL     1       3.792  -0.024   0.809  1.00  0.00     0.134 A 
HETATM    7  O1  UNL     1       4.661  -0.605   1.809  1.00  0.00    -0.359 OA
HETATM    8  C5  UNL     1       3.824   0.470   2.257  1.00  0.00     0.195 A 
HETATM    9  C6  UNL     1       2.865   0.125   3.343  1.00  0.00     0.178 C 
HETATM   10  O3  UNL     1       1.483   0.393   3.046  1.00  0.00    -0.371 OA
HETATM   11  C8  UNL     1       0.938   0.007   1.788  1.00  0.00     0.158 C 
HETATM   12  C9  UNL     1       0.819   1.260   0.846  1.00  0.00     0.073 C 
HETATM   13  C10 UNL     1       0.568   1.008  -0.676  1.00  0.00     0.152 C 
HETATM   14  C11 UNL     1       1.800   1.092  -1.686  1.00  0.00    -0.022 C 
HETATM   15  C12 UNL     1       2.494  -0.262  -2.093  1.00  0.00     0.078 C 
HETATM   16  C13 UNL     1       2.454  -1.335  -1.014  1.00  0.00    -0.041 C 
HETATM   17  C14 UNL     1       1.693  -2.490  -1.302  1.00  0.00     0.044 C 
HETATM   18  C15 UNL     1       0.841  -3.001  -0.335  1.00  0.00     0.069 C 
HETATM   19  C25 UNL     1       0.737  -2.324   0.875  1.00  0.00     0.047 C 
HETATM   20  C26 UNL     1       1.555  -1.200   1.097  1.00  0.00    -0.017 C 
HETATM   21  C27 UNL     1       2.673  -0.930   0.308  1.00  0.00    -0.004 C 
ENDROOT
BRANCH  18  22
HETATM   22  O5  UNL     1      -0.009  -4.011  -0.690  1.00  0.00    -0.351 OA
BRANCH  22  23
HETATM   23  C16 UNL     1      -1.390  -3.614  -0.653  1.00  0.00     0.175 C 
BRANCH  23  24
HETATM   24  C17 UNL     1      -1.959  -3.633  -2.073  1.00  0.00     0.027 C 
BRANCH  24  25
HETATM   25  C18 UNL     1      -3.211  -2.763  -2.204  1.00  0.00     0.002 C 
BRANCH  25  26
HETATM   26  C19 UNL     1      -2.843  -1.282  -2.411  1.00  0.00     0.000 C 
BRANCH  26  27
HETATM   27  C20 UNL     1      -3.866  -0.312  -1.811  1.00  0.00     0.002 C 
BRANCH  27  28
HETATM   28  C21 UNL     1      -3.720  -0.212  -0.285  1.00  0.00     0.020 C 
BRANCH  28  29
HETATM   29  C22 UNL     1      -4.756   0.700   0.368  1.00  0.00     0.121 C 
BRANCH  29  30
HETATM   30  N2  UNL     1      -4.570   2.079   0.004  1.00  0.00    -0.380 N 
ATOM     31  H2  UNL     1      -5.135   2.409  -0.778  1.00  0.00     0.160 HD
BRANCH  30  32
HETATM   32  C23 UNL     1      -3.741   3.002   0.563  1.00  0.00     0.066 C 
HETATM   33  C24 UNL     1      -2.888   2.661   1.762  1.00  0.00     0.088 C 
HETATM   34  N3  UNL     1      -3.747   4.193   0.054  1.00  0.00    -0.389 N 
ATOM     35  H32 UNL     1      -4.323   4.423  -0.756  1.00  0.00     0.157 HD
ATOM     36  H31 UNL     1      -3.126   4.885   0.473  1.00  0.00     0.157 HD
ENDBRANCH  30  32
ENDBRANCH  29  30
ENDBRANCH  28  29
ENDBRANCH  27  28
ENDBRANCH  26  27
ENDBRANCH  25  26
ENDBRANCH  24  25
ENDBRANCH  23  24
ENDBRANCH  22  23
ENDBRANCH  18  22
BRANCH  13  37
HETATM   37  O4  UNL     1      -0.435   1.960  -1.108  1.00  0.00    -0.391 OA
ATOM     38  H4  UNL     1      -0.588   1.807  -2.033  1.00  0.00     0.210 HD
ENDBRANCH  13  37
BRANCH   9  39
HETATM   39  C7  UNL     1       3.044  -1.272   3.964  1.00  0.00     0.198 C 
BRANCH  39  40
HETATM   40  O2  UNL     1       2.080  -1.465   5.001  1.00  0.00    -0.398 OA
ATOM     41  H2  UNL     1       2.190  -2.327   5.384  1.00  0.00     0.209 HD
ENDBRANCH  39  40
ENDBRANCH   9  39
TORSDOF 13
