REMARK  2 active torsions:
REMARK  status: ('A' for Active; 'I' for Inactive)
REMARK    1  A    between atoms: C2_3  and  C3_4 
REMARK    2  A    between atoms: C3_4  and  N2_5 
ROOT
HETATM    1  N1  UNL     1      -4.967  -0.476   0.066  1.00  0.00    -0.197 NA
HETATM    2  C1  UNL     1      -3.922  -0.967  -0.047  1.00  0.00     0.060 C 
HETATM    3  C2  UNL     1      -2.592  -1.571  -0.204  1.00  0.00     0.144 C 
ENDROOT
BRANCH   3   4
HETATM    4  C3  UNL     1      -1.663  -0.648  -1.003  1.00  0.00     0.146 C 
BRANCH   4   5
HETATM    5  N2  UNL     1      -0.785   0.122  -0.093  1.00  0.00    -0.316 N 
HETATM    6  C4  UNL     1       0.630  -0.188   0.011  1.00  0.00     0.150 C 
HETATM    7  C5  UNL     1       1.003  -1.657  -0.098  1.00  0.00     0.280 C 
HETATM    8  C7  UNL     1       1.694   0.663   0.251  1.00  0.00     0.144 C 
HETATM    9  O1  UNL     1       0.167  -2.550   0.034  1.00  0.00    -0.265 OA
HETATM   10  N3  UNL     1       2.307  -1.968  -0.315  1.00  0.00    -0.273 N 
HETATM   11  C6  UNL     1       3.318  -1.140   0.028  1.00  0.00     0.328 C 
ATOM     12  H3  UNL     1       2.532  -2.861  -0.754  1.00  0.00     0.173 HD
HETATM   13  O2  UNL     1       4.471  -1.530   0.142  1.00  0.00    -0.247 OA
HETATM   14  N4  UNL     1       2.969   0.150   0.268  1.00  0.00    -0.292 N 
ATOM     15  H4  UNL     1       3.725   0.800   0.481  1.00  0.00     0.172 HD
HETATM   16  N5  UNL     1       1.645   2.065   0.487  1.00  0.00    -0.317 N 
HETATM   17  C8  UNL     1       0.438   2.718   0.634  1.00  0.00     0.199 C 
ATOM     18  H5  UNL     1       2.514   2.595   0.548  1.00  0.00     0.169 HD
HETATM   19  N6  UNL     1      -0.165   3.262  -0.391  1.00  0.00    -0.276 N 
HETATM   20  S1  UNL     1      -0.699   2.011   1.869  1.00  0.00     0.157 S 
HETATM   21  N7  UNL     1      -1.276   2.371  -0.682  1.00  0.00    -0.275 N 
ATOM     22  H6  UNL     1       0.088   4.121  -0.878  1.00  0.00     0.189 HD
HETATM   23  C9  UNL     1      -1.207   1.415   0.209  1.00  0.00     0.200 C 
ATOM     24  H7  UNL     1      -1.966   2.470  -1.426  1.00  0.00     0.189 HD
HETATM   25  O3  UNL     1      -1.667   3.109   2.217  1.00  0.00    -0.241 OA
ENDBRANCH   4   5
ENDBRANCH   3   4
TORSDOF 2
