REMARK  4 active torsions:
REMARK  status: ('A' for Active; 'I' for Inactive)
REMARK    1  A    between atoms: O1_2  and  C2_3 
REMARK    2  A    between atoms: N1_5  and  C4_6 
REMARK    3  A    between atoms: C4_6  and  C5_7 
REMARK    4  A    between atoms: C16_23  and  O3_24 
ROOT
HETATM    1  C5  UNL     1      -1.135  -1.262   0.482  1.00  0.00     0.048 C 
HETATM    2  C6  UNL     1      -2.176  -2.363   0.872  1.00  0.00     0.080 C 
HETATM    3 BR1  UNL     1      -2.506  -2.498   2.789  1.00  0.00    -0.089 Br
HETATM    4  C7  UNL     1      -3.254  -1.589   0.051  1.00  0.00     0.092 C 
HETATM    5 BR2  UNL     1      -3.541  -2.431  -1.694  1.00  0.00    -0.089 Br
HETATM    6  C8  UNL     1      -2.341  -0.374   0.110  1.00  0.00     0.082 C 
HETATM    7  C9  UNL     1      -2.576   0.871   0.952  1.00  0.00     0.214 C 
HETATM    8  O2  UNL     1      -2.854   1.109   2.097  1.00  0.00    -0.279 OA
HETATM    9  N2  UNL     1      -2.239   1.680  -0.103  1.00  0.00    -0.224 NA
HETATM   10  C10 UNL     1      -3.189   2.590  -0.784  1.00  0.00     0.126 C 
HETATM   11  C11 UNL     1      -4.199   3.250   0.130  1.00  0.00     0.038 C 
HETATM   12  S1  UNL     1      -3.835   1.204  -1.737  1.00  0.00    -0.127 SA
HETATM   13  C12 UNL     1      -2.287   0.564  -1.089  1.00  0.00     0.149 C 
ENDROOT
BRANCH   1  14
HETATM   14  C4  UNL     1      -0.101  -1.666  -0.566  1.00  0.00     0.247 C 
BRANCH  14  15
HETATM   15  N1  UNL     1       1.281  -1.146  -0.264  1.00  0.00    -0.038 N 
HETATM   16  C3  UNL     1       1.392   0.380   0.021  1.00  0.00     0.273 C 
HETATM   17  C2  UNL     1       2.886   0.682  -0.216  1.00  0.00     0.155 C 
HETATM   18  C15 UNL     1       3.430  -0.699  -0.646  1.00  0.00     0.075 C 
HETATM   19  C14 UNL     1       3.489  -1.653   0.559  1.00  0.00     0.040 C 
HETATM   20  C16 UNL     1       2.257  -1.293  -1.409  1.00  0.00     0.330 C 
HETATM   21  C13 UNL     1       2.012  -1.897   0.880  1.00  0.00     0.241 C 
BRANCH  17  22
HETATM   22  O1  UNL     1       3.557   1.093   0.972  1.00  0.00    -0.388 OA
HETATM   23  C1  UNL     1       3.367   2.468   1.285  1.00  0.00     0.202 C 
ENDBRANCH  17  22
BRANCH  20  24
HETATM   24  O3  UNL     1       1.881  -0.563  -2.544  1.00  0.00    -0.369 OA
ATOM     25  H3  UNL     1       2.494  -0.655  -3.264  1.00  0.00     0.212 HD
ENDBRANCH  20  24
ENDBRANCH  14  15
ENDBRANCH   1  14
TORSDOF 4
