REMARK  4 active torsions:
REMARK  status: ('A' for Active; 'I' for Inactive)
REMARK       I    between atoms: C1_2  and  N1_3 
REMARK    1  A    between atoms: C1_2  and  C7_10 
REMARK    2  A    between atoms: N1_3  and  C2_5 
REMARK    3  A    between atoms: C12_15  and  C13_16 
REMARK       I    between atoms: C13_16  and  N2_18 
REMARK    4  A    between atoms: C14_19  and  C15_20 
REMARK       I    between atoms: C15_20  and  N3_22 
ROOT
HETATM    1  C7  UNL     1      -0.598  -2.393  -0.901  1.00  0.00     0.100 C 
HETATM    2  C8  UNL     1      -0.015  -3.788  -0.679  1.00  0.00     0.030 C 
HETATM    3  C9  UNL     1       0.123  -4.260   0.751  1.00  0.00    -0.024 C 
HETATM    4  C10 UNL     1       1.446  -3.990   0.770  1.00  0.00    -0.024 C 
HETATM    5  C11 UNL     1       1.388  -3.161  -0.513  1.00  0.00     0.030 C 
HETATM    6  C12 UNL     1       0.728  -1.779  -0.294  1.00  0.00     0.100 C 
ENDROOT
BRANCH   6   7
HETATM    7  C13 UNL     1       1.147  -0.464  -0.966  1.00  0.00     0.226 C 
HETATM    8  O2  UNL     1       0.418   0.077  -1.818  1.00  0.00    -0.273 OA
HETATM    9  N2  UNL     1       2.236   0.254  -0.471  1.00  0.00    -0.332 N 
HETATM   10  C14 UNL     1       2.186   1.723  -0.612  1.00  0.00     0.181 A 
HETATM   11  C19 UNL     1       3.099  -0.136   0.608  1.00  0.00     0.108 A 
HETATM   12  C16 UNL     1       3.146   2.307   0.449  1.00  0.00     0.043 A 
HETATM   13  C17 UNL     1       3.679   1.124   1.211  1.00  0.00     0.029 A 
HETATM   14  C18 UNL     1       4.599   0.076   0.654  1.00  0.00     0.087 A 
HETATM   15 BR1  UNL     1       5.618   0.384  -0.910  1.00  0.00    -0.088 Br
BRANCH  10  16
HETATM   16  C15 UNL     1       2.505   2.225  -2.032  1.00  0.00     0.255 C 
HETATM   17  O3  UNL     1       3.400   1.753  -2.731  1.00  0.00    -0.270 OA
HETATM   18  N3  UNL     1       1.685   3.271  -2.421  1.00  0.00    -0.267 N 
HETATM   19 CL1  UNL     1       1.695   3.781  -4.041  1.00  0.00     0.013 Cl
ATOM     20  H3  UNL     1       1.080   3.731  -1.741  1.00  0.00     0.183 HD
ENDBRANCH  10  16
ENDBRANCH   6   7
BRANCH   1  21
HETATM   21  C1  UNL     1      -1.920  -1.957  -0.221  1.00  0.00     0.223 C 
HETATM   22  O1  UNL     1      -2.800  -2.712   0.184  1.00  0.00    -0.273 OA
HETATM   23  N1  UNL     1      -2.018  -0.582  -0.083  1.00  0.00    -0.356 N 
ATOM     24  H1  UNL     1      -1.309   0.007  -0.520  1.00  0.00     0.162 HD
BRANCH  23  25
HETATM   25  C2  UNL     1      -3.088   0.050   0.658  1.00  0.00     0.084 C 
HETATM   26  C3  UNL     1      -4.206   0.566  -0.239  1.00  0.00     0.025 C 
HETATM   27  C4  UNL     1      -4.890   1.657   0.584  1.00  0.00     0.002 C 
HETATM   28  C5  UNL     1      -3.882   2.097   1.646  1.00  0.00     0.002 C 
HETATM   29  C6  UNL     1      -2.604   1.315   1.362  1.00  0.00     0.025 C 
ENDBRANCH  23  25
ENDBRANCH   1  21
TORSDOF 4
