REMARK  3 active torsions:
REMARK  status: ('A' for Active; 'I' for Inactive)
REMARK    1  A    between atoms: C2_2  and  N1_3 
REMARK    2  A    between atoms: C2_2  and  S1_24 
REMARK    3  A    between atoms: N1_3  and  C3_6 
ROOT
HETATM    1  C3  UNL     1       1.015   0.278   1.760  1.00  0.00     0.196 C 
HETATM    2  C4  UNL     1       0.163   1.524   1.611  1.00  0.00     0.017 C 
HETATM    3  C5  UNL     1      -0.358   1.287   2.859  1.00  0.00     0.013 C 
HETATM    4  C6  UNL     1      -0.329  -0.231   2.419  1.00  0.00     0.022 C 
HETATM    5  C7  UNL     1      -1.663  -0.627   1.721  1.00  0.00     0.007 C 
HETATM    6  C8  UNL     1      -2.487   0.574   1.057  1.00  0.00     0.068 C 
HETATM    7  C9  UNL     1      -1.786   1.620   0.055  1.00  0.00     0.001 C 
HETATM    8  C10 UNL     1      -0.438   2.252   0.437  1.00  0.00     0.012 C 
HETATM    9  C11 UNL     1      -1.874   1.093  -1.397  1.00  0.00    -0.005 C 
HETATM   10  C12 UNL     1      -1.139   1.102  -2.769  1.00  0.00     0.006 C 
HETATM   11  C13 UNL     1      -1.917  -0.265  -3.004  1.00  0.00     0.006 C 
HETATM   12  C14 UNL     1      -1.702  -0.476  -1.497  1.00  0.00     0.005 C 
HETATM   13  C15 UNL     1      -2.535  -1.216  -0.450  1.00  0.00     0.034 A 
HETATM   14  C16 UNL     1      -2.532  -2.637   0.004  1.00  0.00     0.022 A 
HETATM   15  C17 UNL     1      -1.544  -1.694   0.642  1.00  0.00     0.006 A 
HETATM   16  C18 UNL     1      -3.489  -0.278   0.265  1.00  0.00     0.256 C 
HETATM   17  F1  UNL     1      -4.306  -0.958   1.114  1.00  0.00    -0.205 F 
HETATM   18  F2  UNL     1      -4.294   0.412  -0.564  1.00  0.00    -0.205 F 
ENDROOT
BRANCH   1  19
HETATM   19  N1  UNL     1       1.320  -0.339   0.477  1.00  0.00    -0.053 N 
ATOM     20  H12 UNL     1       0.625  -0.119  -0.236  1.00  0.00     0.279 HD
ATOM     21  H11 UNL     1       1.193  -1.351   0.491  1.00  0.00     0.279 HD
BRANCH  19  22
HETATM   22  C2  UNL     1       2.703   0.057   0.068  1.00  0.00     0.302 C 
HETATM   23  C1  UNL     1       2.713   0.285  -1.441  1.00  0.00     0.057 C 
BRANCH  22  24
HETATM   24  S1  UNL     1       3.993  -1.177   0.533  1.00  0.00     0.169 S 
HETATM   25  C19 UNL     1       5.540  -0.345   0.263  1.00  0.00     0.163 C 
HETATM   26  O1  UNL     1       3.879  -1.420   1.959  1.00  0.00    -0.226 OA
HETATM   27  O2  UNL     1       3.918  -2.293  -0.390  1.00  0.00    -0.226 OA
ENDBRANCH  22  24
ENDBRANCH  19  22
ENDBRANCH   1  19
TORSDOF 3
