REMARK  17 active torsions:
REMARK  status: ('A' for Active; 'I' for Inactive)
REMARK    1  A    between atoms: C2_2  and  O1_5 
REMARK    2  A    between atoms: O1_5  and  C5_6 
REMARK    3  A    between atoms: C5_6  and  C6_8 
REMARK    4  A    between atoms: C6_8  and  C7_9 
REMARK    5  A    between atoms: C7_9  and  C8_10 
REMARK    6  A    between atoms: C8_10  and  O3_11 
REMARK       I    between atoms: N1_13  and  C9_15 
REMARK    7  A    between atoms: C9_15  and  C10_17 
REMARK    8  A    between atoms: C11_18  and  C12_19 
REMARK    9  A    between atoms: C12_19  and  C13_20 
REMARK   10  A    between atoms: C13_20  and  C14_21 
REMARK   11  A    between atoms: C14_21  and  C15_22 
REMARK   12  A    between atoms: C15_22  and  C16_23 
REMARK   13  A    between atoms: C16_23  and  C17_24 
REMARK   14  A    between atoms: C17_24  and  N2_25 
REMARK   15  A    between atoms: C17_24  and  C18_29 
REMARK       I    between atoms: N3_33  and  C20_34 
REMARK   16  A    between atoms: C20_34  and  O8_36 
REMARK   17  A    between atoms: O8_36  and  C21_37 
ROOT
HETATM    1  C10 UNL     1       1.527   2.308   0.058  1.00  0.00     0.103 C 
HETATM    2  C11 UNL     1       1.973   0.965  -0.577  1.00  0.00     0.019 C 
HETATM    3  C19 UNL     1       3.507   1.181  -0.407  1.00  0.00     0.083 C 
HETATM    4  N3  UNL     1       3.650   1.899   0.891  1.00  0.00    -0.216 NA
HETATM    5  C20 UNL     1       3.416   1.532   2.188  1.00  0.00     0.341 C 
HETATM    6  O7  UNL     1       3.126   2.350   3.055  1.00  0.00    -0.245 OA
HETATM    7  C26 UNL     1       2.891   2.998   0.211  1.00  0.00     0.091 C 
HETATM    8  C27 UNL     1       3.943   2.647  -0.931  1.00  0.00    -0.013 C 
HETATM    9  C28 UNL     1       5.401   3.089  -0.616  1.00  0.00     0.018 C 
HETATM   10  C29 UNL     1       3.619   3.151  -2.328  1.00  0.00     0.018 C 
ENDROOT
BRANCH   1  11
HETATM   11  C9  UNL     1       0.380   3.091  -0.539  1.00  0.00     0.228 C 
HETATM   12  N1  UNL     1      -0.767   2.849   0.167  1.00  0.00    -0.331 N 
HETATM   13  C7  UNL     1      -1.836   2.402  -0.416  1.00  0.00     0.022 C 
ATOM     14  H1  UNL     1      -0.782   3.024   1.172  1.00  0.00     0.168 HD
HETATM   15  O4  UNL     1       0.461   3.846  -1.490  1.00  0.00    -0.273 OA
BRANCH  13  16
HETATM   16  C6  UNL     1      -3.002   2.109   0.494  1.00  0.00     0.165 C 
BRANCH  16  17
HETATM   17  C5  UNL     1      -3.533   0.726   0.286  1.00  0.00     0.265 C 
HETATM   18  O2  UNL     1      -2.834  -0.277   0.214  1.00  0.00    -0.265 OA
BRANCH  17  19
HETATM   19  O1  UNL     1      -4.879   0.779   0.179  1.00  0.00    -0.311 OA
BRANCH  19  20
HETATM   20  C2  UNL     1      -5.659  -0.391  -0.142  1.00  0.00     0.060 C 
HETATM   21  C1  UNL     1      -5.237  -1.003  -1.485  1.00  0.00     0.045 C 
HETATM   22  C3  UNL     1      -5.595  -1.419   0.990  1.00  0.00     0.045 C 
HETATM   23  C4  UNL     1      -7.088   0.156  -0.267  1.00  0.00     0.045 C 
ENDBRANCH  19  20
ENDBRANCH  17  19
ENDBRANCH  16  17
ENDBRANCH  13  16
BRANCH  13  24
HETATM   24  C8  UNL     1      -2.042   2.197  -1.914  1.00  0.00     0.217 C 
BRANCH  24  25
HETATM   25  O3  UNL     1      -2.821   3.272  -2.404  1.00  0.00    -0.395 OA
ATOM     26  H3  UNL     1      -2.949   3.144  -3.337  1.00  0.00     0.209 HD
ENDBRANCH  24  25
ENDBRANCH  13  24
ENDBRANCH   1  11
BRANCH   2  27
HETATM   27  C12 UNL     1       1.576   0.669  -2.034  1.00  0.00     0.007 C 
BRANCH  27  28
HETATM   28  C13 UNL     1       0.492  -0.417  -2.201  1.00  0.00     0.000 C 
BRANCH  28  29
HETATM   29  C14 UNL     1       1.040  -1.764  -2.679  1.00  0.00     0.000 C 
BRANCH  29  30
HETATM   30  C15 UNL     1       1.785  -2.573  -1.618  1.00  0.00     0.002 C 
BRANCH  30  31
HETATM   31  C16 UNL     1       0.908  -3.296  -0.580  1.00  0.00     0.044 C 
BRANCH  31  32
HETATM   32  C17 UNL     1       0.029  -4.409  -1.193  1.00  0.00     0.283 C 
BRANCH  32  33
HETATM   33  N2  UNL     1       0.088  -5.667  -0.409  1.00  0.00    -0.065 N 
ATOM     34  H23 UNL     1       1.051  -5.982  -0.289  1.00  0.00     0.275 HD
ATOM     35  H22 UNL     1      -0.153  -5.504   0.569  1.00  0.00     0.275 HD
ATOM     36  H21 UNL     1      -0.492  -6.402  -0.814  1.00  0.00     0.275 HD
ENDBRANCH  32  33
BRANCH  32  37
HETATM   37  C18 UNL     1      -1.433  -3.947  -1.291  1.00  0.00     0.204 C 
HETATM   38  O5  UNL     1      -1.984  -3.483  -2.280  1.00  0.00    -0.646 OA
HETATM   39  O6  UNL     1      -2.106  -4.056  -0.122  1.00  0.00    -0.646 OA
ENDBRANCH  32  37
ENDBRANCH  31  32
ENDBRANCH  30  31
ENDBRANCH  29  30
ENDBRANCH  28  29
ENDBRANCH  27  28
ENDBRANCH   2  27
BRANCH   5  40
HETATM   40  O8  UNL     1       3.408   0.188   2.375  1.00  0.00    -0.302 OA
BRANCH  40  41
HETATM   41  C21 UNL     1       2.312  -0.251   3.208  1.00  0.00     0.141 C 
HETATM   42  C22 UNL     1       2.150   0.243   4.693  1.00  0.00     0.017 C 
HETATM   43  C23 UNL     1       1.243  -1.033   4.856  1.00  0.00     0.014 C 
HETATM   44  C25 UNL     1       3.328  -0.723   5.053  1.00  0.00     0.014 C 
HETATM   45  C24 UNL     1       2.481  -1.571   4.047  1.00  0.00     0.017 C 
ENDBRANCH  40  41
ENDBRANCH   5  40
TORSDOF 17
