REMARK  15 active torsions:
REMARK  status: ('A' for Active; 'I' for Inactive)
REMARK    1  A    between atoms: C2_2  and  C3_3 
REMARK    2  A    between atoms: C3_3  and  C4_4 
REMARK    3  A    between atoms: C4_4  and  C5_5 
REMARK    4  A    between atoms: C5_5  and  N1_6 
REMARK    5  A    between atoms: C5_5  and  C10_16 
REMARK       I    between atoms: N1_6  and  C6_8 
REMARK    6  A    between atoms: C6_8  and  C7_10 
REMARK    7  A    between atoms: C7_10  and  N2_11 
REMARK       I    between atoms: N2_11  and  C8_13 
REMARK       I    between atoms: C10_16  and  N3_18 
REMARK    8  A    between atoms: N3_18  and  C11_20 
REMARK    9  A    between atoms: C11_20  and  C12_21 
REMARK   10  A    between atoms: C11_20  and  C30_39 
REMARK   11  A    between atoms: C12_21  and  C13_22 
REMARK   12  A    between atoms: C13_22  and  C15_24 
REMARK   13  A    between atoms: C22_31  and  C23_32 
REMARK   14  A    between atoms: C30_39  and  C31_41 
REMARK       I    between atoms: C31_41  and  N4_43 
REMARK   15  A    between atoms: N4_43  and  C32_45 
ROOT
HETATM    1  C11 UNL     1      -0.963   0.249   1.566  1.00  0.00     0.188 C 
ENDROOT
BRANCH   1   2
HETATM    2  N3  UNL     1      -2.168   1.107   1.693  1.00  0.00    -0.344 N 
HETATM    3  C10 UNL     1      -2.122   2.333   2.351  1.00  0.00     0.241 C 
HETATM    4  O3  UNL     1      -1.136   2.690   2.988  1.00  0.00    -0.271 OA
ATOM      5  H3  UNL     1      -3.050   0.791   1.289  1.00  0.00     0.163 HD
BRANCH   3   6
HETATM    6  C5  UNL     1      -3.433   3.172   2.261  1.00  0.00     0.177 C 
BRANCH   6   7
HETATM    7  C4  UNL     1      -3.884   3.436   0.817  1.00  0.00     0.038 C 
BRANCH   7   8
HETATM    8  C3  UNL     1      -3.091   4.582   0.173  1.00  0.00     0.029 C 
BRANCH   8   9
HETATM    9  C2  UNL     1      -2.694   4.293  -1.250  1.00  0.00    -0.037 C 
HETATM   10  C1  UNL     1      -3.148   4.956  -2.318  1.00  0.00     0.007 C 
ENDBRANCH   8   9
ENDBRANCH   7   8
ENDBRANCH   6   7
BRANCH   6  11
HETATM   11  N1  UNL     1      -4.409   2.359   2.991  1.00  0.00    -0.346 N 
HETATM   12  C6  UNL     1      -4.888   2.792   4.223  1.00  0.00     0.236 C 
HETATM   13  O1  UNL     1      -5.103   3.966   4.498  1.00  0.00    -0.272 OA
ATOM     14  H1  UNL     1      -4.737   1.477   2.597  1.00  0.00     0.163 HD
BRANCH  12  15
HETATM   15  C7  UNL     1      -5.200   1.617   5.160  1.00  0.00     0.225 C 
BRANCH  15  16
HETATM   16  N2  UNL     1      -4.004   0.786   5.267  1.00  0.00    -0.353 N 
HETATM   17  C8  UNL     1      -3.019   1.171   6.158  1.00  0.00     0.213 C 
HETATM   18  C9  UNL     1      -1.759   0.363   6.049  1.00  0.00     0.117 C 
HETATM   19  O2  UNL     1      -3.132   2.102   6.944  1.00  0.00    -0.274 OA
ATOM     20  H2  UNL     1      -3.898  -0.055   4.700  1.00  0.00     0.162 HD
ENDBRANCH  15  16
ENDBRANCH  12  15
ENDBRANCH   6  11
ENDBRANCH   3   6
ENDBRANCH   1   2
BRANCH   1  21
HETATM   21  C12 UNL     1      -1.375  -1.005   0.753  1.00  0.00     0.013 C 
BRANCH  21  22
HETATM   22  C13 UNL     1      -0.671  -2.385   0.886  1.00  0.00    -0.060 C 
HETATM   23  C14 UNL     1       0.453  -2.509   1.909  1.00  0.00     0.048 C 
BRANCH  22  24
HETATM   24  C15 UNL     1      -0.368  -3.149  -0.439  1.00  0.00    -0.060 C 
HETATM   25  C16 UNL     1      -1.493  -3.058  -1.528  1.00  0.00     0.029 C 
HETATM   26  C17 UNL     1      -2.391  -2.067  -2.380  1.00  0.00    -0.004 C 
HETATM   27  C19 UNL     1      -0.703  -2.927  -2.930  1.00  0.00    -0.027 C 
HETATM   28  C18 UNL     1      -2.150  -3.117  -3.548  1.00  0.00     0.016 C 
HETATM   29  C20 UNL     1      -1.102  -1.394  -2.882  1.00  0.00     0.016 C 
HETATM   30  C21 UNL     1       0.502  -3.705  -2.578  1.00  0.00     0.015 C 
HETATM   31  C22 UNL     1       1.756  -3.769  -3.426  1.00  0.00     0.019 C 
HETATM   32  C28 UNL     1       0.975  -3.102  -1.225  1.00  0.00    -0.015 C 
HETATM   33  C26 UNL     1       2.745  -4.356  -2.366  1.00  0.00     0.010 C 
HETATM   34  C27 UNL     1       2.078  -4.151  -0.961  1.00  0.00     0.015 C 
HETATM   35  C29 UNL     1       1.668  -1.725  -1.282  1.00  0.00     0.020 C 
BRANCH  31  36
HETATM   36  C23 UNL     1       1.702  -4.568  -4.716  1.00  0.00    -0.088 C 
HETATM   37  C24 UNL     1       0.673  -5.358  -5.063  1.00  0.00     0.014 C 
HETATM   38  C25 UNL     1       2.880  -4.370  -5.630  1.00  0.00     0.043 C 
ENDBRANCH  31  36
ENDBRANCH  22  24
ENDBRANCH  21  22
ENDBRANCH   1  21
BRANCH   1  39
HETATM   39  C30 UNL     1       0.017   1.082   0.743  1.00  0.00     0.242 C 
HETATM   40  O4  UNL     1      -0.306   1.721  -0.259  1.00  0.00    -0.285 OA
BRANCH  39  41
HETATM   41  C31 UNL     1       1.483   1.093   1.181  1.00  0.00     0.290 C 
HETATM   42  O5  UNL     1       1.888   0.331   2.037  1.00  0.00    -0.264 OA
HETATM   43  N4  UNL     1       2.242   1.964   0.430  1.00  0.00    -0.350 N 
ATOM     44  H4  UNL     1       1.771   2.729  -0.053  1.00  0.00     0.163 HD
BRANCH  43  45
HETATM   45  C32 UNL     1       3.682   1.842   0.295  1.00  0.00     0.084 C 
HETATM   46  C33 UNL     1       4.449   2.635   1.365  1.00  0.00     0.025 C 
HETATM   47  C34 UNL     1       4.862   4.024   0.888  1.00  0.00     0.002 C 
HETATM   48  C35 UNL     1       5.712   3.986  -0.387  1.00  0.00     0.000 C 
HETATM   49  C36 UNL     1       5.510   2.728  -1.228  1.00  0.00     0.002 C 
HETATM   50  C37 UNL     1       4.079   2.228  -1.141  1.00  0.00     0.025 C 
ENDBRANCH  43  45
ENDBRANCH  39  41
ENDBRANCH   1  39
TORSDOF 15
