REMARK  21 active torsions:
REMARK  status: ('A' for Active; 'I' for Inactive)
REMARK    1  A    between atoms: C2_2  and  C3_3 
REMARK    2  A    between atoms: C3_3  and  C4_4 
REMARK    3  A    between atoms: C4_4  and  C5_5 
REMARK    4  A    between atoms: C5_5  and  O2_7 
REMARK    5  A    between atoms: O2_7  and  C6_8 
REMARK    6  A    between atoms: C7_9  and  O3_10 
REMARK    7  A    between atoms: C7_9  and  C8_12 
REMARK    8  A    between atoms: C8_12  and  O5_14 
REMARK    9  A    between atoms: C10_16  and  N1_17 
REMARK   10  A    between atoms: N1_17  and  S1_19 
REMARK   11  A    between atoms: S1_19  and  C11_20 
REMARK   12  A    between atoms: C11_20  and  C12_21 
REMARK   13  A    between atoms: C14_26  and  O9_27 
REMARK   14  A    between atoms: C16_29  and  O10_30 
REMARK   15  A    between atoms: C17_32  and  O11_33 
REMARK   16  A    between atoms: C19_37  and  O13_38 
REMARK   17  A    between atoms: O13_38  and  C20_39 
REMARK   18  A    between atoms: C20_39  and  C21_41 
REMARK   19  A    between atoms: C24_44  and  O15_45 
REMARK   20  A    between atoms: C25_47  and  O16_48 
REMARK   21  A    between atoms: C27_51  and  O17_52 
ROOT
HETATM    1  C6  UNL     1      -1.495  -0.335   0.082  1.00  0.00     0.220 C 
HETATM    2  C7  UNL     1      -0.477   0.574  -0.798  1.00  0.00     0.211 C 
HETATM    3  C10 UNL     1      -0.449   2.133  -0.186  1.00  0.00     0.182 C 
HETATM    4  C13 UNL     1      -1.835   2.543  -0.511  1.00  0.00     0.203 C 
HETATM    5  O8  UNL     1      -2.136   3.325  -1.404  1.00  0.00    -0.291 OA
HETATM    6  C14 UNL     1      -2.764   1.827   0.443  1.00  0.00     0.190 C 
HETATM    7  C16 UNL     1      -3.058   2.853   1.541  1.00  0.00     0.229 C 
HETATM    8  C17 UNL     1      -1.955   2.320   2.388  1.00  0.00     0.230 C 
HETATM    9  O12 UNL     1      -2.436   0.852   2.439  1.00  0.00    -0.330 OA
HETATM   10  C18 UNL     1      -1.776   0.587   1.238  1.00  0.00     0.165 C 
HETATM   11  C19 UNL     1      -0.375   0.882   1.948  1.00  0.00     0.216 C 
HETATM   12  C27 UNL     1      -0.501   2.286   1.523  1.00  0.00     0.183 C 
ENDROOT
BRANCH  11  13
HETATM   13  O13 UNL     1       0.877   0.365   1.578  1.00  0.00    -0.305 OA
BRANCH  13  14
HETATM   14  C20 UNL     1       1.248  -0.765   2.231  1.00  0.00     0.294 C 
HETATM   15  O14 UNL     1       0.555  -1.475   2.931  1.00  0.00    -0.259 OA
BRANCH  14  16
HETATM   16  C21 UNL     1       2.678  -0.979   1.956  1.00  0.00     0.042 A 
HETATM   17  C22 UNL     1       3.154  -2.283   1.775  1.00  0.00     0.020 A 
HETATM   18  C23 UNL     1       4.503  -2.485   1.497  1.00  0.00     0.040 A 
HETATM   19  C24 UNL     1       5.351  -1.387   1.415  1.00  0.00     0.098 A 
HETATM   20  C25 UNL     1       4.873  -0.090   1.598  1.00  0.00     0.099 A 
HETATM   21  C26 UNL     1       3.542   0.123   1.893  1.00  0.00     0.057 A 
BRANCH  19  22
HETATM   22  O15 UNL     1       6.679  -1.586   1.195  1.00  0.00    -0.358 OA
ATOM     23  H15 UNL     1       7.259  -0.835   1.139  1.00  0.00     0.217 HD
ENDBRANCH  19  22
BRANCH  20  24
HETATM   24  O16 UNL     1       5.695   0.989   1.488  1.00  0.00    -0.358 OA
ATOM     25  H16 UNL     1       5.369   1.873   1.613  1.00  0.00     0.217 HD
ENDBRANCH  20  24
ENDBRANCH  14  16
ENDBRANCH  13  14
ENDBRANCH  11  13
BRANCH  12  26
HETATM   26  O17 UNL     1       0.481   3.152   2.066  1.00  0.00    -0.379 OA
ATOM     27  H17 UNL     1       0.452   3.237   3.012  1.00  0.00     0.211 HD
ENDBRANCH  12  26
BRANCH   1  28
HETATM   28  O2  UNL     1      -0.898  -1.600   0.361  1.00  0.00    -0.309 OA
BRANCH  28  29
HETATM   29  C5  UNL     1      -1.752  -2.638   0.143  1.00  0.00     0.259 C 
HETATM   30  O1  UNL     1      -2.903  -2.670   0.555  1.00  0.00    -0.265 OA
BRANCH  29  31
HETATM   31  C4  UNL     1      -1.185  -3.588  -0.884  1.00  0.00     0.111 C 
BRANCH  31  32
HETATM   32  C3  UNL     1       0.142  -4.225  -0.498  1.00  0.00     0.009 C 
BRANCH  32  33
HETATM   33  C2  UNL     1      -0.059  -5.506   0.308  1.00  0.00    -0.004 C 
HETATM   34  C1  UNL     1       1.267  -6.184   0.612  1.00  0.00     0.005 C 
ENDBRANCH  32  33
ENDBRANCH  31  32
ENDBRANCH  29  31
ENDBRANCH  28  29
ENDBRANCH   1  28
BRANCH   6  35
HETATM   35  O9  UNL     1      -3.923   1.362  -0.224  1.00  0.00    -0.371 OA
HETATM   36  C15 UNL     1      -4.803   0.532   0.530  1.00  0.00     0.203 C 
ENDBRANCH   6  35
BRANCH   3  37
HETATM   37  N1  UNL     1       0.528   3.086  -0.742  1.00  0.00    -0.341 N 
ATOM     38  H1  UNL     1       0.653   3.951  -0.216  1.00  0.00     0.169 HD
BRANCH  37  39
HETATM   39  S1  UNL     1       1.443   2.935  -2.100  1.00  0.00    -0.048 SA
BRANCH  39  40
HETATM   40  C11 UNL     1       0.372   3.489  -3.465  1.00  0.00     0.210 C 
BRANCH  40  41
HETATM   41  C12 UNL     1       0.066   4.962  -3.399  1.00  0.00     0.183 C 
HETATM   42  O6  UNL     1       0.749   5.825  -3.935  1.00  0.00    -0.647 OA
HETATM   43  O7  UNL     1      -1.042   5.264  -2.684  1.00  0.00    -0.647 OA
ENDBRANCH  40  41
ENDBRANCH  39  40
ENDBRANCH  37  39
ENDBRANCH   3  37
BRANCH   8  44
HETATM   44  O11 UNL     1      -1.844   2.870   3.676  1.00  0.00    -0.361 OA
ATOM     45  H11 UNL     1      -1.140   2.530   4.216  1.00  0.00     0.213 HD
ENDBRANCH   8  44
BRANCH   2  46
HETATM   46  O3  UNL     1       0.854   0.022  -0.807  1.00  0.00    -0.375 OA
ATOM     47  H3  UNL     1       1.450   0.554  -1.322  1.00  0.00     0.211 HD
ENDBRANCH   2  46
BRANCH   2  48
HETATM   48  C8  UNL     1      -1.025   0.465  -2.249  1.00  0.00     0.299 C 
HETATM   49  O4  UNL     1      -2.194   0.656  -2.554  1.00  0.00    -0.262 OA
BRANCH  48  50
HETATM   50  O5  UNL     1      -0.068   0.086  -3.142  1.00  0.00    -0.324 OA
HETATM   51  C9  UNL     1      -0.566  -0.137  -4.464  1.00  0.00     0.213 C 
ENDBRANCH  48  50
ENDBRANCH   2  48
BRANCH   7  52
HETATM   52  O10 UNL     1      -2.878   4.212   1.186  1.00  0.00    -0.386 OA
ATOM     53  H10 UNL     1      -3.060   4.849   1.867  1.00  0.00     0.210 HD
ENDBRANCH   7  52
TORSDOF 21
