REMARK  13 active torsions:
REMARK  status: ('A' for Active; 'I' for Inactive)
REMARK    1  A    between atoms: C3_3  and  O1_4 
REMARK    2  A    between atoms: O1_4  and  S1_5 
REMARK    3  A    between atoms: C8_14  and  O6_15 
REMARK    4  A    between atoms: O6_15  and  S2_16 
REMARK    5  A    between atoms: C12_24  and  N1_25 
REMARK       I    between atoms: N1_25  and  C14_27 
REMARK    6  A    between atoms: C14_27  and  C15_29 
REMARK    7  A    between atoms: C15_29  and  N2_30 
REMARK    8  A    between atoms: N2_30  and  C16_32 
REMARK    9  A    between atoms: C16_32  and  C17_33 
REMARK   10  A    between atoms: C17_33  and  O12_34 
REMARK   11  A    between atoms: C19_39  and  N4_40 
REMARK   12  A    between atoms: N4_40  and  O13_42 
REMARK   13  A    between atoms: C22_48  and  N6_49 
ROOT
HETATM    1  C1  UNL     1      -1.996  -0.910  -3.238  1.00  0.00     0.057 C 
HETATM    2  C2  UNL     1      -1.441   0.313  -2.564  1.00  0.00     0.046 C 
HETATM    3  C3  UNL     1      -2.177   1.114  -1.769  1.00  0.00     0.153 C 
HETATM    4  C4  UNL     1      -1.656   2.416  -1.231  1.00  0.00     0.215 C 
HETATM    5  O5  UNL     1      -2.310   3.441  -1.384  1.00  0.00    -0.285 OA
HETATM    6  C5  UNL     1      -0.359   2.489  -0.525  1.00  0.00     0.020 C 
HETATM    7  C6  UNL     1       0.335   3.717  -0.443  1.00  0.00     0.105 C 
HETATM    8  C7  UNL     1       0.622   4.053   0.879  1.00  0.00     0.024 C 
HETATM    9  C8  UNL     1       1.288   3.035   1.521  1.00  0.00     0.100 C 
HETATM   10  C9  UNL     1       1.481   1.882   0.741  1.00  0.00     0.220 C 
HETATM   11  C10 UNL     1       0.300   1.458   0.120  1.00  0.00     0.041 C 
HETATM   12  C11 UNL     1      -0.220   0.086   0.270  1.00  0.00     0.212 C 
HETATM   13  O10 UNL     1      -1.375  -0.066   0.631  1.00  0.00    -0.285 OA
HETATM   14  C12 UNL     1       0.653  -1.044  -0.163  1.00  0.00     0.133 C 
HETATM   15  C18 UNL     1       1.152  -0.875  -1.415  1.00  0.00     0.151 A 
HETATM   16  N3  UNL     1       2.198  -1.492  -2.134  1.00  0.00    -0.314 N 
ATOM     17  H3  UNL     1       2.872  -2.229  -1.924  1.00  0.00     0.170 HD
HETATM   18  C19 UNL     1       1.961  -0.753  -3.160  1.00  0.00     0.196 A 
HETATM   19  N5  UNL     1       0.979  -0.068  -2.505  1.00  0.00    -0.234 N 
HETATM   20  C21 UNL     1      -0.063   0.671  -3.012  1.00  0.00     0.264 C 
HETATM   21  O14 UNL     1       0.093   1.639  -3.747  1.00  0.00    -0.267 OA
HETATM   22  O15 UNL     1       2.390   2.325  -0.411  1.00  0.00    -0.341 OA
HETATM   23  C22 UNL     1       1.756   3.435  -1.147  1.00  0.00     0.331 C 
ENDROOT
BRANCH  14  24
HETATM   24  N1  UNL     1       1.000  -2.095   0.704  1.00  0.00    -0.314 N 
HETATM   25  C13 UNL     1       2.224  -2.839   0.368  1.00  0.00     0.159 C 
HETATM   26  C14 UNL     1       0.278  -2.629   1.789  1.00  0.00     0.241 C 
HETATM   27  O11 UNL     1       0.841  -3.375   2.608  1.00  0.00    -0.271 OA
BRANCH  26  28
HETATM   28  C15 UNL     1      -1.250  -2.443   1.930  1.00  0.00     0.217 C 
BRANCH  28  29
HETATM   29  N2  UNL     1      -1.893  -3.722   2.336  1.00  0.00    -0.411 N 
ATOM     30  H2  UNL     1      -1.957  -4.524   1.709  1.00  0.00     0.153 HD
BRANCH  29  31
HETATM   31  C16 UNL     1      -2.428  -3.748   3.699  1.00  0.00     0.140 C 
BRANCH  31  32
HETATM   32  C17 UNL     1      -1.404  -4.022   4.816  1.00  0.00     0.183 C 
BRANCH  32  33
HETATM   33  O12 UNL     1      -2.013  -3.959   6.115  1.00  0.00    -0.399 OA
ATOM     34  H12 UNL     1      -1.381  -4.128   6.804  1.00  0.00     0.209 HD
ENDBRANCH  32  33
ENDBRANCH  31  32
ENDBRANCH  29  31
ENDBRANCH  28  29
ENDBRANCH  26  28
ENDBRANCH  14  24
BRANCH  18  35
HETATM   35  N4  UNL     1       2.500  -0.663  -4.416  1.00  0.00    -0.137 NA
HETATM   36  C20 UNL     1       1.678  -0.602  -5.617  1.00  0.00     0.153 C 
BRANCH  35  37
HETATM   37  O13 UNL     1       3.546  -1.584  -4.599  1.00  0.00    -0.306 OA
ATOM     38  H13 UNL     1       3.920  -1.522  -5.470  1.00  0.00     0.237 HD
ENDBRANCH  35  37
ENDBRANCH  18  35
BRANCH   9  39
HETATM   39  O6  UNL     1       1.329   2.991   2.873  1.00  0.00    -0.216 OA
BRANCH  39  40
HETATM   40  S2  UNL     1       2.720   3.412   3.604  1.00  0.00     0.256 S 
HETATM   41  O7  UNL     1       2.902   4.844   3.494  1.00  0.00    -0.572 OA
HETATM   42  O8  UNL     1       3.742   2.466   3.226  1.00  0.00    -0.572 OA
HETATM   43  O9  UNL     1       2.381   3.074   5.144  1.00  0.00    -0.572 OA
ENDBRANCH  39  40
ENDBRANCH   9  39
BRANCH   3  44
HETATM   44  O1  UNL     1      -3.499   0.750  -1.510  1.00  0.00    -0.209 OA
BRANCH  44  45
HETATM   45  S1  UNL     1      -4.463   1.449  -0.395  1.00  0.00     0.257 S 
HETATM   46  O2  UNL     1      -5.182   2.549  -0.985  1.00  0.00    -0.572 OA
HETATM   47  O3  UNL     1      -3.752   1.572   0.863  1.00  0.00    -0.572 OA
HETATM   48  O4  UNL     1      -5.555   0.289  -0.123  1.00  0.00    -0.572 OA
ENDBRANCH  44  45
ENDBRANCH   3  44
BRANCH  23  49
HETATM   49  N6  UNL     1       2.610   4.613  -1.167  1.00  0.00    -0.052 N 
ATOM     50  H63 UNL     1       2.135   5.404  -1.602  1.00  0.00     0.277 HD
ATOM     51  H62 UNL     1       2.734   4.993  -0.229  1.00  0.00     0.277 HD
ATOM     52  H61 UNL     1       3.510   4.434  -1.613  1.00  0.00     0.277 HD
ENDBRANCH  23  49
TORSDOF 13
