REMARK  5 active torsions:
REMARK  status: ('A' for Active; 'I' for Inactive)
REMARK    1  A    between atoms: C2_2  and  C3_3 
REMARK    2  A    between atoms: C3_3  and  N1_4 
REMARK    3  A    between atoms: C13_14  and  C14_15 
REMARK    4  A    between atoms: C14_15  and  O1_16 
REMARK    5  A    between atoms: C16_19  and  O2_20 
ROOT
HETATM    1  N1  UNL     1      -1.933   0.331  -0.802  1.00  0.00    -0.382 N 
HETATM    2  C4  UNL     1      -2.831   0.354   0.500  1.00  0.00     0.059 C 
HETATM    3  C5  UNL     1      -2.295  -0.038   2.106  1.00  0.00     0.050 C 
HETATM    4  C6  UNL     1      -1.348  -1.354   2.328  1.00  0.00     0.005 C 
HETATM    5  C7  UNL     1       0.239  -1.832   2.051  1.00  0.00     0.032 C 
HETATM    6  C8  UNL     1      -0.237  -2.346   0.641  1.00  0.00     0.006 C 
HETATM    7  C9  UNL     1      -0.186  -1.808  -0.858  1.00  0.00     0.016 C 
HETATM    8  C10 UNL     1       1.050  -2.204  -1.659  1.00  0.00     0.007 C 
HETATM    9  C11 UNL     1       2.447  -1.641  -1.398  1.00  0.00     0.002 C 
HETATM   10  C12 UNL     1       2.645  -0.127  -1.210  1.00  0.00     0.021 C 
HETATM   11  C13 UNL     1       2.640   0.478   0.238  1.00  0.00     0.065 C 
HETATM   12  C15 UNL     1       2.368  -0.567   1.347  1.00  0.00     0.062 C 
HETATM   13  C16 UNL     1       0.919  -0.561   1.715  1.00  0.00     0.091 C 
HETATM   14  C17 UNL     1      -0.052  -0.034   0.626  1.00  0.00     0.091 C 
HETATM   15  C18 UNL     1      -1.133  -1.186   0.917  1.00  0.00     0.029 C 
HETATM   16  C19 UNL     1      -0.473  -0.269  -0.792  1.00  0.00     0.120 C 
HETATM   17  N2  UNL     1       0.275   1.402   0.731  1.00  0.00    -0.341 N 
HETATM   18  C20 UNL     1      -0.649   2.526   0.640  1.00  0.00     0.153 C 
HETATM   19  C21 UNL     1       1.626   1.693   0.350  1.00  0.00     0.231 C 
HETATM   20  O3  UNL     1       1.994   2.840   0.090  1.00  0.00    -0.272 OA
ENDROOT
BRANCH   1  21
HETATM   21  C3  UNL     1      -2.679  -0.097  -1.987  1.00  0.00     0.149 C 
BRANCH  21  22
HETATM   22  C2  UNL     1      -3.687   0.886  -2.518  1.00  0.00    -0.018 C 
HETATM   23  C1  UNL     1      -3.799   2.188  -2.219  1.00  0.00     0.008 C 
ENDBRANCH  21  22
ENDBRANCH   1  21
BRANCH  13  24
HETATM   24  O2  UNL     1       0.844   0.234   2.925  1.00  0.00    -0.387 OA
ATOM     25  H2  UNL     1       1.280   1.050   2.709  1.00  0.00     0.210 HD
ENDBRANCH  13  24
BRANCH  11  26
HETATM   26  C14 UNL     1       4.052   1.077   0.531  1.00  0.00     0.183 C 
BRANCH  26  27
HETATM   27  O1  UNL     1       4.504   1.966  -0.485  1.00  0.00    -0.400 OA
ATOM     28  H1  UNL     1       5.363   2.330  -0.307  1.00  0.00     0.209 HD
ENDBRANCH  26  27
ENDBRANCH  11  26
TORSDOF 5
