REMARK  6 active torsions:
REMARK  status: ('A' for Active; 'I' for Inactive)
REMARK    1  A    between atoms: N1_2  and  C2_3 
REMARK    2  A    between atoms: C2_3  and  C3_4 
REMARK    3  A    between atoms: C3_4  and  C4_5 
REMARK    4  A    between atoms: C4_5  and  N2_6 
REMARK    5  A    between atoms: N4_17  and  C12_18 
REMARK    6  A    between atoms: C12_18  and  N5_19 
ROOT
HETATM    1  N2  UNL     1      -1.404  -1.344   0.319  1.00  0.00    -0.307 N 
HETATM    2  C5  UNL     1      -2.362  -2.158   0.918  1.00  0.00     0.321 C 
HETATM    3  O1  UNL     1      -2.081  -3.089   1.669  1.00  0.00    -0.247 OA
HETATM    4  N3  UNL     1      -3.674  -1.872   0.652  1.00  0.00    -0.332 N 
ATOM      5  H3  UNL     1      -4.349  -2.481   1.115  1.00  0.00     0.165 HD
HETATM    6  C6  UNL     1      -4.285  -0.789  -0.225  1.00  0.00     0.051 C 
HETATM    7  C7  UNL     1      -3.739   0.229   0.924  1.00  0.00     0.037 C 
HETATM    8  C8  UNL     1      -2.255   0.597   0.654  1.00  0.00     0.057 C 
HETATM    9  C9  UNL     1      -1.678  -0.225  -0.654  1.00  0.00     0.114 C 
HETATM   10  C10 UNL     1      -2.209  -1.363  -1.704  1.00  0.00     0.057 C 
HETATM   11  C11 UNL     1      -3.708  -1.684  -1.460  1.00  0.00     0.037 C 
HETATM   12  N4  UNL     1      -2.568   0.707  -1.426  1.00  0.00    -0.329 N 
HETATM   13  C13 UNL     1      -4.018   0.477  -1.244  1.00  0.00     0.159 C 
ENDROOT
BRANCH   1  14
HETATM   14  C4  UNL     1       0.002  -1.670   0.603  1.00  0.00     0.132 C 
BRANCH  14  15
HETATM   15  C3  UNL     1       1.050  -0.647   0.134  1.00  0.00     0.048 C 
BRANCH  15  16
HETATM   16  C2  UNL     1       2.471  -1.052   0.546  1.00  0.00     0.238 C 
BRANCH  16  17
HETATM   17  N1  UNL     1       3.353   0.149   0.963  1.00  0.00    -0.071 N 
HETATM   18  C1  UNL     1       2.841   0.742   2.281  1.00  0.00     0.272 C 
HETATM   19  C14 UNL     1       4.815  -0.303   1.149  1.00  0.00     0.237 C 
HETATM   20  C15 UNL     1       5.675   0.910   0.814  1.00  0.00     0.029 C 
HETATM   21  C16 UNL     1       4.754   1.954   0.205  1.00  0.00     0.029 C 
HETATM   22  C17 UNL     1       3.473   1.212  -0.137  1.00  0.00     0.237 C 
ENDBRANCH  16  17
ENDBRANCH  15  16
ENDBRANCH  14  15
ENDBRANCH   1  14
BRANCH  12  23
HETATM   23  C12 UNL     1      -2.006   1.718  -2.184  1.00  0.00     0.169 C 
HETATM   24  S1  UNL     1      -0.363   2.018  -2.342  1.00  0.00    -0.041 SA
BRANCH  23  25
HETATM   25  N5  UNL     1      -2.858   2.557  -2.814  1.00  0.00    -0.376 N 
ATOM     26  H52 UNL     1      -3.857   2.375  -2.718  1.00  0.00     0.158 HD
ATOM     27  H51 UNL     1      -2.443   3.303  -3.373  1.00  0.00     0.158 HD
ENDBRANCH  23  25
ENDBRANCH  12  23
TORSDOF 6
