REMARK  4 active torsions:
REMARK  status: ('A' for Active; 'I' for Inactive)
REMARK    1  A    between atoms: N2_4  and  N3_6 
REMARK       I    between atoms: N3_6  and  C1_7 
REMARK    2  A    between atoms: N3_6  and  C2_14 
REMARK       I    between atoms: C1_7  and  N4_9 
REMARK    3  A    between atoms: N4_9  and  N5_11 
REMARK    4  A    between atoms: C8_20  and  C9_21 
ROOT
HETATM    1  N3  UNL     1      -1.261   0.195  -0.482  1.00  0.00    -0.119 NA
HETATM    2  C1  UNL     1      -2.239  -0.689  -0.928  1.00  0.00     0.335 C 
HETATM    3  O1  UNL     1      -2.030  -1.834  -1.353  1.00  0.00    -0.250 OA
HETATM    4  N4  UNL     1      -3.506  -0.173  -0.609  1.00  0.00    -0.261 N 
ATOM      5  H4  UNL     1      -3.657   0.835  -0.585  1.00  0.00     0.190 HD
ENDROOT
BRANCH   1   6
HETATM    6  N2  UNL     1      -1.897   1.406   0.061  1.00  0.00    -0.260 N 
HETATM    7  N1  UNL     1      -2.373   1.458   1.238  1.00  0.00    -0.334 N 
ATOM      8  H12 UNL     1      -2.304   0.620   1.815  1.00  0.00     0.177 HD
ATOM      9  H11 UNL     1      -2.814   2.297   1.614  1.00  0.00     0.177 HD
ATOM     10  H2  UNL     1      -1.958   2.235  -0.530  1.00  0.00     0.202 HD
ENDBRANCH   1   6
BRANCH   1  11
HETATM   11  C2  UNL     1      -0.218  -0.269   0.394  1.00  0.00     0.064 A 
HETATM   12  C3  UNL     1       0.719   1.156   1.201  1.00  0.00     0.029 A 
HETATM   13  C4  UNL     1       2.526   1.213   0.904  1.00  0.00     0.003 A 
HETATM   14  C10 UNL     1       1.179  -0.158   1.207  1.00  0.00     0.012 A 
HETATM   15  C5  UNL     1       2.589  -0.122   1.633  1.00  0.00     0.008 A 
HETATM   16  C7  UNL     1       2.903   0.294  -0.342  1.00  0.00     0.016 A 
HETATM   17  C6  UNL     1       2.820  -1.052   0.407  1.00  0.00     0.004 A 
HETATM   18  C11 UNL     1       1.137  -1.275  -0.307  1.00  0.00     0.037 C 
HETATM   19  C8  UNL     1       1.498   0.042  -0.654  1.00  0.00     0.069 C 
BRANCH  19  20
HETATM   20  C9  UNL     1       0.977   0.815  -1.837  1.00  0.00     0.183 C 
HETATM   21  O2  UNL     1       0.888   0.166  -2.937  1.00  0.00    -0.647 OA
HETATM   22  O3  UNL     1       0.863   2.083  -1.762  1.00  0.00    -0.647 OA
ENDBRANCH  19  20
ENDBRANCH   1  11
BRANCH   4  23
HETATM   23  N5  UNL     1      -4.596  -1.079  -0.315  1.00  0.00    -0.342 N 
ATOM     24  H52 UNL     1      -4.428  -2.085  -0.344  1.00  0.00     0.176 HD
ATOM     25  H51 UNL     1      -5.516  -0.704  -0.083  1.00  0.00     0.176 HD
ENDBRANCH   4  23
TORSDOF 4
