REMARK  10 active torsions:
REMARK  status: ('A' for Active; 'I' for Inactive)
REMARK    1  A    between atoms: C2_2  and  O1_4 
REMARK    2  A    between atoms: O1_4  and  C4_5 
REMARK    3  A    between atoms: C4_5  and  C5_7 
REMARK    4  A    between atoms: C5_7  and  N1_10 
REMARK    5  A    between atoms: N1_10  and  C8_12 
REMARK    6  A    between atoms: C8_12  and  O3_13 
REMARK    7  A    between atoms: C8_12  and  C9_15 
REMARK    8  A    between atoms: C14_20  and  C15_21 
REMARK       I    between atoms: C15_21  and  N2_23 
REMARK    9  A    between atoms: N2_23  and  C16_25 
REMARK   10  A    between atoms: C19_28  and  C20_29 
ROOT
HETATM    1  C9  UNL     1       1.938   1.048   2.076  1.00  0.00     0.056 C 
HETATM    2  C10 UNL     1       3.278   1.810   2.233  1.00  0.00     0.025 C 
HETATM    3  C11 UNL     1       3.795   2.653   1.081  1.00  0.00    -0.024 C 
HETATM    4  C12 UNL     1       4.625   1.680   0.654  1.00  0.00    -0.024 C 
HETATM    5  C13 UNL     1       3.986   0.625   1.542  1.00  0.00     0.029 C 
HETATM    6  C14 UNL     1       2.619   0.126   1.013  1.00  0.00     0.095 C 
ENDROOT
BRANCH   6   7
HETATM    7  C15 UNL     1       2.257  -1.362   0.997  1.00  0.00     0.227 C 
HETATM    8  O4  UNL     1       2.979  -2.255   1.427  1.00  0.00    -0.273 OA
HETATM    9  N2  UNL     1       1.028  -1.570   0.376  1.00  0.00    -0.326 N 
ATOM     10  H2  UNL     1       0.256  -0.956   0.636  1.00  0.00     0.169 HD
BRANCH   9  11
HETATM   11  C16 UNL     1       0.774  -2.572  -0.590  1.00  0.00     0.050 A 
HETATM   12  C17 UNL     1       1.685  -3.555  -0.959  1.00  0.00     0.033 A 
HETATM   13  C18 UNL     1       1.411  -4.351  -2.076  1.00  0.00     0.036 A 
HETATM   14  C19 UNL     1       0.222  -4.168  -2.791  1.00  0.00     0.116 A 
HETATM   15  N3  UNL     1      -0.713  -3.261  -2.396  1.00  0.00    -0.360 N 
HETATM   16  C21 UNL     1      -0.411  -2.492  -1.320  1.00  0.00     0.117 A 
ATOM     17  H3  UNL     1      -1.602  -3.164  -2.887  1.00  0.00     0.165 HD
BRANCH  14  18
HETATM   18  C20 UNL     1      -0.007  -4.995  -4.055  1.00  0.00     0.432 C 
HETATM   19  F1  UNL     1       1.048  -4.923  -4.921  1.00  0.00    -0.165 F 
HETATM   20  F2  UNL     1      -1.098  -4.616  -4.781  1.00  0.00    -0.165 F 
HETATM   21  F3  UNL     1      -0.174  -6.323  -3.794  1.00  0.00    -0.165 F 
ENDBRANCH  14  18
ENDBRANCH   9  11
ENDBRANCH   6   7
BRANCH   1  22
HETATM   22  C8  UNL     1       0.615   1.731   1.692  1.00  0.00     0.220 C 
BRANCH  22  23
HETATM   23  N1  UNL     1       0.450   1.806   0.249  1.00  0.00    -0.380 N 
ATOM     24  H1  UNL     1       1.189   1.508  -0.388  1.00  0.00     0.157 HD
BRANCH  23  25
HETATM   25  C5  UNL     1      -0.845   2.336  -0.258  1.00  0.00     0.109 C 
HETATM   26  C6  UNL     1      -0.830   3.873  -0.369  1.00  0.00     0.049 C 
HETATM   27  C7  UNL     1      -1.013   1.805  -1.692  1.00  0.00     0.049 C 
BRANCH  25  28
HETATM   28  C4  UNL     1      -2.051   1.915   0.614  1.00  0.00     0.286 C 
HETATM   29  O2  UNL     1      -2.552   2.648   1.457  1.00  0.00    -0.262 OA
BRANCH  28  30
HETATM   30  O1  UNL     1      -2.440   0.622   0.394  1.00  0.00    -0.315 OA
BRANCH  30  31
HETATM   31  C2  UNL     1      -3.625   0.211   1.112  1.00  0.00     0.123 C 
HETATM   32  C1  UNL     1      -3.524  -1.275   1.421  1.00  0.00     0.040 C 
HETATM   33  C3  UNL     1      -4.850   0.516   0.255  1.00  0.00     0.040 C 
ENDBRANCH  30  31
ENDBRANCH  28  30
ENDBRANCH  25  28
ENDBRANCH  23  25
ENDBRANCH  22  23
BRANCH  22  34
HETATM   34  O3  UNL     1       0.605   3.014   2.260  1.00  0.00    -0.377 OA
ATOM     35  H3  UNL     1       0.713   2.965   3.203  1.00  0.00     0.212 HD
ENDBRANCH  22  34
ENDBRANCH   1  22
TORSDOF 10
