REMARK  0 active torsions:
REMARK  status: ('A' for Active; 'I' for Inactive)
ROOT
HETATM    1  C1  UNL     1       2.560  -1.389  -1.202  1.00  0.00     0.027 C 
HETATM    2  C2  UNL     1       1.667  -0.547  -0.328  1.00  0.00     0.012 C 
HETATM    3  C3  UNL     1       2.205   0.728   0.197  1.00  0.00     0.029 C 
HETATM    4  C4  UNL     1       0.991   1.003   1.123  1.00  0.00     0.033 C 
HETATM    5  C5  UNL     1       0.270   2.081   0.382  1.00  0.00     0.013 C 
HETATM    6  C6  UNL     1      -0.532   1.342  -0.665  1.00  0.00    -0.006 C 
HETATM    7  C7  UNL     1      -1.946   1.398  -0.045  1.00  0.00     0.037 C 
HETATM    8  C8  UNL     1      -2.196   0.219   0.901  1.00  0.00     0.124 C 
HETATM    9  C9  UNL     1      -2.335  -0.907  -0.146  1.00  0.00     0.037 C 
HETATM   10  C10 UNL     1      -0.936  -1.261  -0.634  1.00  0.00    -0.003 C 
HETATM   11  C11 UNL     1      -0.357  -1.733   0.650  1.00  0.00     0.055 C 
HETATM   12  C12 UNL     1       0.080  -0.384   1.424  1.00  0.00     0.114 C 
HETATM   13  O1  UNL     1      -1.167  -0.009   1.980  1.00  0.00    -0.364 OA
HETATM   14  S1  UNL     1       1.576  -1.187   1.565  1.00  0.00    -0.121 SA
HETATM   15  C13 UNL     1       0.085  -0.149  -1.038  1.00  0.00     0.012 C 
ENDROOT
TORSDOF 0
