REMARK  6 active torsions:
REMARK  status: ('A' for Active; 'I' for Inactive)
REMARK    1  A    between atoms: C2_2  and  C3_3 
REMARK    2  A    between atoms: C3_3  and  N1_4 
REMARK    3  A    between atoms: C14_18  and  C15_19 
REMARK    4  A    between atoms: C15_19  and  C16_20 
REMARK       I    between atoms: C16_20  and  N3_21 
REMARK    5  A    between atoms: N4_25  and  C17_26 
REMARK    6  A    between atoms: C20_29  and  O2_30 
ROOT
HETATM    1  N1  UNL     1      -2.841   0.302   0.239  1.00  0.00     0.097 N 
HETATM    2  C4  UNL     1      -2.795  -1.135  -0.125  1.00  0.00     0.274 C 
HETATM    3  C5  UNL     1      -1.345  -1.804  -0.005  1.00  0.00     0.047 C 
HETATM    4  C6  UNL     1      -0.094  -1.104  -0.830  1.00  0.00     0.044 C 
HETATM    5  C7  UNL     1       1.091  -1.875  -0.660  1.00  0.00     0.206 C 
HETATM    6  N2  UNL     1       1.580  -1.556  -2.092  1.00  0.00    -0.062 N 
ATOM      7  H21 UNL     1       1.690  -2.402  -2.651  1.00  0.00     0.278 HD
ATOM      8  H22 UNL     1       2.550  -1.241  -2.099  1.00  0.00     0.278 HD
HETATM    9  C8  UNL     1       0.604  -0.495  -2.803  1.00  0.00     0.228 C 
HETATM   10  C9  UNL     1       0.476   0.905  -2.102  1.00  0.00     0.052 C 
HETATM   11  C10 UNL     1      -1.021   0.721  -1.701  1.00  0.00     0.065 C 
HETATM   12  C11 UNL     1      -1.527   0.931  -0.025  1.00  0.00     0.232 C 
HETATM   13  C12 UNL     1      -0.620   1.139   1.310  1.00  0.00     0.061 C 
HETATM   14  C13 UNL     1       0.880   0.496   1.306  1.00  0.00     0.088 C 
HETATM   15  C14 UNL     1       1.382  -1.167   0.912  1.00  0.00     0.048 C 
HETATM   16  N4  UNL     1       1.177   1.311   0.190  1.00  0.00    -0.402 N 
HETATM   17  C19 UNL     1       1.027   0.397  -0.866  1.00  0.00     0.099 C 
HETATM   18  C20 UNL     1      -0.700  -0.764  -2.138  1.00  0.00     0.104 C 
ENDROOT
BRANCH  15  19
HETATM   19  C15 UNL     1       2.848  -1.414   1.284  1.00  0.00     0.111 C 
BRANCH  19  20
HETATM   20  C16 UNL     1       2.923  -2.020   2.666  1.00  0.00     0.215 C 
HETATM   21  N3  UNL     1       2.594  -3.342   2.734  1.00  0.00    -0.370 N 
ATOM     22  H32 UNL     1       2.369  -3.873   1.893  1.00  0.00     0.159 HD
ATOM     23  H31 UNL     1       2.645  -3.751   3.667  1.00  0.00     0.159 HD
HETATM   24  O1  UNL     1       3.193  -1.383   3.675  1.00  0.00    -0.274 OA
ENDBRANCH  19  20
ENDBRANCH  15  19
BRANCH  16  25
HETATM   25  C17 UNL     1       2.161   2.364   0.179  1.00  0.00     0.113 C 
HETATM   26  C18 UNL     1       3.608   1.991   0.441  1.00  0.00     0.026 C 
ENDBRANCH  16  25
BRANCH  18  27
HETATM   27  O2  UNL     1      -1.624  -1.651  -2.761  1.00  0.00    -0.386 OA
ATOM     28  H2  UNL     1      -2.013  -1.433  -3.600  1.00  0.00     0.210 HD
ENDBRANCH  18  27
BRANCH   1  29
HETATM   29  C3  UNL     1      -3.969   1.036  -0.312  1.00  0.00     0.299 C 
BRANCH  29  30
HETATM   30  C2  UNL     1      -4.279   2.217   0.560  1.00  0.00    -0.007 C 
HETATM   31  C1  UNL     1      -4.294   3.498   0.160  1.00  0.00     0.008 C 
ENDBRANCH  29  30
ENDBRANCH   1  29
TORSDOF 6
