REMARK  7 active torsions:
REMARK  status: ('A' for Active; 'I' for Inactive)
REMARK    1  A    between atoms: C13_18  and  O2_19 
REMARK    2  A    between atoms: N1_21  and  C14_22 
REMARK    3  A    between atoms: C14_22  and  C15_23 
REMARK    4  A    between atoms: C15_23  and  C16_24 
REMARK    5  A    between atoms: C16_24  and  C17_25 
REMARK    6  A    between atoms: C17_25  and  N2_26 
REMARK    7  A    between atoms: C21_31  and  O4_32 
ROOT
HETATM    1  C1  UNL     1       2.792   0.317   3.324  1.00  0.00     0.052 C 
HETATM    2  C2  UNL     1       2.765  -0.019   1.844  1.00  0.00     0.097 C 
HETATM    3  C3  UNL     1       4.047  -0.682   1.373  1.00  0.00     0.064 C 
HETATM    4  C4  UNL     1       3.674  -1.558   0.410  1.00  0.00     0.093 C 
HETATM    5  S1  UNL     1       4.209  -1.106  -1.158  1.00  0.00    -0.117 SA
HETATM    6  C5  UNL     1       3.399   0.541  -1.264  1.00  0.00     0.038 A 
HETATM    7  C6  UNL     1       3.475   1.020  -2.592  1.00  0.00     0.047 A 
HETATM    8  C7  UNL     1       2.974   2.265  -2.970  1.00  0.00     0.059 A 
HETATM    9 CL1  UNL     1       3.152   2.718  -4.632  1.00  0.00    -0.082 Cl
HETATM   10  C8  UNL     1       2.372   3.088  -2.021  1.00  0.00     0.080 A 
HETATM   11 CL2  UNL     1       1.745   4.638  -2.494  1.00  0.00    -0.081 Cl
HETATM   12  C9  UNL     1       2.287   2.643  -0.689  1.00  0.00     0.092 A 
HETATM   13 CL3  UNL     1       1.542   3.680   0.512  1.00  0.00    -0.079 Cl
HETATM   14  C10 UNL     1       2.789   1.371  -0.276  1.00  0.00     0.110 A 
HETATM   15  O1  UNL     1       2.634   1.201   1.091  1.00  0.00    -0.332 OA
HETATM   16  C11 UNL     1       2.308  -1.920   0.584  1.00  0.00     0.021 A 
HETATM   17  C12 UNL     1       1.727  -1.022   1.477  1.00  0.00     0.039 A 
HETATM   18  C13 UNL     1       0.453  -1.457   1.731  1.00  0.00     0.154 A 
HETATM   19  N1  UNL     1       0.218  -2.527   0.869  1.00  0.00    -0.307 N 
HETATM   20  C21 UNL     1       1.398  -2.853   0.198  1.00  0.00     0.152 A 
ENDROOT
BRANCH  19  21
HETATM   21  C14 UNL     1      -1.026  -3.272   0.721  1.00  0.00     0.133 C 
BRANCH  21  22
HETATM   22  C15 UNL     1      -2.339  -2.474   0.792  1.00  0.00     0.022 C 
BRANCH  22  23
HETATM   23  C16 UNL     1      -2.455  -1.351  -0.249  1.00  0.00     0.032 C 
BRANCH  23  24
HETATM   24  C17 UNL     1      -3.224  -0.142   0.312  1.00  0.00     0.275 C 
BRANCH  24  25
HETATM   25  N2  UNL     1      -3.137   1.009  -0.584  1.00  0.00     0.113 N 
HETATM   26  C18 UNL     1      -3.961   0.911  -1.781  1.00  0.00     0.301 C 
HETATM   27  C19 UNL     1      -3.988   2.365  -2.213  1.00  0.00     0.200 C 
HETATM   28  O3  UNL     1      -4.123   3.105  -0.993  1.00  0.00    -0.361 OA
HETATM   29  C20 UNL     1      -3.604   2.247   0.031  1.00  0.00     0.440 C 
ENDBRANCH  24  25
ENDBRANCH  23  24
ENDBRANCH  22  23
ENDBRANCH  21  22
ENDBRANCH  19  21
BRANCH  18  30
HETATM   30  O2  UNL     1      -0.466  -1.042   2.593  1.00  0.00    -0.345 OA
ATOM     31  H2  UNL     1      -1.349  -1.344   2.769  1.00  0.00     0.219 HD
ENDBRANCH  18  30
BRANCH  20  32
HETATM   32  O4  UNL     1       1.489  -3.909  -0.603  1.00  0.00    -0.345 OA
ATOM     33  H4  UNL     1       0.853  -4.561  -0.873  1.00  0.00     0.219 HD
ENDBRANCH  20  32
TORSDOF 7
