REMARK  10 active torsions:
REMARK  status: ('A' for Active; 'I' for Inactive)
REMARK    1  A    between atoms: O1_2  and  C2_3 
REMARK    2  A    between atoms: C2_3  and  C3_5 
REMARK    3  A    between atoms: C14_17  and  O4_18 
REMARK    4  A    between atoms: C20_25  and  O5_26 
REMARK    5  A    between atoms: O5_26  and  C21_27 
REMARK    6  A    between atoms: C21_27  and  C22_29 
REMARK    7  A    between atoms: C22_29  and  N1_31 
REMARK       I    between atoms: N1_31  and  C24_33 
REMARK    8  A    between atoms: C24_33  and  C25_35 
REMARK    9  A    between atoms: C25_35  and  C26_36 
REMARK   10  A    between atoms: C26_36  and  C27_37 
ROOT
HETATM    1  C3  UNL     1      -2.940  -0.346   0.973  1.00  0.00     0.081 C 
HETATM    2  C4  UNL     1      -2.279  -1.504   1.265  1.00  0.00     0.058 C 
HETATM    3  C5  UNL     1      -2.461  -2.205   2.596  1.00  0.00     0.077 C 
HETATM    4  O3  UNL     1      -1.460  -2.253   0.442  1.00  0.00    -0.348 OA
HETATM    5  C6  UNL     1      -0.664  -1.715  -0.619  1.00  0.00     0.143 C 
HETATM    6  C7  UNL     1      -0.227  -2.865  -1.565  1.00  0.00     0.034 C 
HETATM    7  C8  UNL     1       0.512  -2.339  -2.823  1.00  0.00     0.011 C 
HETATM    8  C9  UNL     1      -0.407  -1.535  -3.782  1.00  0.00     0.011 C 
HETATM    9  C10 UNL     1       0.383  -0.556  -4.635  1.00  0.00     0.015 C 
HETATM   10  C11 UNL     1      -1.433  -0.852  -2.904  1.00  0.00    -0.066 C 
HETATM   11  C12 UNL     1      -2.725  -0.454  -2.977  1.00  0.00    -0.013 C 
HETATM   12  C13 UNL     1      -2.909  -0.733  -1.489  1.00  0.00     0.065 C 
HETATM   13  C14 UNL     1      -2.922   0.356  -0.376  1.00  0.00     0.112 C 
HETATM   14  C15 UNL     1      -1.469   0.862  -0.875  1.00  0.00     0.038 C 
HETATM   15  C16 UNL     1      -1.543   2.047  -1.899  1.00  0.00     0.017 C 
HETATM   16  C17 UNL     1      -0.234   2.795  -1.758  1.00  0.00     0.008 C 
HETATM   17  C18 UNL     1      -0.030   2.781  -0.257  1.00  0.00     0.012 C 
HETATM   18  C19 UNL     1       1.353   3.295   0.108  1.00  0.00     0.012 C 
HETATM   19  C20 UNL     1      -0.302   1.302   0.096  1.00  0.00     0.148 C 
HETATM   20  C28 UNL     1      -1.365  -0.640  -1.409  1.00  0.00     0.033 C 
ENDROOT
BRANCH  13  21
HETATM   21  O4  UNL     1      -3.978   1.341  -0.522  1.00  0.00    -0.383 OA
ATOM     22  H4  UNL     1      -3.967   1.780  -1.365  1.00  0.00     0.211 HD
ENDBRANCH  13  21
BRANCH  19  23
HETATM   23  O5  UNL     1      -0.697   1.185   1.466  1.00  0.00    -0.313 OA
BRANCH  23  24
HETATM   24  C21 UNL     1       0.200   1.251   2.489  1.00  0.00     0.281 C 
HETATM   25  O6  UNL     1       0.088   2.118   3.350  1.00  0.00    -0.263 OA
BRANCH  24  26
HETATM   26  C22 UNL     1       1.100   0.002   2.647  1.00  0.00     0.180 C 
HETATM   27  C23 UNL     1       1.788  -0.026   4.012  1.00  0.00     0.043 C 
BRANCH  26  28
HETATM   28  N1  UNL     1       2.023  -0.284   1.548  1.00  0.00    -0.348 N 
HETATM   29  C24 UNL     1       3.096   0.527   1.265  1.00  0.00     0.218 C 
HETATM   30  O7  UNL     1       3.371   1.543   1.891  1.00  0.00    -0.274 OA
ATOM     31  H1  UNL     1       1.865  -1.112   0.973  1.00  0.00     0.163 HD
BRANCH  29  32
HETATM   32  C25 UNL     1       3.907   0.081   0.074  1.00  0.00     0.113 C 
BRANCH  32  33
HETATM   33  C26 UNL     1       5.181  -0.608   0.524  1.00  0.00     0.122 C 
BRANCH  33  34
HETATM   34  C27 UNL     1       5.680  -1.535  -0.542  1.00  0.00     0.172 C 
HETATM   35  O8  UNL     1       5.877  -2.732  -0.415  1.00  0.00    -0.648 OA
HETATM   36  O9  UNL     1       5.908  -0.916  -1.714  1.00  0.00    -0.648 OA
ENDBRANCH  33  34
ENDBRANCH  32  33
ENDBRANCH  29  32
ENDBRANCH  26  28
ENDBRANCH  24  26
ENDBRANCH  23  24
ENDBRANCH  19  23
BRANCH   1  37
HETATM   37  C2  UNL     1      -3.892   0.161   1.994  1.00  0.00     0.294 C 
HETATM   38  O2  UNL     1      -5.102   0.001   1.939  1.00  0.00    -0.259 OA
BRANCH  37  39
HETATM   39  O1  UNL     1      -3.196   0.741   3.004  1.00  0.00    -0.323 OA
HETATM   40  C1  UNL     1      -4.020   1.260   4.043  1.00  0.00     0.213 C 
ENDBRANCH  37  39
ENDBRANCH   1  37
TORSDOF 10
