REMARK  10 active torsions:
REMARK  status: ('A' for Active; 'I' for Inactive)
REMARK    1  A    between atoms: C3_3  and  O1_5 
REMARK    2  A    between atoms: O1_5  and  C5_6 
REMARK    3  A    between atoms: C10_12  and  C11_13 
REMARK    4  A    between atoms: C11_13  and  O3_14 
REMARK    5  A    between atoms: C14_18  and  O4_19 
REMARK    6  A    between atoms: C16_21  and  O5_22 
REMARK    7  A    between atoms: C18_24  and  C19_25 
REMARK    8  A    between atoms: C19_25  and  O6_26 
REMARK    9  A    between atoms: C24_31  and  O7_32 
REMARK   10  A    between atoms: C26_35  and  C27_36 
ROOT
HETATM    1  C5  UNL     1      -1.652   1.561  -0.561  1.00  0.00     0.147 C 
HETATM    2  C6  UNL     1      -0.761   2.440   0.360  1.00  0.00     0.048 C 
HETATM    3  C7  UNL     1       0.455   1.722   0.885  1.00  0.00     0.019 A 
HETATM    4  C8  UNL     1       0.574   1.334   2.382  1.00  0.00     0.142 A 
HETATM    5  O2  UNL     1       1.956   1.469   2.803  1.00  0.00    -0.384 OA
HETATM    6  C9  UNL     1       2.746   0.279   2.937  1.00  0.00     0.175 C 
HETATM    7  C10 UNL     1       3.665  -0.074   1.715  1.00  0.00     0.041 C 
HETATM    8  C12 UNL     1       2.981  -0.709   0.436  1.00  0.00     0.041 C 
HETATM    9  C13 UNL     1       2.475   0.359  -0.748  1.00  0.00     0.073 C 
HETATM   10  C14 UNL     1       1.437  -0.018  -2.074  1.00  0.00     0.082 C 
HETATM   11  C16 UNL     1       0.008  -0.054  -2.077  1.00  0.00     0.089 C 
HETATM   12  C18 UNL     1      -1.216   0.011  -0.746  1.00  0.00     0.064 C 
HETATM   13  C21 UNL     1      -0.837  -0.515   0.877  1.00  0.00     0.024 C 
HETATM   14  C22 UNL     1       0.063  -1.856   1.060  1.00  0.00     0.023 C 
HETATM   15  C23 UNL     1      -0.097  -2.448   2.453  1.00  0.00     0.013 C 
HETATM   16  C24 UNL     1       1.711  -1.540   0.756  1.00  0.00     0.072 C 
HETATM   17  C25 UNL     1       1.209  -0.096   0.374  1.00  0.00     0.054 C 
HETATM   18  C26 UNL     1       1.692   1.412   0.041  1.00  0.00     0.076 C 
HETATM   19  C28 UNL     1       0.263   0.348   1.316  1.00  0.00     0.011 A 
ENDROOT
BRANCH   1  20
HETATM   20  O1  UNL     1      -3.066   1.801  -0.323  1.00  0.00    -0.350 OA
BRANCH  20  21
HETATM   21  C3  UNL     1      -3.821   1.392   0.751  1.00  0.00     0.039 C 
HETATM   22  C2  UNL     1      -3.369   1.167   1.995  1.00  0.00     0.001 C 
HETATM   23  C1  UNL     1      -4.169   0.629   3.135  1.00  0.00     0.038 C 
HETATM   24  C4  UNL     1      -5.276   1.216   0.407  1.00  0.00     0.076 C 
ENDBRANCH  20  21
ENDBRANCH   1  20
BRANCH  12  25
HETATM   25  C19 UNL     1      -2.522  -0.766  -1.194  1.00  0.00     0.186 C 
BRANCH  25  26
HETATM   26  O6  UNL     1      -2.307  -2.054  -1.777  1.00  0.00    -0.395 OA
HETATM   27  C20 UNL     1      -3.393  -2.409  -2.645  1.00  0.00     0.201 C 
ENDBRANCH  25  26
ENDBRANCH  12  25
BRANCH  11  28
HETATM   28  O5  UNL     1      -0.679  -0.239  -3.274  1.00  0.00    -0.357 OA
HETATM   29  C17 UNL     1      -0.337  -1.475  -3.904  1.00  0.00     0.209 C 
ENDBRANCH  11  28
BRANCH  18  30
HETATM   30  C27 UNL     1       1.828   2.624  -0.955  1.00  0.00     0.184 C 
HETATM   31  O8  UNL     1       2.703   3.491  -0.939  1.00  0.00    -0.647 OA
HETATM   32  O9  UNL     1       0.909   2.711  -1.951  1.00  0.00    -0.647 OA
ENDBRANCH  18  30
BRANCH  10  33
HETATM   33  O4  UNL     1       2.166  -0.155  -3.253  1.00  0.00    -0.357 OA
HETATM   34  C15 UNL     1       3.195  -1.143  -3.165  1.00  0.00     0.209 C 
ENDBRANCH  10  33
BRANCH  16  35
HETATM   35  O7  UNL     1       1.913  -2.535  -0.318  1.00  0.00    -0.389 OA
ATOM     36  H7  UNL     1       1.135  -3.044  -0.122  1.00  0.00     0.210 HD
ENDBRANCH  16  35
BRANCH   7  37
HETATM   37  C11 UNL     1       4.569   1.113   1.336  1.00  0.00     0.171 C 
BRANCH  37  38
HETATM   38  O3  UNL     1       5.494   1.399   2.382  1.00  0.00    -0.400 OA
ATOM     39  H3  UNL     1       6.052   2.132   2.148  1.00  0.00     0.209 HD
ENDBRANCH  37  38
ENDBRANCH   7  37
TORSDOF 10
