REMARK  12 active torsions:
REMARK  status: ('A' for Active; 'I' for Inactive)
REMARK    1  A    between atoms: C2_2  and  C3_3 
REMARK    2  A    between atoms: C3_3  and  N1_4 
REMARK    3  A    between atoms: C3_3  and  C19_48 
REMARK    4  A    between atoms: N1_4  and  C4_6 
REMARK    5  A    between atoms: C5_9  and  N3_10 
REMARK    6  A    between atoms: C8_17  and  C9_18 
REMARK    7  A    between atoms: C9_18  and  O1_19 
REMARK    8  A    between atoms: C9_18  and  C10_21 
REMARK    9  A    between atoms: C10_21  and  O2_22 
REMARK   10  A    between atoms: N6_28  and  C13_29 
REMARK   11  A    between atoms: C13_29  and  N7_30 
REMARK       I    between atoms: N7_30  and  C14_32 
REMARK       I    between atoms: C14_32  and  N8_33 
REMARK   12  A    between atoms: C15_39  and  C16_40 
ROOT
HETATM    1  C4  UNL     1       0.720   0.987  -1.500  1.00  0.00     0.124 C 
HETATM    2  N2  UNL     1       0.537   0.909  -2.861  1.00  0.00    -0.177 N 
ATOM      3  H2  UNL     1       0.632   1.826  -3.297  1.00  0.00     0.185 HD
HETATM    4  C5  UNL     1       0.266  -0.044  -3.785  1.00  0.00     0.678 C 
HETATM    5  N4  UNL     1       0.027  -1.330  -3.401  1.00  0.00    -0.180 N 
ATOM      6  H4  UNL     1      -0.083  -2.012  -4.152  1.00  0.00     0.185 HD
HETATM    7  C6  UNL     1      -0.084  -1.819  -2.108  1.00  0.00     0.113 C 
HETATM    8  C7  UNL     1       0.916  -1.561  -1.211  1.00  0.00     0.138 C 
HETATM    9  C8  UNL     1       0.879  -2.345   0.054  1.00  0.00     0.031 C 
HETATM   10  N5  UNL     1       0.242  -1.720   1.015  1.00  0.00    -0.368 N 
ATOM     11  H5  UNL     1       0.088  -2.017   1.979  1.00  0.00     0.161 HD
HETATM   12  C11 UNL     1      -0.176  -0.534   0.378  1.00  0.00     0.222 C 
HETATM   13  C12 UNL     1       0.698  -0.229  -0.625  1.00  0.00     0.023 C 
HETATM   14  N6  UNL     1      -1.554  -0.485   0.038  1.00  0.00    -0.323 N 
HETATM   15  C15 UNL     1      -2.005  -1.529  -0.824  1.00  0.00     0.135 C 
HETATM   16  N11 UNL     1      -1.350  -2.234  -1.721  1.00  0.00    -0.329 N 
ATOM     17  H11 UNL     1      -1.766  -3.073  -2.126  1.00  0.00     0.168 HD
ENDROOT
BRANCH   1  18
HETATM   18  N1  UNL     1       1.013   2.183  -1.086  1.00  0.00    -0.365 N 
ATOM     19  H1  UNL     1       0.986   2.960  -1.747  1.00  0.00     0.161 HD
BRANCH  18  20
HETATM   20  C3  UNL     1       1.384   2.443   0.317  1.00  0.00     0.134 C 
BRANCH  20  21
HETATM   21  C2  UNL     1       1.568   3.967   0.484  1.00  0.00     0.027 C 
HETATM   22  C1  UNL     1       0.295   4.749   0.193  1.00  0.00     0.007 C 
ENDBRANCH  20  21
BRANCH  20  23
HETATM   23  C19 UNL     1       2.666   1.735   0.696  1.00  0.00     0.050 A 
HETATM   24  C20 UNL     1       3.849   1.596  -0.072  1.00  0.00     0.047 A 
HETATM   25  C21 UNL     1       4.688   0.828   0.698  1.00  0.00     0.111 A 
HETATM   26  N12 UNL     1       4.005   0.563   1.847  1.00  0.00    -0.308 N 
HETATM   27  C22 UNL     1       4.464  -0.235   2.957  1.00  0.00     0.177 C 
HETATM   28  N13 UNL     1       2.772   1.098   1.873  1.00  0.00    -0.301 N 
ATOM     29  H13 UNL     1       2.077   1.035   2.616  1.00  0.00     0.187 HD
ENDBRANCH  20  23
ENDBRANCH  18  20
ENDBRANCH   1  18
BRANCH   4  30
HETATM   30  N3  UNL     1       0.193   0.303  -5.034  1.00  0.00    -0.234 N 
ATOM     31  H32 UNL     1       0.372   1.265  -5.321  1.00  0.00     0.174 HD
ATOM     32  H31 UNL     1      -0.011  -0.415  -5.730  1.00  0.00     0.174 HD
ENDBRANCH   4  30
BRANCH   9  33
HETATM   33  C9  UNL     1       1.547  -3.688   0.212  1.00  0.00     0.188 C 
BRANCH  33  34
HETATM   34  O1  UNL     1       2.099  -3.752   1.531  1.00  0.00    -0.388 OA
ATOM     35  H1  UNL     1       2.520  -4.598   1.631  1.00  0.00     0.210 HD
ENDBRANCH  33  34
BRANCH  33  36
HETATM   36  C10 UNL     1       0.526  -4.813   0.022  1.00  0.00     0.201 C 
BRANCH  36  37
HETATM   37  O2  UNL     1       0.479  -5.244  -1.337  1.00  0.00    -0.398 OA
ATOM     38  H2  UNL     1      -0.155  -5.942  -1.455  1.00  0.00     0.209 HD
ENDBRANCH  36  37
ENDBRANCH  33  36
ENDBRANCH   9  33
BRANCH  14  39
HETATM   39  C13 UNL     1      -2.413   0.240   0.978  1.00  0.00     0.268 C 
BRANCH  39  40
HETATM   40  N7  UNL     1      -2.827   1.561   0.527  1.00  0.00    -0.211 N 
HETATM   41  C14 UNL     1      -2.960   2.510   1.373  1.00  0.00     0.666 C 
HETATM   42  N8  UNL     1      -2.778   2.562   2.712  1.00  0.00    -0.235 N 
HETATM   43  N9  UNL     1      -3.359   3.726   0.939  1.00  0.00    -0.235 N 
ATOM     44  H82 UNL     1      -2.477   1.644   3.040  1.00  0.00     0.174 HD
ATOM     45  H81 UNL     1      -2.884   3.319   3.387  1.00  0.00     0.174 HD
ATOM     46  H92 UNL     1      -3.496   3.687  -0.071  1.00  0.00     0.174 HD
ATOM     47  H91 UNL     1      -3.465   4.483   1.614  1.00  0.00     0.174 HD
ATOM     48  H7  UNL     1      -3.011   1.729  -0.462  1.00  0.00     0.179 HD
ENDBRANCH  39  40
ENDBRANCH  14  39
BRANCH  15  49
HETATM   49  C16 UNL     1      -3.399  -1.945  -0.683  1.00  0.00     0.083 A 
HETATM   50  C17 UNL     1      -3.879  -2.740   0.346  1.00  0.00     0.084 A 
HETATM   51  S1  UNL     1      -5.548  -3.062   0.106  1.00  0.00    -0.094 SA
HETATM   52  C18 UNL     1      -5.497  -2.156  -1.347  1.00  0.00     0.138 A 
HETATM   53  N10 UNL     1      -4.336  -1.630  -1.660  1.00  0.00    -0.357 N 
ATOM     54  H10 UNL     1      -4.149  -1.074  -2.494  1.00  0.00     0.166 HD
ENDBRANCH  15  49
TORSDOF 12
