REMARK  8 active torsions:
REMARK  status: ('A' for Active; 'I' for Inactive)
REMARK    1  A    between atoms: O1_2  and  C2_3 
REMARK    2  A    between atoms: C4_5  and  O2_6 
REMARK    3  A    between atoms: C9_13  and  C10_14 
REMARK       I    between atoms: C10_14  and  N2_16 
REMARK    4  A    between atoms: N2_16  and  N3_18 
REMARK    5  A    between atoms: N3_18  and  S1_20 
REMARK    6  A    between atoms: C14_29  and  C15_30 
REMARK    7  A    between atoms: C15_30  and  C16_31 
REMARK       I    between atoms: C16_31  and  N4_32 
REMARK    8  A    between atoms: N5_40  and  O11_42 
ROOT
HETATM    1  C2  UNL     1      -2.360   0.490   1.972  1.00  0.00     0.083 C 
HETATM    2  C3  UNL     1      -2.533   1.841   2.250  1.00  0.00     0.074 C 
HETATM    3  C4  UNL     1      -1.681   2.736   1.615  1.00  0.00     0.077 C 
HETATM    4  C5  UNL     1      -0.505   2.243   0.984  1.00  0.00     0.013 C 
HETATM    5  C6  UNL     1      -0.144   0.924   1.118  1.00  0.00    -0.017 C 
HETATM    6  C7  UNL     1      -1.295   0.100   1.134  1.00  0.00     0.031 C 
HETATM    7  C8  UNL     1      -1.679  -0.600  -0.149  1.00  0.00     0.079 C 
HETATM    8  N1  UNL     1      -2.185  -1.891   0.061  1.00  0.00    -0.100 NA
HETATM    9  C9  UNL     1      -1.609   0.037  -1.365  1.00  0.00     0.105 C 
HETATM   10  C11 UNL     1      -1.437   1.556  -1.516  1.00  0.00     0.179 C 
HETATM   11  O7  UNL     1      -2.389   2.291  -1.744  1.00  0.00    -0.291 OA
HETATM   12  C12 UNL     1      -0.048   2.121  -1.321  1.00  0.00     0.150 C 
HETATM   13  C13 UNL     1       0.231   2.773  -0.113  1.00  0.00     0.176 C 
HETATM   14  O8  UNL     1       1.562   2.933   0.169  1.00  0.00    -0.373 OA
HETATM   15  C14 UNL     1       2.071   1.813   0.750  1.00  0.00     0.147 C 
HETATM   16  C17 UNL     1       1.228   0.678   0.742  1.00  0.00     0.126 C 
HETATM   17  C18 UNL     1       1.423   0.140  -0.639  1.00  0.00     0.185 C 
HETATM   18  O10 UNL     1       1.875  -0.978  -0.845  1.00  0.00    -0.290 OA
HETATM   19  C19 UNL     1       1.033   1.157  -1.750  1.00  0.00     0.092 C 
HETATM   20  N5  UNL     1       1.514   1.179  -2.956  1.00  0.00    -0.269 N 
ATOM     21  H5  UNL     1       1.168   1.797  -3.690  1.00  0.00     0.194 HD
ENDROOT
BRANCH   9  22
HETATM   22  C10 UNL     1      -1.898  -0.730  -2.632  1.00  0.00     0.276 C 
HETATM   23  O3  UNL     1      -2.589  -0.266  -3.531  1.00  0.00    -0.266 OA
HETATM   24  N2  UNL     1      -1.340  -1.990  -2.777  1.00  0.00    -0.254 N 
ATOM     25  H2  UNL     1      -1.651  -2.570  -3.556  1.00  0.00     0.191 HD
BRANCH  24  26
HETATM   26  N3  UNL     1      -0.322  -2.534  -1.865  1.00  0.00    -0.205 N 
ATOM     27  H3  UNL     1      -0.241  -2.193  -0.907  1.00  0.00     0.202 HD
BRANCH  26  28
HETATM   28  S1  UNL     1       0.710  -3.738  -2.447  1.00  0.00     0.223 S 
HETATM   29  O4  UNL     1       0.120  -4.240  -3.669  1.00  0.00    -0.577 OA
HETATM   30  O5  UNL     1       1.026  -4.602  -1.326  1.00  0.00    -0.577 OA
HETATM   31  O6  UNL     1       2.020  -2.874  -2.817  1.00  0.00    -0.577 OA
ENDBRANCH  26  28
ENDBRANCH  24  26
ENDBRANCH   9  22
BRANCH   1  32
HETATM   32  O1  UNL     1      -3.335  -0.394   2.346  1.00  0.00    -0.355 OA
HETATM   33  C1  UNL     1      -2.910  -1.168   3.485  1.00  0.00     0.210 C 
ENDBRANCH   1  32
BRANCH  20  34
HETATM   34  O11 UNL     1       2.552   0.269  -3.141  1.00  0.00    -0.290 OA
ATOM     35  H11 UNL     1       2.904   0.285  -4.023  1.00  0.00     0.244 HD
ENDBRANCH  20  34
BRANCH   3  36
HETATM   36  O2  UNL     1      -1.972   4.071   1.547  1.00  0.00    -0.360 OA
ATOM     37  H2  UNL     1      -1.389   4.683   1.113  1.00  0.00     0.217 HD
ENDBRANCH   3  36
BRANCH  15  38
HETATM   38  C15 UNL     1       3.569   1.642   0.842  1.00  0.00     0.135 C 
BRANCH  38  39
HETATM   39  C16 UNL     1       3.951   0.924   2.125  1.00  0.00     0.217 C 
HETATM   40  N4  UNL     1       4.151  -0.423   2.016  1.00  0.00    -0.370 N 
ATOM     41  H42 UNL     1       4.103  -0.882   1.106  1.00  0.00     0.159 HD
ATOM     42  H41 UNL     1       4.408  -0.905   2.877  1.00  0.00     0.159 HD
HETATM   43  O9  UNL     1       4.009   1.476   3.219  1.00  0.00    -0.274 OA
ENDBRANCH  38  39
ENDBRANCH  15  38
TORSDOF 8
