REMARK  4 active torsions:
REMARK  status: ('A' for Active; 'I' for Inactive)
REMARK       I    between atoms: C1_2  and  N1_3 
REMARK    1  A    between atoms: C1_2  and  C6_10 
REMARK    2  A    between atoms: N1_3  and  C2_5 
REMARK    3  A    between atoms: C2_5  and  C3_6 
REMARK    4  A    between atoms: C4_7  and  C5_8 
ROOT
HETATM    1  C6  UNL     1       1.101  -0.258   0.470  1.00  0.00     0.053 C 
HETATM    2  C7  UNL     1       1.153   1.072  -0.291  1.00  0.00     0.008 C 
HETATM    3  C8  UNL     1       1.565   0.943  -1.754  1.00  0.00     0.006 C 
HETATM    4  C9  UNL     1       2.119  -0.425  -2.142  1.00  0.00     0.001 C 
HETATM    5  C10 UNL     1       3.115  -0.961  -1.127  1.00  0.00     0.006 C 
HETATM    6  C11 UNL     1       2.528  -0.906   0.276  1.00  0.00     0.009 C 
HETATM    7  C12 UNL     1       2.974   0.308   1.120  1.00  0.00     0.001 C 
HETATM    8  C13 UNL     1       2.272   1.595   0.604  1.00  0.00    -0.004 C 
HETATM    9  C14 UNL     1       1.655   1.677   2.028  1.00  0.00     0.011 C 
HETATM   10  C15 UNL     1       1.627   0.142   1.888  1.00  0.00     0.009 C 
ENDROOT
BRANCH   1  11
HETATM   11  C1  UNL     1      -0.131  -1.187   0.360  1.00  0.00     0.227 C 
HETATM   12  O1  UNL     1      -0.101  -2.389   0.646  1.00  0.00    -0.273 OA
HETATM   13  N1  UNL     1      -1.299  -0.593  -0.073  1.00  0.00    -0.357 N 
ATOM     14  H1  UNL     1      -1.291   0.384  -0.364  1.00  0.00     0.162 HD
BRANCH  13  15
HETATM   15  C2  UNL     1      -2.529  -1.342  -0.117  1.00  0.00     0.149 C 
BRANCH  15  16
HETATM   16  C3  UNL     1      -3.503  -0.560  -0.940  1.00  0.00    -0.011 C 
HETATM   17  C4  UNL     1      -4.647   0.021  -0.539  1.00  0.00    -0.018 C 
BRANCH  17  18
HETATM   18  C5  UNL     1      -5.245   0.010   0.828  1.00  0.00     0.112 C 
HETATM   19 BR1  UNL     1      -5.135   1.816   1.540  1.00  0.00    -0.092 Br
ENDBRANCH  17  18
ENDBRANCH  15  16
ENDBRANCH  13  15
ENDBRANCH   1  11
TORSDOF 4
