REMARK  7 active torsions:
REMARK  status: ('A' for Active; 'I' for Inactive)
REMARK    1  A    between atoms: C3_3  and  N1_4 
REMARK    2  A    between atoms: N3_19  and  C12_21 
REMARK    3  A    between atoms: C12_21  and  C13_22 
REMARK    4  A    between atoms: C13_22  and  C14_23 
REMARK    5  A    between atoms: C20_29  and  N4_30 
REMARK    6  A    between atoms: N4_30  and  S2_32 
REMARK    7  A    between atoms: S2_32  and  C22_35 
ROOT
HETATM    1  C1  UNL     1       5.141  -1.237   2.198  1.00  0.00     0.014 C 
HETATM    2  C2  UNL     1       4.270  -1.575   1.449  1.00  0.00    -0.097 C 
HETATM    3  C3  UNL     1       3.194  -1.991   0.523  1.00  0.00     0.222 C 
ENDROOT
BRANCH   3   4
HETATM    4  N1  UNL     1       2.235  -0.888   0.273  1.00  0.00    -0.332 N 
HETATM    5  C4  UNL     1       1.532  -0.454   1.447  1.00  0.00     0.059 A 
HETATM    6  C5  UNL     1       2.040   0.737   2.025  1.00  0.00     0.039 A 
HETATM    7  C10 UNL     1       0.380  -1.024   2.043  1.00  0.00     0.108 A 
HETATM    8  C6  UNL     1       1.472   1.340   3.165  1.00  0.00    -0.038 A 
HETATM    9  C7  UNL     1       2.050   2.623   3.691  1.00  0.00     0.050 C 
HETATM   10  C8  UNL     1       0.400   0.700   3.780  1.00  0.00     0.041 A 
HETATM   11 CL1  UNL     1      -0.294   1.261   5.261  1.00  0.00    -0.084 Cl
HETATM   12  C9  UNL     1      -0.148  -0.454   3.222  1.00  0.00     0.052 A 
HETATM   13  S1  UNL     1      -0.504  -2.491   1.536  1.00  0.00     0.266 S 
HETATM   14  O1  UNL     1      -1.021  -3.105   2.745  1.00  0.00    -0.200 OA
HETATM   15  O2  UNL     1       0.295  -3.306   0.653  1.00  0.00    -0.200 OA
HETATM   16  N2  UNL     1      -1.864  -1.891   0.754  1.00  0.00    -0.264 N 
HETATM   17  C11 UNL     1      -2.106  -1.693  -0.630  1.00  0.00     0.138 C 
ATOM     18  H2  UNL     1      -2.635  -1.629   1.369  1.00  0.00     0.180 HD
HETATM   19  N3  UNL     1      -3.310  -1.955  -0.969  1.00  0.00    -0.374 N 
HETATM   20  C16 UNL     1      -0.951  -1.237  -1.453  1.00  0.00     0.078 C 
ATOM     21  H3  UNL     1      -3.962  -2.269  -0.250  1.00  0.00     0.161 HD
HETATM   22  C17 UNL     1      -0.099  -2.234  -1.891  1.00  0.00     0.036 C 
HETATM   23  N5  UNL     1      -0.562   0.059  -1.288  1.00  0.00    -0.341 N 
HETATM   24  C18 UNL     1       1.253  -2.023  -1.657  1.00  0.00     0.035 C 
HETATM   25  C19 UNL     1       1.592  -0.833  -1.008  1.00  0.00     0.075 C 
HETATM   26  C20 UNL     1       0.764   0.264  -1.276  1.00  0.00     0.123 C 
ATOM     27  H5  UNL     1      -1.232   0.820  -1.181  1.00  0.00     0.167 HD
BRANCH  19  28
HETATM   28  C12 UNL     1      -3.789  -1.825  -2.335  1.00  0.00     0.121 C 
BRANCH  28  29
HETATM   29  C13 UNL     1      -5.309  -2.085  -2.330  1.00  0.00     0.019 C 
BRANCH  29  30
HETATM   30  C14 UNL     1      -6.180  -0.917  -1.854  1.00  0.00    -0.003 C 
HETATM   31  C15 UNL     1      -5.856  -0.431  -0.452  1.00  0.00     0.005 C 
ENDBRANCH  29  30
ENDBRANCH  28  29
ENDBRANCH  19  28
BRANCH  26  32
HETATM   32  N4  UNL     1       1.248   1.637  -1.198  1.00  0.00    -0.163 NA
HETATM   33  C21 UNL     1       0.188   2.676  -1.181  1.00  0.00     0.137 C 
BRANCH  32  34
HETATM   34  S2  UNL     1       2.523   1.954  -2.317  1.00  0.00     0.216 S 
HETATM   35  O3  UNL     1       3.523   0.906  -2.245  1.00  0.00    -0.211 OA
HETATM   36  O4  UNL     1       1.921   2.274  -3.595  1.00  0.00    -0.211 OA
BRANCH  34  37
HETATM   37  C22 UNL     1       3.308   3.453  -1.706  1.00  0.00     0.153 C 
HETATM   38  C23 UNL     1       3.745   3.336  -0.263  1.00  0.00     0.022 C 
ENDBRANCH  34  37
ENDBRANCH  32  34
ENDBRANCH  26  32
ENDBRANCH   3   4
TORSDOF 7
