REMARK  7 active torsions:
REMARK  status: ('A' for Active; 'I' for Inactive)
REMARK    1  A    between atoms: O1_2  and  C2_3 
REMARK    2  A    between atoms: C2_3  and  C3_4 
REMARK    3  A    between atoms: C4_5  and  O2_6 
REMARK    4  A    between atoms: C7_9  and  C8_10 
REMARK    5  A    between atoms: C11_13  and  C12_14 
REMARK    6  A    between atoms: C13_15  and  C14_16 
REMARK    7  A    between atoms: C20_25  and  C22_27 
ROOT
HETATM    1  C8  UNL     1       1.724   3.228  -1.096  1.00  0.00     0.001 C 
HETATM    2  C9  UNL     1       0.751   2.271  -1.872  1.00  0.00     0.016 C 
HETATM    3  C10 UNL     1      -0.460   2.761  -0.958  1.00  0.00     0.036 C 
HETATM    4  C11 UNL     1      -1.197   1.846   0.005  1.00  0.00     0.001 C 
HETATM    5  C19 UNL     1      -0.466   1.605   1.126  1.00  0.00     0.020 C 
HETATM    6  C20 UNL     1       0.897   2.022   0.774  1.00  0.00    -0.063 C 
HETATM    7  C21 UNL     1       0.627   3.292  -0.046  1.00  0.00     0.029 C 
ENDROOT
BRANCH   4   8
HETATM    8  C12 UNL     1      -2.396   1.154  -0.263  1.00  0.00    -0.066 C 
HETATM    9  C13 UNL     1      -3.249   0.332  -0.441  1.00  0.00    -0.065 C 
BRANCH   9  10
HETATM   10  C14 UNL     1      -4.036  -0.849  -0.568  1.00  0.00     0.017 C 
HETATM   11  C15 UNL     1      -3.915  -1.592  -1.681  1.00  0.00    -0.007 C 
HETATM   12  C16 UNL     1      -4.531  -2.959  -1.780  1.00  0.00     0.056 C 
HETATM   13  C17 UNL     1      -5.002  -3.491  -0.416  1.00  0.00     0.236 C 
HETATM   14  N1  UNL     1      -5.723  -2.465   0.344  1.00  0.00    -0.070 N 
HETATM   15  C18 UNL     1      -4.846  -1.318   0.623  1.00  0.00     0.279 C 
ATOM     16  H12 UNL     1      -6.582  -2.180  -0.125  1.00  0.00     0.277 HD
ATOM     17  H11 UNL     1      -6.134  -2.844   1.197  1.00  0.00     0.277 HD
ENDBRANCH   9  10
ENDBRANCH   4   8
BRANCH   6  18
HETATM   18  C22 UNL     1       2.298   2.125   1.284  1.00  0.00     0.005 A 
HETATM   19  C3  UNL     1       2.784   0.619   1.362  1.00  0.00     0.025 A 
HETATM   20  C4  UNL     1       3.315   0.089   0.050  1.00  0.00     0.138 C 
HETATM   21  C23 UNL     1       3.764   1.665   1.252  1.00  0.00     0.021 A 
HETATM   22  C6  UNL     1       3.770   1.594  -0.222  1.00  0.00     0.027 C 
HETATM   23  C7  UNL     1       2.840   2.839  -0.063  1.00  0.00     0.011 C 
BRANCH  19  24
HETATM   24  C2  UNL     1       2.676  -0.206   2.595  1.00  0.00     0.180 C 
BRANCH  24  25
HETATM   25  O1  UNL     1       2.884  -1.590   2.311  1.00  0.00    -0.395 OA
HETATM   26  C1  UNL     1       1.674  -2.265   1.990  1.00  0.00     0.201 C 
ENDBRANCH  24  25
ENDBRANCH  19  24
BRANCH  20  27
HETATM   27  O2  UNL     1       2.381  -0.494  -0.888  1.00  0.00    -0.389 OA
HETATM   28  C5  UNL     1       2.923  -1.458  -1.778  1.00  0.00     0.202 C 
ENDBRANCH  20  27
ENDBRANCH   6  18
TORSDOF 7
