REMARK  4 active torsions:
REMARK  status: ('A' for Active; 'I' for Inactive)
REMARK    1  A    between atoms: C2_2  and  C3_4 
REMARK    2  A    between atoms: C3_4  and  C5_6 
REMARK    3  A    between atoms: N3_23  and  C16_24 
REMARK    4  A    between atoms: C16_24  and  C17_25 
ROOT
HETATM    1  C5  UNL     1       1.704  -0.929  -0.026  1.00  0.00     0.096 C 
HETATM    2  C6  UNL     1       0.838  -2.119   0.478  1.00  0.00     0.223 C 
HETATM    3  O2  UNL     1       1.292  -3.186   0.869  1.00  0.00    -0.273 OA
HETATM    4  N1  UNL     1      -0.527  -1.902   0.369  1.00  0.00    -0.348 N 
ATOM      5  H1  UNL     1      -1.200  -2.605   0.673  1.00  0.00     0.163 HD
HETATM    6  C7  UNL     1      -0.959  -0.646  -0.190  1.00  0.00     0.080 A 
HETATM    7  C8  UNL     1      -2.229   0.035  -0.131  1.00  0.00     0.059 A 
HETATM    8  C9  UNL     1      -2.639   0.939  -1.194  1.00  0.00     0.261 A 
HETATM    9  C10 UNL     1      -2.398   2.126   0.136  1.00  0.00     0.225 C 
HETATM   10  N2  UNL     1      -2.337   1.751   1.598  1.00  0.00    -0.068 N 
ATOM     11  H21 UNL     1      -3.084   1.113   1.873  1.00  0.00     0.277 HD
ATOM     12  H22 UNL     1      -2.584   2.525   2.214  1.00  0.00     0.277 HD
HETATM   13  C11 UNL     1      -0.912   1.176   1.891  1.00  0.00     0.245 C 
HETATM   14  C12 UNL     1      -0.332   0.569   0.609  1.00  0.00     0.024 C 
HETATM   15  C13 UNL     1      -1.086   1.586  -0.076  1.00  0.00     0.040 C 
HETATM   16  C14 UNL     1       0.833   0.301  -0.457  1.00  0.00     0.048 C 
HETATM   17  C15 UNL     1      -0.324  -0.252  -1.516  1.00  0.00     0.258 A 
HETATM   18  N3  UNL     1      -1.403   0.690  -2.157  1.00  0.00     0.104 N 
ENDROOT
BRANCH   1  19
HETATM   19  C3  UNL     1       2.823  -0.493   0.940  1.00  0.00     0.064 C 
HETATM   20  C4  UNL     1       3.887  -1.564   1.168  1.00  0.00     0.018 C 
BRANCH  19  21
HETATM   21  C2  UNL     1       2.295  -0.014   2.286  1.00  0.00     0.127 C 
HETATM   22  C1  UNL     1       2.883   1.260   2.833  1.00  0.00     0.091 C 
HETATM   23  O1  UNL     1       1.421  -0.615   2.907  1.00  0.00    -0.298 OA
ENDBRANCH  19  21
ENDBRANCH   1  19
BRANCH  18  24
HETATM   24  C16 UNL     1      -1.893   0.095  -3.420  1.00  0.00     0.284 C 
BRANCH  24  25
HETATM   25  C17 UNL     1      -2.617  -1.253  -3.321  1.00  0.00     0.115 C 
HETATM   26 BR1  UNL     1      -3.202  -1.812  -5.096  1.00  0.00    -0.095 Br
ENDBRANCH  24  25
ENDBRANCH  18  24
TORSDOF 4
