REMARK  4 active torsions:
REMARK  status: ('A' for Active; 'I' for Inactive)
REMARK    1  A    between atoms: C2_2  and  N1_3 
REMARK    2  A    between atoms: N1_3  and  C3_4 
REMARK       I    between atoms: N1_3  and  C5_6 
REMARK    3  A    between atoms: C5_6  and  C6_8 
REMARK    4  A    between atoms: C12_14  and  O2_15 
ROOT
HETATM    1  C6  UNL     1      -0.643  -0.036  -1.319  1.00  0.00     0.047 C 
HETATM    2  C7  UNL     1      -1.763  -1.134  -1.088  1.00  0.00     0.046 C 
HETATM    3  C8  UNL     1      -1.816  -1.938   0.360  1.00  0.00    -0.023 C 
HETATM    4  C9  UNL     1      -0.529  -2.553   1.269  1.00  0.00    -0.080 C 
HETATM    5  C10 UNL     1      -0.467  -4.089   1.289  1.00  0.00     0.043 C 
HETATM    6  C11 UNL     1       0.976  -1.884   1.146  1.00  0.00     0.061 C 
HETATM    7  C12 UNL     1       0.655  -0.408   1.137  1.00  0.00     0.071 C 
HETATM    8  C13 UNL     1       1.903   0.400   1.617  1.00  0.00     0.041 C 
HETATM    9  C14 UNL     1       2.642   1.295   0.616  1.00  0.00     0.033 C 
HETATM   10  C15 UNL     1       3.461   0.669  -0.525  1.00  0.00     0.273 C 
HETATM   11  N2  UNL     1       3.258  -0.623  -1.139  1.00  0.00     0.094 N 
HETATM   12  C16 UNL     1       3.352  -1.776  -0.244  1.00  0.00     0.285 C 
HETATM   13  C17 UNL     1       1.809  -2.119  -0.314  1.00  0.00     0.028 C 
HETATM   14  C18 UNL     1       0.563  -2.041  -1.016  1.00  0.00     0.023 C 
HETATM   15  C19 UNL     1       0.313  -0.426  -0.327  1.00  0.00     0.039 C 
HETATM   16  C20 UNL     1       2.048  -1.096  -1.780  1.00  0.00     0.235 C 
HETATM   17  C21 UNL     1       0.685  -0.115  -2.456  1.00  0.00     0.056 C 
ENDROOT
BRANCH   1  18
HETATM   18  C5  UNL     1      -1.210   1.380  -1.344  1.00  0.00     0.209 C 
HETATM   19  N1  UNL     1      -1.727   1.849  -0.127  1.00  0.00    -0.254 NA
HETATM   20  O1  UNL     1      -1.348   1.997  -2.397  1.00  0.00    -0.279 OA
BRANCH  19  21
HETATM   21  C2  UNL     1      -0.964   2.953   0.476  1.00  0.00     0.094 C 
HETATM   22  C1  UNL     1      -0.712   4.160  -0.420  1.00  0.00     0.021 C 
ENDBRANCH  19  21
BRANCH  19  23
HETATM   23  C3  UNL     1      -3.178   2.081  -0.167  1.00  0.00     0.094 C 
HETATM   24  C4  UNL     1      -3.838   1.870   1.189  1.00  0.00     0.021 C 
ENDBRANCH  19  23
ENDBRANCH   1  18
BRANCH   7  25
HETATM   25  O2  UNL     1      -0.421  -0.013   1.966  1.00  0.00    -0.389 OA
ATOM     26  H2  UNL     1      -0.623   0.915   1.960  1.00  0.00     0.210 HD
ENDBRANCH   7  25
TORSDOF 4
