REMARK  6 active torsions:
REMARK  status: ('A' for Active; 'I' for Inactive)
REMARK    1  A    between atoms: C3_4  and  C4_5 
REMARK    2  A    between atoms: C4_5  and  N2_6 
REMARK    3  A    between atoms: N3_9  and  C5_11 
REMARK    4  A    between atoms: C5_11  and  C6_12 
REMARK    5  A    between atoms: C6_12  and  N4_13 
REMARK    6  A    between atoms: C14_23  and  C15_24 
ROOT
HETATM    1  C1  UNL     1       1.206  -1.792  -1.943  1.00  0.00     0.310 C 
HETATM    2  N1  UNL     1       1.661  -1.405  -0.617  1.00  0.00     0.096 N 
HETATM    3  C2  UNL     1       0.743  -1.895   0.485  1.00  0.00     0.291 C 
HETATM    4  C3  UNL     1      -0.080  -0.699   1.114  1.00  0.00     0.055 C 
HETATM    5  C7  UNL     1       0.536   0.491   2.043  1.00  0.00     0.013 C 
HETATM    6  C8  UNL     1       2.030   0.516   2.146  1.00  0.00     0.003 A 
HETATM    7  C9  UNL     1       2.608   1.571   1.249  1.00  0.00     0.002 A 
HETATM    8  C10 UNL     1       1.589   2.155   0.285  1.00  0.00     0.003 C 
HETATM    9  C11 UNL     1       0.243   1.510   0.828  1.00  0.00     0.004 C 
HETATM   10  C12 UNL     1       0.157   0.263  -0.012  1.00  0.00     0.048 C 
HETATM   11  C13 UNL     1       1.655   0.007  -0.389  1.00  0.00     0.173 C 
HETATM   12  C14 UNL     1       1.955   1.362  -1.054  1.00  0.00     0.040 C 
HETATM   13  C16 UNL     1       2.659   0.141   0.840  1.00  0.00     0.035 A 
ENDROOT
BRANCH   4  14
HETATM   14  C4  UNL     1      -1.471  -1.166   1.644  1.00  0.00     0.082 C 
HETATM   15  N3  UNL     1      -2.610  -0.692   1.087  1.00  0.00    -0.378 N 
ATOM     16  H3  UNL     1      -3.155   0.018   1.576  1.00  0.00     0.160 HD
BRANCH  14  17
HETATM   17  N2  UNL     1      -1.570  -1.938   2.677  1.00  0.00    -0.388 N 
ATOM     18  H22 UNL     1      -0.712  -2.295   3.097  1.00  0.00     0.157 HD
ATOM     19  H21 UNL     1      -2.479  -2.243   3.024  1.00  0.00     0.157 HD
ENDBRANCH  14  17
BRANCH  15  20
HETATM   20  C5  UNL     1      -3.062  -1.188  -0.204  1.00  0.00     0.141 C 
BRANCH  20  21
HETATM   21  C6  UNL     1      -4.110  -0.227  -0.727  1.00  0.00     0.147 C 
BRANCH  21  22
HETATM   22  N4  UNL     1      -3.507   1.106  -0.748  1.00  0.00    -0.353 N 
HETATM   23  S1  UNL     1      -3.546   2.026  -1.954  1.00  0.00     0.037 SA
ATOM     24  H4  UNL     1      -3.035   1.435   0.094  1.00  0.00     0.168 HD
ENDBRANCH  21  22
ENDBRANCH  20  21
ENDBRANCH  15  20
ENDBRANCH   4  14
BRANCH  12  25
HETATM   25  C15 UNL     1       1.149   1.749  -2.277  1.00  0.00     0.092 C 
HETATM   26 BR1  UNL     1       1.931   3.345  -3.095  1.00  0.00    -0.096 Br
ENDBRANCH  12  25
TORSDOF 6
