REMARK  6 active torsions:
REMARK  status: ('A' for Active; 'I' for Inactive)
REMARK    1  A    between atoms: C2_2  and  N1_4 
REMARK    2  A    between atoms: C2_2  and  C14_18 
REMARK       I    between atoms: N1_4  and  C4_6 
REMARK    3  A    between atoms: C4_6  and  O2_8 
REMARK    4  A    between atoms: O2_8  and  C5_9 
REMARK       I    between atoms: C14_18  and  N2_20 
REMARK    5  A    between atoms: N2_20  and  C15_22 
REMARK    6  A    between atoms: C18_25  and  O4_26 
ROOT
HETATM    1  C1  UNL     1      -0.000   0.166  -0.775  1.00  0.00     0.049 C 
HETATM    2  C2  UNL     1       0.606  -1.109  -0.154  1.00  0.00     0.108 C 
HETATM    3  C3  UNL     1       0.570  -1.024   1.381  1.00  0.00     0.049 C 
ENDROOT
BRANCH   2   4
HETATM    4  N1  UNL     1      -0.141  -2.256  -0.688  1.00  0.00    -0.319 N 
HETATM    5  C4  UNL     1      -1.375  -2.554  -0.178  1.00  0.00     0.361 C 
HETATM    6  O1  UNL     1      -1.618  -2.830   0.984  1.00  0.00    -0.238 OA
ATOM      7  H1  UNL     1       0.258  -2.826  -1.434  1.00  0.00     0.166 HD
BRANCH   5   8
HETATM    8  O2  UNL     1      -2.287  -2.389  -1.155  1.00  0.00    -0.298 OA
BRANCH   8   9
HETATM    9  C5  UNL     1      -3.689  -2.462  -0.836  1.00  0.00     0.142 C 
HETATM   10  C6  UNL     1      -4.498  -1.722  -1.927  1.00  0.00     0.016 C 
HETATM   11  C7  UNL     1      -3.944  -0.308  -2.228  1.00  0.00     0.007 C 
HETATM   12  C13 UNL     1      -5.877  -1.629  -1.274  1.00  0.00     0.012 C 
HETATM   13  C8  UNL     1      -4.431   0.782  -1.263  1.00  0.00     0.005 C 
HETATM   14  C9  UNL     1      -4.788   0.244   0.121  1.00  0.00    -0.010 C 
HETATM   15  C10 UNL     1      -3.662  -0.403   0.945  1.00  0.00     0.012 C 
HETATM   16  C12 UNL     1      -5.514  -1.132   0.119  1.00  0.00    -0.004 C 
HETATM   17  C11 UNL     1      -4.150  -1.795   0.473  1.00  0.00     0.020 C 
ENDBRANCH   8   9
ENDBRANCH   5   8
ENDBRANCH   2   4
BRANCH   2  18
HETATM   18  C14 UNL     1       2.125  -1.257  -0.510  1.00  0.00     0.245 C 
HETATM   19  O3  UNL     1       2.704  -2.337  -0.556  1.00  0.00    -0.271 OA
HETATM   20  N2  UNL     1       2.805  -0.060  -0.601  1.00  0.00    -0.354 N 
ATOM     21  H2  UNL     1       2.292   0.766  -0.909  1.00  0.00     0.162 HD
BRANCH  20  22
HETATM   22  C15 UNL     1       4.215   0.084  -0.281  1.00  0.00     0.089 C 
HETATM   23  C16 UNL     1       4.531  -0.103   1.279  1.00  0.00     0.033 C 
HETATM   24  C17 UNL     1       5.122   1.238   1.804  1.00  0.00     0.022 C 
HETATM   25  C18 UNL     1       4.751   2.766   2.317  1.00  0.00     0.127 C 
HETATM   26  C22 UNL     1       4.214   1.816   0.789  1.00  0.00     0.005 C 
HETATM   27  C19 UNL     1       4.910   3.198   0.795  1.00  0.00     0.020 C 
HETATM   28  C20 UNL     1       4.096   3.102  -0.559  1.00  0.00     0.014 C 
HETATM   29  C21 UNL     1       4.577   1.549  -0.629  1.00  0.00     0.014 C 
BRANCH  25  30
HETATM   30  O4  UNL     1       5.734   3.341   3.202  1.00  0.00    -0.395 OA
ATOM     31  H4  UNL     1       5.521   4.219   3.497  1.00  0.00     0.210 HD
ENDBRANCH  25  30
ENDBRANCH  20  22
ENDBRANCH   2  18
TORSDOF 6
