REMARK  6 active torsions:
REMARK  status: ('A' for Active; 'I' for Inactive)
REMARK    1  A    between atoms: O1_2  and  C2_3 
REMARK    2  A    between atoms: C9_10  and  O2_11 
REMARK    3  A    between atoms: C10_13  and  O3_14 
REMARK    4  A    between atoms: N1_20  and  C15_21 
REMARK    5  A    between atoms: C15_21  and  C16_22 
REMARK    6  A    between atoms: C23_29  and  N2_30 
ROOT
HETATM    1  C2  UNL     1       2.955   0.317  -0.082  1.00  0.00     0.069 C 
HETATM    2  C3  UNL     1       2.359  -1.085   0.265  1.00  0.00     0.040 C 
HETATM    3  C4  UNL     1       1.049  -1.172   1.117  1.00  0.00     0.020 C 
HETATM    4  C5  UNL     1      -0.271  -0.532   0.581  1.00  0.00     0.032 C 
HETATM    5  C6  UNL     1      -1.238  -0.356   1.732  1.00  0.00    -0.036 A 
HETATM    6  C7  UNL     1      -1.805  -1.076   2.772  1.00  0.00     0.011 A 
HETATM    7  C8  UNL     1      -2.306  -0.362   3.871  1.00  0.00     0.040 A 
HETATM    8  C9  UNL     1      -2.189   1.036   3.907  1.00  0.00     0.099 A 
HETATM    9  C10 UNL     1      -1.611   1.738   2.851  1.00  0.00     0.106 A 
HETATM   10  C11 UNL     1      -1.152   1.019   1.777  1.00  0.00    -0.004 A 
HETATM   11  C12 UNL     1      -0.817   1.168   0.327  1.00  0.00     0.018 C 
HETATM   12  C13 UNL     1      -2.071   1.525  -0.468  1.00  0.00     0.047 C 
HETATM   13  C14 UNL     1      -1.995   0.855  -1.817  1.00  0.00     0.274 C 
HETATM   14  N1  UNL     1      -1.247  -0.391  -1.739  1.00  0.00     0.095 N 
HETATM   15  C19 UNL     1      -0.025  -0.326  -0.890  1.00  0.00     0.249 C 
HETATM   16  C20 UNL     1       0.426   1.133  -0.477  1.00  0.00     0.039 C 
HETATM   17  C21 UNL     1       1.064   1.685  -1.716  1.00  0.00     0.025 C 
HETATM   18  C22 UNL     1       2.401   1.642  -0.913  1.00  0.00     0.058 C 
HETATM   19  C23 UNL     1       1.532   1.800   0.333  1.00  0.00     0.143 C 
HETATM   20  C24 UNL     1       2.662   1.218   1.145  1.00  0.00     0.078 C 
ENDROOT
BRANCH  14  21
HETATM   21  C15 UNL     1      -2.075  -1.580  -1.525  1.00  0.00     0.277 C 
BRANCH  21  22
HETATM   22  C16 UNL     1      -1.362  -2.819  -1.996  1.00  0.00     0.014 A 
HETATM   23  C17 UNL     1      -2.159  -4.013  -2.463  1.00  0.00     0.007 A 
HETATM   24  C18 UNL     1      -1.375  -3.201  -3.457  1.00  0.00     0.007 A 
ENDBRANCH  21  22
ENDBRANCH  14  21
BRANCH  19  25
HETATM   25  N2  UNL     1       1.301   3.201   0.662  1.00  0.00    -0.069 N 
ATOM     26  H23 UNL     1       1.117   3.735  -0.187  1.00  0.00     0.275 HD
ATOM     27  H22 UNL     1       0.405   3.307   1.138  1.00  0.00     0.275 HD
ATOM     28  H21 UNL     1       2.041   3.647   1.204  1.00  0.00     0.275 HD
ENDBRANCH  19  25
BRANCH   9  29
HETATM   29  O3  UNL     1      -1.553   3.096   2.854  1.00  0.00    -0.357 OA
ATOM     30  H3  UNL     1      -1.159   3.575   2.134  1.00  0.00     0.217 HD
ENDBRANCH   9  29
BRANCH   1  31
HETATM   31  O1  UNL     1       4.382   0.116  -0.305  1.00  0.00    -0.384 OA
HETATM   32  C1  UNL     1       4.790  -0.216  -1.624  1.00  0.00     0.202 C 
ENDBRANCH   1  31
BRANCH   8  33
HETATM   33  O2  UNL     1      -2.658   1.767   4.966  1.00  0.00    -0.358 OA
ATOM     34  H2  UNL     1      -2.579   2.713   4.990  1.00  0.00     0.217 HD
ENDBRANCH   8  33
TORSDOF 6
