REMARK  8 active torsions:
REMARK  status: ('A' for Active; 'I' for Inactive)
REMARK    1  A    between atoms: C2_2  and  C4_4 
REMARK    2  A    between atoms: C6_6  and  C7_7 
REMARK    3  A    between atoms: C7_7  and  O2_9 
REMARK    4  A    between atoms: C10_12  and  C11_13 
REMARK    5  A    between atoms: C22_25  and  O4_26 
REMARK    6  A    between atoms: C25_30  and  O6_31 
REMARK    7  A    between atoms: O6_31  and  C26_32 
REMARK    8  A    between atoms: C28_35  and  O8_36 
ROOT
HETATM    1  C4  UNL     1      -2.632   0.522   0.784  1.00  0.00    -0.043 C 
HETATM    2  C5  UNL     1      -3.392   1.113  -0.373  1.00  0.00     0.021 C 
HETATM    3  C6  UNL     1      -2.833   1.293  -1.569  1.00  0.00     0.019 C 
HETATM    4  C9  UNL     1      -1.456   0.834  -1.873  1.00  0.00     0.063 C 
HETATM    5  C10 UNL     1      -0.968  -0.501  -1.170  1.00  0.00     0.042 C 
HETATM    6  C13 UNL     1       0.561  -0.981  -1.798  1.00  0.00     0.039 C 
HETATM    7  C14 UNL     1       1.172   0.140  -2.683  1.00  0.00     0.036 C 
HETATM    8  C15 UNL     1       1.447   1.214  -1.691  1.00  0.00    -0.019 C 
HETATM    9  C16 UNL     1       1.880   0.806  -0.486  1.00  0.00    -0.028 C 
HETATM   10  C17 UNL     1       2.273   1.377   0.910  1.00  0.00     0.065 C 
HETATM   11  C18 UNL     1       0.710   1.688   1.201  1.00  0.00     0.023 C 
HETATM   12  C19 UNL     1      -0.170   0.377   1.411  1.00  0.00     0.016 C 
HETATM   13  C20 UNL     1      -1.260  -0.310   0.461  1.00  0.00    -0.001 C 
HETATM   14  C21 UNL     1      -1.385  -1.748   1.106  1.00  0.00     0.021 C 
HETATM   15  C22 UNL     1       2.606   0.326   2.048  1.00  0.00     0.276 C 
HETATM   16  O5  UNL     1       2.514  -0.896   1.317  1.00  0.00    -0.339 OA
HETATM   17  C24 UNL     1       2.568  -0.528  -0.102  1.00  0.00     0.142 C 
HETATM   18  C25 UNL     1       1.820  -1.569  -0.978  1.00  0.00     0.179 C 
HETATM   19  C28 UNL     1       3.687   0.733  -0.047  1.00  0.00     0.180 C 
ENDROOT
BRANCH   3  20
HETATM   20  C7  UNL     1      -3.581   1.974  -2.639  1.00  0.00     0.289 C 
HETATM   21  O1  UNL     1      -4.099   1.329  -3.543  1.00  0.00    -0.260 OA
BRANCH  20  22
HETATM   22  O2  UNL     1      -3.621   3.329  -2.594  1.00  0.00    -0.323 OA
HETATM   23  C8  UNL     1      -2.819   4.091  -1.677  1.00  0.00     0.213 C 
ENDBRANCH  20  22
ENDBRANCH   3  20
BRANCH   1  24
HETATM   24  C2  UNL     1      -3.600  -0.084   1.813  1.00  0.00    -0.064 C 
HETATM   25  C1  UNL     1      -4.645  -0.861   1.468  1.00  0.00     0.019 C 
HETATM   26  C3  UNL     1      -3.375   0.279   3.257  1.00  0.00     0.048 C 
ENDBRANCH   1  24
BRANCH   5  27
HETATM   27  C11 UNL     1      -2.009  -1.538  -1.791  1.00  0.00     0.133 C 
HETATM   28  C12 UNL     1      -1.915  -1.936  -3.251  1.00  0.00     0.091 C 
HETATM   29  O3  UNL     1      -2.953  -2.011  -1.157  1.00  0.00    -0.297 OA
ENDBRANCH   5  27
BRANCH  18  30
HETATM   30  O6  UNL     1       1.359  -2.704  -0.220  1.00  0.00    -0.312 OA
BRANCH  30  31
HETATM   31  C26 UNL     1       2.335  -3.538   0.229  1.00  0.00     0.255 C 
HETATM   32  C27 UNL     1       1.746  -4.607   1.095  1.00  0.00     0.126 C 
HETATM   33  O7  UNL     1       3.530  -3.431  -0.020  1.00  0.00    -0.266 OA
ENDBRANCH  30  31
ENDBRANCH  18  30
BRANCH  19  34
HETATM   34  O8  UNL     1       4.138   1.481  -1.228  1.00  0.00    -0.386 OA
HETATM   35  C29 UNL     1       4.674   2.768  -0.942  1.00  0.00     0.202 C 
ENDBRANCH  19  34
BRANCH  15  36
HETATM   36  O4  UNL     1       3.876   0.604   2.634  1.00  0.00    -0.365 OA
HETATM   37  C23 UNL     1       4.284  -0.434   3.515  1.00  0.00     0.204 C 
ENDBRANCH  15  36
TORSDOF 8
