REMARK  7 active torsions:
REMARK  status: ('A' for Active; 'I' for Inactive)
REMARK    1  A    between atoms: C2_2  and  C3_3 
REMARK    2  A    between atoms: C7_7  and  O1_8 
REMARK    3  A    between atoms: C8_11  and  O3_12 
REMARK    4  A    between atoms: C10_15  and  O4_16 
REMARK    5  A    between atoms: C16_23  and  O6_24 
REMARK    6  A    between atoms: C18_26  and  C19_27 
REMARK    7  A    between atoms: C21_29  and  C22_30 
ROOT
HETATM    1  C3  UNL     1       2.258  -0.658  -2.314  1.00  0.00    -0.022 C 
HETATM    2  C4  UNL     1       0.968  -0.585  -3.148  1.00  0.00     0.020 C 
HETATM    3  C5  UNL     1       2.268  -2.015  -1.558  1.00  0.00     0.057 C 
HETATM    4  C6  UNL     1       1.186  -2.213  -0.542  1.00  0.00     0.018 A 
HETATM    5  C7  UNL     1       0.291  -3.249  -0.434  1.00  0.00     0.192 A 
HETATM    6  O2  UNL     1      -0.445  -3.149   0.701  1.00  0.00    -0.264 OA
HETATM    7  C8  UNL     1      -0.025  -2.019   1.325  1.00  0.00     0.198 A 
HETATM    8  C9  UNL     1       0.941  -1.373   0.598  1.00  0.00     0.074 A 
HETATM    9  C10 UNL     1       1.735  -0.150   0.886  1.00  0.00     0.210 C 
HETATM   10  O5  UNL     1       1.534   0.474   2.167  1.00  0.00    -0.349 OA
HETATM   11  C12 UNL     1       2.067   1.794   2.024  1.00  0.00     0.187 C 
HETATM   12  C13 UNL     1       1.512   2.180   0.708  1.00  0.00     0.025 C 
HETATM   13  C14 UNL     1       1.932   3.340  -0.139  1.00  0.00     0.020 C 
HETATM   14  C15 UNL     1       1.099   3.216  -1.195  1.00  0.00     0.045 C 
HETATM   15  C16 UNL     1       0.275   1.961  -0.839  1.00  0.00     0.099 C 
HETATM   16  C18 UNL     1      -0.115   2.263   0.647  1.00  0.00    -0.025 C 
HETATM   17  C27 UNL     1       1.449   0.904  -0.250  1.00  0.00     0.071 C 
HETATM   18  C28 UNL     1       2.456   0.636  -1.445  1.00  0.00     0.033 C 
ENDROOT
BRANCH  16  19
HETATM   19  C19 UNL     1      -1.355   1.838   1.444  1.00  0.00    -0.028 C 
HETATM   20  C20 UNL     1      -2.193   0.724   0.909  1.00  0.00     0.015 C 
HETATM   21  C21 UNL     1      -3.125   0.156   1.705  1.00  0.00    -0.052 C 
HETATM   22  C25 UNL     1      -3.195   0.494   3.189  1.00  0.00     0.202 C 
HETATM   23  O7  UNL     1      -2.454   1.664   3.562  1.00  0.00    -0.382 OA
HETATM   24  C26 UNL     1      -1.157   1.700   2.949  1.00  0.00     0.207 C 
BRANCH  21  25
HETATM   25  C22 UNL     1      -4.207  -0.787   1.190  1.00  0.00     0.008 C 
HETATM   26  C23 UNL     1      -4.545  -0.609  -0.298  1.00  0.00     0.014 C 
HETATM   27  C24 UNL     1      -3.867  -2.249   1.467  1.00  0.00     0.014 C 
ENDBRANCH  21  25
ENDBRANCH  16  19
BRANCH  15  28
HETATM   28  O6  UNL     1      -0.665   1.448  -1.789  1.00  0.00    -0.379 OA
HETATM   29  C17 UNL     1      -1.689   2.312  -2.256  1.00  0.00     0.203 C 
ENDBRANCH  15  28
BRANCH   9  30
HETATM   30  O4  UNL     1       3.152  -0.482   0.844  1.00  0.00    -0.355 OA
HETATM   31  C11 UNL     1       3.594  -1.387   1.850  1.00  0.00     0.206 C 
ENDBRANCH   9  30
BRANCH   1  32
HETATM   32  C2  UNL     1       3.508  -0.685  -3.224  1.00  0.00    -0.027 C 
HETATM   33  C1  UNL     1       3.587  -0.540  -4.556  1.00  0.00     0.007 C 
ENDBRANCH   1  32
BRANCH   7  34
HETATM   34  O3  UNL     1      -0.602  -1.816   2.492  1.00  0.00    -0.340 OA
ATOM     35  H3  UNL     1      -0.308  -1.025   2.929  1.00  0.00     0.220 HD
ENDBRANCH   7  34
BRANCH   5  36
HETATM   36  O1  UNL     1       0.029  -4.324  -1.149  1.00  0.00    -0.340 OA
ATOM     37  H1  UNL     1      -0.590  -5.041  -1.074  1.00  0.00     0.220 HD
ENDBRANCH   5  36
TORSDOF 7
