REMARK  7 active torsions:
REMARK  status: ('A' for Active; 'I' for Inactive)
REMARK    1  A    between atoms: N5_17  and  C9_18 
REMARK    2  A    between atoms: C9_18  and  C10_19 
REMARK    3  A    between atoms: C10_19  and  C11_20 
REMARK    4  A    between atoms: C11_20  and  C12_21 
REMARK    5  A    between atoms: N6_23  and  C14_24 
REMARK    6  A    between atoms: C14_24  and  C15_25 
REMARK    7  A    between atoms: C15_25  and  C16_26 
ROOT
HETATM    1  C12 UNL     1      -0.580  -3.288   1.145  1.00  0.00     0.040 C 
HETATM    2  C13 UNL     1      -1.520  -2.428   1.668  1.00  0.00     0.134 C 
HETATM    3  N6  UNL     1      -2.498  -2.424   0.710  1.00  0.00    -0.285 N 
HETATM    4  N13 UNL     1      -2.305  -3.415  -0.179  1.00  0.00    -0.021 NA
HETATM    5  N14 UNL     1      -1.113  -3.941   0.067  1.00  0.00    -0.287 N 
ATOM      6  H14 UNL     1      -0.672  -4.698  -0.455  1.00  0.00     0.184 HD
ENDROOT
BRANCH   1   7
HETATM    7  C11 UNL     1       0.867  -3.357   1.457  1.00  0.00     0.061 C 
BRANCH   7   8
HETATM    8  C10 UNL     1       1.708  -2.663   0.371  1.00  0.00     0.022 C 
BRANCH   8   9
HETATM    9  C9  UNL     1       1.225  -1.237   0.035  1.00  0.00     0.109 C 
BRANCH   9  10
HETATM   10  N5  UNL     1       2.225  -0.581  -0.805  1.00  0.00    -0.236 NA
HETATM   11  N4  UNL     1       2.487   0.855  -0.342  1.00  0.00    -0.143 NA
HETATM   12  C7  UNL     1       3.123   1.522  -1.387  1.00  0.00     0.141 C 
HETATM   13  C8  UNL     1       3.426   0.817   0.748  1.00  0.00     0.135 C 
HETATM   14  C6  UNL     1       4.364   0.726  -1.803  1.00  0.00     0.142 C 
HETATM   15  N3  UNL     1       2.789   2.584  -2.041  1.00  0.00    -0.386 N 
HETATM   16  N2  UNL     1       5.180   0.314  -0.871  1.00  0.00    -0.337 N 
HETATM   17  N15 UNL     1       4.267   0.236  -3.090  1.00  0.00    -0.372 N 
HETATM   18  C5  UNL     1       4.730   0.554   0.425  1.00  0.00     0.074 C 
ATOM     19  H2  UNL     1       6.069  -0.143  -1.074  1.00  0.00     0.167 HD
HETATM   20  C4  UNL     1       5.717   0.418   1.458  1.00  0.00     0.038 C 
HETATM   21  C3  UNL     1       5.394   0.611   2.741  1.00  0.00     0.077 C 
HETATM   22  C2  UNL     1       4.014   1.009   3.113  1.00  0.00     0.248 C 
HETATM   23  N1  UNL     1       3.095   1.117   2.073  1.00  0.00    -0.306 N 
HETATM   24  O1  UNL     1       3.761   1.224   4.297  1.00  0.00    -0.268 OA
HETATM   25  C1  UNL     1       1.781   1.654   2.385  1.00  0.00     0.161 C 
HETATM   26  C21 UNL     1       3.304  -0.905  -3.143  1.00  0.00     0.137 C 
ATOM     27  H15 UNL     1       4.781   0.602  -3.892  1.00  0.00     0.161 HD
HETATM   28  C20 UNL     1       1.996  -0.733  -2.272  1.00  0.00     0.128 C 
ATOM     29  H32 UNL     1       3.255   3.072  -2.806  1.00  0.00     0.157 HD
ATOM     30  H31 UNL     1       1.963   3.114  -1.764  1.00  0.00     0.157 HD
ENDBRANCH   9  10
ENDBRANCH   8   9
ENDBRANCH   7   8
ENDBRANCH   1   7
BRANCH   3  31
HETATM   31  C14 UNL     1      -3.188  -1.230   0.292  1.00  0.00     0.152 C 
BRANCH  31  32
HETATM   32  C15 UNL     1      -4.691  -1.340   0.081  1.00  0.00     0.080 C 
BRANCH  32  33
HETATM   33  C16 UNL     1      -5.215   0.014  -0.277  1.00  0.00     0.045 A 
HETATM   34  C17 UNL     1      -4.668   0.928  -1.166  1.00  0.00     0.159 A 
HETATM   35  N7  UNL     1      -5.346   2.090  -0.927  1.00  0.00     0.016 N 
HETATM   36  C18 UNL     1      -5.207   3.392  -1.380  1.00  0.00     0.712 A 
HETATM   37  C19 UNL     1      -6.313   1.810  -0.022  1.00  0.00     0.719 A 
HETATM   38  N8  UNL     1      -4.261   3.736  -2.196  1.00  0.00    -0.232 N 
HETATM   39  N9  UNL     1      -6.087   4.369  -0.964  1.00  0.00    -0.116 N 
ATOM     40  H82 UNL     1      -3.610   3.013  -2.504  1.00  0.00     0.174 HD
ATOM     41  H81 UNL     1      -4.159   4.694  -2.529  1.00  0.00     0.174 HD
HETATM   42  N10 UNL     1      -7.009   4.087  -0.152  1.00  0.00    -0.214 N 
ATOM     43  H9  UNL     1      -5.992   5.322  -1.314  1.00  0.00     0.207 HD
HETATM   44  N11 UNL     1      -7.126   2.829   0.354  1.00  0.00    -0.116 N 
ATOM     45  H10 UNL     1      -7.673   4.808   0.128  1.00  0.00     0.209 HD
ATOM     46  H11 UNL     1      -7.854   2.645   1.044  1.00  0.00     0.207 HD
HETATM   47  N12 UNL     1      -6.291   0.566   0.384  1.00  0.00    -0.192 N 
ATOM     48  H12 UNL     1      -6.925   0.109   1.040  1.00  0.00     0.184 HD
ENDBRANCH  32  33
ENDBRANCH  31  32
ENDBRANCH   3  31
TORSDOF 7
