REMARK  9 active torsions:
REMARK  status: ('A' for Active; 'I' for Inactive)
REMARK    1  A    between atoms: C2_2  and  C3_4 
REMARK    2  A    between atoms: C4_5  and  O2_6 
REMARK    3  A    between atoms: N1_9  and  O3_11 
REMARK    4  A    between atoms: O3_11  and  C6_12 
REMARK    5  A    between atoms: C6_12  and  C7_13 
REMARK    6  A    between atoms: C7_13  and  N2_14 
REMARK    7  A    between atoms: C18_25  and  O4_26 
REMARK    8  A    between atoms: C26_36  and  C28_38 
REMARK    9  A    between atoms: C28_38  and  C29_39 
ROOT
HETATM    1  C3  UNL     1       0.986   0.247  -1.199  1.00  0.00     0.012 C 
HETATM    2  C4  UNL     1       0.618   1.732  -1.220  1.00  0.00     0.200 C 
HETATM    3  C5  UNL     1      -0.165   2.038   0.061  1.00  0.00     0.051 C 
HETATM    4  N1  UNL     1      -1.348   2.591   0.084  1.00  0.00    -0.271 N 
ATOM      5  H1  UNL     1      -1.830   2.832   0.950  1.00  0.00     0.193 HD
HETATM    6  C12 UNL     1       0.503   1.693   1.414  1.00  0.00     0.003 C 
HETATM    7  C13 UNL     1       1.223   2.972   1.899  1.00  0.00     0.022 C 
HETATM    8  C14 UNL     1      -0.599   1.426   2.468  1.00  0.00     0.022 C 
HETATM    9  C15 UNL     1       1.480   0.513   1.261  1.00  0.00     0.045 C 
HETATM   10  C16 UNL     1       2.422   0.106   2.132  1.00  0.00     0.132 C 
HETATM   11  C17 UNL     1       1.919  -0.988   3.006  1.00  0.00     0.079 C 
HETATM   12  C18 UNL     1       1.563  -2.197   2.084  1.00  0.00     0.128 C 
HETATM   13  C19 UNL     1       0.280  -2.779   2.741  1.00  0.00     0.162 C 
HETATM   14  O5  UNL     1       0.308  -3.278   3.876  1.00  0.00    -0.295 OA
HETATM   15  C20 UNL     1      -1.053  -2.725   2.037  1.00  0.00     0.081 C 
HETATM   16  C21 UNL     1      -1.030  -1.960   0.735  1.00  0.00     0.008 C 
HETATM   17  C22 UNL     1       0.139  -2.431  -0.095  1.00  0.00     0.014 C 
HETATM   18  C23 UNL     1       1.518  -1.919   0.452  1.00  0.00     0.009 C 
HETATM   19  C24 UNL     1       2.497  -2.924  -0.234  1.00  0.00     0.020 C 
HETATM   20  C25 UNL     1       1.865  -0.240   0.003  1.00  0.00     0.038 C 
HETATM   21  C26 UNL     1       3.455   0.116   0.115  1.00  0.00     0.079 C 
HETATM   22  C27 UNL     1       3.979   1.584   0.197  1.00  0.00     0.047 C 
HETATM   23  O6  UNL     1       3.637  -0.326   1.512  1.00  0.00    -0.373 OA
ENDROOT
BRANCH   2  24
HETATM   24  O2  UNL     1       1.746   2.553  -1.384  1.00  0.00    -0.385 OA
ATOM     25  H2  UNL     1       1.518   3.475  -1.397  1.00  0.00     0.210 HD
ENDBRANCH   2  24
BRANCH   4  26
HETATM   26  O3  UNL     1      -1.897   2.825  -1.181  1.00  0.00    -0.279 OA
BRANCH  26  27
HETATM   27  C6  UNL     1      -3.309   3.067  -1.028  1.00  0.00     0.231 C 
BRANCH  27  28
HETATM   28  C7  UNL     1      -4.114   1.953  -1.730  1.00  0.00     0.301 C 
BRANCH  28  29
HETATM   29  N2  UNL     1      -4.300   0.736  -0.914  1.00  0.00     0.090 N 
HETATM   30  C8  UNL     1      -4.755  -0.402  -1.719  1.00  0.00     0.272 C 
HETATM   31  C9  UNL     1      -5.205  -1.400  -0.665  1.00  0.00     0.032 C 
HETATM   32  C10 UNL     1      -5.651  -0.549   0.519  1.00  0.00     0.032 C 
HETATM   33  C11 UNL     1      -5.333   0.887   0.120  1.00  0.00     0.272 C 
ENDBRANCH  28  29
ENDBRANCH  27  28
ENDBRANCH  26  27
ENDBRANCH   4  26
BRANCH   1  34
HETATM   34  C2  UNL     1       1.371  -0.253  -2.589  1.00  0.00     0.151 C 
HETATM   35  C1  UNL     1       0.417  -0.015  -3.731  1.00  0.00     0.096 C 
HETATM   36  O1  UNL     1       2.401  -0.895  -2.806  1.00  0.00    -0.293 OA
ENDBRANCH   1  34
BRANCH  21  37
HETATM   37  C28 UNL     1       4.444  -0.675  -0.795  1.00  0.00     0.156 C 
BRANCH  37  38
HETATM   38  C29 UNL     1       5.242   0.118  -1.817  1.00  0.00     0.390 C 
HETATM   39  F1  UNL     1       5.818  -0.704  -2.722  1.00  0.00    -0.171 F 
HETATM   40  F2  UNL     1       6.250   0.801  -1.221  1.00  0.00    -0.171 F 
HETATM   41  F3  UNL     1       4.492   1.003  -2.507  1.00  0.00    -0.171 F 
ENDBRANCH  37  38
ENDBRANCH  21  37
BRANCH  12  42
HETATM   42  O4  UNL     1       2.534  -3.244   2.321  1.00  0.00    -0.381 OA
ATOM     43  H4  UNL     1       2.317  -3.980   1.760  1.00  0.00     0.211 HD
ENDBRANCH  12  42
TORSDOF 9
