REMARK  9 active torsions:
REMARK  status: ('A' for Active; 'I' for Inactive)
REMARK    1  A    between atoms: C2_2  and  C4_4 
REMARK    2  A    between atoms: C4_4  and  C5_5 
REMARK    3  A    between atoms: C11_12  and  C12_13 
REMARK    4  A    between atoms: C12_13  and  C13_14 
REMARK    5  A    between atoms: C19_20  and  O2_21 
REMARK    6  A    between atoms: C23_26  and  O3_27 
REMARK    7  A    between atoms: O3_27  and  C24_28 
REMARK    8  A    between atoms: C24_28  and  C25_30 
REMARK    9  A    between atoms: C34_41  and  O7_42 
ROOT
HETATM    1  C5  UNL     1       4.319  -0.350   2.573  1.00  0.00     0.188 C 
HETATM    2  O1  UNL     1       4.232   1.089   2.818  1.00  0.00    -0.374 OA
HETATM    3  C6  UNL     1       3.741   2.014   1.815  1.00  0.00     0.135 C 
HETATM    4  C7  UNL     1       2.280   2.324   2.189  1.00  0.00     0.041 C 
HETATM    5  C8  UNL     1       1.495   1.373   1.300  1.00  0.00     0.027 C 
HETATM    6  C9  UNL     1      -0.021   1.550   1.188  1.00  0.00    -0.003 C 
HETATM    7  C10 UNL     1      -0.649   1.286   2.560  1.00  0.00     0.011 C 
HETATM    8  C11 UNL     1      -0.603   0.583   0.091  1.00  0.00     0.046 C 
HETATM    9  C23 UNL     1       0.384   0.359  -1.130  1.00  0.00     0.275 C 
HETATM   10  O5  UNL     1       1.788   0.430  -0.843  1.00  0.00    -0.348 OA
HETATM   11  C29 UNL     1       2.205   1.518  -0.030  1.00  0.00     0.075 C 
HETATM   12  C30 UNL     1       1.934   2.882  -0.733  1.00  0.00     0.047 C 
HETATM   13  C31 UNL     1       3.734   1.484   0.364  1.00  0.00     0.031 C 
HETATM   14  C32 UNL     1       4.414   1.458  -1.081  1.00  0.00     0.048 C 
HETATM   15  C33 UNL     1       4.779  -0.025  -0.763  1.00  0.00     0.136 C 
HETATM   16  O6  UNL     1       3.929  -0.984   0.025  1.00  0.00    -0.346 OA
HETATM   17  C34 UNL     1       4.807  -0.731   1.169  1.00  0.00     0.196 C 
HETATM   18  C35 UNL     1       5.106   0.595   0.564  1.00  0.00     0.094 C 
ENDROOT
BRANCH   8  19
HETATM   19  C12 UNL     1      -2.065   1.021  -0.334  1.00  0.00     0.016 C 
BRANCH  19  20
HETATM   20  C13 UNL     1      -3.276   0.132   0.160  1.00  0.00     0.004 C 
HETATM   21  C14 UNL     1      -3.632  -1.079  -0.816  1.00  0.00    -0.043 C 
HETATM   22  C15 UNL     1      -3.999  -0.684  -2.269  1.00  0.00     0.015 C 
HETATM   23  C16 UNL     1      -2.430  -2.038  -0.918  1.00  0.00     0.015 C 
HETATM   24  C17 UNL     1      -4.804  -1.921  -0.248  1.00  0.00     0.011 C 
HETATM   25  C18 UNL     1      -6.046  -1.105   0.092  1.00  0.00     0.033 C 
HETATM   26  C19 UNL     1      -5.728   0.030   1.055  1.00  0.00     0.126 C 
HETATM   27  C20 UNL     1      -4.571   0.972   0.585  1.00  0.00    -0.017 C 
HETATM   28  C21 UNL     1      -5.089   1.890  -0.545  1.00  0.00     0.018 C 
HETATM   29  C22 UNL     1      -4.264   1.915   1.779  1.00  0.00     0.018 C 
BRANCH  26  30
HETATM   30  O2  UNL     1      -5.442  -0.547   2.336  1.00  0.00    -0.395 OA
ATOM     31  H2  UNL     1      -5.244   0.161   2.937  1.00  0.00     0.210 HD
ENDBRANCH  26  30
ENDBRANCH  19  20
ENDBRANCH   8  19
BRANCH   9  32
HETATM   32  O3  UNL     1       0.063   1.206  -2.244  1.00  0.00    -0.286 OA
BRANCH  32  33
HETATM   33  C24 UNL     1      -0.146   0.589  -3.434  1.00  0.00     0.291 C 
HETATM   34  O4  UNL     1      -1.167   0.754  -4.090  1.00  0.00    -0.260 OA
BRANCH  33  35
HETATM   35  C25 UNL     1       1.010  -0.191  -3.941  1.00  0.00     0.009 C 
HETATM   36  C26 UNL     1       2.249   0.582  -4.264  1.00  0.00     0.054 C 
HETATM   37  C27 UNL     1       0.938  -1.522  -4.154  1.00  0.00    -0.018 C 
HETATM   38  C28 UNL     1      -0.234  -2.430  -3.960  1.00  0.00     0.036 C 
ENDBRANCH  33  35
ENDBRANCH  32  33
ENDBRANCH   9  32
BRANCH   1  39
HETATM   39  C4  UNL     1       3.164  -1.125   3.217  1.00  0.00     0.070 C 
BRANCH  39  40
HETATM   40  C2  UNL     1       2.792  -2.484   2.678  1.00  0.00    -0.090 C 
HETATM   41  C1  UNL     1       1.597  -2.701   2.115  1.00  0.00     0.014 C 
HETATM   42  C3  UNL     1       3.766  -3.613   2.875  1.00  0.00     0.042 C 
ENDBRANCH  39  40
ENDBRANCH   1  39
BRANCH  17  43
HETATM   43  O7  UNL     1       5.886  -1.679   1.201  1.00  0.00    -0.363 OA
ATOM     44  H7  UNL     1       6.188  -1.915   0.332  1.00  0.00     0.213 HD
ENDBRANCH  17  43
TORSDOF 9
