REMARK  19 active torsions:
REMARK  status: ('A' for Active; 'I' for Inactive)
REMARK    1  A    between atoms: C10_10  and  O1_11 
REMARK    2  A    between atoms: C20_22  and  C21_23 
REMARK    3  A    between atoms: C21_23  and  C22_24 
REMARK    4  A    between atoms: C22_24  and  N1_25 
REMARK    5  A    between atoms: N1_25  and  C23_26 
REMARK    6  A    between atoms: N1_25  and  C25_30 
REMARK    7  A    between atoms: C23_26  and  C24_27 
REMARK    8  A    between atoms: C24_27  and  O2_28 
REMARK    9  A    between atoms: C25_30  and  C26_31 
REMARK   10  A    between atoms: C26_31  and  O3_32 
REMARK   11  A    between atoms: C29_36  and  C30_37 
REMARK   12  A    between atoms: C30_37  and  O4_38 
REMARK   13  A    between atoms: O4_38  and  C31_39 
REMARK   14  A    between atoms: C31_39  and  C32_41 
REMARK   15  A    between atoms: C32_41  and  N2_42 
REMARK   16  A    between atoms: N2_42  and  C33_45 
REMARK   17  A    between atoms: C33_45  and  C34_46 
REMARK   18  A    between atoms: C34_46  and  C35_47 
REMARK   19  A    between atoms: C35_47  and  N3_48 
ROOT
HETATM    1  C1  UNL     1      -0.988   1.223   4.510  1.00  0.00     0.049 C 
HETATM    2  C2  UNL     1      -1.637   1.157   3.124  1.00  0.00    -0.050 C 
HETATM    3  C3  UNL     1      -2.619   2.363   2.857  1.00  0.00    -0.053 C 
HETATM    4  C4  UNL     1      -3.665   2.118   1.757  1.00  0.00     0.039 C 
HETATM    5  C5  UNL     1      -3.292   2.263   0.289  1.00  0.00     0.009 C 
HETATM    6  C6  UNL     1      -2.507   3.510  -0.116  1.00  0.00    -0.007 C 
HETATM    7  C7  UNL     1      -0.997   3.265  -0.319  1.00  0.00     0.039 C 
HETATM    8  C8  UNL     1      -0.004   3.679   0.793  1.00  0.00    -0.069 C 
HETATM    9  C9  UNL     1      -0.496   4.945   1.502  1.00  0.00     0.076 C 
HETATM   10  C10 UNL     1      -1.956   4.870   1.966  1.00  0.00     0.080 C 
HETATM   11  C11 UNL     1      -2.845   4.726   0.737  1.00  0.00     0.047 C 
HETATM   12  C12 UNL     1      -2.188   3.838   3.094  1.00  0.00     0.018 C 
HETATM   13  C13 UNL     1       0.583   2.633   1.719  1.00  0.00    -0.046 C 
HETATM   14  C14 UNL     1       1.296   2.897   2.849  1.00  0.00    -0.018 C 
HETATM   15  C15 UNL     1       2.092   1.705   3.344  1.00  0.00     0.034 C 
HETATM   16  C16 UNL     1       2.069   0.972   2.038  1.00  0.00     0.014 C 
HETATM   17  C17 UNL     1       2.695  -0.378   1.698  1.00  0.00    -0.039 C 
HETATM   18  C18 UNL     1       4.241  -0.243   1.636  1.00  0.00     0.015 C 
HETATM   19  C19 UNL     1       2.426  -1.468   2.732  1.00  0.00     0.015 C 
HETATM   20  C20 UNL     1       2.145  -0.542   0.233  1.00  0.00    -0.003 C 
HETATM   21  C27 UNL     1       0.983   0.524   0.057  1.00  0.00     0.025 C 
HETATM   22  C28 UNL     1       0.642   1.132   1.451  1.00  0.00     0.018 C 
HETATM   23  C29 UNL     1      -0.748   0.547   1.962  1.00  0.00    -0.036 C 
ENDROOT
BRANCH  23  24
HETATM   24  C30 UNL     1      -0.832  -0.993   2.083  1.00  0.00     0.214 C 
BRANCH  24  25
HETATM   25  O4  UNL     1      -2.043  -1.418   1.430  1.00  0.00    -0.316 OA
BRANCH  25  26
HETATM   26  C31 UNL     1      -1.955  -2.620   0.793  1.00  0.00     0.284 C 
HETATM   27  O5  UNL     1      -1.208  -3.538   1.108  1.00  0.00    -0.263 OA
BRANCH  26  28
HETATM   28  C32 UNL     1      -2.801  -2.585  -0.474  1.00  0.00     0.342 C 
BRANCH  28  29
HETATM   29  N2  UNL     1      -1.978  -2.023  -1.559  1.00  0.00    -0.066 N 
ATOM     30  H22 UNL     1      -1.457  -1.205  -1.243  1.00  0.00     0.277 HD
ATOM     31  H21 UNL     1      -1.194  -2.635  -1.785  1.00  0.00     0.277 HD
BRANCH  29  32
HETATM   32  C33 UNL     1      -2.772  -1.720  -2.743  1.00  0.00     0.234 C 
BRANCH  32  33
HETATM   33  C34 UNL     1      -1.884  -1.245  -3.900  1.00  0.00     0.057 C 
BRANCH  33  34
HETATM   34  C35 UNL     1      -1.167   0.084  -3.609  1.00  0.00     0.273 C 
BRANCH  34  35
HETATM   35  N3  UNL     1      -0.434   0.568  -4.795  1.00  0.00     0.080 N 
HETATM   36  C36 UNL     1       0.846  -0.129  -4.960  1.00  0.00     0.309 C 
HETATM   37  C37 UNL     1      -0.194   2.010  -4.701  1.00  0.00     0.309 C 
ENDBRANCH  34  35
ENDBRANCH  33  34
ENDBRANCH  32  33
ENDBRANCH  29  32
ENDBRANCH  28  29
ENDBRANCH  26  28
ENDBRANCH  25  26
ENDBRANCH  24  25
ENDBRANCH  23  24
BRANCH  20  38
HETATM   38  C21 UNL     1       1.759  -1.945  -0.267  1.00  0.00     0.036 C 
BRANCH  38  39
HETATM   39  C22 UNL     1       2.932  -2.837  -0.701  1.00  0.00     0.273 C 
BRANCH  39  40
HETATM   40  N1  UNL     1       2.342  -4.045  -1.304  1.00  0.00     0.092 N 
BRANCH  40  41
HETATM   41  C23 UNL     1       3.021  -4.498  -2.534  1.00  0.00     0.298 C 
BRANCH  41  42
HETATM   42  C24 UNL     1       2.558  -3.709  -3.774  1.00  0.00     0.194 C 
BRANCH  42  43
HETATM   43  O2  UNL     1       3.290  -2.501  -3.958  1.00  0.00    -0.399 OA
ATOM     44  H2  UNL     1       3.005  -2.015  -4.722  1.00  0.00     0.209 HD
ENDBRANCH  42  43
ENDBRANCH  41  42
ENDBRANCH  40  41
BRANCH  40  45
HETATM   45  C25 UNL     1       2.212  -5.138  -0.310  1.00  0.00     0.298 C 
BRANCH  45  46
HETATM   46  C26 UNL     1       0.929  -5.966  -0.510  1.00  0.00     0.194 C 
BRANCH  46  47
HETATM   47  O3  UNL     1       1.035  -6.890  -1.588  1.00  0.00    -0.399 OA
ATOM     48  H3  UNL     1       0.244  -7.401  -1.711  1.00  0.00     0.209 HD
ENDBRANCH  46  47
ENDBRANCH  45  46
ENDBRANCH  40  45
ENDBRANCH  39  40
ENDBRANCH  38  39
ENDBRANCH  20  38
BRANCH  10  49
HETATM   49  O1  UNL     1      -2.258   6.174   2.536  1.00  0.00    -0.386 OA
ATOM     50  H1  UNL     1      -3.162   6.128   2.823  1.00  0.00     0.211 HD
ENDBRANCH  10  49
TORSDOF 19
