REMARK  13 active torsions:
REMARK  status: ('A' for Active; 'I' for Inactive)
REMARK    1  A    between atoms: C2_2  and  C3_3 
REMARK    2  A    between atoms: C3_3  and  C4_4 
REMARK    3  A    between atoms: C4_4  and  C5_5 
REMARK    4  A    between atoms: C5_5  and  C6_6 
REMARK    5  A    between atoms: C10_12  and  O3_13 
REMARK    6  A    between atoms: C12_16  and  O4_17 
REMARK    7  A    between atoms: C13_19  and  O5_20 
REMARK    8  A    between atoms: O5_20  and  C14_21 
REMARK    9  A    between atoms: C15_23  and  C16_24 
REMARK   10  A    between atoms: C16_24  and  O7_25 
REMARK   11  A    between atoms: C17_27  and  O8_28 
REMARK   12  A    between atoms: C18_30  and  O9_31 
REMARK   13  A    between atoms: C19_33  and  O10_34 
ROOT
HETATM    1  C6  UNL     1       2.577  -2.429  -0.920  1.00  0.00     0.153 C 
HETATM    2  O1  UNL     1       3.604  -1.410  -0.726  1.00  0.00    -0.372 OA
HETATM    3  C7  UNL     1       2.710  -0.393  -1.255  1.00  0.00     0.191 C 
HETATM    4  C8  UNL     1       1.538  -1.354  -1.257  1.00  0.00     0.183 C 
HETATM    5  O2  UNL     1       0.864  -0.615  -0.206  1.00  0.00    -0.363 OA
HETATM    6  C9  UNL     1       1.863   0.469  -0.281  1.00  0.00     0.125 C 
HETATM    7  C10 UNL     1       2.528   0.636   1.106  1.00  0.00     0.158 C 
HETATM    8  C11 UNL     1       1.853   1.693   1.982  1.00  0.00     0.069 C 
HETATM    9  C12 UNL     1       0.379   1.887   1.672  1.00  0.00     0.150 C 
HETATM   10  C13 UNL     1       0.081   2.200   0.176  1.00  0.00     0.164 C 
HETATM   11  C20 UNL     1       1.205   1.769  -0.823  1.00  0.00     0.018 C 
HETATM   12  C21 UNL     1       0.595   1.560  -2.235  1.00  0.00     0.021 C 
HETATM   13  C22 UNL     1       2.263   2.883  -0.990  1.00  0.00     0.021 C 
ENDROOT
BRANCH  10  14
HETATM   14  O5  UNL     1      -1.112   1.481  -0.175  1.00  0.00    -0.350 OA
BRANCH  14  15
HETATM   15  C14 UNL     1      -2.337   2.134   0.140  1.00  0.00     0.292 C 
HETATM   16  O6  UNL     1      -2.911   2.636  -1.070  1.00  0.00    -0.348 OA
HETATM   17  C15 UNL     1      -3.551   1.589  -1.830  1.00  0.00     0.179 C 
HETATM   18  C17 UNL     1      -4.834   1.145  -1.100  1.00  0.00     0.180 C 
HETATM   19  C18 UNL     1      -4.691   1.317   0.423  1.00  0.00     0.183 C 
HETATM   20  C19 UNL     1      -3.247   1.110   0.861  1.00  0.00     0.204 C 
BRANCH  17  21
HETATM   21  C16 UNL     1      -3.800   2.086  -3.256  1.00  0.00     0.198 C 
BRANCH  21  22
HETATM   22  O7  UNL     1      -2.561   2.095  -3.977  1.00  0.00    -0.398 OA
ATOM     23  H7  UNL     1      -2.716   2.403  -4.862  1.00  0.00     0.209 HD
ENDBRANCH  21  22
ENDBRANCH  17  21
BRANCH  18  24
HETATM   24  O8  UNL     1      -5.989   1.885  -1.523  1.00  0.00    -0.390 OA
ATOM     25  H8  UNL     1      -6.780   1.611  -1.073  1.00  0.00     0.210 HD
ENDBRANCH  18  24
BRANCH  19  26
HETATM   26  O9  UNL     1      -5.563   0.386   1.085  1.00  0.00    -0.390 OA
ATOM     27  H9  UNL     1      -5.475   0.492   2.025  1.00  0.00     0.210 HD
ENDBRANCH  19  26
BRANCH  20  28
HETATM   28  O10 UNL     1      -3.151   1.244   2.289  1.00  0.00    -0.388 OA
ATOM     29  H10 UNL     1      -3.709   0.616   2.731  1.00  0.00     0.210 HD
ENDBRANCH  20  28
ENDBRANCH  14  15
ENDBRANCH  10  14
BRANCH   9  30
HETATM   30  O4  UNL     1      -0.334   0.711   2.101  1.00  0.00    -0.393 OA
ATOM     31  H4  UNL     1      -1.256   0.832   1.907  1.00  0.00     0.210 HD
ENDBRANCH   9  30
BRANCH   7  32
HETATM   32  O3  UNL     1       3.900   1.014   0.954  1.00  0.00    -0.392 OA
ATOM     33  H3  UNL     1       4.308   1.117   1.806  1.00  0.00     0.210 HD
ENDBRANCH   7  32
BRANCH   1  34
HETATM   34  C5  UNL     1       2.305  -3.222   0.348  1.00  0.00     0.035 C 
BRANCH  34  35
HETATM   35  C4  UNL     1       3.493  -4.113   0.704  1.00  0.00     0.006 C 
BRANCH  35  36
HETATM   36  C3  UNL     1       3.370  -4.695   2.114  1.00  0.00     0.026 C 
BRANCH  36  37
HETATM   37  C2  UNL     1       2.158  -5.565   2.298  1.00  0.00    -0.037 C 
HETATM   38  C1  UNL     1       1.149  -5.270   3.123  1.00  0.00     0.007 C 
ENDBRANCH  36  37
ENDBRANCH  35  36
ENDBRANCH  34  35
ENDBRANCH   1  34
TORSDOF 13
