REMARK  7 active torsions:
REMARK  status: ('A' for Active; 'I' for Inactive)
REMARK    1  A    between atoms: C2_2  and  C4_4 
REMARK    2  A    between atoms: C4_4  and  C5_5 
REMARK    3  A    between atoms: C5_5  and  C6_6 
REMARK    4  A    between atoms: C6_6  and  C7_7 
REMARK    5  A    between atoms: C7_7  and  C8_8 
REMARK    6  A    between atoms: C8_8  and  C9_9 
REMARK    7  A    between atoms: C9_9  and  C10_10 
REMARK       I    between atoms: C10_10  and  N1_12 
ROOT
HETATM    1  C10 UNL     1       0.915  -3.197  -1.349  1.00  0.00     0.223 C 
HETATM    2  O1  UNL     1       1.915  -3.914  -1.317  1.00  0.00    -0.273 OA
HETATM    3  N1  UNL     1       0.939  -1.876  -1.729  1.00  0.00    -0.312 N 
ATOM      4  H1  UNL     1       0.273  -1.523  -2.416  1.00  0.00     0.170 HD
HETATM    5  C11 UNL     1       1.829  -1.077  -1.196  1.00  0.00     0.123 C 
HETATM    6  C12 UNL     1       2.804  -1.530  -0.121  1.00  0.00     0.068 C 
HETATM    7  C13 UNL     1       2.996  -0.854   1.032  1.00  0.00     0.058 C 
HETATM    8  C14 UNL     1       2.110   0.314   1.323  1.00  0.00     0.261 C 
HETATM    9  O2  UNL     1       1.126   0.204   2.046  1.00  0.00    -0.267 OA
HETATM   10  N2  UNL     1       2.574   1.486   0.717  1.00  0.00    -0.301 N 
HETATM   11  C15 UNL     1       1.736   2.669   0.795  1.00  0.00     0.161 C 
HETATM   12  C16 UNL     1       3.493   1.389  -0.341  1.00  0.00     0.146 C 
HETATM   13  C17 UNL     1       4.780   0.999  -0.091  1.00  0.00     0.081 C 
HETATM   14 CL1  UNL     1       5.931   0.838  -1.392  1.00  0.00    -0.080 Cl
HETATM   15  C18 UNL     1       5.152   0.260   1.123  1.00  0.00     0.052 C 
HETATM   16  C19 UNL     1       4.333  -0.705   1.606  1.00  0.00     0.051 C 
HETATM   17 CL2  UNL     1       4.772  -1.686   2.945  1.00  0.00    -0.083 Cl
HETATM   18  N3  UNL     1       2.938   1.135  -1.615  1.00  0.00    -0.282 N 
ATOM     19  H3  UNL     1       3.312   1.590  -2.448  1.00  0.00     0.188 HD
HETATM   20  N4  UNL     1       1.850   0.233  -1.707  1.00  0.00    -0.284 N 
ATOM     21  H4  UNL     1       1.011   0.561  -2.184  1.00  0.00     0.188 HD
ENDROOT
BRANCH   1  22
HETATM   22  C9  UNL     1      -0.447  -3.812  -1.082  1.00  0.00     0.103 C 
BRANCH  22  23
HETATM   23  C8  UNL     1      -1.639  -2.877  -0.905  1.00  0.00     0.009 C 
BRANCH  23  24
HETATM   24  C7  UNL     1      -1.615  -2.089   0.406  1.00  0.00     0.000 C 
BRANCH  24  25
HETATM   25  C6  UNL     1      -2.940  -1.341   0.627  1.00  0.00     0.000 C 
BRANCH  25  26
HETATM   26  C5  UNL     1      -2.748   0.075   1.174  1.00  0.00     0.000 C 
BRANCH  26  27
HETATM   27  C4  UNL     1      -2.117   1.016   0.135  1.00  0.00     0.004 C 
BRANCH  27  28
HETATM   28  C2  UNL     1      -2.961   2.236  -0.277  1.00  0.00    -0.023 C 
HETATM   29  C1  UNL     1      -4.286   1.830  -0.922  1.00  0.00     0.009 C 
HETATM   30  C3  UNL     1      -3.192   3.204   0.882  1.00  0.00     0.009 C 
ENDBRANCH  27  28
ENDBRANCH  26  27
ENDBRANCH  25  26
ENDBRANCH  24  25
ENDBRANCH  23  24
ENDBRANCH  22  23
ENDBRANCH   1  22
TORSDOF 7
