REMARK  8 active torsions:
REMARK  status: ('A' for Active; 'I' for Inactive)
REMARK    1  A    between atoms: C2_2  and  C3_3 
REMARK    2  A    between atoms: C3_3  and  C4_4 
REMARK    3  A    between atoms: C4_4  and  C5_5 
REMARK    4  A    between atoms: C5_5  and  C6_6 
REMARK    5  A    between atoms: C6_6  and  O1_7 
REMARK    6  A    between atoms: C6_6  and  C7_9 
REMARK    7  A    between atoms: C11_14  and  O3_15 
REMARK    8  A    between atoms: C12_17  and  O4_18 
ROOT
HETATM    1  C7  UNL     1       0.351   1.729  -0.011  1.00  0.00     0.155 C 
HETATM    2  O2  UNL     1       0.408   0.614  -0.967  1.00  0.00    -0.369 OA
HETATM    3  C8  UNL     1       1.795   0.146  -1.009  1.00  0.00     0.095 C 
HETATM    4  C9  UNL     1       2.118  -0.461  -2.369  1.00  0.00     0.044 C 
HETATM    5  C10 UNL     1       2.917  -1.748  -2.107  1.00  0.00     0.038 C 
HETATM    6  C11 UNL     1       3.184  -1.803  -0.602  1.00  0.00     0.155 C 
HETATM    7  C12 UNL     1       2.021  -1.003   0.025  1.00  0.00     0.115 C 
HETATM    8  C13 UNL     1       2.313  -0.522   1.481  1.00  0.00     0.048 C 
HETATM    9  C14 UNL     1       1.949   0.935   1.708  1.00  0.00    -0.009 C 
HETATM   10  C15 UNL     1       1.549   1.332   3.092  1.00  0.00     0.010 C 
HETATM   11  C16 UNL     1       1.751   1.686   0.600  1.00  0.00     0.024 C 
HETATM   12  C17 UNL     1       2.595   1.361  -0.617  1.00  0.00     0.049 C 
ENDROOT
BRANCH   1  13
HETATM   13  C6  UNL     1      -0.913   1.570   0.876  1.00  0.00     0.147 C 
BRANCH  13  14
HETATM   14  C5  UNL     1      -2.206   1.699   0.036  1.00  0.00     0.034 C 
BRANCH  14  15
HETATM   15  C4  UNL     1      -3.419   1.024   0.691  1.00  0.00     0.002 C 
BRANCH  15  16
HETATM   16  C3  UNL     1      -3.563  -0.465   0.371  1.00  0.00    -0.000 C 
BRANCH  16  17
HETATM   17  C2  UNL     1      -4.162  -0.732  -1.013  1.00  0.00    -0.005 C 
HETATM   18  C1  UNL     1      -4.245  -2.229  -1.276  1.00  0.00     0.005 C 
ENDBRANCH  16  17
ENDBRANCH  15  16
ENDBRANCH  14  15
ENDBRANCH  13  14
BRANCH  13  19
HETATM   19  O1  UNL     1      -0.940   2.598   1.876  1.00  0.00    -0.393 OA
ATOM     20  H1  UNL     1      -0.146   2.519   2.392  1.00  0.00     0.210 HD
ENDBRANCH  13  19
ENDBRANCH   1  13
BRANCH   7  21
HETATM   21  O4  UNL     1       0.845  -1.838   0.038  1.00  0.00    -0.384 OA
ATOM     22  H4  UNL     1       0.982  -2.537   0.667  1.00  0.00     0.210 HD
ENDBRANCH   7  21
BRANCH   6  23
HETATM   23  O3  UNL     1       4.456  -1.217  -0.343  1.00  0.00    -0.392 OA
ATOM     24  H3  UNL     1       4.622  -1.251   0.592  1.00  0.00     0.210 HD
ENDBRANCH   6  23
TORSDOF 8
