REMARK  2 active torsions:
REMARK  status: ('A' for Active; 'I' for Inactive)
REMARK    1  A    between atoms: C10_11  and  O2_12 
REMARK    2  A    between atoms: C19_25  and  O5_26 
ROOT
HETATM    1  C1  UNL     1       3.988  -1.657  -2.851  1.00  0.00     0.018 C 
HETATM    2  C2  UNL     1       2.975  -1.205  -1.815  1.00  0.00     0.063 C 
HETATM    3  C3  UNL     1       3.157   0.272  -1.464  1.00  0.00     0.143 C 
HETATM    4  O1  UNL     1       3.586   1.097  -2.265  1.00  0.00    -0.297 OA
HETATM    5  C4  UNL     1       2.660   0.657  -0.046  1.00  0.00     0.054 C 
HETATM    6  C5  UNL     1       3.836   1.382   0.591  1.00  0.00     0.027 C 
HETATM    7  C6  UNL     1       2.465  -0.810   0.569  1.00  0.00     0.011 C 
HETATM    8  C7  UNL     1       2.937  -0.957   2.026  1.00  0.00     0.012 C 
HETATM    9  C8  UNL     1       2.979  -1.913  -0.431  1.00  0.00    -0.004 C 
HETATM   10  C9  UNL     1       4.448  -2.289  -0.078  1.00  0.00     0.019 C 
HETATM   11  C10 UNL     1       2.037  -3.232  -0.509  1.00  0.00     0.127 C 
HETATM   12  C11 UNL     1       0.526  -3.330  -0.025  1.00  0.00     0.035 C 
HETATM   13  C12 UNL     1      -0.734  -2.604  -0.660  1.00  0.00     0.036 C 
HETATM   14  C13 UNL     1      -2.009  -2.395   0.302  1.00  0.00     0.138 C 
HETATM   15  O3  UNL     1      -1.683  -2.679   1.617  1.00  0.00    -0.356 OA
HETATM   16  C14 UNL     1      -0.932  -1.691   2.095  1.00  0.00     0.143 C 
HETATM   17  C15 UNL     1      -0.508  -0.515   1.599  1.00  0.00     0.001 C 
HETATM   18  C16 UNL     1      -0.388   0.361   2.846  1.00  0.00     0.207 C 
HETATM   19  O4  UNL     1      -1.718   0.801   3.057  1.00  0.00    -0.379 OA
HETATM   20  C17 UNL     1      -2.279   1.488   1.927  1.00  0.00     0.152 C 
HETATM   21  C18 UNL     1      -1.446   2.993   1.679  1.00  0.00     0.141 C 
HETATM   22 CL1  UNL     1      -2.775   4.288   1.840  1.00  0.00    -0.120 Cl
HETATM   23  C19 UNL     1      -0.454   3.555   0.436  1.00  0.00     0.149 C 
HETATM   24  C20 UNL     1       1.154   3.075   0.127  1.00  0.00     0.013 C 
HETATM   25  C21 UNL     1       1.928   3.509   1.411  1.00  0.00     0.020 C 
HETATM   26  C22 UNL     1       1.718   3.873  -1.057  1.00  0.00     0.020 C 
HETATM   27  C23 UNL     1       1.262   1.514  -0.142  1.00  0.00     0.093 C 
HETATM   28  O6  UNL     1       0.306   1.266   0.826  1.00  0.00    -0.361 OA
HETATM   29  C24 UNL     1      -0.521   0.286   0.182  1.00  0.00     0.100 C 
HETATM   30  C25 UNL     1      -1.864   0.802  -0.407  1.00  0.00     0.037 C 
HETATM   31  C26 UNL     1      -2.532   0.141  -1.662  1.00  0.00     0.015 C 
HETATM   32  C27 UNL     1      -3.362  -1.042  -1.282  1.00  0.00     0.007 A 
HETATM   33  C28 UNL     1      -4.507  -1.546  -0.358  1.00  0.00    -0.032 A 
HETATM   34  C29 UNL     1      -5.716  -0.835   0.196  1.00  0.00     0.016 C 
HETATM   35  C30 UNL     1      -4.912  -2.984  -0.703  1.00  0.00     0.016 C 
HETATM   36  C31 UNL     1      -3.112  -1.147   0.200  1.00  0.00     0.008 A 
HETATM   37  C32 UNL     1      -2.876   0.607   0.647  1.00  0.00     0.002 C 
HETATM   38  C33 UNL     1      -4.108   1.504   0.218  1.00  0.00     0.019 C 
HETATM   39  C34 UNL     1       0.417   0.612  -1.075  1.00  0.00     0.058 C 
HETATM   40  C35 UNL     1       0.188   1.356  -2.402  1.00  0.00     0.016 C 
ENDROOT
BRANCH  11  41
HETATM   41  O2  UNL     1       2.720  -4.223   0.294  1.00  0.00    -0.395 OA
ATOM     42  H2  UNL     1       2.169  -4.995   0.248  1.00  0.00     0.210 HD
ENDBRANCH  11  41
BRANCH  23  43
HETATM   43  O5  UNL     1      -0.321   5.002   0.626  1.00  0.00    -0.393 OA
ATOM     44  H5  UNL     1       0.238   5.319  -0.074  1.00  0.00     0.210 HD
ENDBRANCH  23  43
TORSDOF 2
