REMARK  5 active torsions:
REMARK  status: ('A' for Active; 'I' for Inactive)
REMARK    1  A    between atoms: C2_2  and  C4_4 
REMARK    2  A    between atoms: C6_6  and  O1_7 
REMARK    3  A    between atoms: C7_9  and  C9_11 
REMARK    4  A    between atoms: C18_23  and  C19_25 
REMARK    5  A    between atoms: C23_30  and  O5_31 
ROOT
HETATM    1  C4  UNL     1       1.459  -0.006   1.237  1.00  0.00    -0.070 C 
HETATM    2  C5  UNL     1       2.318   1.275   1.106  1.00  0.00     0.067 C 
HETATM    3  C6  UNL     1       2.076   2.247  -0.053  1.00  0.00     0.136 C 
HETATM    4  C7  UNL     1       0.976   1.889  -1.077  1.00  0.00     0.046 C 
HETATM    5  C8  UNL     1       1.195   2.701  -2.374  1.00  0.00     0.024 C 
HETATM    6  C19 UNL     1      -0.861  -0.958  -0.120  1.00  0.00     0.042 C 
HETATM    7  C20 UNL     1      -0.787  -1.415  -1.619  1.00  0.00     0.040 C 
HETATM    8  C21 UNL     1      -0.049  -0.318  -2.414  1.00  0.00     0.097 C 
HETATM    9  C22 UNL     1      -1.025   0.416  -3.213  1.00  0.00     0.073 C 
HETATM   10  N1  UNL     1      -1.762   0.920  -3.952  1.00  0.00    -0.196 NA
HETATM   11  C23 UNL     1       1.223  -0.574  -3.345  1.00  0.00     0.113 C 
HETATM   12  C24 UNL     1       1.589  -1.990  -3.803  1.00  0.00     0.155 C 
HETATM   13  C25 UNL     1       0.434  -2.827  -4.322  1.00  0.00     0.042 C 
HETATM   14  O6  UNL     1       2.246  -2.586  -2.689  1.00  0.00    -0.372 OA
HETATM   15  C26 UNL     1       3.049  -1.538  -2.118  1.00  0.00     0.062 C 
HETATM   16  C27 UNL     1       3.552  -1.979  -0.752  1.00  0.00     0.046 C 
HETATM   17  C28 UNL     1       4.316  -1.313  -2.991  1.00  0.00     0.046 C 
HETATM   18  C29 UNL     1       2.174  -0.257  -2.151  1.00  0.00     0.074 C 
HETATM   19  C30 UNL     1       0.903   0.342  -1.321  1.00  0.00     0.031 C 
HETATM   20  C31 UNL     1       0.620  -0.455  -0.001  1.00  0.00    -0.059 C 
ENDROOT
BRANCH  11  21
HETATM   21  O5  UNL     1       1.416   0.342  -4.463  1.00  0.00    -0.385 OA
ATOM     22  H5  UNL     1       2.173   0.190  -5.017  1.00  0.00     0.210 HD
ENDBRANCH  11  21
BRANCH   6  23
HETATM   23  C18 UNL     1      -2.151  -0.125   0.382  1.00  0.00     0.090 C 
HETATM   24  C10 UNL     1      -1.989   1.401   0.237  1.00  0.00     0.250 C 
HETATM   25  O2  UNL     1      -1.497   1.748  -1.065  1.00  0.00    -0.316 OA
HETATM   26  O3  UNL     1      -0.717   1.831   0.767  1.00  0.00    -0.316 OA
HETATM   27  C11 UNL     1      -3.183   2.345   0.691  1.00  0.00     0.190 C 
HETATM   28  C9  UNL     1      -0.361   2.380  -0.503  1.00  0.00     0.280 C 
HETATM   29  O4  UNL     1      -3.743   3.176  -0.035  1.00  0.00    -0.292 OA
HETATM   30  C12 UNL     1      -3.628   2.251   2.130  1.00  0.00     0.085 C 
HETATM   31  C13 UNL     1      -4.544   1.054   2.297  1.00  0.00     0.016 C 
HETATM   32  C14 UNL     1      -3.813  -0.264   2.629  1.00  0.00    -0.046 C 
HETATM   33  C15 UNL     1      -3.448  -0.254   4.142  1.00  0.00     0.015 C 
HETATM   34  C16 UNL     1      -4.817  -1.431   2.464  1.00  0.00     0.015 C 
HETATM   35  C17 UNL     1      -2.465  -0.521   1.863  1.00  0.00     0.036 C 
HETATM   36 BR1  UNL     1      -3.715  -0.665  -0.716  1.00  0.00    -0.078 Br
ENDBRANCH   6  23
BRANCH   3  37
HETATM   37  O1  UNL     1       3.334   2.445  -0.720  1.00  0.00    -0.394 OA
ATOM     38  H1  UNL     1       3.184   3.048  -1.439  1.00  0.00     0.210 HD
ENDBRANCH   3  37
BRANCH   1  39
HETATM   39  C2  UNL     1       0.951  -0.344   2.679  1.00  0.00     0.007 C 
HETATM   40  C1  UNL     1       0.495   0.853   3.526  1.00  0.00     0.014 C 
HETATM   41  C3  UNL     1       2.049  -1.064   3.496  1.00  0.00     0.014 C 
ENDBRANCH   1  39
TORSDOF 5
