REMARK  5 active torsions:
REMARK  status: ('A' for Active; 'I' for Inactive)
REMARK    1  A    between atoms: C2_2  and  C4_4 
REMARK    2  A    between atoms: C17_17  and  S1_18 
REMARK    3  A    between atoms: N1_24  and  C34_43 
REMARK    4  A    between atoms: C26_30  and  O2_31 
REMARK    5  A    between atoms: C30_37  and  O4_38 
ROOT
HETATM    1  C4  UNL     1       3.588   1.747   0.418  1.00  0.00     0.005 A 
HETATM    2  C5  UNL     1       5.121   2.057   0.546  1.00  0.00     0.023 C 
HETATM    3  C6  UNL     1       3.403   0.999  -1.013  1.00  0.00     0.038 A 
HETATM    4  C7  UNL     1       3.110  -0.295  -0.242  1.00  0.00     0.022 A 
HETATM    5  C8  UNL     1       1.741  -0.827  -0.537  1.00  0.00     0.005 C 
HETATM    6  C9  UNL     1       0.673   0.139  -0.164  1.00  0.00     0.051 C 
HETATM    7  C10 UNL     1      -0.572   0.567  -0.899  1.00  0.00     0.112 C 
HETATM    8  C11 UNL     1      -1.627  -0.271  -1.680  1.00  0.00     0.056 C 
HETATM    9  C12 UNL     1      -2.212  -1.316  -0.783  1.00  0.00    -0.018 A 
HETATM   10  C13 UNL     1      -3.453  -0.860   0.031  1.00  0.00     0.025 C 
HETATM   11  C14 UNL     1      -3.918   0.661   0.015  1.00  0.00    -0.010 C 
HETATM   12  C15 UNL     1      -4.946   0.771   1.195  1.00  0.00     0.021 C 
HETATM   13  C16 UNL     1      -4.773   0.960  -1.243  1.00  0.00     0.021 C 
HETATM   14  C17 UNL     1      -2.763   1.705   0.349  1.00  0.00     0.034 C 
HETATM   15  C18 UNL     1      -1.380   1.052   0.432  1.00  0.00     0.096 C 
HETATM   16  O1  UNL     1      -0.612   1.522   1.551  1.00  0.00    -0.343 OA
HETATM   17  C19 UNL     1      -0.100   0.543   2.533  1.00  0.00     0.156 C 
HETATM   18  C20 UNL     1       1.359   1.063   2.793  1.00  0.00     0.150 C 
HETATM   19  N1  UNL     1       2.185   0.119   2.076  1.00  0.00    -0.403 N 
HETATM   20  C21 UNL     1       1.730  -1.218   2.444  1.00  0.00     0.129 C 
HETATM   21  C22 UNL     1       0.132  -1.135   2.385  1.00  0.00     0.001 C 
HETATM   22  C23 UNL     1      -0.358  -1.711   3.750  1.00  0.00     0.019 C 
HETATM   23  C24 UNL     1      -0.535  -2.236   1.242  1.00  0.00     0.027 C 
HETATM   24  C25 UNL     1      -0.926  -2.132  -0.397  1.00  0.00     0.003 A 
HETATM   25  C26 UNL     1       0.284  -2.271  -1.615  1.00  0.00     0.135 C 
HETATM   26  C27 UNL     1       1.363  -1.117  -1.916  1.00  0.00     0.057 C 
HETATM   27  C28 UNL     1       1.173   0.384  -2.545  1.00  0.00     0.091 C 
HETATM   28  C29 UNL     1       0.838   0.310  -4.041  1.00  0.00     0.049 C 
HETATM   29  O3  UNL     1       0.126   1.275  -1.923  1.00  0.00    -0.359 OA
HETATM   30  C30 UNL     1       2.617   1.100  -2.388  1.00  0.00     0.158 C 
HETATM   31  C31 UNL     1      -2.192  -2.850  -0.918  1.00  0.00    -0.028 A 
HETATM   32  C32 UNL     1      -2.375  -3.394  -2.330  1.00  0.00     0.016 C 
HETATM   33  C33 UNL     1      -2.926  -3.772   0.051  1.00  0.00     0.016 C 
HETATM   34  C34 UNL     1       3.341   0.364   1.183  1.00  0.00     0.097 A 
ENDROOT
BRANCH   1  35
HETATM   35  C2  UNL     1       2.845   3.029   0.759  1.00  0.00    -0.082 C 
HETATM   36  C1  UNL     1       1.856   3.544   0.007  1.00  0.00     0.015 C 
HETATM   37  C3  UNL     1       3.252   3.791   2.007  1.00  0.00     0.043 C 
ENDBRANCH   1  35
BRANCH  30  38
HETATM   38  O4  UNL     1       2.654   2.434  -2.895  1.00  0.00    -0.392 OA
ATOM     39  H4  UNL     1       2.183   2.494  -3.718  1.00  0.00     0.210 HD
ENDBRANCH  30  38
BRANCH  25  40
HETATM   40  O2  UNL     1       0.995  -3.490  -1.318  1.00  0.00    -0.394 OA
ATOM     41  H2  UNL     1       1.662  -3.567  -1.990  1.00  0.00     0.210 HD
ENDBRANCH  25  40
BRANCH  14  42
HETATM   42  S1  UNL     1      -2.790   3.409  -0.316  1.00  0.00    -0.020 SA
HETATM   43 CL1  UNL     1      -2.402   3.162  -2.287  1.00  0.00    -0.039 Cl
ENDBRANCH  14  42
TORSDOF 5
