REMARK  5 active torsions:
REMARK  status: ('A' for Active; 'I' for Inactive)
REMARK    1  A    between atoms: O1_2  and  C2_3 
REMARK    2  A    between atoms: C3_4  and  O2_6 
REMARK    3  A    between atoms: C5_8  and  C30_38 
REMARK    4  A    between atoms: C15_19  and  C22_28 
REMARK    5  A    between atoms: C27_33  and  C28_34 
ROOT
HETATM    1  C2  UNL     1      -1.533   2.510  -0.512  1.00  0.00     0.165 C 
HETATM    2  C3  UNL     1       0.046   2.603  -0.861  1.00  0.00     0.087 C 
HETATM    3  C4  UNL     1       0.441   2.732  -2.341  1.00  0.00     0.049 C 
HETATM    4  C5  UNL     1       1.018   1.716   0.039  1.00  0.00     0.049 C 
HETATM    5  C6  UNL     1       0.463   1.784   1.469  1.00  0.00     0.067 C 
HETATM    6 BR1  UNL     1       1.187   3.341   2.494  1.00  0.00    -0.091 Br
HETATM    7  C7  UNL     1      -1.098   1.818   1.606  1.00  0.00     0.029 C 
HETATM    8  C8  UNL     1      -1.881   1.094   0.348  1.00  0.00     0.004 C 
HETATM    9  C9  UNL     1      -3.172   0.766  -0.719  1.00  0.00     0.032 C 
HETATM   10  C10 UNL     1      -4.268  -0.187  -0.223  1.00  0.00     0.013 C 
HETATM   11  C11 UNL     1      -3.498  -1.048   0.718  1.00  0.00    -0.005 C 
HETATM   12  C12 UNL     1      -2.809  -2.305   0.025  1.00  0.00     0.012 C 
HETATM   13  C13 UNL     1      -1.260  -2.706   0.099  1.00  0.00     0.017 C 
HETATM   14  C14 UNL     1      -0.986  -3.743  -1.003  1.00  0.00     0.013 C 
HETATM   15  C15 UNL     1      -0.301  -1.469   0.261  1.00  0.00     0.072 C 
HETATM   16  C16 UNL     1      -0.516  -1.216   1.815  1.00  0.00     0.040 C 
HETATM   17  C17 UNL     1      -1.851  -0.799   2.388  1.00  0.00     0.013 C 
HETATM   18  C18 UNL     1      -2.711   0.083   1.451  1.00  0.00    -0.030 C 
HETATM   19  C19 UNL     1      -3.704   0.917   2.340  1.00  0.00     0.016 C 
HETATM   20  O3  UNL     1      -0.653  -0.450  -0.643  1.00  0.00    -0.347 OA
HETATM   21  C20 UNL     1      -1.316  -0.668  -1.894  1.00  0.00     0.290 A 
HETATM   22  O4  UNL     1      -1.509   0.532  -2.655  1.00  0.00    -0.348 OA
HETATM   23  C21 UNL     1      -2.653   0.038  -1.987  1.00  0.00     0.184 A 
ENDROOT
BRANCH   2  24
HETATM   24  O2  UNL     1       0.362   3.987  -0.419  1.00  0.00    -0.387 OA
ATOM     25  H2  UNL     1       1.288   4.042  -0.624  1.00  0.00     0.210 HD
ENDBRANCH   2  24
BRANCH   1  26
HETATM   26  O1  UNL     1      -2.241   2.857  -1.727  1.00  0.00    -0.387 OA
HETATM   27  C1  UNL     1      -2.875   4.130  -1.715  1.00  0.00     0.202 C 
ENDBRANCH   1  26
BRANCH   4  28
HETATM   28  C30 UNL     1       1.811   0.229  -0.383  1.00  0.00    -0.011 C 
HETATM   29  C22 UNL     1       1.277  -1.277   0.164  1.00  0.00     0.033 C 
HETATM   30  C23 UNL     1       1.961  -2.495  -0.489  1.00  0.00     0.009 C 
HETATM   31  C24 UNL     1       3.496  -2.558  -0.480  1.00  0.00     0.010 C 
HETATM   32  C25 UNL     1       4.157  -1.905   0.743  1.00  0.00     0.021 C 
HETATM   33  C26 UNL     1       5.524  -2.573   0.972  1.00  0.00     0.015 C 
HETATM   34  C27 UNL     1       4.215  -0.403   0.589  1.00  0.00     0.019 C 
HETATM   35  C29 UNL     1       3.274   0.444   0.116  1.00  0.00    -0.002 C 
HETATM   36  C31 UNL     1       2.010   0.157  -1.915  1.00  0.00     0.020 C 
BRANCH  34  37
HETATM   37  C28 UNL     1       5.512   0.269   0.822  1.00  0.00     0.205 C 
HETATM   38  O5  UNL     1       6.414   0.381   0.009  1.00  0.00    -0.644 OA
HETATM   39  O6  UNL     1       5.586   0.777   2.061  1.00  0.00    -0.644 OA
ENDBRANCH  34  37
ENDBRANCH   4  28
TORSDOF 5
