REMARK  9 active torsions:
REMARK  status: ('A' for Active; 'I' for Inactive)
REMARK    1  A    between atoms: C1_2  and  C2_3 
REMARK       I    between atoms: C1_2  and  N6_28 
REMARK    2  A    between atoms: C2_3  and  C3_4 
REMARK    3  A    between atoms: C3_4  and  C4_5 
REMARK    4  A    between atoms: C4_5  and  N1_6 
REMARK    5  A    between atoms: N2_9  and  C7_10 
REMARK    6  A    between atoms: C11_14  and  O2_15 
REMARK    7  A    between atoms: C12_17  and  C13_18 
REMARK    8  A    between atoms: N6_28  and  C17_30 
REMARK    9  A    between atoms: C18_31  and  C19_32 
ROOT
HETATM    1  N1  UNL     1      -2.631   3.006   0.310  1.00  0.00     0.091 N 
HETATM    2  C5  UNL     1      -1.604   3.082  -0.750  1.00  0.00     0.292 C 
HETATM    3  C6  UNL     1      -1.222   1.764  -1.478  1.00  0.00     0.153 C 
HETATM    4  N2  UNL     1      -2.361   0.833  -1.538  1.00  0.00    -0.377 N 
HETATM    5  C15 UNL     1      -3.680   1.473  -1.468  1.00  0.00     0.153 C 
HETATM    6  C16 UNL     1      -3.810   2.212  -0.113  1.00  0.00     0.292 C 
ENDROOT
BRANCH   1   7
HETATM    7  C4  UNL     1      -2.103   2.622   1.628  1.00  0.00     0.273 C 
BRANCH   7   8
HETATM    8  C3  UNL     1      -1.715   1.153   1.822  1.00  0.00     0.039 C 
BRANCH   8   9
HETATM    9  C2  UNL     1      -0.726   0.943   2.963  1.00  0.00     0.104 C 
BRANCH   9  10
HETATM   10  C1  UNL     1      -0.178  -0.466   2.888  1.00  0.00     0.217 C 
HETATM   11  O1  UNL     1      -0.710  -1.403   3.486  1.00  0.00    -0.274 OA
HETATM   12  N6  UNL     1       0.896  -0.727   2.083  1.00  0.00    -0.355 N 
ATOM     13  H6  UNL     1       1.208  -1.698   2.066  1.00  0.00     0.162 HD
BRANCH  12  14
HETATM   14  C17 UNL     1       1.655   0.191   1.248  1.00  0.00     0.102 C 
HETATM   15  C18 UNL     1       2.904   0.919   1.910  1.00  0.00     0.074 C 
HETATM   16  C20 UNL     1       4.302   0.801   1.140  1.00  0.00     0.017 C 
HETATM   17  C21 UNL     1       4.271   0.539  -0.396  1.00  0.00    -0.013 C 
HETATM   18  C22 UNL     1       4.715  -0.872  -0.897  1.00  0.00     0.009 C 
HETATM   19  C26 UNL     1       2.840   0.642  -0.814  1.00  0.00     0.016 C 
HETATM   20  C23 UNL     1       3.566  -1.930  -0.784  1.00  0.00    -0.013 C 
HETATM   21  C24 UNL     1       3.067  -1.807   0.639  1.00  0.00     0.016 C 
HETATM   22  C27 UNL     1       2.011  -1.600  -1.120  1.00  0.00     0.016 C 
HETATM   23  C25 UNL     1       2.201  -0.526   0.026  1.00  0.00    -0.018 C 
BRANCH  15  24
HETATM   24  C19 UNL     1       3.113   0.575   3.379  1.00  0.00     0.359 C 
HETATM   25  F1  UNL     1       2.056   0.994   4.116  1.00  0.00    -0.214 F 
HETATM   26  F2  UNL     1       4.185   1.265   3.850  1.00  0.00    -0.214 F 
ENDBRANCH  15  24
ENDBRANCH  12  14
ENDBRANCH   9  10
ENDBRANCH   8   9
ENDBRANCH   7   8
ENDBRANCH   1   7
BRANCH   4  27
HETATM   27  C7  UNL     1      -2.270  -0.254  -2.408  1.00  0.00     0.047 A 
HETATM   28  C8  UNL     1      -2.100  -0.050  -3.790  1.00  0.00     0.030 A 
HETATM   29  C9  UNL     1      -1.928  -1.123  -4.667  1.00  0.00     0.005 A 
HETATM   30  C10 UNL     1      -1.898  -2.422  -4.176  1.00  0.00     0.037 A 
HETATM   31  C11 UNL     1      -2.081  -2.648  -2.815  1.00  0.00     0.082 A 
HETATM   32  C12 UNL     1      -2.311  -1.584  -1.923  1.00  0.00     0.069 A 
BRANCH  31  33
HETATM   33  O2  UNL     1      -2.007  -3.957  -2.406  1.00  0.00    -0.360 OA
ATOM     34  H2  UNL     1      -2.132  -4.111  -1.477  1.00  0.00     0.217 HD
ENDBRANCH  31  33
BRANCH  32  35
HETATM   35  C13 UNL     1      -2.589  -1.881  -0.519  1.00  0.00     0.136 C 
HETATM   36  N3  UNL     1      -3.712  -1.433   0.144  1.00  0.00    -0.336 N 
HETATM   37  C14 UNL     1      -3.594  -1.958   1.343  1.00  0.00     0.199 C 
ATOM     38  H3  UNL     1      -4.458  -0.835  -0.212  1.00  0.00     0.168 HD
HETATM   39  N4  UNL     1      -2.455  -2.696   1.399  1.00  0.00    -0.295 N 
HETATM   40  N5  UNL     1      -1.860  -2.764   0.193  1.00  0.00    -0.284 N 
ATOM     41  H4  UNL     1      -2.097  -3.141   2.244  1.00  0.00     0.187 HD
ATOM     42  H5  UNL     1      -1.067  -3.333  -0.104  1.00  0.00     0.188 HD
ENDBRANCH  32  35
ENDBRANCH   4  27
TORSDOF 9
