MODEL 1
REMARK VINA RESULT: -6.887259996      0.000      0.000
REMARK  16 active torsions:
REMARK  status: ('A' for Active; 'I' for Inactive)
REMARK    1  A    between atoms: C2_2  and  C3_3 
REMARK    2  A    between atoms: C3_3  and  C4_4 
REMARK    3  A    between atoms: C3_3  and  N1_6 
REMARK    4  A    between atoms: N1_6  and  C5_8 
REMARK    5  A    between atoms: C5_8  and  O2_9 
REMARK    6  A    between atoms: C5_8  and  C6_11 
REMARK    7  A    between atoms: C6_11  and  C8_13 
REMARK    8  A    between atoms: C8_13  and  C9_14 
REMARK    9  A    between atoms: C9_14  and  C10_15 
REMARK   10  A    between atoms: C10_15  and  C11_16 
REMARK   11  A    between atoms: C12_17  and  C13_18 
REMARK   12  A    between atoms: C13_18  and  C14_19 
REMARK   13  A    between atoms: C18_27  and  C19_28 
REMARK   14  A    between atoms: C19_28  and  C20_29 
REMARK   15  A    between atoms: C20_29  and  C21_30 
REMARK   16  A    between atoms: C21_30  and  N3_31 
ROOT
HETATM    1  C14 UNL     1       8.118   5.733  28.256  1.00  0.00     0.083 C 
HETATM    2  S1  UNL     1       9.752   6.560  28.525  1.00  0.00    -0.160 SA
HETATM    3  C15 UNL     1      10.823   5.101  28.262  1.00  0.00     0.101 C 
HETATM    4  C16 UNL     1       9.843   4.194  27.511  1.00  0.00     0.125 C 
HETATM    5  N2  UNL     1      10.280   2.842  27.475  1.00  0.00    -0.352 N 
ATOM      6  H2  UNL     1      11.277   2.630  27.426  1.00  0.00     0.163 HD
HETATM    7  C17 UNL     1       9.334   1.787  27.506  1.00  0.00     0.248 C 
HETATM    8  O3  UNL     1       9.517   0.712  26.843  1.00  0.00    -0.271 OA
HETATM    9  C18 UNL     1       8.114   2.001  28.350  1.00  0.00     0.277 C 
HETATM   10  N6  UNL     1       7.614   3.311  28.109  1.00  0.00    -0.055 N 
ATOM     11  H61 UNL     1       6.768   3.488  28.651  1.00  0.00     0.278 HD
ATOM     12  H62 UNL     1       7.225   3.389  27.169  1.00  0.00     0.278 HD
HETATM   13  C23 UNL     1       8.588   4.309  28.343  1.00  0.00     0.224 C 
ENDROOT
BRANCH   1  14
HETATM   14  C13 UNL     1       7.621   6.185  26.925  1.00  0.00     0.044 C 
BRANCH  14  15
HETATM   15  C12 UNL     1       8.511   7.096  26.193  1.00  0.00    -0.029 C 
HETATM   16  C11 UNL     1       8.945   6.870  24.995  1.00  0.00    -0.030 C 
BRANCH  16  17
HETATM   17  C10 UNL     1       8.637   5.709  24.186  1.00  0.00     0.030 C 
BRANCH  17  18
HETATM   18  C9  UNL     1       9.903   5.039  23.623  1.00  0.00     0.031 C 
BRANCH  18  19
HETATM   19  C8  UNL     1       9.818   3.596  23.669  1.00  0.00    -0.015 C 
BRANCH  19  20
HETATM   20  C6  UNL     1      10.680   2.632  23.757  1.00  0.00    -0.015 C 
HETATM   21  C7  UNL     1      11.987   3.001  24.515  1.00  0.00     0.052 C 
BRANCH  20  22
HETATM   22  C5  UNL     1      10.612   1.296  23.269  1.00  0.00     0.142 C 
BRANCH  22  23
HETATM   23  N1  UNL     1      10.963   0.701  22.068  1.00  0.00    -0.357 N 
ATOM     24  H1  UNL     1      10.270   0.582  21.329  1.00  0.00     0.162 HD
BRANCH  23  25
HETATM   25  C3  UNL     1      12.366   0.236  21.871  1.00  0.00     0.167 C 
BRANCH  25  26
HETATM   26  C2  UNL     1      12.390  -1.182  21.507  1.00  0.00    -0.005 C 
HETATM   27  C1  UNL     1      13.505  -1.896  21.550  1.00  0.00     0.009 C 
ENDBRANCH  25  26
BRANCH  25  28
HETATM   28  C4  UNL     1      12.952   1.130  20.851  1.00  0.00     0.260 C 
HETATM   29  O1  UNL     1      12.894   0.925  19.654  1.00  0.00    -0.304 OA
ENDBRANCH  25  28
ENDBRANCH  23  25
ENDBRANCH  22  23
BRANCH  22  30
HETATM   30  O2  UNL     1      10.111   0.440  24.136  1.00  0.00    -0.346 OA
ATOM     31  H2  UNL     1       9.547  -0.208  23.731  1.00  0.00     0.219 HD
ENDBRANCH  22  30
ENDBRANCH  20  22
ENDBRANCH  19  20
ENDBRANCH  18  19
ENDBRANCH  17  18
ENDBRANCH  16  17
ENDBRANCH  14  15
ENDBRANCH   1  14
BRANCH   9  32
HETATM   32  C19 UNL     1       8.522   1.720  29.773  1.00  0.00     0.044 C 
BRANCH  32  33
HETATM   33  C20 UNL     1       7.461   0.870  30.435  1.00  0.00     0.022 C 
BRANCH  33  34
HETATM   34  C21 UNL     1       6.164   1.571  30.662  1.00  0.00     0.122 C 
BRANCH  34  35
HETATM   35  N3  UNL     1       6.466   2.731  31.512  1.00  0.00    -0.367 N 
HETATM   36  C22 UNL     1       5.976   3.878  31.188  1.00  0.00     0.196 C 
HETATM   37  N4  UNL     1       6.263   4.998  32.001  1.00  0.00    -0.067 NA
HETATM   38  N5  UNL     1       5.146   4.047  30.024  1.00  0.00    -0.067 NA
ATOM     39  H3  UNL     1       7.052   2.630  32.341  1.00  0.00     0.161 HD
ENDBRANCH  34  35
ENDBRANCH  33  34
ENDBRANCH  32  33
ENDBRANCH   9  32
TORSDOF 16
ENDMDL
MODEL 2
REMARK VINA RESULT: -6.837477300      5.931      8.543
REMARK  16 active torsions:
REMARK  status: ('A' for Active; 'I' for Inactive)
REMARK    1  A    between atoms: C2_2  and  C3_3 
REMARK    2  A    between atoms: C3_3  and  C4_4 
REMARK    3  A    between atoms: C3_3  and  N1_6 
REMARK    4  A    between atoms: N1_6  and  C5_8 
REMARK    5  A    between atoms: C5_8  and  O2_9 
REMARK    6  A    between atoms: C5_8  and  C6_11 
REMARK    7  A    between atoms: C6_11  and  C8_13 
REMARK    8  A    between atoms: C8_13  and  C9_14 
REMARK    9  A    between atoms: C9_14  and  C10_15 
REMARK   10  A    between atoms: C10_15  and  C11_16 
REMARK   11  A    between atoms: C12_17  and  C13_18 
REMARK   12  A    between atoms: C13_18  and  C14_19 
REMARK   13  A    between atoms: C18_27  and  C19_28 
REMARK   14  A    between atoms: C19_28  and  C20_29 
REMARK   15  A    between atoms: C20_29  and  C21_30 
REMARK   16  A    between atoms: C21_30  and  N3_31 
ROOT
HETATM    1  C14 UNL     1       8.966   6.772  23.427  1.00  0.00     0.083 C 
HETATM    2  S1  UNL     1       7.793   7.500  24.661  1.00  0.00    -0.160 SA
HETATM    3  C15 UNL     1       8.650   6.951  26.181  1.00  0.00     0.101 C 
HETATM    4  C16 UNL     1      10.038   6.658  25.603  1.00  0.00     0.125 C 
HETATM    5  N2  UNL     1      10.835   5.878  26.485  1.00  0.00    -0.352 N 
ATOM      6  H2  UNL     1      10.741   5.995  27.494  1.00  0.00     0.163 HD
HETATM    7  C17 UNL     1      11.761   4.941  25.965  1.00  0.00     0.248 C 
HETATM    8  O3  UNL     1      12.886   4.733  26.532  1.00  0.00    -0.271 OA
HETATM    9  C18 UNL     1      11.354   4.211  24.720  1.00  0.00     0.277 C 
HETATM   10  N6  UNL     1      10.797   5.145  23.803  1.00  0.00    -0.055 N 
ATOM     11  H61 UNL     1      10.526   4.689  22.931  1.00  0.00     0.278 HD
ATOM     12  H62 UNL     1      11.511   5.777  23.442  1.00  0.00     0.278 HD
HETATM   13  C23 UNL     1       9.714   5.864  24.360  1.00  0.00     0.224 C 
ENDROOT
BRANCH   1  14
HETATM   14  C13 UNL     1       9.738   7.908  22.847  1.00  0.00     0.044 C 
BRANCH  14  15
HETATM   15  C12 UNL     1       9.082   9.220  22.911  1.00  0.00    -0.029 C 
HETATM   16  C11 UNL     1       9.624  10.317  22.492  1.00  0.00    -0.030 C 
BRANCH  16  17
HETATM   17  C10 UNL     1      10.940  10.442  21.901  1.00  0.00     0.030 C 
BRANCH  17  18
HETATM   18  C9  UNL     1      12.000  10.884  22.926  1.00  0.00     0.031 C 
BRANCH  18  19
HETATM   19  C8  UNL     1      13.013   9.871  23.128  1.00  0.00    -0.015 C 
BRANCH  19  20
HETATM   20  C6  UNL     1      14.306   9.844  23.054  1.00  0.00    -0.015 C 
HETATM   21  C7  UNL     1      15.016   9.270  24.313  1.00  0.00     0.052 C 
BRANCH  20  22
HETATM   22  C5  UNL     1      15.171  10.258  22.000  1.00  0.00     0.142 C 
BRANCH  22  23
HETATM   23  N1  UNL     1      16.215  11.166  21.924  1.00  0.00    -0.357 N 
ATOM     24  H1  UNL     1      16.146  12.072  22.387  1.00  0.00     0.162 HD
BRANCH  23  25
HETATM   25  C3  UNL     1      17.439  10.800  21.156  1.00  0.00     0.167 C 
BRANCH  25  26
HETATM   26  C2  UNL     1      17.846  11.904  20.284  1.00  0.00    -0.005 C 
HETATM   27  C1  UNL     1      18.757  11.747  19.335  1.00  0.00     0.009 C 
ENDBRANCH  25  26
BRANCH  25  28
HETATM   28  C4  UNL     1      18.454  10.422  22.161  1.00  0.00     0.260 C 
HETATM   29  O1  UNL     1      18.466   9.356  22.746  1.00  0.00    -0.304 OA
ENDBRANCH  25  28
ENDBRANCH  23  25
ENDBRANCH  22  23
BRANCH  22  30
HETATM   30  O2  UNL     1      14.934   9.655  20.853  1.00  0.00    -0.346 OA
ATOM     31  H2  UNL     1      15.376   8.817  20.779  1.00  0.00     0.219 HD
ENDBRANCH  22  30
ENDBRANCH  20  22
ENDBRANCH  19  20
ENDBRANCH  18  19
ENDBRANCH  17  18
ENDBRANCH  16  17
ENDBRANCH  14  15
ENDBRANCH   1  14
BRANCH   9  32
HETATM   32  C19 UNL     1      10.428   3.105  25.154  1.00  0.00     0.044 C 
BRANCH  32  33
HETATM   33  C20 UNL     1      10.753   1.850  24.374  1.00  0.00     0.022 C 
BRANCH  33  34
HETATM   34  C21 UNL     1      11.439   2.095  23.073  1.00  0.00     0.122 C 
BRANCH  34  35
HETATM   35  N3  UNL     1      11.510   0.795  22.393  1.00  0.00    -0.367 N 
HETATM   36  C22 UNL     1      12.544   0.532  21.669  1.00  0.00     0.196 C 
HETATM   37  N4  UNL     1      12.619  -0.717  21.012  1.00  0.00    -0.067 NA
HETATM   38  N5  UNL     1      13.620   1.475  21.513  1.00  0.00    -0.067 NA
ATOM     39  H3  UNL     1      10.758   0.114  22.493  1.00  0.00     0.161 HD
ENDBRANCH  34  35
ENDBRANCH  33  34
ENDBRANCH  32  33
ENDBRANCH   9  32
TORSDOF 16
ENDMDL
MODEL 3
REMARK VINA RESULT: -6.730314514      3.776      8.280
REMARK  16 active torsions:
REMARK  status: ('A' for Active; 'I' for Inactive)
REMARK    1  A    between atoms: C2_2  and  C3_3 
REMARK    2  A    between atoms: C3_3  and  C4_4 
REMARK    3  A    between atoms: C3_3  and  N1_6 
REMARK    4  A    between atoms: N1_6  and  C5_8 
REMARK    5  A    between atoms: C5_8  and  O2_9 
REMARK    6  A    between atoms: C5_8  and  C6_11 
REMARK    7  A    between atoms: C6_11  and  C8_13 
REMARK    8  A    between atoms: C8_13  and  C9_14 
REMARK    9  A    between atoms: C9_14  and  C10_15 
REMARK   10  A    between atoms: C10_15  and  C11_16 
REMARK   11  A    between atoms: C12_17  and  C13_18 
REMARK   12  A    between atoms: C13_18  and  C14_19 
REMARK   13  A    between atoms: C18_27  and  C19_28 
REMARK   14  A    between atoms: C19_28  and  C20_29 
REMARK   15  A    between atoms: C20_29  and  C21_30 
REMARK   16  A    between atoms: C21_30  and  N3_31 
ROOT
HETATM    1  C14 UNL     1       8.039   6.440  28.484  1.00  0.00     0.083 C 
HETATM    2  S1  UNL     1       6.569   6.650  27.377  1.00  0.00    -0.160 SA
HETATM    3  C15 UNL     1       6.825   5.173  26.330  1.00  0.00     0.101 C 
HETATM    4  C16 UNL     1       7.766   4.374  27.236  1.00  0.00     0.125 C 
HETATM    5  N2  UNL     1       8.423   3.323  26.539  1.00  0.00    -0.352 N 
ATOM      6  H2  UNL     1       7.942   2.836  25.783  1.00  0.00     0.163 HD
HETATM    7  C17 UNL     1       9.744   2.952  26.893  1.00  0.00     0.248 C 
HETATM    8  O3  UNL     1      10.125   1.734  26.851  1.00  0.00    -0.271 OA
HETATM    9  C18 UNL     1      10.664   4.057  27.317  1.00  0.00     0.277 C 
HETATM   10  N6  UNL     1       9.970   4.909  28.219  1.00  0.00    -0.055 N 
ATOM     11  H61 UNL     1      10.571   5.664  28.549  1.00  0.00     0.278 HD
ATOM     12  H62 UNL     1       9.794   4.440  29.108  1.00  0.00     0.278 HD
HETATM   13  C23 UNL     1       8.772   5.417  27.664  1.00  0.00     0.224 C 
ENDROOT
BRANCH   1  14
HETATM   14  C13 UNL     1       7.520   5.983  29.804  1.00  0.00     0.044 C 
BRANCH  14  15
HETATM   15  C12 UNL     1       6.058   5.968  29.941  1.00  0.00    -0.029 C 
HETATM   16  C11 UNL     1       5.438   5.566  31.004  1.00  0.00    -0.030 C 
BRANCH  16  17
HETATM   17  C10 UNL     1       6.062   5.075  32.215  1.00  0.00     0.030 C 
BRANCH  17  18
HETATM   18  C9  UNL     1       5.907   3.552  32.374  1.00  0.00     0.031 C 
BRANCH  18  19
HETATM   19  C8  UNL     1       6.825   2.824  31.526  1.00  0.00    -0.015 C 
BRANCH  19  20
HETATM   20  C6  UNL     1       6.729   1.787  30.754  1.00  0.00    -0.015 C 
HETATM   21  C7  UNL     1       7.953   1.558  29.823  1.00  0.00     0.052 C 
BRANCH  20  22
HETATM   22  C5  UNL     1       5.679   0.833  30.629  1.00  0.00     0.142 C 
BRANCH  22  23
HETATM   23  N1  UNL     1       5.422  -0.386  31.234  1.00  0.00    -0.357 N 
ATOM     24  H1  UNL     1       4.470  -0.749  31.282  1.00  0.00     0.162 HD
BRANCH  23  25
HETATM   25  C3  UNL     1       6.556  -1.160  31.816  1.00  0.00     0.167 C 
BRANCH  25  26
HETATM   26  C2  UNL     1       6.614  -0.973  33.267  1.00  0.00    -0.005 C 
HETATM   27  C1  UNL     1       7.325  -0.001  33.819  1.00  0.00     0.009 C 
ENDBRANCH  25  26
BRANCH  25  28
HETATM   28  C4  UNL     1       6.349  -2.563  31.398  1.00  0.00     0.260 C 
HETATM   29  O1  UNL     1       6.767  -3.524  32.014  1.00  0.00    -0.304 OA
ENDBRANCH  25  28
ENDBRANCH  23  25
ENDBRANCH  22  23
BRANCH  22  30
HETATM   30  O2  UNL     1       4.753   1.176  29.756  1.00  0.00    -0.346 OA
ATOM     31  H2  UNL     1       3.987   1.563  30.164  1.00  0.00     0.219 HD
ENDBRANCH  22  30
ENDBRANCH  20  22
ENDBRANCH  19  20
ENDBRANCH  18  19
ENDBRANCH  17  18
ENDBRANCH  16  17
ENDBRANCH  14  15
ENDBRANCH   1  14
BRANCH   9  32
HETATM   32  C19 UNL     1      11.152   4.717  26.054  1.00  0.00     0.044 C 
BRANCH  32  33
HETATM   33  C20 UNL     1      12.200   5.749  26.408  1.00  0.00     0.022 C 
BRANCH  33  34
HETATM   34  C21 UNL     1      12.019   7.066  25.731  1.00  0.00     0.122 C 
BRANCH  34  35
HETATM   35  N3  UNL     1      12.894   8.014  26.434  1.00  0.00    -0.367 N 
HETATM   36  C22 UNL     1      13.579   8.856  25.738  1.00  0.00     0.196 C 
HETATM   37  N4  UNL     1      14.423   9.771  26.408  1.00  0.00    -0.067 NA
HETATM   38  N5  UNL     1      13.507   8.887  24.301  1.00  0.00    -0.067 NA
ATOM     39  H3  UNL     1      12.957   8.007  27.452  1.00  0.00     0.161 HD
ENDBRANCH  34  35
ENDBRANCH  33  34
ENDBRANCH  32  33
ENDBRANCH   9  32
TORSDOF 16
ENDMDL
MODEL 4
REMARK VINA RESULT: -6.669591343      3.651      8.031
REMARK  16 active torsions:
REMARK  status: ('A' for Active; 'I' for Inactive)
REMARK    1  A    between atoms: C2_2  and  C3_3 
REMARK    2  A    between atoms: C3_3  and  C4_4 
REMARK    3  A    between atoms: C3_3  and  N1_6 
REMARK    4  A    between atoms: N1_6  and  C5_8 
REMARK    5  A    between atoms: C5_8  and  O2_9 
REMARK    6  A    between atoms: C5_8  and  C6_11 
REMARK    7  A    between atoms: C6_11  and  C8_13 
REMARK    8  A    between atoms: C8_13  and  C9_14 
REMARK    9  A    between atoms: C9_14  and  C10_15 
REMARK   10  A    between atoms: C10_15  and  C11_16 
REMARK   11  A    between atoms: C12_17  and  C13_18 
REMARK   12  A    between atoms: C13_18  and  C14_19 
REMARK   13  A    between atoms: C18_27  and  C19_28 
REMARK   14  A    between atoms: C19_28  and  C20_29 
REMARK   15  A    between atoms: C20_29  and  C21_30 
REMARK   16  A    between atoms: C21_30  and  N3_31 
ROOT
HETATM    1  C14 UNL     1       8.275   6.812  27.926  1.00  0.00     0.083 C 
HETATM    2  S1  UNL     1       6.792   6.679  26.824  1.00  0.00    -0.160 SA
HETATM    3  C15 UNL     1       7.538   5.639  25.518  1.00  0.00     0.101 C 
HETATM    4  C16 UNL     1       8.740   5.081  26.287  1.00  0.00     0.125 C 
HETATM    5  N2  UNL     1       9.713   4.506  25.425  1.00  0.00    -0.352 N 
ATOM      6  H2  UNL     1       9.419   4.035  24.569  1.00  0.00     0.163 HD
HETATM    7  C17 UNL     1      11.089   4.586  25.751  1.00  0.00     0.248 C 
HETATM    8  O3  UNL     1      11.891   3.628  25.487  1.00  0.00    -0.271 OA
HETATM    9  C18 UNL     1      11.551   5.845  26.421  1.00  0.00     0.277 C 
HETATM   10  N6  UNL     1      10.623   6.186  27.445  1.00  0.00    -0.055 N 
ATOM     11  H61 UNL     1      10.915   7.028  27.941  1.00  0.00     0.278 HD
ATOM     12  H62 UNL     1      10.665   5.520  28.216  1.00  0.00     0.278 HD
HETATM   13  C23 UNL     1       9.304   6.314  26.952  1.00  0.00     0.224 C 
ENDROOT
BRANCH   1  14
HETATM   14  C13 UNL     1       8.009   5.945  29.109  1.00  0.00     0.044 C 
BRANCH  14  15
HETATM   15  C12 UNL     1       7.526   6.640  30.310  1.00  0.00    -0.029 C 
HETATM   16  C11 UNL     1       6.691   6.125  31.153  1.00  0.00    -0.030 C 
BRANCH  16  17
HETATM   17  C10 UNL     1       6.100   4.806  31.063  1.00  0.00     0.030 C 
BRANCH  17  18
HETATM   18  C9  UNL     1       5.875   4.172  32.448  1.00  0.00     0.031 C 
BRANCH  18  19
HETATM   19  C8  UNL     1       6.353   2.808  32.503  1.00  0.00    -0.015 C 
BRANCH  19  20
HETATM   20  C6  UNL     1       6.209   1.759  31.757  1.00  0.00    -0.015 C 
HETATM   21  C7  UNL     1       4.733   1.395  31.429  1.00  0.00     0.052 C 
BRANCH  20  22
HETATM   22  C5  UNL     1       7.191   0.894  31.195  1.00  0.00     0.142 C 
BRANCH  22  23
HETATM   23  N1  UNL     1       7.977   0.956  30.056  1.00  0.00    -0.357 N 
ATOM     24  H1  UNL     1       8.514   0.143  29.754  1.00  0.00     0.162 HD
BRANCH  23  25
HETATM   25  C3  UNL     1       8.027   2.227  29.278  1.00  0.00     0.167 C 
BRANCH  25  26
HETATM   26  C2  UNL     1       9.346   2.402  28.666  1.00  0.00    -0.005 C 
HETATM   27  C1  UNL     1       9.727   1.694  27.613  1.00  0.00     0.009 C 
ENDBRANCH  25  26
BRANCH  25  28
HETATM   28  C4  UNL     1       6.917   2.153  28.305  1.00  0.00     0.260 C 
HETATM   29  O1  UNL     1       6.261   3.113  27.949  1.00  0.00    -0.304 OA
ENDBRANCH  25  28
ENDBRANCH  23  25
ENDBRANCH  22  23
BRANCH  22  30
HETATM   30  O2  UNL     1       7.403  -0.197  31.903  1.00  0.00    -0.346 OA
ATOM     31  H2  UNL     1       6.678  -0.408  32.481  1.00  0.00     0.219 HD
ENDBRANCH  22  30
ENDBRANCH  20  22
ENDBRANCH  19  20
ENDBRANCH  18  19
ENDBRANCH  17  18
ENDBRANCH  16  17
ENDBRANCH  14  15
ENDBRANCH   1  14
BRANCH   9  32
HETATM   32  C19 UNL     1      11.715   6.874  25.334  1.00  0.00     0.044 C 
BRANCH  32  33
HETATM   33  C20 UNL     1      12.269   8.147  25.935  1.00  0.00     0.022 C 
BRANCH  33  34
HETATM   34  C21 UNL     1      13.591   8.564  25.384  1.00  0.00     0.122 C 
BRANCH  34  35
HETATM   35  N3  UNL     1      14.451   8.842  26.543  1.00  0.00    -0.367 N 
HETATM   36  C22 UNL     1      15.730   8.823  26.381  1.00  0.00     0.196 C 
HETATM   37  N4  UNL     1      16.563   9.089  27.491  1.00  0.00    -0.067 NA
HETATM   38  N5  UNL     1      16.329   8.540  25.103  1.00  0.00    -0.067 NA
ATOM     39  H3  UNL     1      14.044   9.045  27.456  1.00  0.00     0.161 HD
ENDBRANCH  34  35
ENDBRANCH  33  34
ENDBRANCH  32  33
ENDBRANCH   9  32
TORSDOF 16
ENDMDL
MODEL 5
REMARK VINA RESULT: -6.650845268      5.155      8.559
REMARK  16 active torsions:
REMARK  status: ('A' for Active; 'I' for Inactive)
REMARK    1  A    between atoms: C2_2  and  C3_3 
REMARK    2  A    between atoms: C3_3  and  C4_4 
REMARK    3  A    between atoms: C3_3  and  N1_6 
REMARK    4  A    between atoms: N1_6  and  C5_8 
REMARK    5  A    between atoms: C5_8  and  O2_9 
REMARK    6  A    between atoms: C5_8  and  C6_11 
REMARK    7  A    between atoms: C6_11  and  C8_13 
REMARK    8  A    between atoms: C8_13  and  C9_14 
REMARK    9  A    between atoms: C9_14  and  C10_15 
REMARK   10  A    between atoms: C10_15  and  C11_16 
REMARK   11  A    between atoms: C12_17  and  C13_18 
REMARK   12  A    between atoms: C13_18  and  C14_19 
REMARK   13  A    between atoms: C18_27  and  C19_28 
REMARK   14  A    between atoms: C19_28  and  C20_29 
REMARK   15  A    between atoms: C20_29  and  C21_30 
REMARK   16  A    between atoms: C21_30  and  N3_31 
ROOT
HETATM    1  C14 UNL     1       8.828   6.916  23.361  1.00  0.00     0.083 C 
HETATM    2  S1  UNL     1       7.498   7.347  24.576  1.00  0.00    -0.160 SA
HETATM    3  C15 UNL     1       8.252   6.588  26.058  1.00  0.00     0.101 C 
HETATM    4  C16 UNL     1       9.704   6.480  25.584  1.00  0.00     0.125 C 
HETATM    5  N2  UNL     1      10.474   5.603  26.396  1.00  0.00    -0.352 N 
ATOM      6  H2  UNL     1      10.280   5.534  27.395  1.00  0.00     0.163 HD
HETATM    7  C17 UNL     1      11.509   4.826  25.821  1.00  0.00     0.248 C 
HETATM    8  O3  UNL     1      12.590   4.585  26.456  1.00  0.00    -0.271 OA
HETATM    9  C18 UNL     1      11.271   4.306  24.435  1.00  0.00     0.277 C 
HETATM   10  N6  UNL     1      10.732   5.355  23.639  1.00  0.00    -0.055 N 
ATOM     11  H61 UNL     1      10.576   5.046  22.679  1.00  0.00     0.278 HD
ATOM     12  H62 UNL     1      11.428   6.080  23.465  1.00  0.00     0.278 HD
HETATM   13  C23 UNL     1       9.553   5.901  24.197  1.00  0.00     0.224 C 
ENDROOT
BRANCH   1  14
HETATM   14  C13 UNL     1       9.564   8.178  23.066  1.00  0.00     0.044 C 
BRANCH  14  15
HETATM   15  C12 UNL     1       8.926   9.412  23.543  1.00  0.00    -0.029 C 
HETATM   16  C11 UNL     1       9.325  10.600  23.221  1.00  0.00    -0.030 C 
BRANCH  16  17
HETATM   17  C10 UNL     1      10.441  10.914  22.354  1.00  0.00     0.030 C 
BRANCH  17  18
HETATM   18  C9  UNL     1      11.656  11.444  23.137  1.00  0.00     0.031 C 
BRANCH  18  19
HETATM   19  C8  UNL     1      12.823  10.609  22.955  1.00  0.00    -0.015 C 
BRANCH  19  20
HETATM   20  C6  UNL     1      13.895  10.373  23.645  1.00  0.00    -0.015 C 
HETATM   21  C7  UNL     1      15.045   9.698  22.844  1.00  0.00     0.052 C 
BRANCH  20  22
HETATM   22  C5  UNL     1      14.176  10.635  25.016  1.00  0.00     0.142 C 
BRANCH  22  23
HETATM   23  N1  UNL     1      14.336   9.824  26.128  1.00  0.00    -0.357 N 
ATOM     24  H1  UNL     1      13.569   9.237  26.454  1.00  0.00     0.162 HD
BRANCH  23  25
HETATM   25  C3  UNL     1      15.645   9.823  26.843  1.00  0.00     0.167 C 
BRANCH  25  26
HETATM   26  C2  UNL     1      15.469  10.239  28.236  1.00  0.00    -0.005 C 
HETATM   27  C1  UNL     1      15.855  11.432  28.664  1.00  0.00     0.009 C 
ENDBRANCH  25  26
BRANCH  25  28
HETATM   28  C4  UNL     1      16.194   8.461  26.686  1.00  0.00     0.260 C 
HETATM   29  O1  UNL     1      16.525   7.980  25.620  1.00  0.00    -0.304 OA
ENDBRANCH  25  28
ENDBRANCH  23  25
ENDBRANCH  22  23
BRANCH  22  30
HETATM   30  O2  UNL     1      14.316  11.915  25.292  1.00  0.00    -0.346 OA
ATOM     31  H2  UNL     1      14.943  12.076  25.988  1.00  0.00     0.219 HD
ENDBRANCH  22  30
ENDBRANCH  20  22
ENDBRANCH  19  20
ENDBRANCH  18  19
ENDBRANCH  17  18
ENDBRANCH  16  17
ENDBRANCH  14  15
ENDBRANCH   1  14
BRANCH   9  32
HETATM   32  C19 UNL     1      10.393   3.091  24.578  1.00  0.00     0.044 C 
BRANCH  32  33
HETATM   33  C20 UNL     1      11.119   1.886  24.019  1.00  0.00     0.022 C 
BRANCH  33  34
HETATM   34  C21 UNL     1      10.899   1.657  22.562  1.00  0.00     0.122 C 
BRANCH  34  35
HETATM   35  N3  UNL     1      11.478   0.340  22.260  1.00  0.00    -0.367 N 
HETATM   36  C22 UNL     1      12.602   0.289  21.631  1.00  0.00     0.196 C 
HETATM   37  N4  UNL     1      13.164  -0.974  21.337  1.00  0.00    -0.067 NA
HETATM   38  N5  UNL     1      13.297   1.481  21.221  1.00  0.00    -0.067 NA
ATOM     39  H3  UNL     1      11.000  -0.515  22.543  1.00  0.00     0.161 HD
ENDBRANCH  34  35
ENDBRANCH  33  34
ENDBRANCH  32  33
ENDBRANCH   9  32
TORSDOF 16
ENDMDL
