MODEL 1
REMARK VINA RESULT: -7.121178919      0.000      0.000
REMARK  16 active torsions:
REMARK  status: ('A' for Active; 'I' for Inactive)
REMARK    1  A    between atoms: N1_2  and  C2_3 
REMARK    2  A    between atoms: N1_2  and  C11_22 
REMARK    3  A    between atoms: C2_3  and  N2_5 
REMARK    4  A    between atoms: N2_5  and  C3_7 
REMARK    5  A    between atoms: C3_7  and  C4_8 
REMARK    6  A    between atoms: C4_8  and  C5_9 
REMARK    7  A    between atoms: C5_9  and  C6_10 
REMARK       I    between atoms: C6_10  and  N3_12 
REMARK    8  A    between atoms: N3_12  and  C7_14 
REMARK    9  A    between atoms: C7_14  and  C8_15 
REMARK   10  A    between atoms: C8_15  and  C9_16 
REMARK   11  A    between atoms: C9_16  and  C10_17 
REMARK   12  A    between atoms: C10_17  and  N4_18 
REMARK   13  A    between atoms: C11_22  and  C12_23 
REMARK   14  A    between atoms: C11_22  and  C19_30 
REMARK   15  A    between atoms: C12_23  and  C13_24 
REMARK       I    between atoms: C19_30  and  N5_32 
REMARK   16  A    between atoms: N5_32  and  C20_34 
ROOT
HETATM    1  C1  UNL     1       6.239   6.555  29.193  1.00  0.00     0.159 C 
HETATM    2  N1  UNL     1       7.650   6.245  28.955  1.00  0.00    -0.324 N 
ENDROOT
BRANCH   2   3
HETATM    3  C2  UNL     1       8.542   7.311  28.840  1.00  0.00     0.174 C 
HETATM    4  S1  UNL     1       9.109   8.070  30.250  1.00  0.00    -0.041 SA
BRANCH   3   5
HETATM    5  N2  UNL     1       9.112   7.887  27.691  1.00  0.00    -0.367 N 
ATOM      6  H2  UNL     1       8.976   8.895  27.612  1.00  0.00     0.161 HD
BRANCH   5   7
HETATM    7  C3  UNL     1       9.853   7.301  26.609  1.00  0.00     0.122 C 
BRANCH   7   8
HETATM    8  C4  UNL     1      11.347   7.550  26.785  1.00  0.00     0.029 C 
BRANCH   8   9
HETATM    9  C5  UNL     1      12.020   7.793  25.488  1.00  0.00     0.105 C 
BRANCH   9  10
HETATM   10  C6  UNL     1      13.243   8.602  25.549  1.00  0.00     0.221 C 
HETATM   11  O1  UNL     1      13.334   9.705  24.985  1.00  0.00    -0.273 OA
HETATM   12  N3  UNL     1      14.397   8.105  26.293  1.00  0.00    -0.341 N 
ATOM     13  H3  UNL     1      14.373   7.208  26.777  1.00  0.00     0.167 HD
BRANCH  12  14
HETATM   14  C7  UNL     1      15.543   8.922  26.310  1.00  0.00     0.064 C 
BRANCH  14  15
HETATM   15  C8  UNL     1      16.097   9.427  27.566  1.00  0.00     0.046 C 
BRANCH  15  16
HETATM   16  C9  UNL     1      15.334  10.430  28.331  1.00  0.00     0.032 C 
BRANCH  16  17
HETATM   17  C10 UNL     1      15.926  11.786  28.535  1.00  0.00     0.230 C 
BRANCH  17  18
HETATM   18  N4  UNL     1      15.554  12.365  29.813  1.00  0.00    -0.079 N 
ATOM     19  H43 UNL     1      14.550  12.538  29.860  1.00  0.00     0.274 HD
ATOM     20  H42 UNL     1      15.638  11.682  30.565  1.00  0.00     0.274 HD
ATOM     21  H41 UNL     1      16.083  13.212  30.025  1.00  0.00     0.274 HD
ENDBRANCH  17  18
ENDBRANCH  16  17
ENDBRANCH  15  16
ENDBRANCH  14  15
ENDBRANCH  12  14
ENDBRANCH   9  10
ENDBRANCH   8   9
ENDBRANCH   7   8
ENDBRANCH   5   7
ENDBRANCH   3   5
ENDBRANCH   2   3
BRANCH   2  22
HETATM   22  C11 UNL     1       7.990   4.871  28.842  1.00  0.00     0.101 C 
BRANCH  22  23
HETATM   23  C12 UNL     1       7.674   3.980  29.964  1.00  0.00     0.013 C 
BRANCH  23  24
HETATM   24  C13 UNL     1       6.777   2.828  29.865  1.00  0.00     0.010 C 
HETATM   25  C14 UNL     1       7.306   1.468  29.687  1.00  0.00     0.008 C 
HETATM   26  C15 UNL     1       7.553   0.669  30.946  1.00  0.00     0.001 C 
HETATM   27  C16 UNL     1       6.493   0.802  31.986  1.00  0.00     0.000 C 
HETATM   28  C17 UNL     1       6.413   2.304  32.302  1.00  0.00     0.001 C 
HETATM   29  C18 UNL     1       5.818   2.928  31.079  1.00  0.00     0.008 C 
ENDBRANCH  23  24
ENDBRANCH  22  23
BRANCH  22  30
HETATM   30  C19 UNL     1       8.150   4.275  27.512  1.00  0.00     0.268 C 
HETATM   31  O2  UNL     1       7.142   4.109  26.734  1.00  0.00    -0.266 OA
HETATM   32  N5  UNL     1       9.374   3.836  26.950  1.00  0.00    -0.342 N 
ATOM     33  H5  UNL     1      10.229   3.928  27.500  1.00  0.00     0.163 HD
BRANCH  32  34
HETATM   34  C20 UNL     1       9.457   3.257  25.612  1.00  0.00     0.178 C 
HETATM   35  C21 UNL     1       9.944   4.280  24.614  1.00  0.00     0.054 C 
HETATM   36  C22 UNL     1      11.452   4.187  24.692  1.00  0.00     0.125 C 
HETATM   37  N6  UNL     1      11.673   2.767  24.944  1.00  0.00    -0.359 N 
HETATM   38  C23 UNL     1      10.536   2.246  25.614  1.00  0.00     0.240 C 
ATOM     39  H6  UNL     1      12.505   2.238  24.683  1.00  0.00     0.162 HD
HETATM   40  O3  UNL     1      10.508   1.097  26.112  1.00  0.00    -0.271 OA
ENDBRANCH  32  34
ENDBRANCH  22  30
ENDBRANCH   2  22
TORSDOF 16
ENDMDL
MODEL 2
REMARK VINA RESULT: -7.080508404      2.220      4.677
REMARK  16 active torsions:
REMARK  status: ('A' for Active; 'I' for Inactive)
REMARK    1  A    between atoms: N1_2  and  C2_3 
REMARK    2  A    between atoms: N1_2  and  C11_22 
REMARK    3  A    between atoms: C2_3  and  N2_5 
REMARK    4  A    between atoms: N2_5  and  C3_7 
REMARK    5  A    between atoms: C3_7  and  C4_8 
REMARK    6  A    between atoms: C4_8  and  C5_9 
REMARK    7  A    between atoms: C5_9  and  C6_10 
REMARK       I    between atoms: C6_10  and  N3_12 
REMARK    8  A    between atoms: N3_12  and  C7_14 
REMARK    9  A    between atoms: C7_14  and  C8_15 
REMARK   10  A    between atoms: C8_15  and  C9_16 
REMARK   11  A    between atoms: C9_16  and  C10_17 
REMARK   12  A    between atoms: C10_17  and  N4_18 
REMARK   13  A    between atoms: C11_22  and  C12_23 
REMARK   14  A    between atoms: C11_22  and  C19_30 
REMARK   15  A    between atoms: C12_23  and  C13_24 
REMARK       I    between atoms: C19_30  and  N5_32 
REMARK   16  A    between atoms: N5_32  and  C20_34 
ROOT
HETATM    1  C1  UNL     1      12.514   4.879  26.345  1.00  0.00     0.159 C 
HETATM    2  N1  UNL     1      11.082   4.581  26.401  1.00  0.00    -0.324 N 
ENDROOT
BRANCH   2   3
HETATM    3  C2  UNL     1      10.364   4.599  25.206  1.00  0.00     0.174 C 
HETATM    4  S1  UNL     1      10.593   3.344  24.085  1.00  0.00    -0.041 SA
BRANCH   3   5
HETATM    5  N2  UNL     1       9.402   5.517  24.749  1.00  0.00    -0.367 N 
ATOM      6  H2  UNL     1       8.553   5.089  24.378  1.00  0.00     0.161 HD
BRANCH   5   7
HETATM    7  C3  UNL     1       9.409   6.953  24.713  1.00  0.00     0.122 C 
BRANCH   7   8
HETATM    8  C4  UNL     1      10.772   7.472  24.267  1.00  0.00     0.029 C 
BRANCH   8   9
HETATM    9  C5  UNL     1      11.436   8.256  25.333  1.00  0.00     0.105 C 
BRANCH   9  10
HETATM   10  C6  UNL     1      12.874   8.483  25.152  1.00  0.00     0.221 C 
HETATM   11  O1  UNL     1      13.360   8.805  24.055  1.00  0.00    -0.273 OA
HETATM   12  N3  UNL     1      13.775   8.325  26.291  1.00  0.00    -0.341 N 
ATOM     13  H3  UNL     1      13.427   8.066  27.215  1.00  0.00     0.167 HD
BRANCH  12  14
HETATM   14  C7  UNL     1      15.145   8.549  26.055  1.00  0.00     0.064 C 
BRANCH  14  15
HETATM   15  C8  UNL     1      15.959   9.325  26.991  1.00  0.00     0.046 C 
BRANCH  15  16
HETATM   16  C9  UNL     1      15.286  10.148  28.011  1.00  0.00     0.032 C 
BRANCH  16  17
HETATM   17  C10 UNL     1      15.623  11.600  28.105  1.00  0.00     0.230 C 
BRANCH  17  18
HETATM   18  N4  UNL     1      15.574  12.093  29.469  1.00  0.00    -0.079 N 
ATOM     19  H43 UNL     1      14.670  12.516  29.675  1.00  0.00     0.274 HD
ATOM     20  H42 UNL     1      15.550  11.323  30.137  1.00  0.00     0.274 HD
ATOM     21  H41 UNL     1      16.337  12.738  29.677  1.00  0.00     0.274 HD
ENDBRANCH  17  18
ENDBRANCH  16  17
ENDBRANCH  15  16
ENDBRANCH  14  15
ENDBRANCH  12  14
ENDBRANCH   9  10
ENDBRANCH   8   9
ENDBRANCH   7   8
ENDBRANCH   5   7
ENDBRANCH   3   5
ENDBRANCH   2   3
BRANCH   2  22
HETATM   22  C11 UNL     1      10.537   4.313  27.686  1.00  0.00     0.101 C 
BRANCH  22  23
HETATM   23  C12 UNL     1      10.363   5.434  28.616  1.00  0.00     0.013 C 
BRANCH  23  24
HETATM   24  C13 UNL     1       9.540   6.611  28.333  1.00  0.00     0.010 C 
HETATM   25  C14 UNL     1       8.088   6.593  28.560  1.00  0.00     0.008 C 
HETATM   26  C15 UNL     1       7.610   7.071  29.912  1.00  0.00     0.001 C 
HETATM   27  C16 UNL     1       8.314   8.280  30.429  1.00  0.00     0.000 C 
HETATM   28  C17 UNL     1       9.801   7.897  30.483  1.00  0.00     0.001 C 
HETATM   29  C18 UNL     1      10.230   7.798  29.053  1.00  0.00     0.008 C 
ENDBRANCH  23  24
ENDBRANCH  22  23
BRANCH  22  30
HETATM   30  C19 UNL     1       9.712   3.119  27.883  1.00  0.00     0.268 C 
HETATM   31  O2  UNL     1      10.064   1.981  27.403  1.00  0.00    -0.266 OA
HETATM   32  N5  UNL     1       8.488   3.074  28.596  1.00  0.00    -0.342 N 
ATOM     33  H5  UNL     1       8.129   3.934  29.012  1.00  0.00     0.163 HD
BRANCH  32  34
HETATM   34  C20 UNL     1       7.722   1.841  28.758  1.00  0.00     0.178 C 
HETATM   35  C21 UNL     1       8.022   1.194  30.089  1.00  0.00     0.054 C 
HETATM   36  C22 UNL     1       7.060   1.857  31.050  1.00  0.00     0.125 C 
HETATM   37  N6  UNL     1       5.879   2.074  30.222  1.00  0.00    -0.359 N 
HETATM   38  C23 UNL     1       6.291   2.200  28.870  1.00  0.00     0.240 C 
ATOM     39  H6  UNL     1       4.917   2.128  30.558  1.00  0.00     0.162 HD
HETATM   40  O3  UNL     1       5.518   2.562  27.955  1.00  0.00    -0.271 OA
ENDBRANCH  32  34
ENDBRANCH  22  30
ENDBRANCH   2  22
TORSDOF 16
ENDMDL
MODEL 3
REMARK VINA RESULT: -6.696997403      3.439      7.695
REMARK  16 active torsions:
REMARK  status: ('A' for Active; 'I' for Inactive)
REMARK    1  A    between atoms: N1_2  and  C2_3 
REMARK    2  A    between atoms: N1_2  and  C11_22 
REMARK    3  A    between atoms: C2_3  and  N2_5 
REMARK    4  A    between atoms: N2_5  and  C3_7 
REMARK    5  A    between atoms: C3_7  and  C4_8 
REMARK    6  A    between atoms: C4_8  and  C5_9 
REMARK    7  A    between atoms: C5_9  and  C6_10 
REMARK       I    between atoms: C6_10  and  N3_12 
REMARK    8  A    between atoms: N3_12  and  C7_14 
REMARK    9  A    between atoms: C7_14  and  C8_15 
REMARK   10  A    between atoms: C8_15  and  C9_16 
REMARK   11  A    between atoms: C9_16  and  C10_17 
REMARK   12  A    between atoms: C10_17  and  N4_18 
REMARK   13  A    between atoms: C11_22  and  C12_23 
REMARK   14  A    between atoms: C11_22  and  C19_30 
REMARK   15  A    between atoms: C12_23  and  C13_24 
REMARK       I    between atoms: C19_30  and  N5_32 
REMARK   16  A    between atoms: N5_32  and  C20_34 
ROOT
HETATM    1  C1  UNL     1      11.659   7.436  26.383  1.00  0.00     0.159 C 
HETATM    2  N1  UNL     1      10.407   6.705  26.585  1.00  0.00    -0.324 N 
ENDROOT
BRANCH   2   3
HETATM    3  C2  UNL     1      10.101   6.279  27.877  1.00  0.00     0.174 C 
HETATM    4  S1  UNL     1      10.117   7.408  29.146  1.00  0.00    -0.041 SA
BRANCH   3   5
HETATM    5  N2  UNL     1       9.731   5.003  28.340  1.00  0.00    -0.367 N 
ATOM      6  H2  UNL     1      10.515   4.403  28.597  1.00  0.00     0.161 HD
BRANCH   5   7
HETATM    7  C3  UNL     1       8.439   4.399  28.513  1.00  0.00     0.122 C 
BRANCH   7   8
HETATM    8  C4  UNL     1       8.519   2.890  28.306  1.00  0.00     0.029 C 
BRANCH   8   9
HETATM    9  C5  UNL     1       9.887   2.458  27.940  1.00  0.00     0.105 C 
BRANCH   9  10
HETATM   10  C6  UNL     1       9.989   1.626  26.736  1.00  0.00     0.221 C 
HETATM   11  O1  UNL     1       9.584   0.452  26.707  1.00  0.00    -0.273 OA
HETATM   12  N3  UNL     1      10.588   2.184  25.526  1.00  0.00    -0.341 N 
ATOM     13  H3  UNL     1      10.933   3.143  25.495  1.00  0.00     0.167 HD
BRANCH  12  14
HETATM   14  C7  UNL     1      10.665   1.336  24.405  1.00  0.00     0.064 C 
BRANCH  14  15
HETATM   15  C8  UNL     1      10.910   1.870  23.065  1.00  0.00     0.046 C 
BRANCH  15  16
HETATM   16  C9  UNL     1      12.155   1.501  22.366  1.00  0.00     0.032 C 
BRANCH  16  17
HETATM   17  C10 UNL     1      12.081   0.560  21.209  1.00  0.00     0.230 C 
BRANCH  17  18
HETATM   18  N4  UNL     1      12.453  -0.795  21.574  1.00  0.00    -0.079 N 
ATOM     19  H43 UNL     1      11.796  -1.473  21.189  1.00  0.00     0.274 HD
ATOM     20  H42 UNL     1      13.297  -1.089  21.084  1.00  0.00     0.274 HD
ATOM     21  H41 UNL     1      12.553  -0.913  22.583  1.00  0.00     0.274 HD
ENDBRANCH  17  18
ENDBRANCH  16  17
ENDBRANCH  15  16
ENDBRANCH  14  15
ENDBRANCH  12  14
ENDBRANCH   9  10
ENDBRANCH   8   9
ENDBRANCH   7   8
ENDBRANCH   5   7
ENDBRANCH   3   5
ENDBRANCH   2   3
BRANCH   2  22
HETATM   22  C11 UNL     1       9.610   6.474  25.432  1.00  0.00     0.101 C 
BRANCH  22  23
HETATM   23  C12 UNL     1       8.153   6.583  25.558  1.00  0.00     0.013 C 
BRANCH  23  24
HETATM   24  C13 UNL     1       7.211   5.592  25.036  1.00  0.00     0.010 C 
HETATM   25  C14 UNL     1       6.063   5.141  25.836  1.00  0.00     0.008 C 
HETATM   26  C15 UNL     1       4.767   5.895  25.643  1.00  0.00     0.001 C 
HETATM   27  C16 UNL     1       4.452   6.238  24.226  1.00  0.00     0.000 C 
HETATM   28  C17 UNL     1       5.645   7.071  23.730  1.00  0.00     0.001 C 
HETATM   29  C18 UNL     1       6.783   6.104  23.637  1.00  0.00     0.008 C 
ENDBRANCH  23  24
ENDBRANCH  22  23
BRANCH  22  30
HETATM   30  C19 UNL     1      10.203   6.645  24.102  1.00  0.00     0.268 C 
HETATM   31  O2  UNL     1      10.946   5.736  23.585  1.00  0.00    -0.266 OA
HETATM   32  N5  UNL     1      10.032   7.777  23.266  1.00  0.00    -0.342 N 
ATOM     33  H5  UNL     1       9.456   8.551  23.597  1.00  0.00     0.163 HD
BRANCH  32  34
HETATM   34  C20 UNL     1      10.650   7.873  21.946  1.00  0.00     0.178 C 
HETATM   35  C21 UNL     1       9.625   8.247  20.901  1.00  0.00     0.054 C 
HETATM   36  C22 UNL     1       9.590   9.759  20.939  1.00  0.00     0.125 C 
HETATM   37  N6  UNL     1      10.976  10.105  21.232  1.00  0.00    -0.359 N 
HETATM   38  C23 UNL     1      11.567   9.033  21.952  1.00  0.00     0.240 C 
ATOM     39  H6  UNL     1      11.444  10.971  20.965  1.00  0.00     0.162 HD
HETATM   40  O3  UNL     1      12.695   9.115  22.488  1.00  0.00    -0.271 OA
ENDBRANCH  32  34
ENDBRANCH  22  30
ENDBRANCH   2  22
TORSDOF 16
ENDMDL
MODEL 4
REMARK VINA RESULT: -6.690448910      3.450      7.609
REMARK  16 active torsions:
REMARK  status: ('A' for Active; 'I' for Inactive)
REMARK    1  A    between atoms: N1_2  and  C2_3 
REMARK    2  A    between atoms: N1_2  and  C11_22 
REMARK    3  A    between atoms: C2_3  and  N2_5 
REMARK    4  A    between atoms: N2_5  and  C3_7 
REMARK    5  A    between atoms: C3_7  and  C4_8 
REMARK    6  A    between atoms: C4_8  and  C5_9 
REMARK    7  A    between atoms: C5_9  and  C6_10 
REMARK       I    between atoms: C6_10  and  N3_12 
REMARK    8  A    between atoms: N3_12  and  C7_14 
REMARK    9  A    between atoms: C7_14  and  C8_15 
REMARK   10  A    between atoms: C8_15  and  C9_16 
REMARK   11  A    between atoms: C9_16  and  C10_17 
REMARK   12  A    between atoms: C10_17  and  N4_18 
REMARK   13  A    between atoms: C11_22  and  C12_23 
REMARK   14  A    between atoms: C11_22  and  C19_30 
REMARK   15  A    between atoms: C12_23  and  C13_24 
REMARK       I    between atoms: C19_30  and  N5_32 
REMARK   16  A    between atoms: N5_32  and  C20_34 
ROOT
HETATM    1  C1  UNL     1      10.506   7.471  28.531  1.00  0.00     0.159 C 
HETATM    2  N1  UNL     1       9.994   6.844  27.312  1.00  0.00    -0.324 N 
ENDROOT
BRANCH   2   3
HETATM    3  C2  UNL     1      10.744   6.977  26.145  1.00  0.00     0.174 C 
HETATM    4  S1  UNL     1      12.140   7.945  26.164  1.00  0.00    -0.041 SA
BRANCH   3   5
HETATM    5  N2  UNL     1      10.553   6.391  24.880  1.00  0.00    -0.367 N 
ATOM      6  H2  UNL     1       9.939   6.919  24.259  1.00  0.00     0.161 HD
BRANCH   5   7
HETATM    7  C3  UNL     1      11.072   5.178  24.313  1.00  0.00     0.122 C 
BRANCH   7   8
HETATM    8  C4  UNL     1       9.991   4.102  24.265  1.00  0.00     0.029 C 
BRANCH   8   9
HETATM    9  C5  UNL     1      10.396   2.884  25.003  1.00  0.00     0.105 C 
BRANCH   9  10
HETATM   10  C6  UNL     1      10.647   1.696  24.178  1.00  0.00     0.221 C 
HETATM   11  O1  UNL     1      10.236   0.569  24.501  1.00  0.00    -0.273 OA
HETATM   12  N3  UNL     1      11.405   1.831  22.938  1.00  0.00    -0.341 N 
ATOM     13  H3  UNL     1      11.762   2.734  22.625  1.00  0.00     0.167 HD
BRANCH  12  14
HETATM   14  C7  UNL     1      11.620   0.656  22.192  1.00  0.00     0.064 C 
BRANCH  14  15
HETATM   15  C8  UNL     1      12.824   0.482  21.379  1.00  0.00     0.046 C 
BRANCH  15  16
HETATM   16  C9  UNL     1      13.088  -0.832  20.766  1.00  0.00     0.032 C 
BRANCH  16  17
HETATM   17  C10 UNL     1      13.377  -1.997  21.653  1.00  0.00     0.230 C 
BRANCH  17  18
HETATM   18  N4  UNL     1      14.783  -2.356  21.657  1.00  0.00    -0.079 N 
ATOM     19  H43 UNL     1      15.079  -2.677  22.578  1.00  0.00     0.274 HD
ATOM     20  H42 UNL     1      14.946  -3.210  21.125  1.00  0.00     0.274 HD
ATOM     21  H41 UNL     1      15.379  -1.597  21.325  1.00  0.00     0.274 HD
ENDBRANCH  17  18
ENDBRANCH  16  17
ENDBRANCH  15  16
ENDBRANCH  14  15
ENDBRANCH  12  14
ENDBRANCH   9  10
ENDBRANCH   8   9
ENDBRANCH   7   8
ENDBRANCH   5   7
ENDBRANCH   3   5
ENDBRANCH   2   3
BRANCH   2  22
HETATM   22  C11 UNL     1       8.752   6.162  27.420  1.00  0.00     0.101 C 
BRANCH  22  23
HETATM   23  C12 UNL     1       7.709   6.453  26.429  1.00  0.00     0.013 C 
BRANCH  23  24
HETATM   24  C13 UNL     1       6.853   5.433  25.821  1.00  0.00     0.010 C 
HETATM   25  C14 UNL     1       5.557   5.079  26.414  1.00  0.00     0.008 C 
HETATM   26  C15 UNL     1       4.351   5.833  25.903  1.00  0.00     0.001 C 
HETATM   27  C16 UNL     1       4.331   6.048  24.427  1.00  0.00     0.000 C 
HETATM   28  C17 UNL     1       5.626   6.811  24.106  1.00  0.00     0.001 C 
HETATM   29  C18 UNL     1       6.726   5.820  24.325  1.00  0.00     0.008 C 
ENDBRANCH  23  24
ENDBRANCH  22  23
BRANCH  22  30
HETATM   30  C19 UNL     1       8.694   4.880  28.126  1.00  0.00     0.268 C 
HETATM   31  O2  UNL     1       9.627   4.007  27.996  1.00  0.00    -0.266 OA
HETATM   32  N5  UNL     1       7.656   4.468  28.999  1.00  0.00    -0.342 N 
ATOM     33  H5  UNL     1       6.870   5.099  29.161  1.00  0.00     0.163 HD
BRANCH  32  34
HETATM   34  C20 UNL     1       7.670   3.174  29.676  1.00  0.00     0.178 C 
HETATM   35  C21 UNL     1       6.839   3.218  30.935  1.00  0.00     0.054 C 
HETATM   36  C22 UNL     1       5.436   2.900  30.466  1.00  0.00     0.125 C 
HETATM   37  N6  UNL     1       5.667   1.949  29.385  1.00  0.00    -0.359 N 
HETATM   38  C23 UNL     1       6.947   2.203  28.826  1.00  0.00     0.240 C 
ATOM     39  H6  UNL     1       5.019   1.223  29.081  1.00  0.00     0.162 HD
HETATM   40  O3  UNL     1       7.348   1.659  27.772  1.00  0.00    -0.271 OA
ENDBRANCH  32  34
ENDBRANCH  22  30
ENDBRANCH   2  22
TORSDOF 16
ENDMDL
MODEL 5
REMARK VINA RESULT: -6.658345156      2.853      7.874
REMARK  16 active torsions:
REMARK  status: ('A' for Active; 'I' for Inactive)
REMARK    1  A    between atoms: N1_2  and  C2_3 
REMARK    2  A    between atoms: N1_2  and  C11_22 
REMARK    3  A    between atoms: C2_3  and  N2_5 
REMARK    4  A    between atoms: N2_5  and  C3_7 
REMARK    5  A    between atoms: C3_7  and  C4_8 
REMARK    6  A    between atoms: C4_8  and  C5_9 
REMARK    7  A    between atoms: C5_9  and  C6_10 
REMARK       I    between atoms: C6_10  and  N3_12 
REMARK    8  A    between atoms: N3_12  and  C7_14 
REMARK    9  A    between atoms: C7_14  and  C8_15 
REMARK   10  A    between atoms: C8_15  and  C9_16 
REMARK   11  A    between atoms: C9_16  and  C10_17 
REMARK   12  A    between atoms: C10_17  and  N4_18 
REMARK   13  A    between atoms: C11_22  and  C12_23 
REMARK   14  A    between atoms: C11_22  and  C19_30 
REMARK   15  A    between atoms: C12_23  and  C13_24 
REMARK       I    between atoms: C19_30  and  N5_32 
REMARK   16  A    between atoms: N5_32  and  C20_34 
ROOT
HETATM    1  C1  UNL     1      11.711   4.789  25.291  1.00  0.00     0.159 C 
HETATM    2  N1  UNL     1      11.129   5.962  25.945  1.00  0.00    -0.324 N 
ENDROOT
BRANCH   2   3
HETATM    3  C2  UNL     1      11.019   5.947  27.335  1.00  0.00     0.174 C 
HETATM    4  S1  UNL     1      10.594   4.500  28.116  1.00  0.00    -0.041 SA
BRANCH   3   5
HETATM    5  N2  UNL     1      11.237   6.979  28.265  1.00  0.00    -0.367 N 
ATOM      6  H2  UNL     1      12.126   7.467  28.153  1.00  0.00     0.161 HD
BRANCH   5   7
HETATM    7  C3  UNL     1      10.425   7.464  29.346  1.00  0.00     0.122 C 
BRANCH   7   8
HETATM    8  C4  UNL     1       9.046   7.874  28.840  1.00  0.00     0.029 C 
BRANCH   8   9
HETATM    9  C5  UNL     1       8.054   7.937  29.937  1.00  0.00     0.105 C 
BRANCH   9  10
HETATM   10  C6  UNL     1       7.360   6.680  30.239  1.00  0.00     0.221 C 
HETATM   11  O1  UNL     1       6.825   6.469  31.341  1.00  0.00    -0.273 OA
HETATM   12  N3  UNL     1       7.293   5.635  29.222  1.00  0.00    -0.341 N 
ATOM     13  H3  UNL     1       7.712   5.759  28.301  1.00  0.00     0.167 HD
BRANCH  12  14
HETATM   14  C7  UNL     1       6.621   4.448  29.572  1.00  0.00     0.064 C 
BRANCH  14  15
HETATM   15  C8  UNL     1       7.348   3.287  30.084  1.00  0.00     0.046 C 
BRANCH  15  16
HETATM   16  C9  UNL     1       6.876   2.635  31.319  1.00  0.00     0.032 C 
BRANCH  16  17
HETATM   17  C10 UNL     1       5.658   3.171  31.997  1.00  0.00     0.230 C 
BRANCH  17  18
HETATM   18  N4  UNL     1       5.981   4.127  33.040  1.00  0.00    -0.079 N 
ATOM     19  H43 UNL     1       6.607   4.853  32.693  1.00  0.00     0.274 HD
ATOM     20  H42 UNL     1       5.173   4.705  33.272  1.00  0.00     0.274 HD
ATOM     21  H41 UNL     1       6.365   3.679  33.873  1.00  0.00     0.274 HD
ENDBRANCH  17  18
ENDBRANCH  16  17
ENDBRANCH  15  16
ENDBRANCH  14  15
ENDBRANCH  12  14
ENDBRANCH   9  10
ENDBRANCH   8   9
ENDBRANCH   7   8
ENDBRANCH   5   7
ENDBRANCH   3   5
ENDBRANCH   2   3
BRANCH   2  22
HETATM   22  C11 UNL     1      10.705   7.019  25.096  1.00  0.00     0.101 C 
BRANCH  22  23
HETATM   23  C12 UNL     1       9.271   7.157  24.818  1.00  0.00     0.013 C 
BRANCH  23  24
HETATM   24  C13 UNL     1       8.442   6.093  24.249  1.00  0.00     0.010 C 
HETATM   25  C14 UNL     1       7.856   5.050  25.102  1.00  0.00     0.008 C 
HETATM   26  C15 UNL     1       6.464   5.312  25.629  1.00  0.00     0.001 C 
HETATM   27  C16 UNL     1       5.527   5.917  24.638  1.00  0.00     0.000 C 
HETATM   28  C17 UNL     1       6.194   7.226  24.189  1.00  0.00     0.001 C 
HETATM   29  C18 UNL     1       7.377   6.802  23.376  1.00  0.00     0.008 C 
ENDBRANCH  23  24
ENDBRANCH  22  23
BRANCH  22  30
HETATM   30  C19 UNL     1      11.555   8.203  24.941  1.00  0.00     0.268 C 
HETATM   31  O2  UNL     1      11.076   9.312  24.507  1.00  0.00    -0.266 OA
HETATM   32  N5  UNL     1      12.939   8.265  25.241  1.00  0.00    -0.342 N 
ATOM     33  H5  UNL     1      13.405   7.428  25.591  1.00  0.00     0.163 HD
BRANCH  32  34
HETATM   34  C20 UNL     1      13.722   9.487  25.066  1.00  0.00     0.178 C 
HETATM   35  C21 UNL     1      14.735   9.636  26.176  1.00  0.00     0.054 C 
HETATM   36  C22 UNL     1      15.937   8.857  25.688  1.00  0.00     0.125 C 
HETATM   37  N6  UNL     1      15.905   9.084  24.248  1.00  0.00    -0.359 N 
HETATM   38  C23 UNL     1      14.561   9.326  23.859  1.00  0.00     0.240 C 
ATOM     39  H6  UNL     1      16.711   9.071  23.624  1.00  0.00     0.162 HD
HETATM   40  O3  UNL     1      14.200   9.384  22.662  1.00  0.00    -0.271 OA
ENDBRANCH  32  34
ENDBRANCH  22  30
ENDBRANCH   2  22
TORSDOF 16
ENDMDL
