MODEL 1
REMARK VINA RESULT: -7.681206407      0.000      0.000
REMARK  13 active torsions:
REMARK  status: ('A' for Active; 'I' for Inactive)
REMARK    1  A    between atoms: C3_3  and  C4_4 
REMARK    2  A    between atoms: C5_5  and  C6_6 
REMARK    3  A    between atoms: C8_8  and  C9_9 
REMARK    4  A    between atoms: C10_10  and  C11_11 
REMARK    5  A    between atoms: C11_11  and  C12_13 
REMARK    6  A    between atoms: C12_13  and  C13_14 
REMARK    7  A    between atoms: C15_16  and  C16_17 
REMARK    8  A    between atoms: C17_18  and  C18_19 
REMARK    9  A    between atoms: C18_19  and  O2_20 
REMARK   10  A    between atoms: C18_19  and  C19_22 
REMARK   11  A    between atoms: C19_22  and  O3_23 
REMARK   12  A    between atoms: C19_22  and  C20_25 
REMARK   13  A    between atoms: C20_25  and  O4_27 
ROOT
HETATM    1  C13 UNL     1      11.144  18.188  58.271  1.00  0.00     0.001 A 
HETATM    2  C14 UNL     1      11.931  17.274  57.442  1.00  0.00     0.014 A 
HETATM    3  C15 UNL     1      12.313  18.780  57.552  1.00  0.00     0.013 A 
ENDROOT
BRANCH   1   4
HETATM    4  C12 UNL     1      11.166  18.194  59.771  1.00  0.00     0.088 C 
BRANCH   4   5
HETATM    5  C11 UNL     1       9.780  17.941  60.233  1.00  0.00     0.149 C 
HETATM    6  O1  UNL     1       8.837  18.541  59.620  1.00  0.00    -0.293 OA
BRANCH   5   7
HETATM    7  C10 UNL     1       9.435  17.068  61.323  1.00  0.00     0.050 C 
HETATM    8  C9  UNL     1       9.782  17.351  62.585  1.00  0.00     0.004 C 
BRANCH   8   9
HETATM    9  C8  UNL     1       9.418  16.445  63.672  1.00  0.00     0.007 C 
HETATM   10  C6  UNL     1      10.168  16.364  64.769  1.00  0.00    -0.062 C 
HETATM   11  C7  UNL     1      11.367  17.212  64.872  1.00  0.00     0.048 C 
BRANCH  10  12
HETATM   12  C5  UNL     1       9.750  15.444  65.809  1.00  0.00     0.007 C 
HETATM   13  C4  UNL     1       9.400  14.201  65.602  1.00  0.00     0.000 C 
BRANCH  13  14
HETATM   14  C3  UNL     1       8.997  13.372  66.733  1.00  0.00    -0.004 C 
HETATM   15  C2  UNL     1       7.816  12.807  66.706  1.00  0.00    -0.031 C 
HETATM   16  C1  UNL     1       6.885  12.984  65.573  1.00  0.00     0.036 C 
ENDBRANCH  13  14
ENDBRANCH  10  12
ENDBRANCH   8   9
ENDBRANCH   5   7
ENDBRANCH   4   5
ENDBRANCH   1   4
BRANCH   3  17
HETATM   17  C16 UNL     1      13.620  18.995  58.176  1.00  0.00    -0.023 C 
HETATM   18  C17 UNL     1      14.328  20.088  57.911  1.00  0.00     0.003 C 
BRANCH  18  19
HETATM   19  C18 UNL     1      13.908  21.173  56.996  1.00  0.00     0.172 C 
BRANCH  19  20
HETATM   20  O2  UNL     1      13.298  22.194  57.694  1.00  0.00    -0.389 OA
ATOM     21  H2  UNL     1      12.714  22.688  57.130  1.00  0.00     0.210 HD
ENDBRANCH  19  20
BRANCH  19  22
HETATM   22  C19 UNL     1      15.068  21.736  56.208  1.00  0.00     0.178 C 
BRANCH  22  23
HETATM   23  O3  UNL     1      16.098  22.004  57.104  1.00  0.00    -0.390 OA
ATOM     24  H3  UNL     1      16.630  22.698  56.733  1.00  0.00     0.210 HD
ENDBRANCH  22  23
BRANCH  22  25
HETATM   25  C20 UNL     1      15.532  20.872  55.085  1.00  0.00     0.145 C 
HETATM   26  C21 UNL     1      16.954  21.237  54.695  1.00  0.00     0.042 C 
BRANCH  25  27
HETATM   27  O4  UNL     1      14.756  21.157  53.937  1.00  0.00    -0.393 OA
ATOM     28  H4  UNL     1      15.183  21.846  53.441  1.00  0.00     0.210 HD
ENDBRANCH  25  27
ENDBRANCH  22  25
ENDBRANCH  19  22
ENDBRANCH  18  19
ENDBRANCH   3  17
TORSDOF 13
ENDMDL
MODEL 2
REMARK VINA RESULT: -7.569890190      3.925      6.599
REMARK  13 active torsions:
REMARK  status: ('A' for Active; 'I' for Inactive)
REMARK    1  A    between atoms: C3_3  and  C4_4 
REMARK    2  A    between atoms: C5_5  and  C6_6 
REMARK    3  A    between atoms: C8_8  and  C9_9 
REMARK    4  A    between atoms: C10_10  and  C11_11 
REMARK    5  A    between atoms: C11_11  and  C12_13 
REMARK    6  A    between atoms: C12_13  and  C13_14 
REMARK    7  A    between atoms: C15_16  and  C16_17 
REMARK    8  A    between atoms: C17_18  and  C18_19 
REMARK    9  A    between atoms: C18_19  and  O2_20 
REMARK   10  A    between atoms: C18_19  and  C19_22 
REMARK   11  A    between atoms: C19_22  and  O3_23 
REMARK   12  A    between atoms: C19_22  and  C20_25 
REMARK   13  A    between atoms: C20_25  and  O4_27 
ROOT
HETATM    1  C13 UNL     1      10.913  17.625  57.789  1.00  0.00     0.001 A 
HETATM    2  C14 UNL     1      11.838  17.175  56.748  1.00  0.00     0.014 A 
HETATM    3  C15 UNL     1      12.015  18.567  57.424  1.00  0.00     0.013 A 
ENDROOT
BRANCH   1   4
HETATM    4  C12 UNL     1      10.892  17.079  59.186  1.00  0.00     0.088 C 
BRANCH   4   5
HETATM    5  C11 UNL     1       9.788  17.759  59.907  1.00  0.00     0.149 C 
HETATM    6  O1  UNL     1       9.596  17.439  61.126  1.00  0.00    -0.293 OA
BRANCH   5   7
HETATM    7  C10 UNL     1       8.926  18.750  59.322  1.00  0.00     0.050 C 
HETATM    8  C9  UNL     1       7.598  18.586  59.276  1.00  0.00     0.004 C 
BRANCH   8   9
HETATM    9  C8  UNL     1       6.747  19.610  58.675  1.00  0.00     0.007 C 
HETATM   10  C6  UNL     1       5.434  19.616  58.895  1.00  0.00    -0.062 C 
HETATM   11  C7  UNL     1       4.855  18.578  59.763  1.00  0.00     0.048 C 
BRANCH  10  12
HETATM   12  C5  UNL     1       4.648  20.660  58.266  1.00  0.00     0.007 C 
HETATM   13  C4  UNL     1       5.118  21.528  57.408  1.00  0.00     0.000 C 
BRANCH  13  14
HETATM   14  C3  UNL     1       4.225  22.534  56.844  1.00  0.00    -0.004 C 
HETATM   15  C2  UNL     1       4.501  23.799  57.043  1.00  0.00    -0.031 C 
HETATM   16  C1  UNL     1       5.681  24.234  57.818  1.00  0.00     0.036 C 
ENDBRANCH  13  14
ENDBRANCH  10  12
ENDBRANCH   8   9
ENDBRANCH   5   7
ENDBRANCH   4   5
ENDBRANCH   1   4
BRANCH   3  17
HETATM   17  C16 UNL     1      13.263  18.682  58.180  1.00  0.00    -0.023 C 
HETATM   18  C17 UNL     1      13.891  19.849  58.283  1.00  0.00     0.003 C 
BRANCH  18  19
HETATM   19  C18 UNL     1      13.431  21.118  57.677  1.00  0.00     0.172 C 
BRANCH  19  20
HETATM   20  O2  UNL     1      12.711  21.864  58.586  1.00  0.00    -0.389 OA
ATOM     21  H2  UNL     1      12.820  21.524  59.467  1.00  0.00     0.210 HD
ENDBRANCH  19  20
BRANCH  19  22
HETATM   22  C19 UNL     1      14.580  21.950  57.155  1.00  0.00     0.178 C 
BRANCH  22  23
HETATM   23  O3  UNL     1      15.381  22.292  58.239  1.00  0.00    -0.390 OA
ATOM     24  H3  UNL     1      15.730  23.161  58.076  1.00  0.00     0.210 HD
ENDBRANCH  22  23
BRANCH  22  25
HETATM   25  C20 UNL     1      15.374  21.299  56.073  1.00  0.00     0.145 C 
HETATM   26  C21 UNL     1      16.433  22.256  55.553  1.00  0.00     0.042 C 
BRANCH  25  27
HETATM   27  O4  UNL     1      14.527  21.059  54.965  1.00  0.00    -0.393 OA
ATOM     28  H4  UNL     1      14.813  20.268  54.524  1.00  0.00     0.210 HD
ENDBRANCH  25  27
ENDBRANCH  22  25
ENDBRANCH  19  22
ENDBRANCH  18  19
ENDBRANCH   3  17
TORSDOF 13
ENDMDL
MODEL 3
REMARK VINA RESULT: -7.481602636      0.937      1.163
REMARK  13 active torsions:
REMARK  status: ('A' for Active; 'I' for Inactive)
REMARK    1  A    between atoms: C3_3  and  C4_4 
REMARK    2  A    between atoms: C5_5  and  C6_6 
REMARK    3  A    between atoms: C8_8  and  C9_9 
REMARK    4  A    between atoms: C10_10  and  C11_11 
REMARK    5  A    between atoms: C11_11  and  C12_13 
REMARK    6  A    between atoms: C12_13  and  C13_14 
REMARK    7  A    between atoms: C15_16  and  C16_17 
REMARK    8  A    between atoms: C17_18  and  C18_19 
REMARK    9  A    between atoms: C18_19  and  O2_20 
REMARK   10  A    between atoms: C18_19  and  C19_22 
REMARK   11  A    between atoms: C19_22  and  O3_23 
REMARK   12  A    between atoms: C19_22  and  C20_25 
REMARK   13  A    between atoms: C20_25  and  O4_27 
ROOT
HETATM    1  C13 UNL     1      10.903  18.288  57.804  1.00  0.00     0.001 A 
HETATM    2  C14 UNL     1      11.563  16.992  57.637  1.00  0.00     0.014 A 
HETATM    3  C15 UNL     1      12.318  18.318  57.322  1.00  0.00     0.013 A 
ENDROOT
BRANCH   1   4
HETATM    4  C12 UNL     1      10.603  18.913  59.135  1.00  0.00     0.088 C 
BRANCH   4   5
HETATM    5  C11 UNL     1       9.526  18.111  59.765  1.00  0.00     0.149 C 
HETATM    6  O1  UNL     1       8.361  18.186  59.254  1.00  0.00    -0.293 OA
BRANCH   5   7
HETATM    7  C10 UNL     1       9.713  17.260  60.909  1.00  0.00     0.050 C 
HETATM    8  C9  UNL     1       9.599  17.729  62.158  1.00  0.00     0.004 C 
BRANCH   8   9
HETATM    9  C8  UNL     1       9.794  16.841  63.302  1.00  0.00     0.007 C 
HETATM   10  C6  UNL     1       8.800  16.602  64.154  1.00  0.00    -0.062 C 
HETATM   11  C7  UNL     1       7.495  17.243  63.919  1.00  0.00     0.048 C 
BRANCH  10  12
HETATM   12  C5  UNL     1       9.062  15.712  65.268  1.00  0.00     0.007 C 
HETATM   13  C4  UNL     1       9.062  14.406  65.190  1.00  0.00     0.000 C 
BRANCH  13  14
HETATM   14  C3  UNL     1       9.341  13.617  66.384  1.00  0.00    -0.004 C 
HETATM   15  C2  UNL     1       8.413  12.806  66.830  1.00  0.00    -0.031 C 
HETATM   16  C1  UNL     1       7.102  12.670  66.164  1.00  0.00     0.036 C 
ENDBRANCH  13  14
ENDBRANCH  10  12
ENDBRANCH   8   9
ENDBRANCH   5   7
ENDBRANCH   4   5
ENDBRANCH   1   4
BRANCH   3  17
HETATM   17  C16 UNL     1      13.466  18.546  58.200  1.00  0.00    -0.023 C 
HETATM   18  C17 UNL     1      13.962  19.767  58.369  1.00  0.00     0.003 C 
BRANCH  18  19
HETATM   19  C18 UNL     1      13.443  20.992  57.721  1.00  0.00     0.172 C 
BRANCH  19  20
HETATM   20  O2  UNL     1      12.735  21.762  58.621  1.00  0.00    -0.389 OA
ATOM     21  H2  UNL     1      12.971  22.679  58.542  1.00  0.00     0.210 HD
ENDBRANCH  19  20
BRANCH  19  22
HETATM   22  C19 UNL     1      14.546  21.829  57.116  1.00  0.00     0.178 C 
BRANCH  22  23
HETATM   23  O3  UNL     1      15.345  22.292  58.156  1.00  0.00    -0.390 OA
ATOM     24  H3  UNL     1      14.784  22.755  58.767  1.00  0.00     0.210 HD
ENDBRANCH  22  23
BRANCH  22  25
HETATM   25  C20 UNL     1      15.354  21.130  56.075  1.00  0.00     0.145 C 
HETATM   26  C21 UNL     1      16.589  21.946  55.735  1.00  0.00     0.042 C 
BRANCH  25  27
HETATM   27  O4  UNL     1      14.609  21.081  54.873  1.00  0.00    -0.393 OA
ATOM     28  H4  UNL     1      13.684  21.133  55.082  1.00  0.00     0.210 HD
ENDBRANCH  25  27
ENDBRANCH  22  25
ENDBRANCH  19  22
ENDBRANCH  18  19
ENDBRANCH   3  17
TORSDOF 13
ENDMDL
MODEL 4
REMARK VINA RESULT: -7.454730567      3.179      5.218
REMARK  13 active torsions:
REMARK  status: ('A' for Active; 'I' for Inactive)
REMARK    1  A    between atoms: C3_3  and  C4_4 
REMARK    2  A    between atoms: C5_5  and  C6_6 
REMARK    3  A    between atoms: C8_8  and  C9_9 
REMARK    4  A    between atoms: C10_10  and  C11_11 
REMARK    5  A    between atoms: C11_11  and  C12_13 
REMARK    6  A    between atoms: C12_13  and  C13_14 
REMARK    7  A    between atoms: C15_16  and  C16_17 
REMARK    8  A    between atoms: C17_18  and  C18_19 
REMARK    9  A    between atoms: C18_19  and  O2_20 
REMARK   10  A    between atoms: C18_19  and  C19_22 
REMARK   11  A    between atoms: C19_22  and  O3_23 
REMARK   12  A    between atoms: C19_22  and  C20_25 
REMARK   13  A    between atoms: C20_25  and  O4_27 
ROOT
HETATM    1  C13 UNL     1      11.033  17.411  57.467  1.00  0.00     0.001 A 
HETATM    2  C14 UNL     1      12.115  16.827  56.674  1.00  0.00     0.014 A 
HETATM    3  C15 UNL     1      12.223  18.282  57.219  1.00  0.00     0.013 A 
ENDROOT
BRANCH   1   4
HETATM    4  C12 UNL     1      10.729  17.028  58.885  1.00  0.00     0.088 C 
BRANCH   4   5
HETATM    5  C11 UNL     1       9.886  18.104  59.461  1.00  0.00     0.149 C 
HETATM    6  O1  UNL     1       8.636  18.068  59.215  1.00  0.00    -0.293 OA
BRANCH   5   7
HETATM    7  C10 UNL     1      10.388  19.178  60.275  1.00  0.00     0.050 C 
HETATM    8  C9  UNL     1      11.348  18.978  61.187  1.00  0.00     0.004 C 
BRANCH   8   9
HETATM    9  C8  UNL     1      11.838  20.088  62.001  1.00  0.00     0.007 C 
HETATM   10  C6  UNL     1      11.952  19.964  63.321  1.00  0.00    -0.062 C 
HETATM   11  C7  UNL     1      11.584  18.683  63.948  1.00  0.00     0.048 C 
BRANCH  10  12
HETATM   12  C5  UNL     1      12.444  21.105  64.068  1.00  0.00     0.007 C 
HETATM   13  C4  UNL     1      12.584  22.309  63.577  1.00  0.00     0.000 C 
BRANCH  13  14
HETATM   14  C3  UNL     1      13.090  23.377  64.431  1.00  0.00    -0.004 C 
HETATM   15  C2  UNL     1      13.069  24.606  63.977  1.00  0.00    -0.031 C 
HETATM   16  C1  UNL     1      12.552  24.939  62.634  1.00  0.00     0.036 C 
ENDBRANCH  13  14
ENDBRANCH  10  12
ENDBRANCH   8   9
ENDBRANCH   5   7
ENDBRANCH   4   5
ENDBRANCH   1   4
BRANCH   3  17
HETATM   17  C16 UNL     1      13.313  18.453  58.181  1.00  0.00    -0.023 C 
HETATM   18  C17 UNL     1      13.780  19.663  58.471  1.00  0.00     0.003 C 
BRANCH  18  19
HETATM   19  C18 UNL     1      13.283  20.929  57.887  1.00  0.00     0.172 C 
BRANCH  19  20
HETATM   20  O2  UNL     1      12.517  21.623  58.800  1.00  0.00    -0.389 OA
ATOM     21  H2  UNL     1      12.279  22.479  58.461  1.00  0.00     0.210 HD
ENDBRANCH  19  20
BRANCH  19  22
HETATM   22  C19 UNL     1      14.409  21.817  57.409  1.00  0.00     0.178 C 
BRANCH  22  23
HETATM   23  O3  UNL     1      15.173  22.165  58.517  1.00  0.00    -0.390 OA
ATOM     24  H3  UNL     1      15.736  22.888  58.265  1.00  0.00     0.210 HD
ENDBRANCH  22  23
BRANCH  22  25
HETATM   25  C20 UNL     1      15.250  21.224  56.329  1.00  0.00     0.145 C 
HETATM   26  C21 UNL     1      16.232  22.257  55.803  1.00  0.00     0.042 C 
BRANCH  25  27
HETATM   27  O4  UNL     1      14.423  20.913  55.224  1.00  0.00    -0.393 OA
ATOM     28  H4  UNL     1      14.482  19.982  55.049  1.00  0.00     0.210 HD
ENDBRANCH  25  27
ENDBRANCH  22  25
ENDBRANCH  19  22
ENDBRANCH  18  19
ENDBRANCH   3  17
TORSDOF 13
ENDMDL
MODEL 5
REMARK VINA RESULT: -7.423650000      3.896      6.476
REMARK  13 active torsions:
REMARK  status: ('A' for Active; 'I' for Inactive)
REMARK    1  A    between atoms: C3_3  and  C4_4 
REMARK    2  A    between atoms: C5_5  and  C6_6 
REMARK    3  A    between atoms: C8_8  and  C9_9 
REMARK    4  A    between atoms: C10_10  and  C11_11 
REMARK    5  A    between atoms: C11_11  and  C12_13 
REMARK    6  A    between atoms: C12_13  and  C13_14 
REMARK    7  A    between atoms: C15_16  and  C16_17 
REMARK    8  A    between atoms: C17_18  and  C18_19 
REMARK    9  A    between atoms: C18_19  and  O2_20 
REMARK   10  A    between atoms: C18_19  and  C19_22 
REMARK   11  A    between atoms: C19_22  and  O3_23 
REMARK   12  A    between atoms: C19_22  and  C20_25 
REMARK   13  A    between atoms: C20_25  and  O4_27 
ROOT
HETATM    1  C13 UNL     1      11.363  18.621  58.193  1.00  0.00     0.001 A 
HETATM    2  C14 UNL     1      11.952  18.219  56.915  1.00  0.00     0.014 A 
HETATM    3  C15 UNL     1      12.559  19.394  57.738  1.00  0.00     0.013 A 
ENDROOT
BRANCH   1   4
HETATM    4  C12 UNL     1      11.483  17.827  59.460  1.00  0.00     0.088 C 
BRANCH   4   5
HETATM    5  C11 UNL     1      10.555  18.431  60.447  1.00  0.00     0.149 C 
HETATM    6  O1  UNL     1       9.368  17.969  60.498  1.00  0.00    -0.293 OA
BRANCH   5   7
HETATM    7  C10 UNL     1      10.908  19.497  61.346  1.00  0.00     0.050 C 
HETATM    8  C9  UNL     1      12.168  19.938  61.451  1.00  0.00     0.004 C 
BRANCH   8   9
HETATM    9  C8  UNL     1      12.498  21.022  62.373  1.00  0.00     0.007 C 
HETATM   10  C6  UNL     1      12.946  22.189  61.916  1.00  0.00    -0.062 C 
HETATM   11  C7  UNL     1      13.096  22.372  60.463  1.00  0.00     0.048 C 
BRANCH  10  12
HETATM   12  C5  UNL     1      13.255  23.222  62.886  1.00  0.00     0.007 C 
HETATM   13  C4  UNL     1      13.792  24.378  62.592  1.00  0.00     0.000 C 
BRANCH  13  14
HETATM   14  C3  UNL     1      14.055  25.337  63.659  1.00  0.00    -0.004 C 
HETATM   15  C2  UNL     1      13.508  26.525  63.584  1.00  0.00    -0.031 C 
HETATM   16  C1  UNL     1      12.637  26.919  62.458  1.00  0.00     0.036 C 
ENDBRANCH  13  14
ENDBRANCH  10  12
ENDBRANCH   8   9
ENDBRANCH   5   7
ENDBRANCH   4   5
ENDBRANCH   1   4
BRANCH   3  17
HETATM   17  C16 UNL     1      13.920  19.124  58.203  1.00  0.00    -0.023 C 
HETATM   18  C17 UNL     1      14.919  19.946  57.896  1.00  0.00     0.003 C 
BRANCH  18  19
HETATM   19  C18 UNL     1      14.789  21.177  57.086  1.00  0.00     0.172 C 
BRANCH  19  20
HETATM   20  O2  UNL     1      15.343  22.257  57.741  1.00  0.00    -0.389 OA
ATOM     21  H2  UNL     1      14.838  23.046  57.581  1.00  0.00     0.210 HD
ENDBRANCH  19  20
BRANCH  19  22
HETATM   22  C19 UNL     1      15.437  21.038  55.728  1.00  0.00     0.178 C 
BRANCH  22  23
HETATM   23  O3  UNL     1      14.425  20.847  54.793  1.00  0.00    -0.390 OA
ATOM     24  H3  UNL     1      14.158  19.936  54.839  1.00  0.00     0.210 HD
ENDBRANCH  22  23
BRANCH  22  25
HETATM   25  C20 UNL     1      16.326  22.173  55.346  1.00  0.00     0.145 C 
HETATM   26  C21 UNL     1      16.515  22.207  53.839  1.00  0.00     0.042 C 
BRANCH  25  27
HETATM   27  O4  UNL     1      17.619  21.938  55.869  1.00  0.00    -0.393 OA
ATOM     28  H4  UNL     1      18.124  22.741  55.814  1.00  0.00     0.210 HD
ENDBRANCH  25  27
ENDBRANCH  22  25
ENDBRANCH  19  22
ENDBRANCH  18  19
ENDBRANCH   3  17
TORSDOF 13
ENDMDL
