MODEL 1
REMARK VINA RESULT: -6.391626432      0.000      0.000
REMARK  13 active torsions:
REMARK  status: ('A' for Active; 'I' for Inactive)
REMARK    1  A    between atoms: N1_1  and  C1_5 
REMARK    2  A    between atoms: C1_5  and  C2_6 
REMARK    3  A    between atoms: C2_6  and  N3_11 
REMARK    4  A    between atoms: N2_7  and  O1_9 
REMARK    5  A    between atoms: N3_11  and  C3_13 
REMARK    6  A    between atoms: C3_13  and  C4_14 
REMARK    7  A    between atoms: C4_14  and  C5_15 
REMARK    8  A    between atoms: C5_15  and  C6_16 
REMARK    9  A    between atoms: C6_16  and  C7_17 
REMARK   10  A    between atoms: C7_17  and  C8_18 
REMARK   11  A    between atoms: C8_18  and  C9_19 
REMARK   12  A    between atoms: C9_19  and  C10_20 
REMARK   13  A    between atoms: C10_20  and  N4_21 
ROOT
HETATM    1  C2  UNL     1       9.179  18.367  60.253  1.00  0.00     0.133 C 
HETATM    2  N2  UNL     1       8.447  19.095  59.512  1.00  0.00    -0.255 N 
ATOM      3  H2  UNL     1       8.586  18.974  58.508  1.00  0.00     0.195 HD
ENDROOT
BRANCH   1   4
HETATM    4  C1  UNL     1       9.153  18.366  61.731  1.00  0.00     0.182 C 
HETATM    5  C15 UNL     1       9.884  19.596  62.282  1.00  0.00     0.047 C 
HETATM    6  C16 UNL     1      11.279  19.214  62.647  1.00  0.00     0.003 C 
HETATM    7  C17 UNL     1      11.224  18.387  63.927  1.00  0.00     0.000 C 
HETATM    8  C18 UNL     1      10.093  17.375  63.821  1.00  0.00     0.003 C 
HETATM    9  C19 UNL     1       9.738  17.150  62.349  1.00  0.00     0.047 C 
BRANCH   4  10
HETATM   10  N1  UNL     1       7.756  18.579  62.102  1.00  0.00    -0.063 N 
ATOM     11  H13 UNL     1       7.480  19.562  62.111  1.00  0.00     0.275 HD
ATOM     12  H12 UNL     1       7.093  18.272  61.391  1.00  0.00     0.275 HD
ATOM     13  H11 UNL     1       7.636  18.114  63.001  1.00  0.00     0.275 HD
ENDBRANCH   4  10
ENDBRANCH   1   4
BRANCH   1  14
HETATM   14  N3  UNL     1      10.118  17.490  59.586  1.00  0.00    -0.376 N 
ATOM     15  H3  UNL     1      10.573  16.748  60.118  1.00  0.00     0.160 HD
BRANCH  14  16
HETATM   16  C3  UNL     1      10.424  17.645  58.187  1.00  0.00     0.121 C 
BRANCH  16  17
HETATM   17  C4  UNL     1      11.819  17.263  57.839  1.00  0.00     0.020 C 
BRANCH  17  18
HETATM   18  C5  UNL     1      12.677  18.477  57.644  1.00  0.00     0.002 C 
BRANCH  18  19
HETATM   19  C6  UNL     1      13.220  19.055  58.930  1.00  0.00     0.004 C 
BRANCH  19  20
HETATM   20  C7  UNL     1      12.810  20.463  59.067  1.00  0.00     0.027 C 
BRANCH  20  21
HETATM   21  C8  UNL     1      13.298  21.460  58.115  1.00  0.00    -0.029 C 
BRANCH  21  22
HETATM   22  C9  UNL     1      14.730  21.680  57.833  1.00  0.00    -0.001 C 
BRANCH  22  23
HETATM   23  C10 UNL     1      15.196  22.267  56.578  1.00  0.00     0.299 C 
BRANCH  23  24
HETATM   24  N4  UNL     1      16.014  21.313  55.814  1.00  0.00     0.091 N 
HETATM   25  C11 UNL     1      15.364  21.067  54.533  1.00  0.00     0.273 C 
HETATM   26  C12 UNL     1      16.218  21.711  53.466  1.00  0.00     0.032 C 
HETATM   27  C13 UNL     1      17.082  22.646  54.286  1.00  0.00     0.032 C 
HETATM   28  C14 UNL     1      17.330  21.765  55.519  1.00  0.00     0.273 C 
ENDBRANCH  23  24
ENDBRANCH  22  23
ENDBRANCH  21  22
ENDBRANCH  20  21
ENDBRANCH  19  20
ENDBRANCH  18  19
ENDBRANCH  17  18
ENDBRANCH  16  17
ENDBRANCH  14  16
ENDBRANCH   1  14
BRANCH   2  29
HETATM   29  O1  UNL     1       7.512  20.006  59.860  1.00  0.00    -0.288 OA
ATOM     30  H1  UNL     1       6.567  19.964  59.772  1.00  0.00     0.244 HD
ENDBRANCH   2  29
TORSDOF 13
ENDMDL
MODEL 2
REMARK VINA RESULT: -6.196304323      3.609      7.549
REMARK  13 active torsions:
REMARK  status: ('A' for Active; 'I' for Inactive)
REMARK    1  A    between atoms: N1_1  and  C1_5 
REMARK    2  A    between atoms: C1_5  and  C2_6 
REMARK    3  A    between atoms: C2_6  and  N3_11 
REMARK    4  A    between atoms: N2_7  and  O1_9 
REMARK    5  A    between atoms: N3_11  and  C3_13 
REMARK    6  A    between atoms: C3_13  and  C4_14 
REMARK    7  A    between atoms: C4_14  and  C5_15 
REMARK    8  A    between atoms: C5_15  and  C6_16 
REMARK    9  A    between atoms: C6_16  and  C7_17 
REMARK   10  A    between atoms: C7_17  and  C8_18 
REMARK   11  A    between atoms: C8_18  and  C9_19 
REMARK   12  A    between atoms: C9_19  and  C10_20 
REMARK   13  A    between atoms: C10_20  and  N4_21 
ROOT
HETATM    1  C2  UNL     1      12.459  20.009  59.564  1.00  0.00     0.133 C 
HETATM    2  N2  UNL     1      13.541  20.664  59.683  1.00  0.00    -0.255 N 
ATOM      3  H2  UNL     1      13.729  21.029  60.617  1.00  0.00     0.195 HD
ENDROOT
BRANCH   1   4
HETATM    4  C1  UNL     1      11.979  19.386  58.312  1.00  0.00     0.182 C 
HETATM    5  C15 UNL     1      10.589  18.771  58.516  1.00  0.00     0.047 C 
HETATM    6  C16 UNL     1      10.733  17.311  58.784  1.00  0.00     0.003 C 
HETATM    7  C17 UNL     1      11.098  16.623  57.474  1.00  0.00     0.000 C 
HETATM    8  C18 UNL     1      12.165  17.439  56.759  1.00  0.00     0.003 C 
HETATM    9  C19 UNL     1      12.883  18.343  57.766  1.00  0.00     0.047 C 
BRANCH   4  10
HETATM   10  N1  UNL     1      11.754  20.490  57.383  1.00  0.00    -0.063 N 
ATOM     11  H13 UNL     1      12.507  20.615  56.706  1.00  0.00     0.275 HD
ATOM     12  H12 UNL     1      11.012  20.310  56.706  1.00  0.00     0.275 HD
ATOM     13  H11 UNL     1      11.586  21.311  57.964  1.00  0.00     0.275 HD
ENDBRANCH   4  10
ENDBRANCH   1   4
BRANCH   1  14
HETATM   14  N3  UNL     1      11.634  19.887  60.747  1.00  0.00    -0.376 N 
ATOM     15  H3  UNL     1      10.618  19.887  60.651  1.00  0.00     0.160 HD
BRANCH  14  16
HETATM   16  C3  UNL     1      12.219  19.766  62.058  1.00  0.00     0.121 C 
BRANCH  16  17
HETATM   17  C4  UNL     1      11.399  18.956  63.000  1.00  0.00     0.020 C 
BRANCH  17  18
HETATM   18  C5  UNL     1      10.339  18.189  62.268  1.00  0.00     0.002 C 
BRANCH  18  19
HETATM   19  C6  UNL     1       8.929  18.573  62.656  1.00  0.00     0.004 C 
BRANCH  19  20
HETATM   20  C7  UNL     1       8.250  19.221  61.521  1.00  0.00     0.027 C 
BRANCH  20  21
HETATM   21  C8  UNL     1       7.161  18.527  60.833  1.00  0.00    -0.029 C 
BRANCH  21  22
HETATM   22  C9  UNL     1       6.945  18.603  59.375  1.00  0.00    -0.001 C 
BRANCH  22  23
HETATM   23  C10 UNL     1       5.812  19.319  58.791  1.00  0.00     0.299 C 
BRANCH  23  24
HETATM   24  N4  UNL     1       6.045  20.772  58.787  1.00  0.00     0.091 N 
HETATM   25  C11 UNL     1       6.509  21.163  57.462  1.00  0.00     0.273 C 
HETATM   26  C12 UNL     1       5.399  21.958  56.815  1.00  0.00     0.032 C 
HETATM   27  C13 UNL     1       4.212  21.592  57.682  1.00  0.00     0.032 C 
HETATM   28  C14 UNL     1       4.890  21.557  59.059  1.00  0.00     0.273 C 
ENDBRANCH  23  24
ENDBRANCH  22  23
ENDBRANCH  21  22
ENDBRANCH  20  21
ENDBRANCH  19  20
ENDBRANCH  18  19
ENDBRANCH  17  18
ENDBRANCH  16  17
ENDBRANCH  14  16
ENDBRANCH   1  14
BRANCH   2  29
HETATM   29  O1  UNL     1      14.478  20.949  58.752  1.00  0.00    -0.288 OA
ATOM     30  H1  UNL     1      15.357  20.602  58.655  1.00  0.00     0.244 HD
ENDBRANCH   2  29
TORSDOF 13
ENDMDL
MODEL 3
REMARK VINA RESULT: -6.189200113      3.609      9.708
REMARK  13 active torsions:
REMARK  status: ('A' for Active; 'I' for Inactive)
REMARK    1  A    between atoms: N1_1  and  C1_5 
REMARK    2  A    between atoms: C1_5  and  C2_6 
REMARK    3  A    between atoms: C2_6  and  N3_11 
REMARK    4  A    between atoms: N2_7  and  O1_9 
REMARK    5  A    between atoms: N3_11  and  C3_13 
REMARK    6  A    between atoms: C3_13  and  C4_14 
REMARK    7  A    between atoms: C4_14  and  C5_15 
REMARK    8  A    between atoms: C5_15  and  C6_16 
REMARK    9  A    between atoms: C6_16  and  C7_17 
REMARK   10  A    between atoms: C7_17  and  C8_18 
REMARK   11  A    between atoms: C8_18  and  C9_19 
REMARK   12  A    between atoms: C9_19  and  C10_20 
REMARK   13  A    between atoms: C10_20  and  N4_21 
ROOT
HETATM    1  C2  UNL     1      12.721  20.026  59.246  1.00  0.00     0.133 C 
HETATM    2  N2  UNL     1      13.828  20.650  59.238  1.00  0.00    -0.255 N 
ATOM      3  H2  UNL     1      14.088  21.086  60.123  1.00  0.00     0.195 HD
ENDROOT
BRANCH   1   4
HETATM    4  C1  UNL     1      12.141  19.316  58.086  1.00  0.00     0.182 C 
HETATM    5  C15 UNL     1      10.725  18.823  58.409  1.00  0.00     0.047 C 
HETATM    6  C16 UNL     1      10.786  17.391  58.821  1.00  0.00     0.003 C 
HETATM    7  C17 UNL     1      11.041  16.551  57.575  1.00  0.00     0.000 C 
HETATM    8  C18 UNL     1      12.124  17.214  56.736  1.00  0.00     0.003 C 
HETATM    9  C19 UNL     1      12.947  18.162  57.613  1.00  0.00     0.047 C 
BRANCH   4  10
HETATM   10  N1  UNL     1      11.944  20.334  57.057  1.00  0.00    -0.063 N 
ATOM     11  H13 UNL     1      10.984  20.388  56.713  1.00  0.00     0.275 HD
ATOM     12  H12 UNL     1      12.000  21.289  57.411  1.00  0.00     0.275 HD
ATOM     13  H11 UNL     1      12.627  20.127  56.330  1.00  0.00     0.275 HD
ENDBRANCH   4  10
ENDBRANCH   1   4
BRANCH   1  14
HETATM   14  N3  UNL     1      11.972  20.036  60.484  1.00  0.00    -0.376 N 
ATOM     15  H3  UNL     1      10.992  20.317  60.473  1.00  0.00     0.160 HD
BRANCH  14  16
HETATM   16  C3  UNL     1      12.584  19.656  61.732  1.00  0.00     0.121 C 
BRANCH  16  17
HETATM   17  C4  UNL     1      11.601  19.273  62.782  1.00  0.00     0.020 C 
BRANCH  17  18
HETATM   18  C5  UNL     1      10.246  19.031  62.187  1.00  0.00     0.002 C 
BRANCH  18  19
HETATM   19  C6  UNL     1       9.796  17.590  62.254  1.00  0.00     0.004 C 
BRANCH  19  20
HETATM   20  C7  UNL     1       9.467  17.225  63.643  1.00  0.00     0.027 C 
BRANCH  20  21
HETATM   21  C8  UNL     1      10.229  16.175  64.319  1.00  0.00    -0.029 C 
BRANCH  21  22
HETATM   22  C9  UNL     1       9.770  14.776  64.418  1.00  0.00    -0.001 C 
BRANCH  22  23
HETATM   23  C10 UNL     1       9.320  14.191  65.681  1.00  0.00     0.299 C 
BRANCH  23  24
HETATM   24  N4  UNL     1       7.897  14.474  65.922  1.00  0.00     0.091 N 
HETATM   25  C11 UNL     1       7.142  14.096  64.735  1.00  0.00     0.273 C 
HETATM   26  C12 UNL     1       6.327  12.874  65.093  1.00  0.00     0.032 C 
HETATM   27  C13 UNL     1       7.018  12.403  66.355  1.00  0.00     0.032 C 
HETATM   28  C14 UNL     1       7.327  13.756  67.010  1.00  0.00     0.273 C 
ENDBRANCH  23  24
ENDBRANCH  22  23
ENDBRANCH  21  22
ENDBRANCH  20  21
ENDBRANCH  19  20
ENDBRANCH  18  19
ENDBRANCH  17  18
ENDBRANCH  16  17
ENDBRANCH  14  16
ENDBRANCH   1  14
BRANCH   2  29
HETATM   29  O1  UNL     1      14.710  20.820  58.229  1.00  0.00    -0.288 OA
ATOM     30  H1  UNL     1      15.649  20.677  58.218  1.00  0.00     0.244 HD
ENDBRANCH   2  29
TORSDOF 13
ENDMDL
MODEL 4
REMARK VINA RESULT: -6.184192209      3.515      7.794
REMARK  13 active torsions:
REMARK  status: ('A' for Active; 'I' for Inactive)
REMARK    1  A    between atoms: N1_1  and  C1_5 
REMARK    2  A    between atoms: C1_5  and  C2_6 
REMARK    3  A    between atoms: C2_6  and  N3_11 
REMARK    4  A    between atoms: N2_7  and  O1_9 
REMARK    5  A    between atoms: N3_11  and  C3_13 
REMARK    6  A    between atoms: C3_13  and  C4_14 
REMARK    7  A    between atoms: C4_14  and  C5_15 
REMARK    8  A    between atoms: C5_15  and  C6_16 
REMARK    9  A    between atoms: C6_16  and  C7_17 
REMARK   10  A    between atoms: C7_17  and  C8_18 
REMARK   11  A    between atoms: C8_18  and  C9_19 
REMARK   12  A    between atoms: C9_19  and  C10_20 
REMARK   13  A    between atoms: C10_20  and  N4_21 
ROOT
HETATM    1  C2  UNL     1      12.645  20.008  59.372  1.00  0.00     0.133 C 
HETATM    2  N2  UNL     1      13.763  20.608  59.428  1.00  0.00    -0.255 N 
ATOM      3  H2  UNL     1      13.990  21.026  60.331  1.00  0.00     0.195 HD
ENDROOT
BRANCH   1   4
HETATM    4  C1  UNL     1      12.106  19.329  58.175  1.00  0.00     0.182 C 
HETATM    5  C15 UNL     1      10.683  18.822  58.437  1.00  0.00     0.047 C 
HETATM    6  C16 UNL     1      10.738  17.379  58.811  1.00  0.00     0.003 C 
HETATM    7  C17 UNL     1      11.038  16.575  57.551  1.00  0.00     0.000 C 
HETATM    8  C18 UNL     1      12.144  17.266  56.767  1.00  0.00     0.003 C 
HETATM    9  C19 UNL     1      12.933  18.192  57.697  1.00  0.00     0.047 C 
BRANCH   4  10
HETATM   10  N1  UNL     1      11.938  20.374  57.169  1.00  0.00    -0.063 N 
ATOM     11  H13 UNL     1      10.998  20.416  56.775  1.00  0.00     0.275 HD
ATOM     12  H12 UNL     1      11.951  21.319  57.554  1.00  0.00     0.275 HD
ATOM     13  H11 UNL     1      12.665  20.207  56.473  1.00  0.00     0.275 HD
ENDBRANCH   4  10
ENDBRANCH   1   4
BRANCH   1  14
HETATM   14  N3  UNL     1      11.837  20.016  60.573  1.00  0.00    -0.376 N 
ATOM     15  H3  UNL     1      10.855  20.284  60.514  1.00  0.00     0.160 HD
BRANCH  14  16
HETATM   16  C3  UNL     1      12.393  19.653  61.852  1.00  0.00     0.121 C 
BRANCH  16  17
HETATM   17  C4  UNL     1      11.368  19.243  62.850  1.00  0.00     0.020 C 
BRANCH  17  18
HETATM   18  C5  UNL     1      10.069  18.906  62.179  1.00  0.00     0.002 C 
BRANCH  18  19
HETATM   19  C6  UNL     1       9.630  17.475  62.382  1.00  0.00     0.004 C 
BRANCH  19  20
HETATM   20  C7  UNL     1       8.506  17.419  63.333  1.00  0.00     0.027 C 
BRANCH  20  21
HETATM   21  C8  UNL     1       7.478  18.458  63.307  1.00  0.00    -0.029 C 
BRANCH  21  22
HETATM   22  C9  UNL     1       6.185  18.302  62.612  1.00  0.00    -0.001 C 
BRANCH  22  23
HETATM   23  C10 UNL     1       5.767  19.196  61.533  1.00  0.00     0.299 C 
BRANCH  23  24
HETATM   24  N4  UNL     1       5.819  18.518  60.229  1.00  0.00     0.091 N 
HETATM   25  C11 UNL     1       4.908  19.198  59.317  1.00  0.00     0.273 C 
HETATM   26  C12 UNL     1       5.753  19.914  58.289  1.00  0.00     0.032 C 
HETATM   27  C13 UNL     1       7.111  19.925  58.961  1.00  0.00     0.032 C 
HETATM   28  C14 UNL     1       7.099  18.531  59.606  1.00  0.00     0.273 C 
ENDBRANCH  23  24
ENDBRANCH  22  23
ENDBRANCH  21  22
ENDBRANCH  20  21
ENDBRANCH  19  20
ENDBRANCH  18  19
ENDBRANCH  17  18
ENDBRANCH  16  17
ENDBRANCH  14  16
ENDBRANCH   1  14
BRANCH   2  29
HETATM   29  O1  UNL     1      14.696  20.774  58.465  1.00  0.00    -0.288 OA
ATOM     30  H1  UNL     1      15.629  20.597  58.492  1.00  0.00     0.244 HD
ENDBRANCH   2  29
TORSDOF 13
ENDMDL
MODEL 5
REMARK VINA RESULT: -6.168380974      1.207      1.607
REMARK  13 active torsions:
REMARK  status: ('A' for Active; 'I' for Inactive)
REMARK    1  A    between atoms: N1_1  and  C1_5 
REMARK    2  A    between atoms: C1_5  and  C2_6 
REMARK    3  A    between atoms: C2_6  and  N3_11 
REMARK    4  A    between atoms: N2_7  and  O1_9 
REMARK    5  A    between atoms: N3_11  and  C3_13 
REMARK    6  A    between atoms: C3_13  and  C4_14 
REMARK    7  A    between atoms: C4_14  and  C5_15 
REMARK    8  A    between atoms: C5_15  and  C6_16 
REMARK    9  A    between atoms: C6_16  and  C7_17 
REMARK   10  A    between atoms: C7_17  and  C8_18 
REMARK   11  A    between atoms: C8_18  and  C9_19 
REMARK   12  A    between atoms: C9_19  and  C10_20 
REMARK   13  A    between atoms: C10_20  and  N4_21 
ROOT
HETATM    1  C2  UNL     1       8.937  18.669  61.954  1.00  0.00     0.133 C 
HETATM    2  N2  UNL     1       7.770  18.166  61.918  1.00  0.00    -0.255 N 
ATOM      3  H2  UNL     1       7.393  18.008  60.983  1.00  0.00     0.195 HD
ENDROOT
BRANCH   1   4
HETATM    4  C1  UNL     1       9.686  18.984  63.189  1.00  0.00     0.182 C 
HETATM    5  C15 UNL     1      10.799  19.997  62.900  1.00  0.00     0.047 C 
HETATM    6  C16 UNL     1      12.088  19.269  62.712  1.00  0.00     0.003 C 
HETATM    7  C17 UNL     1      12.563  18.790  64.079  1.00  0.00     0.000 C 
HETATM    8  C18 UNL     1      11.387  18.198  64.841  1.00  0.00     0.003 C 
HETATM    9  C19 UNL     1      10.283  17.800  63.856  1.00  0.00     0.047 C 
BRANCH   4  10
HETATM   10  N1  UNL     1       8.750  19.709  64.044  1.00  0.00    -0.063 N 
ATOM     11  H13 UNL     1       9.205  20.321  64.722  1.00  0.00     0.275 HD
ATOM     12  H12 UNL     1       8.228  20.437  63.555  1.00  0.00     0.275 HD
ATOM     13  H11 UNL     1       8.157  18.997  64.471  1.00  0.00     0.275 HD
ENDBRANCH   4  10
ENDBRANCH   1   4
BRANCH   1  14
HETATM   14  N3  UNL     1       9.560  18.970  60.682  1.00  0.00    -0.376 N 
ATOM     15  H3  UNL     1       9.705  19.943  60.415  1.00  0.00     0.160 HD
BRANCH  14  16
HETATM   16  C3  UNL     1       9.979  17.922  59.787  1.00  0.00     0.121 C 
BRANCH  16  17
HETATM   17  C4  UNL     1      10.604  18.426  58.534  1.00  0.00     0.020 C 
BRANCH  17  18
HETATM   18  C5  UNL     1      11.812  17.616  58.172  1.00  0.00     0.002 C 
BRANCH  18  19
HETATM   19  C6  UNL     1      13.002  18.446  57.750  1.00  0.00     0.004 C 
BRANCH  19  20
HETATM   20  C7  UNL     1      13.363  19.394  58.819  1.00  0.00     0.027 C 
BRANCH  20  21
HETATM   21  C8  UNL     1      14.035  20.648  58.482  1.00  0.00    -0.029 C 
BRANCH  21  22
HETATM   22  C9  UNL     1      14.230  21.118  57.096  1.00  0.00    -0.001 C 
BRANCH  22  23
HETATM   23  C10 UNL     1      15.449  21.802  56.669  1.00  0.00     0.299 C 
BRANCH  23  24
HETATM   24  N4  UNL     1      16.157  21.032  55.634  1.00  0.00     0.091 N 
HETATM   25  C11 UNL     1      15.394  21.111  54.395  1.00  0.00     0.273 C 
HETATM   26  C12 UNL     1      16.187  21.965  53.434  1.00  0.00     0.032 C 
HETATM   27  C13 UNL     1      17.158  22.659  54.366  1.00  0.00     0.032 C 
HETATM   28  C14 UNL     1      17.465  21.507  55.335  1.00  0.00     0.273 C 
ENDBRANCH  23  24
ENDBRANCH  22  23
ENDBRANCH  21  22
ENDBRANCH  20  21
ENDBRANCH  19  20
ENDBRANCH  18  19
ENDBRANCH  17  18
ENDBRANCH  16  17
ENDBRANCH  14  16
ENDBRANCH   1  14
BRANCH   2  29
HETATM   29  O1  UNL     1       6.957  17.812  62.936  1.00  0.00    -0.288 OA
ATOM     30  H1  UNL     1       6.451  18.362  63.523  1.00  0.00     0.244 HD
ENDBRANCH   2  29
TORSDOF 13
ENDMDL
