MODEL 1
REMARK VINA RESULT: -4.429864338      0.000      0.000
REMARK  3 active torsions:
REMARK  status: ('A' for Active; 'I' for Inactive)
REMARK    1  A    between atoms: O1_2  and  C2_3 
REMARK    2  A    between atoms: C5_6  and  C6_7 
REMARK    3  A    between atoms: C7_8  and  C8_9 
ROOT
HETATM    1  C6  UNL     1      21.418  10.026  60.795  1.00  0.00    -0.060 C 
HETATM    2  C7  UNL     1      21.298  10.593  59.737  1.00  0.00    -0.060 C 
ENDROOT
BRANCH   1   3
HETATM    3  C5  UNL     1      21.583   9.342  62.051  1.00  0.00     0.029 A 
HETATM    4  C4  UNL     1      20.646   9.454  63.039  1.00  0.00     0.024 A 
HETATM    5  C3  UNL     1      20.812   8.799  64.232  1.00  0.00     0.039 A 
HETATM    6  C2  UNL     1      21.918   8.019  64.465  1.00  0.00     0.079 A 
HETATM    7  C22 UNL     1      22.876   7.904  63.457  1.00  0.00     0.009 A 
HETATM    8  C17 UNL     1      22.712   8.561  62.255  1.00  0.00    -0.004 A 
HETATM    9  C21 UNL     1      24.014   7.139  63.614  1.00  0.00     0.015 A 
HETATM   10  C18 UNL     1      23.675   8.437  61.259  1.00  0.00     0.014 A 
HETATM   11  C19 UNL     1      24.804   7.663  61.448  1.00  0.00     0.001 A 
HETATM   12  C20 UNL     1      24.971   7.005  62.648  1.00  0.00     0.001 A 
BRANCH   6  13
HETATM   13  O1  UNL     1      22.125   7.339  65.657  1.00  0.00    -0.355 OA
HETATM   14  C1  UNL     1      21.563   6.061  65.796  1.00  0.00     0.210 C 
ENDBRANCH   6  13
ENDBRANCH   1   3
BRANCH   2  15
HETATM   15  C8  UNL     1      21.179  11.263  58.471  1.00  0.00     0.034 A 
HETATM   16  C9  UNL     1      19.964  11.407  57.827  1.00  0.00     0.109 A 
HETATM   17  N1  UNL     1      19.851  12.034  56.644  1.00  0.00    -0.364 N 
HETATM   18  C10 UNL     1      20.926  12.561  56.018  1.00  0.00     0.042 A 
ATOM     19  H1  UNL     1      18.932  12.115  56.209  1.00  0.00     0.165 HD
HETATM   20  C11 UNL     1      20.821  13.206  54.803  1.00  0.00     0.030 A 
HETATM   21  C15 UNL     1      22.157  12.450  56.609  1.00  0.00    -0.008 A 
HETATM   22  C12 UNL     1      21.943  13.729  54.199  1.00  0.00     0.002 A 
HETATM   23  C13 UNL     1      23.202  13.637  54.765  1.00  0.00     0.001 A 
HETATM   24  C14 UNL     1      23.276  12.986  55.979  1.00  0.00     0.014 A 
HETATM   25  C16 UNL     1      22.275  11.803  57.830  1.00  0.00     0.035 A 
ENDBRANCH   2  15
TORSDOF 3
ENDMDL
MODEL 2
REMARK VINA RESULT: -3.652347346      0.984      1.562
REMARK  3 active torsions:
REMARK  status: ('A' for Active; 'I' for Inactive)
REMARK    1  A    between atoms: O1_2  and  C2_3 
REMARK    2  A    between atoms: C5_6  and  C6_7 
REMARK    3  A    between atoms: C7_8  and  C8_9 
ROOT
HETATM    1  C6  UNL     1      22.057  10.347  60.885  1.00  0.00    -0.060 C 
HETATM    2  C7  UNL     1      22.133  10.961  59.850  1.00  0.00    -0.060 C 
ENDROOT
BRANCH   1   3
HETATM    3  C5  UNL     1      21.976   9.594  62.110  1.00  0.00     0.029 A 
HETATM    4  C4  UNL     1      20.969   9.820  63.006  1.00  0.00     0.024 A 
HETATM    5  C3  UNL     1      20.901   9.099  64.170  1.00  0.00     0.039 A 
HETATM    6  C2  UNL     1      21.835   8.136  64.464  1.00  0.00     0.079 A 
HETATM    7  C22 UNL     1      22.863   7.905  63.550  1.00  0.00     0.009 A 
HETATM    8  C17 UNL     1      22.936   8.629  62.378  1.00  0.00    -0.004 A 
HETATM    9  C21 UNL     1      23.840   6.957  63.773  1.00  0.00     0.015 A 
HETATM   10  C18 UNL     1      23.966   8.388  61.475  1.00  0.00     0.014 A 
HETATM   11  C19 UNL     1      24.929   7.430  61.729  1.00  0.00     0.001 A 
HETATM   12  C20 UNL     1      24.860   6.704  62.899  1.00  0.00     0.001 A 
BRANCH   6  13
HETATM   13  O1  UNL     1      21.803   7.383  65.630  1.00  0.00    -0.355 OA
HETATM   14  C1  UNL     1      21.246   6.096  65.570  1.00  0.00     0.210 C 
ENDBRANCH   6  13
ENDBRANCH   1   3
BRANCH   2  15
HETATM   15  C8  UNL     1      22.238  11.675  58.607  1.00  0.00     0.034 A 
HETATM   16  C9  UNL     1      23.418  12.265  58.195  1.00  0.00     0.109 A 
HETATM   17  N1  UNL     1      23.517  12.932  57.032  1.00  0.00    -0.364 N 
HETATM   18  C10 UNL     1      22.460  13.063  56.200  1.00  0.00     0.042 A 
ATOM     19  H1  UNL     1      24.410  13.350  56.772  1.00  0.00     0.165 HD
HETATM   20  C11 UNL     1      22.551  13.747  55.005  1.00  0.00     0.030 A 
HETATM   21  C15 UNL     1      21.264  12.499  56.555  1.00  0.00    -0.008 A 
HETATM   22  C12 UNL     1      21.449  13.856  54.186  1.00  0.00     0.002 A 
HETATM   23  C13 UNL     1      20.225  13.300  54.511  1.00  0.00     0.001 A 
HETATM   24  C14 UNL     1      20.164  12.623  55.712  1.00  0.00     0.014 A 
HETATM   25  C16 UNL     1      21.161  11.810  57.755  1.00  0.00     0.035 A 
ENDBRANCH   2  15
TORSDOF 3
ENDMDL
MODEL 3
REMARK VINA RESULT: -3.644512296      1.133      1.538
REMARK  3 active torsions:
REMARK  status: ('A' for Active; 'I' for Inactive)
REMARK    1  A    between atoms: O1_2  and  C2_3 
REMARK    2  A    between atoms: C5_6  and  C6_7 
REMARK    3  A    between atoms: C7_8  and  C8_9 
ROOT
HETATM    1  C6  UNL     1      21.705   9.751  60.362  1.00  0.00    -0.060 C 
HETATM    2  C7  UNL     1      21.705  10.193  59.239  1.00  0.00    -0.060 C 
ENDROOT
BRANCH   1   3
HETATM    3  C5  UNL     1      21.715   9.202  61.692  1.00  0.00     0.029 A 
HETATM    4  C4  UNL     1      20.679   9.432  62.553  1.00  0.00     0.024 A 
HETATM    5  C3  UNL     1      20.699   8.906  63.819  1.00  0.00     0.039 A 
HETATM    6  C2  UNL     1      21.752   8.138  64.253  1.00  0.00     0.079 A 
HETATM    7  C22 UNL     1      22.809   7.902  63.375  1.00  0.00     0.009 A 
HETATM    8  C17 UNL     1      22.794   8.430  62.100  1.00  0.00    -0.004 A 
HETATM    9  C21 UNL     1      23.903   7.143  63.734  1.00  0.00     0.015 A 
HETATM   10  C18 UNL     1      23.856   8.187  61.235  1.00  0.00     0.014 A 
HETATM   11  C19 UNL     1      24.936   7.422  61.627  1.00  0.00     0.001 A 
HETATM   12  C20 UNL     1      24.955   6.892  62.899  1.00  0.00     0.001 A 
BRANCH   6  13
HETATM   13  O1  UNL     1      21.810   7.586  65.525  1.00  0.00    -0.355 OA
HETATM   14  C1  UNL     1      21.288   6.297  65.711  1.00  0.00     0.210 C 
ENDBRANCH   6  13
ENDBRANCH   1   3
BRANCH   2  15
HETATM   15  C8  UNL     1      21.720  10.702  57.895  1.00  0.00     0.034 A 
HETATM   16  C9  UNL     1      22.650  10.286  56.961  1.00  0.00     0.109 A 
HETATM   17  N1  UNL     1      22.664  10.761  55.704  1.00  0.00    -0.364 N 
HETATM   18  C10 UNL     1      21.763  11.676  55.284  1.00  0.00     0.042 A 
ATOM     19  H1  UNL     1      23.370  10.422  55.051  1.00  0.00     0.165 HD
HETATM   20  C11 UNL     1      21.768  12.170  53.996  1.00  0.00     0.030 A 
HETATM   21  C15 UNL     1      20.815  12.125  56.165  1.00  0.00    -0.008 A 
HETATM   22  C12 UNL     1      20.831  13.102  53.610  1.00  0.00     0.002 A 
HETATM   23  C13 UNL     1      19.860  13.580  54.471  1.00  0.00     0.001 A 
HETATM   24  C14 UNL     1      19.879  13.069  55.752  1.00  0.00     0.014 A 
HETATM   25  C16 UNL     1      20.800  11.636  57.463  1.00  0.00     0.035 A 
ENDBRANCH   2  15
TORSDOF 3
ENDMDL
MODEL 4
REMARK VINA RESULT: -3.487280849      1.355      2.876
REMARK  3 active torsions:
REMARK  status: ('A' for Active; 'I' for Inactive)
REMARK    1  A    between atoms: O1_2  and  C2_3 
REMARK    2  A    between atoms: C5_6  and  C6_7 
REMARK    3  A    between atoms: C7_8  and  C8_9 
ROOT
HETATM    1  C6  UNL     1      23.139   9.264  60.422  1.00  0.00    -0.060 C 
HETATM    2  C7  UNL     1      23.099   9.896  59.396  1.00  0.00    -0.060 C 
ENDROOT
BRANCH   1   3
HETATM    3  C5  UNL     1      23.170   8.523  61.656  1.00  0.00     0.029 A 
HETATM    4  C4  UNL     1      24.163   7.619  61.906  1.00  0.00     0.024 A 
HETATM    5  C3  UNL     1      24.184   6.918  63.084  1.00  0.00     0.039 A 
HETATM    6  C2  UNL     1      23.213   7.104  64.038  1.00  0.00     0.079 A 
HETATM    7  C22 UNL     1      22.198   8.026  63.783  1.00  0.00     0.009 A 
HETATM    8  C17 UNL     1      22.174   8.734  62.599  1.00  0.00    -0.004 A 
HETATM    9  C21 UNL     1      21.186   8.270  64.689  1.00  0.00     0.015 A 
HETATM   10  C18 UNL     1      21.156   9.651  62.358  1.00  0.00     0.014 A 
HETATM   11  C19 UNL     1      20.158   9.870  63.288  1.00  0.00     0.001 A 
HETATM   12  C20 UNL     1      20.178   9.166  64.472  1.00  0.00     0.001 A 
BRANCH   6  13
HETATM   13  O1  UNL     1      23.196   6.415  65.243  1.00  0.00    -0.355 OA
HETATM   14  C1  UNL     1      22.898   7.134  66.411  1.00  0.00     0.210 C 
ENDBRANCH   6  13
ENDBRANCH   1   3
BRANCH   2  15
HETATM   15  C8  UNL     1      23.030  10.661  58.180  1.00  0.00     0.034 A 
HETATM   16  C9  UNL     1      24.144  10.896  57.396  1.00  0.00     0.109 A 
HETATM   17  N1  UNL     1      24.081  11.610  56.259  1.00  0.00    -0.364 N 
HETATM   18  C10 UNL     1      22.917  12.140  55.821  1.00  0.00     0.042 A 
ATOM     19  H1  UNL     1      24.930  11.755  55.714  1.00  0.00     0.165 HD
HETATM   20  C11 UNL     1      22.842  12.875  54.656  1.00  0.00     0.030 A 
HETATM   21  C15 UNL     1      21.780  11.940  56.557  1.00  0.00    -0.008 A 
HETATM   22  C12 UNL     1      21.635  13.397  54.246  1.00  0.00     0.002 A 
HETATM   23  C13 UNL     1      20.466  13.217  54.962  1.00  0.00     0.001 A 
HETATM   24  C14 UNL     1      20.572  12.478  56.122  1.00  0.00     0.014 A 
HETATM   25  C16 UNL     1      21.844  11.203  57.730  1.00  0.00     0.035 A 
ENDBRANCH   2  15
TORSDOF 3
ENDMDL
MODEL 5
REMARK VINA RESULT: -2.333857617      3.332      8.526
REMARK  3 active torsions:
REMARK  status: ('A' for Active; 'I' for Inactive)
REMARK    1  A    between atoms: O1_2  and  C2_3 
REMARK    2  A    between atoms: C5_6  and  C6_7 
REMARK    3  A    between atoms: C7_8  and  C8_9 
ROOT
HETATM    1  C6  UNL     1      21.509  10.481  59.185  1.00  0.00    -0.060 C 
HETATM    2  C7  UNL     1      21.424   9.981  60.280  1.00  0.00    -0.060 C 
ENDROOT
BRANCH   1   3
HETATM    3  C5  UNL     1      21.625  11.059  57.872  1.00  0.00     0.029 A 
HETATM    4  C4  UNL     1      20.539  11.605  57.249  1.00  0.00     0.024 A 
HETATM    5  C3  UNL     1      20.660  12.154  55.998  1.00  0.00     0.039 A 
HETATM    6  C2  UNL     1      21.868  12.169  55.343  1.00  0.00     0.079 A 
HETATM    7  C22 UNL     1      22.977  11.612  55.979  1.00  0.00     0.009 A 
HETATM    8  C17 UNL     1      22.859  11.059  57.238  1.00  0.00    -0.004 A 
HETATM    9  C21 UNL     1      24.223  11.587  55.388  1.00  0.00     0.015 A 
HETATM   10  C18 UNL     1      23.974  10.506  57.861  1.00  0.00     0.014 A 
HETATM   11  C19 UNL     1      25.208  10.499  57.240  1.00  0.00     0.001 A 
HETATM   12  C20 UNL     1      25.330  11.050  55.983  1.00  0.00     0.001 A 
BRANCH   6  13
HETATM   13  O1  UNL     1      22.034  12.714  54.077  1.00  0.00    -0.355 OA
HETATM   14  C1  UNL     1      21.343  12.124  53.007  1.00  0.00     0.210 C 
ENDBRANCH   6  13
ENDBRANCH   1   3
BRANCH   2  15
HETATM   15  C8  UNL     1      21.337   9.367  61.577  1.00  0.00     0.034 A 
HETATM   16  C9  UNL     1      20.220   9.502  62.381  1.00  0.00     0.109 A 
HETATM   17  N1  UNL     1      20.137   8.928  63.593  1.00  0.00    -0.364 N 
HETATM   18  C10 UNL     1      21.148   8.184  64.093  1.00  0.00     0.042 A 
ATOM     19  H1  UNL     1      19.292   9.057  64.148  1.00  0.00     0.165 HD
HETATM   20  C11 UNL     1      21.073   7.591  65.337  1.00  0.00     0.030 A 
HETATM   21  C15 UNL     1      22.280   8.014  63.342  1.00  0.00    -0.008 A 
HETATM   22  C12 UNL     1      22.127   6.840  65.808  1.00  0.00     0.002 A 
HETATM   23  C13 UNL     1      23.286   6.646  65.079  1.00  0.00     0.001 A 
HETATM   24  C14 UNL     1      23.333   7.251  63.840  1.00  0.00     0.014 A 
HETATM   25  C16 UNL     1      22.367   8.606  62.090  1.00  0.00     0.035 A 
ENDBRANCH   2  15
TORSDOF 3
ENDMDL
