MODEL 1
REMARK VINA RESULT: -6.611075677      0.000      0.000
REMARK  4 active torsions:
REMARK  status: ('A' for Active; 'I' for Inactive)
REMARK    1  A    between atoms: O1_2  and  N1_3 
REMARK    2  A    between atoms: N1_3  and  C2_5 
REMARK    3  A    between atoms: C3_8  and  N3_9 
REMARK       I    between atoms: N5_14  and  C4_15 
REMARK       I    between atoms: C4_15  and  N6_17 
REMARK    4  A    between atoms: C8_21  and  C9_22 
ROOT
HETATM    1  C2  UNL     1     -20.249  72.987  63.877  1.00  0.00     0.742 A 
HETATM    2  N2  UNL     1     -19.031  73.456  63.607  1.00  0.00    -0.018 N 
ATOM      3  H2  UNL     1     -18.161  72.925  63.593  1.00  0.00     0.203 HD
HETATM    4  C3  UNL     1     -19.178  74.752  63.361  1.00  0.00     0.706 A 
HETATM    5  N4  UNL     1     -20.487  75.070  63.482  1.00  0.00    -0.106 N 
ATOM      6  H4  UNL     1     -20.877  76.002  63.347  1.00  0.00     0.207 HD
HETATM    7  N5  UNL     1     -21.183  73.996  63.801  1.00  0.00    -0.015 N 
HETATM    8  C4  UNL     1     -22.574  73.851  64.028  1.00  0.00     0.360 C 
HETATM    9  O2  UNL     1     -22.960  72.662  64.330  1.00  0.00    -0.244 OA
HETATM   10  N6  UNL     1     -23.546  74.868  63.956  1.00  0.00    -0.317 N 
HETATM   11  C5  UNL     1     -23.435  76.246  63.652  1.00  0.00     0.129 C 
HETATM   12  C6  UNL     1     -24.796  76.863  63.752  1.00  0.00     0.022 C 
HETATM   13  C7  UNL     1     -25.563  75.915  64.605  1.00  0.00     0.038 C 
HETATM   14  C8  UNL     1     -24.972  74.583  64.220  1.00  0.00     0.190 C 
ENDROOT
BRANCH   1  15
HETATM   15  N1  UNL     1     -20.529  71.753  64.170  1.00  0.00    -0.094 N 
ATOM     16  H1  UNL     1     -21.436  71.357  63.924  1.00  0.00     0.213 HD
BRANCH  15  17
HETATM   17  O1  UNL     1     -19.602  70.998  64.806  1.00  0.00    -0.271 OA
HETATM   18  C1  UNL     1     -19.805  70.379  66.060  1.00  0.00     0.238 C 
ENDBRANCH  15  17
ENDBRANCH   1  15
BRANCH   4  19
HETATM   19  N3  UNL     1     -18.237  75.606  63.052  1.00  0.00    -0.233 N 
ATOM     20  H32 UNL     1     -17.847  75.719  62.116  1.00  0.00     0.174 HD
ATOM     21  H31 UNL     1     -17.771  76.262  63.680  1.00  0.00     0.174 HD
ENDBRANCH   4  19
BRANCH  14  22
HETATM   22  C9  UNL     1     -25.535  74.080  62.955  1.00  0.00     0.197 C 
HETATM   23  O3  UNL     1     -24.918  74.155  61.878  1.00  0.00    -0.646 OA
HETATM   24  O4  UNL     1     -26.794  73.503  62.957  1.00  0.00    -0.646 OA
ENDBRANCH  14  22
TORSDOF 4
ENDMDL
MODEL 2
REMARK VINA RESULT: -6.607917692      1.216      1.292
REMARK  4 active torsions:
REMARK  status: ('A' for Active; 'I' for Inactive)
REMARK    1  A    between atoms: O1_2  and  N1_3 
REMARK    2  A    between atoms: N1_3  and  C2_5 
REMARK    3  A    between atoms: C3_8  and  N3_9 
REMARK       I    between atoms: N5_14  and  C4_15 
REMARK       I    between atoms: C4_15  and  N6_17 
REMARK    4  A    between atoms: C8_21  and  C9_22 
ROOT
HETATM    1  C2  UNL     1     -19.803  72.825  64.275  1.00  0.00     0.742 A 
HETATM    2  N2  UNL     1     -18.536  73.165  64.508  1.00  0.00    -0.018 N 
ATOM      3  H2  UNL     1     -17.753  72.532  64.673  1.00  0.00     0.203 HD
HETATM    4  C3  UNL     1     -18.495  74.491  64.483  1.00  0.00     0.706 A 
HETATM    5  N4  UNL     1     -19.741  74.957  64.234  1.00  0.00    -0.106 N 
ATOM      6  H4  UNL     1     -19.993  75.942  64.163  1.00  0.00     0.207 HD
HETATM    7  N5  UNL     1     -20.580  73.949  64.098  1.00  0.00    -0.015 N 
HETATM    8  C4  UNL     1     -21.971  73.955  63.832  1.00  0.00     0.360 C 
HETATM    9  O2  UNL     1     -22.521  72.795  63.757  1.00  0.00    -0.244 OA
HETATM   10  N6  UNL     1     -22.784  75.091  63.647  1.00  0.00    -0.317 N 
HETATM   11  C5  UNL     1     -22.477  76.472  63.667  1.00  0.00     0.129 C 
HETATM   12  C6  UNL     1     -23.743  77.241  63.440  1.00  0.00     0.022 C 
HETATM   13  C7  UNL     1     -24.821  76.280  63.800  1.00  0.00     0.038 C 
HETATM   14  C8  UNL     1     -24.231  74.959  63.376  1.00  0.00     0.190 C 
ENDROOT
BRANCH   1  15
HETATM   15  N1  UNL     1     -20.254  71.608  64.218  1.00  0.00    -0.094 N 
ATOM     16  H1  UNL     1     -21.068  71.386  63.645  1.00  0.00     0.213 HD
BRANCH  15  17
HETATM   17  O1  UNL     1     -19.632  70.638  64.929  1.00  0.00    -0.271 OA
HETATM   18  C1  UNL     1     -19.941  70.311  66.268  1.00  0.00     0.238 C 
ENDBRANCH  15  17
ENDBRANCH   1  15
BRANCH   4  19
HETATM   19  N3  UNL     1     -17.447  75.251  64.665  1.00  0.00    -0.233 N 
ATOM     20  H32 UNL     1     -17.251  76.099  64.133  1.00  0.00     0.174 HD
ATOM     21  H31 UNL     1     -16.697  75.112  65.344  1.00  0.00     0.174 HD
ENDBRANCH   4  19
BRANCH  14  22
HETATM   22  C9  UNL     1     -24.363  74.741  61.926  1.00  0.00     0.197 C 
HETATM   23  O3  UNL     1     -24.065  73.660  61.387  1.00  0.00    -0.646 OA
HETATM   24  O4  UNL     1     -24.835  75.770  61.127  1.00  0.00    -0.646 OA
ENDBRANCH  14  22
TORSDOF 4
ENDMDL
MODEL 3
REMARK VINA RESULT: -6.601698000      2.121      3.499
REMARK  4 active torsions:
REMARK  status: ('A' for Active; 'I' for Inactive)
REMARK    1  A    between atoms: O1_2  and  N1_3 
REMARK    2  A    between atoms: N1_3  and  C2_5 
REMARK    3  A    between atoms: C3_8  and  N3_9 
REMARK       I    between atoms: N5_14  and  C4_15 
REMARK       I    between atoms: C4_15  and  N6_17 
REMARK    4  A    between atoms: C8_21  and  C9_22 
ROOT
HETATM    1  C2  UNL     1     -19.437  73.247  63.780  1.00  0.00     0.742 A 
HETATM    2  N2  UNL     1     -18.728  72.286  64.371  1.00  0.00    -0.018 N 
ATOM      3  H2  UNL     1     -17.712  72.193  64.380  1.00  0.00     0.203 HD
HETATM    4  C3  UNL     1     -19.607  71.475  64.946  1.00  0.00     0.706 A 
HETATM    5  N4  UNL     1     -20.852  71.944  64.703  1.00  0.00    -0.106 N 
ATOM      6  H4  UNL     1     -21.715  71.511  65.030  1.00  0.00     0.207 HD
HETATM    7  N5  UNL     1     -20.785  73.046  63.981  1.00  0.00    -0.015 N 
HETATM    8  C4  UNL     1     -21.823  73.877  63.493  1.00  0.00     0.360 C 
HETATM    9  O2  UNL     1     -21.437  74.893  62.808  1.00  0.00    -0.244 OA
HETATM   10  N6  UNL     1     -23.207  73.690  63.687  1.00  0.00    -0.317 N 
HETATM   11  C5  UNL     1     -23.925  72.690  64.383  1.00  0.00     0.129 C 
HETATM   12  C6  UNL     1     -25.390  72.971  64.236  1.00  0.00     0.022 C 
HETATM   13  C7  UNL     1     -25.473  73.844  63.034  1.00  0.00     0.038 C 
HETATM   14  C8  UNL     1     -24.192  74.634  63.120  1.00  0.00     0.190 C 
ENDROOT
BRANCH   1  15
HETATM   15  N1  UNL     1     -18.939  74.240  63.106  1.00  0.00    -0.094 N 
ATOM     16  H1  UNL     1     -19.139  74.340  62.111  1.00  0.00     0.213 HD
BRANCH  15  17
HETATM   17  O1  UNL     1     -18.152  75.140  63.741  1.00  0.00    -0.271 OA
HETATM   18  C1  UNL     1     -17.347  76.096  63.082  1.00  0.00     0.238 C 
ENDBRANCH  15  17
ENDBRANCH   1  15
BRANCH   4  19
HETATM   19  N3  UNL     1     -19.348  70.395  65.637  1.00  0.00    -0.233 N 
ATOM     20  H32 UNL     1     -18.538  70.284  66.249  1.00  0.00     0.174 HD
ATOM     21  H31 UNL     1     -19.898  69.536  65.665  1.00  0.00     0.174 HD
ENDBRANCH   4  19
BRANCH  14  22
HETATM   22  C9  UNL     1     -24.300  75.748  64.077  1.00  0.00     0.197 C 
HETATM   23  O3  UNL     1     -25.149  75.762  64.985  1.00  0.00    -0.646 OA
HETATM   24  O4  UNL     1     -23.429  76.820  63.969  1.00  0.00    -0.646 OA
ENDBRANCH  14  22
TORSDOF 4
ENDMDL
MODEL 4
REMARK VINA RESULT: -6.410652494      2.544      6.445
REMARK  4 active torsions:
REMARK  status: ('A' for Active; 'I' for Inactive)
REMARK    1  A    between atoms: O1_2  and  N1_3 
REMARK    2  A    between atoms: N1_3  and  C2_5 
REMARK    3  A    between atoms: C3_8  and  N3_9 
REMARK       I    between atoms: N5_14  and  C4_15 
REMARK       I    between atoms: C4_15  and  N6_17 
REMARK    4  A    between atoms: C8_21  and  C9_22 
ROOT
HETATM    1  C2  UNL     1     -19.767  73.056  63.907  1.00  0.00     0.742 A 
HETATM    2  N2  UNL     1     -19.348  74.231  63.440  1.00  0.00    -0.018 N 
ATOM      3  H2  UNL     1     -19.725  74.741  62.641  1.00  0.00     0.203 HD
HETATM    4  C3  UNL     1     -18.343  74.607  64.222  1.00  0.00     0.706 A 
HETATM    5  N4  UNL     1     -18.151  73.657  65.165  1.00  0.00    -0.106 N 
ATOM      6  H4  UNL     1     -17.441  73.693  65.895  1.00  0.00     0.207 HD
HETATM    7  N5  UNL     1     -19.020  72.678  65.002  1.00  0.00    -0.015 N 
HETATM    8  C4  UNL     1     -19.194  71.485  65.745  1.00  0.00     0.360 C 
HETATM    9  O2  UNL     1     -20.138  70.715  65.335  1.00  0.00    -0.244 OA
HETATM   10  N6  UNL     1     -18.442  71.079  66.866  1.00  0.00    -0.317 N 
HETATM   11  C5  UNL     1     -17.365  71.698  67.542  1.00  0.00     0.129 C 
HETATM   12  C6  UNL     1     -16.926  70.799  68.657  1.00  0.00     0.022 C 
HETATM   13  C7  UNL     1     -17.442  69.459  68.267  1.00  0.00     0.038 C 
HETATM   14  C8  UNL     1     -18.726  69.802  67.554  1.00  0.00     0.190 C 
ENDROOT
BRANCH   1  15
HETATM   15  N1  UNL     1     -20.742  72.356  63.412  1.00  0.00    -0.094 N 
ATOM     16  H1  UNL     1     -20.638  71.351  63.274  1.00  0.00     0.213 HD
BRANCH  15  17
HETATM   17  O1  UNL     1     -21.898  72.977  63.079  1.00  0.00    -0.271 OA
HETATM   18  C1  UNL     1     -23.000  73.125  63.950  1.00  0.00     0.238 C 
ENDBRANCH  15  17
ENDBRANCH   1  15
BRANCH   4  19
HETATM   19  N3  UNL     1     -17.635  75.703  64.123  1.00  0.00    -0.233 N 
ATOM     20  H32 UNL     1     -17.064  75.948  63.314  1.00  0.00     0.174 HD
ATOM     21  H31 UNL     1     -17.555  76.447  64.817  1.00  0.00     0.174 HD
ENDBRANCH   4  19
BRANCH  14  22
HETATM   22  C9  UNL     1     -19.821  70.075  68.501  1.00  0.00     0.197 C 
HETATM   23  O3  UNL     1     -21.011  70.120  68.143  1.00  0.00    -0.646 OA
HETATM   24  O4  UNL     1     -19.523  70.290  69.836  1.00  0.00    -0.646 OA
ENDBRANCH  14  22
TORSDOF 4
ENDMDL
MODEL 5
REMARK VINA RESULT: -6.280513727      2.341      3.779
REMARK  4 active torsions:
REMARK  status: ('A' for Active; 'I' for Inactive)
REMARK    1  A    between atoms: O1_2  and  N1_3 
REMARK    2  A    between atoms: N1_3  and  C2_5 
REMARK    3  A    between atoms: C3_8  and  N3_9 
REMARK       I    between atoms: N5_14  and  C4_15 
REMARK       I    between atoms: C4_15  and  N6_17 
REMARK    4  A    between atoms: C8_21  and  C9_22 
ROOT
HETATM    1  C2  UNL     1     -19.042  72.675  64.753  1.00  0.00     0.742 A 
HETATM    2  N2  UNL     1     -18.883  71.534  65.423  1.00  0.00    -0.018 N 
ATOM      3  H2  UNL     1     -18.032  71.207  65.880  1.00  0.00     0.203 HD
HETATM    4  C3  UNL     1     -20.053  70.909  65.376  1.00  0.00     0.706 A 
HETATM    5  N4  UNL     1     -20.923  71.671  64.676  1.00  0.00    -0.106 N 
ATOM      6  H4  UNL     1     -21.895  71.427  64.487  1.00  0.00     0.207 HD
HETATM    7  N5  UNL     1     -20.329  72.778  64.274  1.00  0.00    -0.015 N 
HETATM    8  C4  UNL     1     -20.843  73.862  63.520  1.00  0.00     0.360 C 
HETATM    9  O2  UNL     1     -20.008  74.809  63.280  1.00  0.00    -0.244 OA
HETATM   10  N6  UNL     1     -22.155  73.988  63.020  1.00  0.00    -0.317 N 
HETATM   11  C5  UNL     1     -23.277  73.132  63.118  1.00  0.00     0.129 C 
HETATM   12  C6  UNL     1     -24.414  73.756  62.368  1.00  0.00     0.022 C 
HETATM   13  C7  UNL     1     -23.755  74.712  61.438  1.00  0.00     0.038 C 
HETATM   14  C8  UNL     1     -22.565  75.175  62.241  1.00  0.00     0.190 C 
ENDROOT
BRANCH   1  15
HETATM   15  N1  UNL     1     -18.121  73.573  64.572  1.00  0.00    -0.094 N 
ATOM     16  H1  UNL     1     -18.033  74.048  63.673  1.00  0.00     0.213 HD
BRANCH  15  17
HETATM   17  O1  UNL     1     -17.279  73.871  65.589  1.00  0.00    -0.271 OA
HETATM   18  C1  UNL     1     -16.655  75.126  65.763  1.00  0.00     0.238 C 
ENDBRANCH  15  17
ENDBRANCH   1  15
BRANCH   4  19
HETATM   19  N3  UNL     1     -20.347  69.749  65.905  1.00  0.00    -0.233 N 
ATOM     20  H32 UNL     1     -21.032  69.614  66.649  1.00  0.00     0.174 HD
ATOM     21  H31 UNL     1     -19.950  68.842  65.658  1.00  0.00     0.174 HD
ENDBRANCH   4  19
BRANCH  14  22
HETATM   22  C9  UNL     1     -22.936  76.208  63.223  1.00  0.00     0.197 C 
HETATM   23  O3  UNL     1     -23.574  75.941  64.257  1.00  0.00    -0.646 OA
HETATM   24  O4  UNL     1     -22.567  77.523  62.993  1.00  0.00    -0.646 OA
ENDBRANCH  14  22
TORSDOF 4
ENDMDL
