MODEL 1
REMARK VINA RESULT: -7.818834721      0.000      0.000
REMARK  5 active torsions:
REMARK  status: ('A' for Active; 'I' for Inactive)
REMARK    1  A    between atoms: O1_2  and  C2_3 
REMARK    2  A    between atoms: C3_6  and  N2_7 
REMARK    3  A    between atoms: N2_7  and  C4_9 
REMARK    4  A    between atoms: C4_9  and  O2_10 
REMARK    5  A    between atoms: C9_18  and  N4_19 
REMARK       I    between atoms: N4_19  and  C10_21 
REMARK       I    between atoms: C10_21  and  N5_22 
REMARK       I    between atoms: C10_21  and  N6_26 
ROOT
HETATM    1  C2  UNL     1     -18.783  73.799  64.470  1.00  0.00     0.252 A 
HETATM    2  N1  UNL     1     -19.967  73.692  63.823  1.00  0.00    -0.154 N 
ATOM      3  H1  UNL     1     -20.301  74.470  63.254  1.00  0.00     0.188 HD
HETATM    4  C3  UNL     1     -20.714  72.570  63.918  1.00  0.00     0.698 A 
HETATM    5  N3  UNL     1     -20.230  71.580  64.676  1.00  0.00    -0.022 N 
ATOM      6  H3  UNL     1     -20.779  70.724  64.761  1.00  0.00     0.203 HD
HETATM    7  C9  UNL     1     -19.050  71.652  65.338  1.00  0.00     0.698 A 
HETATM    8  N7  UNL     1     -18.333  72.765  65.229  1.00  0.00    -0.154 N 
ATOM      9  H7  UNL     1     -17.441  72.843  65.717  1.00  0.00     0.188 HD
ENDROOT
BRANCH   7  10
HETATM   10  N4  UNL     1     -18.621  70.676  66.056  1.00  0.00    -0.173 N 
HETATM   11  C10 UNL     1     -19.430  70.058  67.080  1.00  0.00     0.494 C 
HETATM   12  N5  UNL     1     -18.513  69.220  67.862  1.00  0.00    -0.032 N 
HETATM   13  N6  UNL     1     -20.468  69.203  66.534  1.00  0.00    -0.032 N 
ATOM     14  H53 UNL     1     -17.988  68.552  67.297  1.00  0.00     0.278 HD
ATOM     15  H52 UNL     1     -17.708  69.728  68.230  1.00  0.00     0.278 HD
ATOM     16  H51 UNL     1     -19.084  68.783  68.585  1.00  0.00     0.278 HD
ATOM     17  H63 UNL     1     -21.049  69.712  65.867  1.00  0.00     0.278 HD
ATOM     18  H62 UNL     1     -20.073  68.502  65.907  1.00  0.00     0.278 HD
ATOM     19  H61 UNL     1     -21.040  68.766  67.256  1.00  0.00     0.278 HD
ATOM     20  H4  UNL     1     -17.677  70.326  65.897  1.00  0.00     0.181 HD
ENDBRANCH   7  10
BRANCH   4  21
HETATM   21  N2  UNL     1     -21.816  72.559  63.274  1.00  0.00    -0.193 N 
ATOM     22  H2  UNL     1     -21.838  71.976  62.437  1.00  0.00     0.181 HD
BRANCH  21  23
HETATM   23  C4  UNL     1     -23.021  73.260  63.576  1.00  0.00     0.147 C 
HETATM   24  C5  UNL     1     -23.977  73.120  62.397  1.00  0.00     0.061 C 
HETATM   25  C6  UNL     1     -25.273  72.611  62.928  1.00  0.00     0.005 C 
HETATM   26  C7  UNL     1     -25.222  73.008  64.374  1.00  0.00     0.005 C 
HETATM   27  C8  UNL     1     -23.782  72.660  64.738  1.00  0.00     0.061 C 
BRANCH  23  28
HETATM   28  O2  UNL     1     -22.848  74.618  63.835  1.00  0.00    -0.370 OA
ATOM     29  H2  UNL     1     -21.961  74.932  63.708  1.00  0.00     0.212 HD
ENDBRANCH  23  28
ENDBRANCH  21  23
ENDBRANCH   4  21
BRANCH   1  30
HETATM   30  O1  UNL     1     -17.993  74.923  64.399  1.00  0.00    -0.326 OA
HETATM   31  C1  UNL     1     -17.794  75.652  63.211  1.00  0.00     0.213 C 
ENDBRANCH   1  30
TORSDOF 5
ENDMDL
MODEL 2
REMARK VINA RESULT: -7.393713295      0.948      1.144
REMARK  5 active torsions:
REMARK  status: ('A' for Active; 'I' for Inactive)
REMARK    1  A    between atoms: O1_2  and  C2_3 
REMARK    2  A    between atoms: C3_6  and  N2_7 
REMARK    3  A    between atoms: N2_7  and  C4_9 
REMARK    4  A    between atoms: C4_9  and  O2_10 
REMARK    5  A    between atoms: C9_18  and  N4_19 
REMARK       I    between atoms: N4_19  and  C10_21 
REMARK       I    between atoms: C10_21  and  N5_22 
REMARK       I    between atoms: C10_21  and  N6_26 
ROOT
HETATM    1  C2  UNL     1     -18.903  73.820  64.406  1.00  0.00     0.252 A 
HETATM    2  N1  UNL     1     -20.100  73.849  63.775  1.00  0.00    -0.154 N 
ATOM      3  H1  UNL     1     -20.376  74.684  63.258  1.00  0.00     0.188 HD
HETATM    4  C3  UNL     1     -20.937  72.788  63.819  1.00  0.00     0.698 A 
HETATM    5  N3  UNL     1     -20.527  71.719  64.509  1.00  0.00    -0.022 N 
ATOM      6  H3  UNL     1     -21.144  70.908  64.554  1.00  0.00     0.203 HD
HETATM    7  C9  UNL     1     -19.337  71.655  65.153  1.00  0.00     0.698 A 
HETATM    8  N7  UNL     1     -18.531  72.709  65.096  1.00  0.00    -0.154 N 
ATOM      9  H7  UNL     1     -17.629  72.685  65.572  1.00  0.00     0.188 HD
ENDROOT
BRANCH   7  10
HETATM   10  N4  UNL     1     -18.981  70.605  65.806  1.00  0.00    -0.173 N 
HETATM   11  C10 UNL     1     -19.439  70.340  67.149  1.00  0.00     0.494 C 
HETATM   12  N5  UNL     1     -18.597  69.247  67.650  1.00  0.00    -0.032 N 
HETATM   13  N6  UNL     1     -20.823  69.902  67.193  1.00  0.00    -0.032 N 
ATOM     14  H53 UNL     1     -18.598  68.423  67.048  1.00  0.00     0.278 HD
ATOM     15  H52 UNL     1     -17.598  69.441  67.591  1.00  0.00     0.278 HD
ATOM     16  H51 UNL     1     -18.921  69.060  68.598  1.00  0.00     0.278 HD
ATOM     17  H63 UNL     1     -21.434  70.570  66.723  1.00  0.00     0.278 HD
ATOM     18  H62 UNL     1     -20.969  69.092  66.589  1.00  0.00     0.278 HD
ATOM     19  H61 UNL     1     -21.147  69.714  68.141  1.00  0.00     0.278 HD
ATOM     20  H4  UNL     1     -18.354  69.937  65.358  1.00  0.00     0.181 HD
ENDBRANCH   7  10
BRANCH   4  21
HETATM   21  N2  UNL     1     -22.044  72.907  63.194  1.00  0.00    -0.193 N 
ATOM     22  H2  UNL     1     -21.978  72.973  62.178  1.00  0.00     0.181 HD
BRANCH  21  23
HETATM   23  C4  UNL     1     -23.361  72.958  63.738  1.00  0.00     0.147 C 
HETATM   24  C5  UNL     1     -23.705  74.410  64.050  1.00  0.00     0.061 C 
HETATM   25  C6  UNL     1     -25.004  74.717  63.386  1.00  0.00     0.005 C 
HETATM   26  C7  UNL     1     -25.623  73.361  63.217  1.00  0.00     0.005 C 
HETATM   27  C8  UNL     1     -24.427  72.533  62.754  1.00  0.00     0.061 C 
BRANCH  23  28
HETATM   28  O2  UNL     1     -23.534  72.212  64.902  1.00  0.00    -0.370 OA
ATOM     29  H2  UNL     1     -23.748  72.728  65.671  1.00  0.00     0.212 HD
ENDBRANCH  23  28
ENDBRANCH  21  23
ENDBRANCH   4  21
BRANCH   1  30
HETATM   30  O1  UNL     1     -18.023  74.878  64.387  1.00  0.00    -0.326 OA
HETATM   31  C1  UNL     1     -17.769  75.648  63.236  1.00  0.00     0.213 C 
ENDBRANCH   1  30
TORSDOF 5
ENDMDL
MODEL 3
REMARK VINA RESULT: -7.280791527      1.767      3.995
REMARK  5 active torsions:
REMARK  status: ('A' for Active; 'I' for Inactive)
REMARK    1  A    between atoms: O1_2  and  C2_3 
REMARK    2  A    between atoms: C3_6  and  N2_7 
REMARK    3  A    between atoms: N2_7  and  C4_9 
REMARK    4  A    between atoms: C4_9  and  O2_10 
REMARK    5  A    between atoms: C9_18  and  N4_19 
REMARK       I    between atoms: N4_19  and  C10_21 
REMARK       I    between atoms: C10_21  and  N5_22 
REMARK       I    between atoms: C10_21  and  N6_26 
ROOT
HETATM    1  C2  UNL     1     -19.388  71.565  65.072  1.00  0.00     0.252 A 
HETATM    2  N1  UNL     1     -20.589  71.588  64.446  1.00  0.00    -0.154 N 
ATOM      3  H1  UNL     1     -21.177  70.754  64.457  1.00  0.00     0.188 HD
HETATM    4  C3  UNL     1     -21.021  72.698  63.808  1.00  0.00     0.698 A 
HETATM    5  N3  UNL     1     -20.211  73.762  63.826  1.00  0.00    -0.022 N 
ATOM      6  H3  UNL     1     -20.520  74.611  63.350  1.00  0.00     0.203 HD
HETATM    7  C9  UNL     1     -19.004  73.775  64.440  1.00  0.00     0.698 A 
HETATM    8  N7  UNL     1     -18.601  72.673  65.061  1.00  0.00    -0.154 N 
ATOM      9  H7  UNL     1     -17.696  72.657  65.531  1.00  0.00     0.188 HD
ENDROOT
BRANCH   7  10
HETATM   10  N4  UNL     1     -18.257  74.822  64.432  1.00  0.00    -0.173 N 
HETATM   11  C10 UNL     1     -17.891  75.499  63.212  1.00  0.00     0.494 C 
HETATM   12  N5  UNL     1     -16.814  76.428  63.577  1.00  0.00    -0.032 N 
HETATM   13  N6  UNL     1     -18.984  76.273  62.650  1.00  0.00    -0.032 N 
ATOM     14  H53 UNL     1     -17.063  77.062  64.337  1.00  0.00     0.278 HD
ATOM     15  H52 UNL     1     -16.028  75.978  64.046  1.00  0.00     0.278 HD
ATOM     16  H51 UNL     1     -16.556  76.907  62.715  1.00  0.00     0.278 HD
ATOM     17  H63 UNL     1     -19.810  75.691  62.512  1.00  0.00     0.278 HD
ATOM     18  H62 UNL     1     -19.357  76.930  63.336  1.00  0.00     0.278 HD
ATOM     19  H61 UNL     1     -18.725  76.751  61.788  1.00  0.00     0.278 HD
ATOM     20  H4  UNL     1     -17.912  75.186  65.321  1.00  0.00     0.181 HD
ENDBRANCH   7  10
BRANCH   4  21
HETATM   21  N2  UNL     1     -22.165  72.627  63.247  1.00  0.00    -0.193 N 
ATOM     22  H2  UNL     1     -22.232  71.997  62.447  1.00  0.00     0.181 HD
BRANCH  21  23
HETATM   23  C4  UNL     1     -23.363  73.317  63.598  1.00  0.00     0.147 C 
HETATM   24  C5  UNL     1     -24.352  73.198  62.444  1.00  0.00     0.061 C 
HETATM   25  C6  UNL     1     -25.631  72.673  63.000  1.00  0.00     0.005 C 
HETATM   26  C7  UNL     1     -25.540  73.039  64.452  1.00  0.00     0.005 C 
HETATM   27  C8  UNL     1     -24.089  72.689  64.767  1.00  0.00     0.061 C 
BRANCH  23  28
HETATM   28  O2  UNL     1     -23.188  74.669  63.882  1.00  0.00    -0.370 OA
ATOM     29  H2  UNL     1     -22.476  74.855  64.483  1.00  0.00     0.212 HD
ENDBRANCH  23  28
ENDBRANCH  21  23
ENDBRANCH   4  21
BRANCH   1  30
HETATM   30  O1  UNL     1     -18.911  70.455  65.731  1.00  0.00    -0.326 OA
HETATM   31  C1  UNL     1     -19.662  69.745  66.688  1.00  0.00     0.213 C 
ENDBRANCH   1  30
TORSDOF 5
ENDMDL
MODEL 4
REMARK VINA RESULT: -7.243933144      2.639      5.927
REMARK  5 active torsions:
REMARK  status: ('A' for Active; 'I' for Inactive)
REMARK    1  A    between atoms: O1_2  and  C2_3 
REMARK    2  A    between atoms: C3_6  and  N2_7 
REMARK    3  A    between atoms: N2_7  and  C4_9 
REMARK    4  A    between atoms: C4_9  and  O2_10 
REMARK    5  A    between atoms: C9_18  and  N4_19 
REMARK       I    between atoms: N4_19  and  C10_21 
REMARK       I    between atoms: C10_21  and  N5_22 
REMARK       I    between atoms: C10_21  and  N6_26 
ROOT
HETATM    1  C2  UNL     1     -17.507  72.977  65.782  1.00  0.00     0.252 A 
HETATM    2  N1  UNL     1     -17.337  71.930  66.624  1.00  0.00    -0.154 N 
ATOM      3  H1  UNL     1     -16.548  71.928  67.269  1.00  0.00     0.188 HD
HETATM    4  C3  UNL     1     -18.197  70.888  66.622  1.00  0.00     0.698 A 
HETATM    5  N3  UNL     1     -19.215  70.942  65.756  1.00  0.00    -0.022 N 
ATOM      6  H3  UNL     1     -19.877  70.165  65.739  1.00  0.00     0.203 HD
HETATM    7  C9  UNL     1     -19.417  71.972  64.900  1.00  0.00     0.698 A 
HETATM    8  N7  UNL     1     -18.558  72.985  64.920  1.00  0.00    -0.154 N 
ATOM      9  H7  UNL     1     -18.689  73.773  64.285  1.00  0.00     0.188 HD
ENDROOT
BRANCH   7  10
HETATM   10  N4  UNL     1     -20.410  71.983  64.083  1.00  0.00    -0.173 N 
HETATM   11  C10 UNL     1     -21.298  73.115  63.963  1.00  0.00     0.494 C 
HETATM   12  N5  UNL     1     -22.448  72.640  63.184  1.00  0.00    -0.032 N 
HETATM   13  N6  UNL     1     -20.696  74.227  63.250  1.00  0.00    -0.032 N 
ATOM     14  H53 UNL     1     -22.190  72.227  62.288  1.00  0.00     0.278 HD
ATOM     15  H52 UNL     1     -22.894  71.812  63.577  1.00  0.00     0.278 HD
ATOM     16  H51 UNL     1     -23.075  73.440  63.099  1.00  0.00     0.278 HD
ATOM     17  H63 UNL     1     -19.811  74.500  63.677  1.00  0.00     0.278 HD
ATOM     18  H62 UNL     1     -20.353  73.931  62.335  1.00  0.00     0.278 HD
ATOM     19  H61 UNL     1     -21.323  75.026  63.165  1.00  0.00     0.278 HD
ATOM     20  H4  UNL     1     -20.576  71.163  63.499  1.00  0.00     0.181 HD
ENDBRANCH   7  10
BRANCH   4  21
HETATM   21  N2  UNL     1     -17.957  69.946  67.449  1.00  0.00    -0.193 N 
ATOM     22  H2  UNL     1     -17.506  69.117  67.063  1.00  0.00     0.181 HD
BRANCH  21  23
HETATM   23  C4  UNL     1     -18.240  69.908  68.847  1.00  0.00     0.147 C 
HETATM   24  C5  UNL     1     -17.671  71.166  69.495  1.00  0.00     0.061 C 
HETATM   25  C6  UNL     1     -18.771  71.811  70.267  1.00  0.00     0.005 C 
HETATM   26  C7  UNL     1     -19.720  70.675  70.512  1.00  0.00     0.005 C 
HETATM   27  C8  UNL     1     -19.720  69.976  69.155  1.00  0.00     0.061 C 
BRANCH  23  28
HETATM   28  O2  UNL     1     -17.716  68.803  69.512  1.00  0.00    -0.370 OA
ATOM     29  H2  UNL     1     -16.841  68.931  69.857  1.00  0.00     0.212 HD
ENDBRANCH  23  28
ENDBRANCH  21  23
ENDBRANCH   4  21
BRANCH   1  30
HETATM   30  O1  UNL     1     -16.655  74.057  65.751  1.00  0.00    -0.326 OA
HETATM   31  C1  UNL     1     -16.953  75.256  65.076  1.00  0.00     0.213 C 
ENDBRANCH   1  30
TORSDOF 5
ENDMDL
MODEL 5
REMARK VINA RESULT: -7.141868614      2.170      5.484
REMARK  5 active torsions:
REMARK  status: ('A' for Active; 'I' for Inactive)
REMARK    1  A    between atoms: O1_2  and  C2_3 
REMARK    2  A    between atoms: C3_6  and  N2_7 
REMARK    3  A    between atoms: N2_7  and  C4_9 
REMARK    4  A    between atoms: C4_9  and  O2_10 
REMARK    5  A    between atoms: C9_18  and  N4_19 
REMARK       I    between atoms: N4_19  and  C10_21 
REMARK       I    between atoms: C10_21  and  N5_22 
REMARK       I    between atoms: C10_21  and  N6_26 
ROOT
HETATM    1  C2  UNL     1     -18.444  73.338  64.978  1.00  0.00     0.252 A 
HETATM    2  N1  UNL     1     -18.186  72.211  65.682  1.00  0.00    -0.154 N 
ATOM      3  H1  UNL     1     -17.349  72.162  66.263  1.00  0.00     0.188 HD
HETATM    4  C3  UNL     1     -19.020  71.149  65.627  1.00  0.00     0.698 A 
HETATM    5  N3  UNL     1     -20.102  71.266  64.851  1.00  0.00    -0.022 N 
ATOM      6  H3  UNL     1     -20.745  70.476  64.796  1.00  0.00     0.203 HD
HETATM    7  C9  UNL     1     -20.392  72.378  64.133  1.00  0.00     0.698 A 
HETATM    8  N7  UNL     1     -19.558  73.409  64.203  1.00  0.00    -0.154 N 
ATOM      9  H7  UNL     1     -19.755  74.257  63.672  1.00  0.00     0.188 HD
ENDROOT
BRANCH   7  10
HETATM   10  N4  UNL     1     -21.446  72.448  63.399  1.00  0.00    -0.173 N 
HETATM   11  C10 UNL     1     -22.627  73.168  63.811  1.00  0.00     0.494 C 
HETATM   12  N5  UNL     1     -23.686  72.767  62.877  1.00  0.00    -0.032 N 
HETATM   13  N6  UNL     1     -22.466  74.608  63.722  1.00  0.00    -0.032 N 
ATOM     14  H53 UNL     1     -23.441  72.912  61.897  1.00  0.00     0.278 HD
ATOM     15  H52 UNL     1     -23.822  71.758  62.822  1.00  0.00     0.278 HD
ATOM     16  H51 UNL     1     -24.520  73.276  63.168  1.00  0.00     0.278 HD
ATOM     17  H63 UNL     1     -21.648  74.918  64.246  1.00  0.00     0.278 HD
ATOM     18  H62 UNL     1     -22.177  74.886  62.784  1.00  0.00     0.278 HD
ATOM     19  H61 UNL     1     -23.300  75.117  64.013  1.00  0.00     0.278 HD
ATOM     20  H4  UNL     1     -21.446  71.979  62.493  1.00  0.00     0.181 HD
ENDBRANCH   7  10
BRANCH   4  21
HETATM   21  N2  UNL     1     -18.695  70.130  66.324  1.00  0.00    -0.193 N 
ATOM     22  H2  UNL     1     -17.899  69.591  65.983  1.00  0.00     0.181 HD
BRANCH  21  23
HETATM   23  C4  UNL     1     -19.307  69.649  67.519  1.00  0.00     0.147 C 
HETATM   24  C5  UNL     1     -18.252  69.594  68.619  1.00  0.00     0.061 C 
HETATM   25  C6  UNL     1     -18.786  70.346  69.791  1.00  0.00     0.005 C 
HETATM   26  C7  UNL     1     -20.268  70.310  69.565  1.00  0.00     0.005 C 
HETATM   27  C8  UNL     1     -20.358  70.588  68.067  1.00  0.00     0.061 C 
BRANCH  23  28
HETATM   28  O2  UNL     1     -19.880  68.385  67.406  1.00  0.00    -0.370 OA
ATOM     29  H2  UNL     1     -20.642  68.349  66.840  1.00  0.00     0.212 HD
ENDBRANCH  23  28
ENDBRANCH  21  23
ENDBRANCH   4  21
BRANCH   1  30
HETATM   30  O1  UNL     1     -17.621  74.440  65.006  1.00  0.00    -0.326 OA
HETATM   31  C1  UNL     1     -17.597  75.411  63.985  1.00  0.00     0.213 C 
ENDBRANCH   1  30
TORSDOF 5
ENDMDL
