MODEL 1
REMARK VINA RESULT: -5.444581211      0.000      0.000
REMARK  2 active torsions:
REMARK  status: ('A' for Active; 'I' for Inactive)
REMARK    1  A    between atoms: C2_2  and  N1_3 
REMARK    2  A    between atoms: N1_3  and  N2_5 
ROOT
HETATM    1  N2  UNL     1     182.968   7.283  62.650  1.00  0.00    -0.288 N 
ATOM      2  H2  UNL     1     182.061   6.823  62.722  1.00  0.00     0.188 HD
HETATM    3  C3  UNL     1     183.583   7.186  61.549  1.00  0.00     0.110 A 
HETATM    4  C4  UNL     1     184.679   7.408  60.604  1.00  0.00     0.198 A 
HETATM    5  N3  UNL     1     183.516   6.616  60.178  1.00  0.00    -0.370 N 
ATOM      6  H3  UNL     1     183.024   6.076  59.465  1.00  0.00     0.161 HD
ENDROOT
BRANCH   1   7
HETATM    7  N1  UNL     1     183.424   7.958  63.758  1.00  0.00    -0.311 N 
ATOM      8  H1  UNL     1     183.160   8.915  63.993  1.00  0.00     0.186 HD
BRANCH   7   9
HETATM    9  C2  UNL     1     184.311   7.161  64.538  1.00  0.00     0.097 C 
HETATM   10  C1  UNL     1     185.486   7.661  64.896  1.00  0.00     0.031 C 
ENDBRANCH   7   9
ENDBRANCH   1   7
TORSDOF 2
ENDMDL
MODEL 2
REMARK VINA RESULT: -5.253661443      1.460      1.870
REMARK  2 active torsions:
REMARK  status: ('A' for Active; 'I' for Inactive)
REMARK    1  A    between atoms: C2_2  and  N1_3 
REMARK    2  A    between atoms: N1_3  and  N2_5 
ROOT
HETATM    1  N2  UNL     1     183.048   6.784  60.659  1.00  0.00    -0.288 N 
ATOM      2  H2  UNL     1     182.369   6.118  60.290  1.00  0.00     0.188 HD
HETATM    3  C3  UNL     1     184.145   6.898  60.039  1.00  0.00     0.110 A 
HETATM    4  C4  UNL     1     185.484   7.428  59.774  1.00  0.00     0.198 A 
HETATM    5  N3  UNL     1     184.926   6.408  58.873  1.00  0.00    -0.370 N 
ATOM      6  H3  UNL     1     185.012   5.808  58.052  1.00  0.00     0.161 HD
ENDROOT
BRANCH   1   7
HETATM    7  N1  UNL     1     182.698   7.483  61.790  1.00  0.00    -0.311 N 
ATOM      8  H1  UNL     1     181.886   8.096  61.854  1.00  0.00     0.186 HD
BRANCH   7   9
HETATM    9  C2  UNL     1     183.608   7.251  62.862  1.00  0.00     0.097 C 
HETATM   10  C1  UNL     1     183.689   8.135  63.847  1.00  0.00     0.031 C 
ENDBRANCH   7   9
ENDBRANCH   1   7
TORSDOF 2
ENDMDL
MODEL 3
REMARK VINA RESULT: -5.228403606      1.040      1.186
REMARK  2 active torsions:
REMARK  status: ('A' for Active; 'I' for Inactive)
REMARK    1  A    between atoms: C2_2  and  N1_3 
REMARK    2  A    between atoms: N1_3  and  N2_5 
ROOT
HETATM    1  N2  UNL     1     183.186   6.978  61.551  1.00  0.00    -0.288 N 
ATOM      2  H2  UNL     1     182.225   7.073  61.224  1.00  0.00     0.188 HD
HETATM    3  C3  UNL     1     184.108   7.128  60.698  1.00  0.00     0.110 A 
HETATM    4  C4  UNL     1     185.490   7.188  60.216  1.00  0.00     0.198 A 
HETATM    5  N3  UNL     1     184.390   7.415  59.267  1.00  0.00    -0.370 N 
ATOM      6  H3  UNL     1     184.062   7.620  58.322  1.00  0.00     0.161 HD
ENDROOT
BRANCH   1   7
HETATM    7  N1  UNL     1     183.376   6.697  62.883  1.00  0.00    -0.311 N 
ATOM      8  H1  UNL     1     183.169   5.794  63.311  1.00  0.00     0.186 HD
BRANCH   7   9
HETATM    9  C2  UNL     1     183.895   7.817  63.595  1.00  0.00     0.097 C 
HETATM   10  C1  UNL     1     184.876   7.631  64.469  1.00  0.00     0.031 C 
ENDBRANCH   7   9
ENDBRANCH   1   7
TORSDOF 2
ENDMDL
MODEL 4
REMARK VINA RESULT: -5.098335681      1.280      1.802
REMARK  2 active torsions:
REMARK  status: ('A' for Active; 'I' for Inactive)
REMARK    1  A    between atoms: C2_2  and  N1_3 
REMARK    2  A    between atoms: N1_3  and  N2_5 
ROOT
HETATM    1  N2  UNL     1     183.583   7.997  64.352  1.00  0.00    -0.288 N 
ATOM      2  H2  UNL     1     182.818   7.842  65.008  1.00  0.00     0.188 HD
HETATM    3  C3  UNL     1     183.384   7.682  63.143  1.00  0.00     0.110 A 
HETATM    4  C4  UNL     1     183.722   7.527  61.727  1.00  0.00     0.198 A 
HETATM    5  N3  UNL     1     182.387   7.122  62.192  1.00  0.00    -0.370 N 
ATOM      6  H3  UNL     1     181.461   6.738  62.003  1.00  0.00     0.161 HD
ENDROOT
BRANCH   1   7
HETATM    7  N1  UNL     1     184.747   8.531  64.852  1.00  0.00    -0.311 N 
ATOM      8  H1  UNL     1     184.884   9.522  65.046  1.00  0.00     0.186 HD
BRANCH   7   9
HETATM    9  C2  UNL     1     185.741   7.532  65.066  1.00  0.00     0.097 C 
HETATM   10  C1  UNL     1     186.635   7.703  66.031  1.00  0.00     0.031 C 
ENDBRANCH   7   9
ENDBRANCH   1   7
TORSDOF 2
ENDMDL
MODEL 5
REMARK VINA RESULT: -5.042314801      1.603      2.043
REMARK  2 active torsions:
REMARK  status: ('A' for Active; 'I' for Inactive)
REMARK    1  A    between atoms: C2_2  and  N1_3 
REMARK    2  A    between atoms: N1_3  and  N2_5 
ROOT
HETATM    1  N2  UNL     1     184.337   7.000  61.237  1.00  0.00    -0.288 N 
ATOM      2  H2  UNL     1     185.153   7.508  61.577  1.00  0.00     0.188 HD
HETATM    3  C3  UNL     1     184.344   6.635  60.025  1.00  0.00     0.110 A 
HETATM    4  C4  UNL     1     183.815   6.005  58.814  1.00  0.00     0.198 A 
HETATM    5  N3  UNL     1     185.136   6.648  58.768  1.00  0.00    -0.370 N 
ATOM      6  H3  UNL     1     185.977   6.909  58.252  1.00  0.00     0.161 HD
ENDROOT
BRANCH   1   7
HETATM    7  N1  UNL     1     183.319   6.766  62.131  1.00  0.00    -0.311 N 
ATOM      8  H1  UNL     1     182.765   5.911  62.154  1.00  0.00     0.186 HD
BRANCH   7   9
HETATM    9  C2  UNL     1     183.132   7.862  63.022  1.00  0.00     0.097 C 
HETATM   10  C1  UNL     1     183.885   7.947  64.111  1.00  0.00     0.031 C 
ENDBRANCH   7   9
ENDBRANCH   1   7
TORSDOF 2
ENDMDL
