MODEL 1
REMARK VINA RESULT: -4.875108583      0.000      0.000
REMARK  2 active torsions:
REMARK  status: ('A' for Active; 'I' for Inactive)
REMARK    1  A    between atoms: N1_2  and  N2_4 
REMARK    2  A    between atoms: C2_6  and  N3_7 
ROOT
HETATM    1  N2  UNL     1     183.399   8.085  63.482  1.00  0.00    -0.300 N 
ATOM      2  H2  UNL     1     182.460   8.481  63.434  1.00  0.00     0.187 HD
HETATM    3  C2  UNL     1     183.830   7.337  62.522  1.00  0.00     0.212 C 
ENDROOT
BRANCH   3   4
HETATM    4  N3  UNL     1     183.047   7.029  61.378  1.00  0.00    -0.301 N 
HETATM    5  N4  UNL     1     181.813   7.271  61.318  1.00  0.00    -0.344 N 
ATOM      6  H42 UNL     1     181.375   7.704  62.131  1.00  0.00     0.176 HD
ATOM      7  H41 UNL     1     181.250   7.050  60.496  1.00  0.00     0.176 HD
ATOM      8  H3  UNL     1     183.502   6.596  60.574  1.00  0.00     0.187 HD
ENDBRANCH   3   4
BRANCH   1   9
HETATM    9  N1  UNL     1     184.211   8.353  64.583  1.00  0.00    -0.340 N 
HETATM   10  C1  UNL     1     185.439   7.625  64.823  1.00  0.00     0.167 C 
ATOM     11  H1  UNL     1     183.931   9.083  65.238  1.00  0.00     0.179 HD
ENDBRANCH   1   9
TORSDOF 2
ENDMDL
MODEL 2
REMARK VINA RESULT: -4.871439691      2.099      2.808
REMARK  2 active torsions:
REMARK  status: ('A' for Active; 'I' for Inactive)
REMARK    1  A    between atoms: N1_2  and  N2_4 
REMARK    2  A    between atoms: C2_6  and  N3_7 
ROOT
HETATM    1  N2  UNL     1     183.313   6.827  61.082  1.00  0.00    -0.300 N 
ATOM      2  H2  UNL     1     182.379   6.925  60.684  1.00  0.00     0.187 HD
HETATM    3  C2  UNL     1     184.338   6.735  60.301  1.00  0.00     0.212 C 
ENDROOT
BRANCH   3   4
HETATM    4  N3  UNL     1     184.228   6.763  58.885  1.00  0.00    -0.301 N 
HETATM    5  N4  UNL     1     183.281   6.207  58.269  1.00  0.00    -0.344 N 
ATOM      6  H42 UNL     1     182.575   5.722  58.823  1.00  0.00     0.176 HD
ATOM      7  H41 UNL     1     183.202   6.227  57.252  1.00  0.00     0.176 HD
ATOM      8  H3  UNL     1     184.944   7.252  58.347  1.00  0.00     0.187 HD
ENDBRANCH   3   4
BRANCH   1   9
HETATM    9  N1  UNL     1     183.480   6.792  62.466  1.00  0.00    -0.340 N 
HETATM   10  C1  UNL     1     183.399   7.989  63.276  1.00  0.00     0.167 C 
ATOM     11  H1  UNL     1     183.664   5.898  62.920  1.00  0.00     0.179 HD
ENDBRANCH   1   9
TORSDOF 2
ENDMDL
MODEL 3
REMARK VINA RESULT: -4.800873560      1.351      1.667
REMARK  2 active torsions:
REMARK  status: ('A' for Active; 'I' for Inactive)
REMARK    1  A    between atoms: N1_2  and  N2_4 
REMARK    2  A    between atoms: C2_6  and  N3_7 
ROOT
HETATM    1  N2  UNL     1     183.375   6.686  62.359  1.00  0.00    -0.300 N 
ATOM      2  H2  UNL     1     182.773   5.891  62.149  1.00  0.00     0.187 HD
HETATM    3  C2  UNL     1     184.091   7.215  61.423  1.00  0.00     0.212 C 
ENDROOT
BRANCH   3   4
HETATM    4  N3  UNL     1     184.083   6.735  60.087  1.00  0.00    -0.301 N 
HETATM    5  N4  UNL     1     183.038   6.313  59.526  1.00  0.00    -0.344 N 
ATOM      6  H42 UNL     1     182.173   6.324  60.065  1.00  0.00     0.176 HD
ATOM      7  H41 UNL     1     183.033   5.968  58.566  1.00  0.00     0.176 HD
ATOM      8  H3  UNL     1     184.958   6.730  59.562  1.00  0.00     0.187 HD
ENDBRANCH   3   4
BRANCH   1   9
HETATM    9  N1  UNL     1     183.422   7.199  63.654  1.00  0.00    -0.340 N 
HETATM   10  C1  UNL     1     184.671   7.571  64.285  1.00  0.00     0.167 C 
ATOM     11  H1  UNL     1     182.552   7.315  64.173  1.00  0.00     0.179 HD
ENDBRANCH   1   9
TORSDOF 2
ENDMDL
MODEL 4
REMARK VINA RESULT: -4.601784829      1.350      3.562
REMARK  2 active torsions:
REMARK  status: ('A' for Active; 'I' for Inactive)
REMARK    1  A    between atoms: N1_2  and  N2_4 
REMARK    2  A    between atoms: C2_6  and  N3_7 
ROOT
HETATM    1  N2  UNL     1     182.907   7.113  61.375  1.00  0.00    -0.300 N 
ATOM      2  H2  UNL     1     181.923   7.362  61.473  1.00  0.00     0.187 HD
HETATM    3  C2  UNL     1     183.694   7.190  62.396  1.00  0.00     0.212 C 
ENDROOT
BRANCH   3   4
HETATM    4  N3  UNL     1     183.250   7.615  63.676  1.00  0.00    -0.301 N 
HETATM    5  N4  UNL     1     183.918   8.402  64.396  1.00  0.00    -0.344 N 
ATOM      6  H42 UNL     1     184.810   8.738  64.031  1.00  0.00     0.176 HD
ATOM      7  H41 UNL     1     183.599   8.708  65.316  1.00  0.00     0.176 HD
ATOM      8  H3  UNL     1     182.356   7.269  64.026  1.00  0.00     0.187 HD
ENDBRANCH   3   4
BRANCH   1   9
HETATM    9  N1  UNL     1     183.398   6.690  60.140  1.00  0.00    -0.340 N 
HETATM   10  C1  UNL     1     184.795   6.821  59.786  1.00  0.00     0.167 C 
ATOM     11  H1  UNL     1     182.753   6.276  59.467  1.00  0.00     0.179 HD
ENDBRANCH   1   9
TORSDOF 2
ENDMDL
MODEL 5
REMARK VINA RESULT: -4.431896530      2.151      4.056
REMARK  2 active torsions:
REMARK  status: ('A' for Active; 'I' for Inactive)
REMARK    1  A    between atoms: N1_2  and  N2_4 
REMARK    2  A    between atoms: C2_6  and  N3_7 
ROOT
HETATM    1  N2  UNL     1     183.270   6.814  60.661  1.00  0.00    -0.300 N 
ATOM      2  H2  UNL     1     182.315   6.458  60.665  1.00  0.00     0.187 HD
HETATM    3  C2  UNL     1     183.829   7.168  61.769  1.00  0.00     0.212 C 
ENDROOT
BRANCH   3   4
HETATM    4  N3  UNL     1     183.167   7.086  63.023  1.00  0.00    -0.301 N 
HETATM    5  N4  UNL     1     183.773   6.810  64.091  1.00  0.00    -0.344 N 
ATOM      6  H42 UNL     1     184.778   6.641  64.036  1.00  0.00     0.176 HD
ATOM      7  H41 UNL     1     183.297   6.751  64.992  1.00  0.00     0.176 HD
ATOM      8  H3  UNL     1     182.162   7.258  63.059  1.00  0.00     0.187 HD
ENDBRANCH   3   4
BRANCH   1   9
HETATM    9  N1  UNL     1     183.968   6.917  59.458  1.00  0.00    -0.340 N 
HETATM   10  C1  UNL     1     183.954   5.857  58.472  1.00  0.00     0.167 C 
ATOM     11  H1  UNL     1     184.504   7.763  59.267  1.00  0.00     0.179 HD
ENDBRANCH   1   9
TORSDOF 2
ENDMDL
