MODEL 1
REMARK VINA RESULT: -8.077596373      0.000      0.000
REMARK  20 active torsions:
REMARK  status: ('A' for Active; 'I' for Inactive)
REMARK       I    between atoms: C2_4  and  N2_5 
REMARK       I    between atoms: C2_4  and  N4_9 
REMARK       I    between atoms: N4_9  and  C4_11 
REMARK       I    between atoms: N6_13  and  C5_15 
REMARK    1  A    between atoms: N8_17  and  C6_19 
REMARK    2  A    between atoms: C6_19  and  C7_20 
REMARK    3  A    between atoms: C7_20  and  C8_21 
REMARK    4  A    between atoms: C8_21  and  N9_22 
REMARK       I    between atoms: N9_22  and  C9_24 
REMARK    5  A    between atoms: C9_24  and  C10_26 
REMARK    6  A    between atoms: C10_26  and  C11_27 
REMARK    7  A    between atoms: C10_26  and  O2_46 
REMARK    8  A    between atoms: C11_27  and  C12_28 
REMARK    9  A    between atoms: N10_31  and  C15_32 
REMARK   10  A    between atoms: C15_32  and  C16_33 
REMARK   11  A    between atoms: C16_33  and  C17_34 
REMARK   12  A    between atoms: C17_34  and  C18_35 
REMARK   13  A    between atoms: C18_35  and  C19_36 
REMARK   14  A    between atoms: C19_36  and  C20_37 
REMARK   15  A    between atoms: C20_37  and  C21_38 
REMARK   16  A    between atoms: C21_38  and  C22_39 
REMARK   17  A    between atoms: C22_39  and  N11_40 
REMARK   18  A    between atoms: O2_46  and  C25_47 
REMARK   19  A    between atoms: C25_47  and  C26_48 
REMARK   20  A    between atoms: C26_48  and  N12_49 
REMARK       I    between atoms: N12_49  and  C27_51 
ROOT
HETATM    1  C1  UNL     1      38.890  14.055  61.182  1.00  0.00     0.165 C 
HETATM    2  N1  UNL     1      37.995  14.039  62.323  1.00  0.00    -0.230 N 
ATOM      3  H1  UNL     1      37.909  13.184  62.873  1.00  0.00     0.177 HD
HETATM    4  C2  UNL     1      37.300  15.080  62.663  1.00  0.00     0.689 C 
HETATM    5  N2  UNL     1      37.362  16.302  61.954  1.00  0.00    -0.126 N 
ATOM      6  H2  UNL     1      36.554  16.616  61.416  1.00  0.00     0.197 HD
HETATM    7  C3  UNL     1      38.520  17.082  61.985  1.00  0.00     0.196 C 
HETATM    8  N3  UNL     1      39.469  17.729  62.000  1.00  0.00    -0.171 NA
HETATM    9  N4  UNL     1      36.439  14.998  63.793  1.00  0.00    -0.163 N 
ATOM     10  H4  UNL     1      36.545  14.233  64.458  1.00  0.00     0.187 HD
HETATM   11  C4  UNL     1      35.438  15.974  63.995  1.00  0.00     0.209 C 
HETATM   12  N5  UNL     1      34.371  16.093  63.087  1.00  0.00    -0.063 NA
HETATM   13  N6  UNL     1      35.505  16.751  65.007  1.00  0.00    -0.304 N 
ATOM     14  H6  UNL     1      34.775  17.451  65.141  1.00  0.00     0.171 HD
HETATM   15  C5  UNL     1      36.563  16.671  65.952  1.00  0.00     0.190 C 
HETATM   16  N7  UNL     1      37.594  17.646  65.898  1.00  0.00    -0.063 NA
HETATM   17  N8  UNL     1      36.581  15.722  66.846  1.00  0.00    -0.364 N 
ATOM     18  H8  UNL     1      35.822  15.041  66.849  1.00  0.00     0.162 HD
ENDROOT
BRANCH  17  19
HETATM   19  C6  UNL     1      37.618  15.594  67.821  1.00  0.00     0.124 C 
BRANCH  19  20
HETATM   20  C7  UNL     1      37.489  16.717  68.858  1.00  0.00     0.039 C 
BRANCH  20  21
HETATM   21  C8  UNL     1      38.879  17.151  69.224  1.00  0.00     0.124 C 
BRANCH  21  22
HETATM   22  N9  UNL     1      39.730  17.444  68.116  1.00  0.00    -0.359 N 
HETATM   23  C9  UNL     1      40.196  18.727  67.768  1.00  0.00     0.246 C 
HETATM   24  O1  UNL     1      39.875  19.759  68.452  1.00  0.00    -0.271 OA
ATOM     25  H9  UNL     1      40.023  16.662  67.530  1.00  0.00     0.162 HD
BRANCH  23  26
HETATM   26  C10 UNL     1      41.078  18.975  66.601  1.00  0.00     0.217 C 
BRANCH  26  27
HETATM   27  C11 UNL     1      41.023  20.460  66.307  1.00  0.00     0.080 C 
BRANCH  27  28
HETATM   28  C12 UNL     1      42.428  21.000  66.166  1.00  0.00    -0.053 A 
HETATM   29  C13 UNL     1      42.689  22.165  65.513  1.00  0.00     0.024 A 
HETATM   30  C14 UNL     1      43.982  22.614  65.408  1.00  0.00     0.091 A 
HETATM   31  N10 UNL     1      45.022  21.942  65.932  1.00  0.00    -0.366 N 
HETATM   32  C23 UNL     1      44.745  20.793  66.573  1.00  0.00     0.091 A 
HETATM   33  C24 UNL     1      43.473  20.291  66.712  1.00  0.00     0.024 A 
BRANCH  31  34
HETATM   34  C15 UNL     1      46.403  22.403  65.837  1.00  0.00     0.128 C 
BRANCH  34  35
HETATM   35  C16 UNL     1      46.718  22.611  64.375  1.00  0.00     0.020 C 
BRANCH  35  36
HETATM   36  C17 UNL     1      47.984  23.394  64.148  1.00  0.00     0.002 C 
BRANCH  36  37
HETATM   37  C18 UNL     1      48.534  23.944  65.462  1.00  0.00     0.000 C 
BRANCH  37  38
HETATM   38  C19 UNL     1      48.893  25.388  65.357  1.00  0.00     0.000 C 
BRANCH  38  39
HETATM   39  C20 UNL     1      47.895  26.342  65.903  1.00  0.00     0.002 C 
BRANCH  39  40
HETATM   40  C21 UNL     1      46.843  25.745  66.777  1.00  0.00     0.027 C 
BRANCH  40  41
HETATM   41  C22 UNL     1      47.202  25.923  68.238  1.00  0.00     0.229 C 
BRANCH  41  42
HETATM   42  N11 UNL     1      47.080  24.695  68.979  1.00  0.00    -0.079 N 
ATOM     43 3H11 UNL     1      47.309  23.889  68.398  1.00  0.00     0.274 HD
ATOM     44 2H11 UNL     1      47.820  24.608  69.675  1.00  0.00     0.274 HD
ATOM     45 1H11 UNL     1      46.158  24.594  69.404  1.00  0.00     0.274 HD
ENDBRANCH  41  42
ENDBRANCH  40  41
ENDBRANCH  39  40
ENDBRANCH  38  39
ENDBRANCH  37  38
ENDBRANCH  36  37
ENDBRANCH  35  36
ENDBRANCH  34  35
ENDBRANCH  31  34
ENDBRANCH  27  28
ENDBRANCH  26  27
BRANCH  26  46
HETATM   46  O2  UNL     1      40.642  18.207  65.551  1.00  0.00    -0.374 OA
BRANCH  46  47
HETATM   47  C25 UNL     1      41.651  17.464  64.935  1.00  0.00     0.188 C 
BRANCH  47  48
HETATM   48  C26 UNL     1      42.155  18.271  63.782  1.00  0.00     0.150 C 
BRANCH  48  49
HETATM   49  N12 UNL     1      43.584  18.339  63.665  1.00  0.00    -0.343 N 
HETATM   50  C27 UNL     1      44.219  19.452  63.085  1.00  0.00     0.328 C 
HETATM   51  N13 UNL     1      45.652  19.527  62.959  1.00  0.00    -0.040 NA
HETATM   52  O3  UNL     1      43.592  20.443  62.641  1.00  0.00    -0.251 OA
ATOM     53  H12 UNL     1      44.150  17.564  64.010  1.00  0.00     0.163 HD
ENDBRANCH  48  49
ENDBRANCH  47  48
ENDBRANCH  46  47
ENDBRANCH  26  46
ENDBRANCH  23  26
ENDBRANCH  21  22
ENDBRANCH  20  21
ENDBRANCH  19  20
ENDBRANCH  17  19
TORSDOF 20
ENDMDL
MODEL 2
REMARK VINA RESULT: -7.990289929      2.271      4.812
REMARK  20 active torsions:
REMARK  status: ('A' for Active; 'I' for Inactive)
REMARK       I    between atoms: C2_4  and  N2_5 
REMARK       I    between atoms: C2_4  and  N4_9 
REMARK       I    between atoms: N4_9  and  C4_11 
REMARK       I    between atoms: N6_13  and  C5_15 
REMARK    1  A    between atoms: N8_17  and  C6_19 
REMARK    2  A    between atoms: C6_19  and  C7_20 
REMARK    3  A    between atoms: C7_20  and  C8_21 
REMARK    4  A    between atoms: C8_21  and  N9_22 
REMARK       I    between atoms: N9_22  and  C9_24 
REMARK    5  A    between atoms: C9_24  and  C10_26 
REMARK    6  A    between atoms: C10_26  and  C11_27 
REMARK    7  A    between atoms: C10_26  and  O2_46 
REMARK    8  A    between atoms: C11_27  and  C12_28 
REMARK    9  A    between atoms: N10_31  and  C15_32 
REMARK   10  A    between atoms: C15_32  and  C16_33 
REMARK   11  A    between atoms: C16_33  and  C17_34 
REMARK   12  A    between atoms: C17_34  and  C18_35 
REMARK   13  A    between atoms: C18_35  and  C19_36 
REMARK   14  A    between atoms: C19_36  and  C20_37 
REMARK   15  A    between atoms: C20_37  and  C21_38 
REMARK   16  A    between atoms: C21_38  and  C22_39 
REMARK   17  A    between atoms: C22_39  and  N11_40 
REMARK   18  A    between atoms: O2_46  and  C25_47 
REMARK   19  A    between atoms: C25_47  and  C26_48 
REMARK   20  A    between atoms: C26_48  and  N12_49 
REMARK       I    between atoms: N12_49  and  C27_51 
ROOT
HETATM    1  C1  UNL     1      36.387  18.594  67.953  1.00  0.00     0.165 C 
HETATM    2  N1  UNL     1      36.217  18.334  66.537  1.00  0.00    -0.230 N 
ATOM      3  H1  UNL     1      36.237  19.117  65.883  1.00  0.00     0.177 HD
HETATM    4  C2  UNL     1      36.039  17.133  66.078  1.00  0.00     0.689 C 
HETATM    5  N2  UNL     1      35.999  15.995  66.916  1.00  0.00    -0.126 N 
ATOM      6  H2  UNL     1      35.122  15.490  67.041  1.00  0.00     0.197 HD
HETATM    7  C3  UNL     1      37.151  15.559  67.575  1.00  0.00     0.196 C 
HETATM    8  N3  UNL     1      38.091  15.194  68.125  1.00  0.00    -0.171 NA
HETATM    9  N4  UNL     1      35.878  16.945  64.677  1.00  0.00    -0.163 N 
ATOM     10  H4  UNL     1      36.136  17.691  64.031  1.00  0.00     0.187 HD
HETATM   11  C4  UNL     1      35.361  15.729  64.178  1.00  0.00     0.209 C 
HETATM   12  N5  UNL     1      34.037  15.351  64.465  1.00  0.00    -0.063 NA
HETATM   13  N6  UNL     1      36.101  14.970  63.465  1.00  0.00    -0.304 N 
ATOM     14  H6  UNL     1      35.715  14.094  63.112  1.00  0.00     0.171 HD
HETATM   15  C5  UNL     1      37.445  15.306  63.149  1.00  0.00     0.190 C 
HETATM   16  N7  UNL     1      38.491  14.650  63.851  1.00  0.00    -0.063 NA
HETATM   17  N8  UNL     1      37.706  16.198  62.234  1.00  0.00    -0.364 N 
ATOM     18  H8  UNL     1      36.925  16.647  61.755  1.00  0.00     0.162 HD
ENDROOT
BRANCH  17  19
HETATM   19  C6  UNL     1      39.036  16.574  61.874  1.00  0.00     0.124 C 
BRANCH  19  20
HETATM   20  C7  UNL     1      39.468  17.791  62.703  1.00  0.00     0.039 C 
BRANCH  20  21
HETATM   21  C8  UNL     1      40.691  17.394  63.478  1.00  0.00     0.124 C 
BRANCH  21  22
HETATM   22  N9  UNL     1      41.832  18.227  63.270  1.00  0.00    -0.359 N 
HETATM   23  C9  UNL     1      42.091  19.432  63.951  1.00  0.00     0.246 C 
HETATM   24  O1  UNL     1      41.289  19.878  64.842  1.00  0.00    -0.271 OA
ATOM     25  H9  UNL     1      42.512  17.925  62.572  1.00  0.00     0.162 HD
BRANCH  23  26
HETATM   26  C10 UNL     1      43.294  20.261  63.692  1.00  0.00     0.217 C 
BRANCH  26  27
HETATM   27  C11 UNL     1      44.156  19.501  62.703  1.00  0.00     0.080 C 
BRANCH  27  28
HETATM   28  C12 UNL     1      45.346  20.349  62.314  1.00  0.00    -0.053 A 
HETATM   29  C13 UNL     1      46.611  20.035  62.705  1.00  0.00     0.024 A 
HETATM   30  C14 UNL     1      47.660  20.836  62.329  1.00  0.00     0.091 A 
HETATM   31  N10 UNL     1      47.491  21.939  61.578  1.00  0.00    -0.366 N 
HETATM   32  C23 UNL     1      46.234  22.234  61.202  1.00  0.00     0.091 A 
HETATM   33  C24 UNL     1      45.142  21.471  61.545  1.00  0.00     0.024 A 
BRANCH  31  34
HETATM   34  C15 UNL     1      48.591  22.802  61.163  1.00  0.00     0.128 C 
BRANCH  34  35
HETATM   35  C16 UNL     1      48.029  24.184  60.933  1.00  0.00     0.020 C 
BRANCH  35  36
HETATM   36  C17 UNL     1      49.026  25.280  61.200  1.00  0.00     0.002 C 
BRANCH  36  37
HETATM   37  C18 UNL     1      48.966  25.737  62.655  1.00  0.00     0.000 C 
BRANCH  37  38
HETATM   38  C19 UNL     1      49.565  27.090  62.843  1.00  0.00     0.000 C 
BRANCH  38  39
HETATM   39  C20 UNL     1      49.197  27.789  64.100  1.00  0.00     0.002 C 
BRANCH  39  40
HETATM   40  C21 UNL     1      48.591  26.932  65.161  1.00  0.00     0.027 C 
BRANCH  40  41
HETATM   41  C22 UNL     1      49.372  27.054  66.454  1.00  0.00     0.229 C 
BRANCH  41  42
HETATM   42  N11 UNL     1      48.966  26.071  67.424  1.00  0.00    -0.079 N 
ATOM     43 3H11 UNL     1      49.668  25.963  68.156  1.00  0.00     0.274 HD
ATOM     44 2H11 UNL     1      48.191  26.411  67.993  1.00  0.00     0.274 HD
ATOM     45 1H11 UNL     1      48.742  25.175  66.992  1.00  0.00     0.274 HD
ENDBRANCH  41  42
ENDBRANCH  40  41
ENDBRANCH  39  40
ENDBRANCH  38  39
ENDBRANCH  37  38
ENDBRANCH  36  37
ENDBRANCH  35  36
ENDBRANCH  34  35
ENDBRANCH  31  34
ENDBRANCH  27  28
ENDBRANCH  26  27
BRANCH  26  46
HETATM   46  O2  UNL     1      43.931  20.496  64.884  1.00  0.00    -0.374 OA
BRANCH  46  47
HETATM   47  C25 UNL     1      44.157  21.848  65.149  1.00  0.00     0.188 C 
BRANCH  47  48
HETATM   48  C26 UNL     1      45.218  21.923  66.199  1.00  0.00     0.150 C 
BRANCH  48  49
HETATM   49  N12 UNL     1      46.553  22.101  65.703  1.00  0.00    -0.343 N 
HETATM   50  C27 UNL     1      47.330  23.211  66.079  1.00  0.00     0.328 C 
HETATM   51  N13 UNL     1      48.670  23.403  65.583  1.00  0.00    -0.040 NA
HETATM   52  O3  UNL     1      46.919  24.103  66.859  1.00  0.00    -0.251 OA
ATOM     53  H12 UNL     1      46.946  21.409  65.066  1.00  0.00     0.163 HD
ENDBRANCH  48  49
ENDBRANCH  47  48
ENDBRANCH  46  47
ENDBRANCH  26  46
ENDBRANCH  23  26
ENDBRANCH  21  22
ENDBRANCH  20  21
ENDBRANCH  19  20
ENDBRANCH  17  19
TORSDOF 20
ENDMDL
MODEL 3
REMARK VINA RESULT: -7.910064947      3.183      8.924
REMARK  20 active torsions:
REMARK  status: ('A' for Active; 'I' for Inactive)
REMARK       I    between atoms: C2_4  and  N2_5 
REMARK       I    between atoms: C2_4  and  N4_9 
REMARK       I    between atoms: N4_9  and  C4_11 
REMARK       I    between atoms: N6_13  and  C5_15 
REMARK    1  A    between atoms: N8_17  and  C6_19 
REMARK    2  A    between atoms: C6_19  and  C7_20 
REMARK    3  A    between atoms: C7_20  and  C8_21 
REMARK    4  A    between atoms: C8_21  and  N9_22 
REMARK       I    between atoms: N9_22  and  C9_24 
REMARK    5  A    between atoms: C9_24  and  C10_26 
REMARK    6  A    between atoms: C10_26  and  C11_27 
REMARK    7  A    between atoms: C10_26  and  O2_46 
REMARK    8  A    between atoms: C11_27  and  C12_28 
REMARK    9  A    between atoms: N10_31  and  C15_32 
REMARK   10  A    between atoms: C15_32  and  C16_33 
REMARK   11  A    between atoms: C16_33  and  C17_34 
REMARK   12  A    between atoms: C17_34  and  C18_35 
REMARK   13  A    between atoms: C18_35  and  C19_36 
REMARK   14  A    between atoms: C19_36  and  C20_37 
REMARK   15  A    between atoms: C20_37  and  C21_38 
REMARK   16  A    between atoms: C21_38  and  C22_39 
REMARK   17  A    between atoms: C22_39  and  N11_40 
REMARK   18  A    between atoms: O2_46  and  C25_47 
REMARK   19  A    between atoms: C25_47  and  C26_48 
REMARK   20  A    between atoms: C26_48  and  N12_49 
REMARK       I    between atoms: N12_49  and  C27_51 
ROOT
HETATM    1  C1  UNL     1      32.832  18.825  70.507  1.00  0.00     0.165 C 
HETATM    2  N1  UNL     1      33.692  18.747  69.341  1.00  0.00    -0.230 N 
ATOM      3  H1  UNL     1      33.848  19.587  68.784  1.00  0.00     0.177 HD
HETATM    4  C2  UNL     1      34.267  17.639  68.988  1.00  0.00     0.689 C 
HETATM    5  N2  UNL     1      34.102  16.432  69.707  1.00  0.00    -0.126 N 
ATOM      6  H2  UNL     1      33.584  15.661  69.288  1.00  0.00     0.197 HD
HETATM    7  C3  UNL     1      34.643  16.290  70.987  1.00  0.00     0.196 C 
HETATM    8  N3  UNL     1      35.080  16.163  72.042  1.00  0.00    -0.171 NA
HETATM    9  N4  UNL     1      35.098  17.629  67.834  1.00  0.00    -0.163 N 
ATOM     10  H4  UNL     1      35.429  18.508  67.437  1.00  0.00     0.187 HD
HETATM   11  C4  UNL     1      35.467  16.404  67.235  1.00  0.00     0.209 C 
HETATM   12  N5  UNL     1      34.491  15.584  66.641  1.00  0.00    -0.063 NA
HETATM   13  N6  UNL     1      36.692  16.041  67.235  1.00  0.00    -0.304 N 
ATOM     14  H6  UNL     1      36.944  15.154  66.799  1.00  0.00     0.171 HD
HETATM   15  C5  UNL     1      37.714  16.833  67.823  1.00  0.00     0.190 C 
HETATM   16  N7  UNL     1      38.229  16.445  69.088  1.00  0.00    -0.063 NA
HETATM   17  N8  UNL     1      38.166  17.891  67.211  1.00  0.00    -0.364 N 
ATOM     18  H8  UNL     1      37.767  18.136  66.304  1.00  0.00     0.162 HD
ENDROOT
BRANCH  17  19
HETATM   19  C6  UNL     1      39.192  18.724  67.752  1.00  0.00     0.124 C 
BRANCH  19  20
HETATM   20  C7  UNL     1      38.735  20.188  67.724  1.00  0.00     0.039 C 
BRANCH  20  21
HETATM   21  C8  UNL     1      39.898  21.013  67.255  1.00  0.00     0.124 C 
BRANCH  21  22
HETATM   22  N9  UNL     1      41.051  20.264  66.871  1.00  0.00    -0.359 N 
HETATM   23  C9  UNL     1      41.805  20.480  65.701  1.00  0.00     0.246 C 
HETATM   24  O1  UNL     1      41.495  21.401  64.870  1.00  0.00    -0.271 OA
ATOM     25  H9  UNL     1      41.352  19.513  67.493  1.00  0.00     0.162 HD
BRANCH  23  26
HETATM   26  C10 UNL     1      42.995  19.667  65.348  1.00  0.00     0.217 C 
BRANCH  26  27
HETATM   27  C11 UNL     1      42.691  18.235  65.743  1.00  0.00     0.080 C 
BRANCH  27  28
HETATM   28  C12 UNL     1      41.905  17.563  64.640  1.00  0.00    -0.053 A 
HETATM   29  C13 UNL     1      40.661  17.053  64.852  1.00  0.00     0.024 A 
HETATM   30  C14 UNL     1      39.987  16.449  63.820  1.00  0.00     0.091 A 
HETATM   31  N10 UNL     1      40.510  16.335  62.586  1.00  0.00    -0.366 N 
HETATM   32  C23 UNL     1      41.740  16.844  62.396  1.00  0.00     0.091 A 
HETATM   33  C24 UNL     1      42.466  17.462  63.388  1.00  0.00     0.024 A 
BRANCH  31  34
HETATM   34  C15 UNL     1      39.810  15.702  61.474  1.00  0.00     0.128 C 
BRANCH  34  35
HETATM   35  C16 UNL     1      39.261  14.386  61.968  1.00  0.00     0.020 C 
BRANCH  35  36
HETATM   36  C17 UNL     1      37.756  14.329  61.954  1.00  0.00     0.002 C 
BRANCH  36  37
HETATM   37  C18 UNL     1      37.183  14.595  63.344  1.00  0.00     0.000 C 
BRANCH  37  38
HETATM   38  C19 UNL     1      35.746  14.990  63.291  1.00  0.00     0.000 C 
BRANCH  38  39
HETATM   39  C20 UNL     1      34.777  13.877  63.119  1.00  0.00     0.002 C 
BRANCH  39  40
HETATM   40  C21 UNL     1      33.339  14.247  63.264  1.00  0.00     0.027 C 
BRANCH  40  41
HETATM   41  C22 UNL     1      32.584  13.165  64.010  1.00  0.00     0.229 C 
BRANCH  41  42
HETATM   42  N11 UNL     1      33.031  13.035  65.372  1.00  0.00    -0.079 N 
ATOM     43 3H11 UNL     1      33.795  13.679  65.573  1.00  0.00     0.274 HD
ATOM     44 2H11 UNL     1      32.337  13.399  66.025  1.00  0.00     0.274 HD
ATOM     45 1H11 UNL     1      33.286  12.075  65.601  1.00  0.00     0.274 HD
ENDBRANCH  41  42
ENDBRANCH  40  41
ENDBRANCH  39  40
ENDBRANCH  38  39
ENDBRANCH  37  38
ENDBRANCH  36  37
ENDBRANCH  35  36
ENDBRANCH  34  35
ENDBRANCH  31  34
ENDBRANCH  27  28
ENDBRANCH  26  27
BRANCH  26  46
HETATM   46  O2  UNL     1      44.086  20.180  66.002  1.00  0.00    -0.374 OA
BRANCH  46  47
HETATM   47  C25 UNL     1      45.302  19.624  65.598  1.00  0.00     0.188 C 
BRANCH  47  48
HETATM   48  C26 UNL     1      45.498  19.981  64.160  1.00  0.00     0.150 C 
BRANCH  48  49
HETATM   49  N12 UNL     1      46.735  20.647  63.863  1.00  0.00    -0.343 N 
HETATM   50  C27 UNL     1      47.370  20.487  62.618  1.00  0.00     0.328 C 
HETATM   51  N13 UNL     1      48.614  21.147  62.310  1.00  0.00    -0.040 NA
HETATM   52  O3  UNL     1      46.907  19.769  61.700  1.00  0.00    -0.251 OA
ATOM     53  H12 UNL     1      47.161  21.247  64.568  1.00  0.00     0.163 HD
ENDBRANCH  48  49
ENDBRANCH  47  48
ENDBRANCH  46  47
ENDBRANCH  26  46
ENDBRANCH  23  26
ENDBRANCH  21  22
ENDBRANCH  20  21
ENDBRANCH  19  20
ENDBRANCH  17  19
TORSDOF 20
ENDMDL
MODEL 4
REMARK VINA RESULT: -7.885302509      2.007      4.282
REMARK  20 active torsions:
REMARK  status: ('A' for Active; 'I' for Inactive)
REMARK       I    between atoms: C2_4  and  N2_5 
REMARK       I    between atoms: C2_4  and  N4_9 
REMARK       I    between atoms: N4_9  and  C4_11 
REMARK       I    between atoms: N6_13  and  C5_15 
REMARK    1  A    between atoms: N8_17  and  C6_19 
REMARK    2  A    between atoms: C6_19  and  C7_20 
REMARK    3  A    between atoms: C7_20  and  C8_21 
REMARK    4  A    between atoms: C8_21  and  N9_22 
REMARK       I    between atoms: N9_22  and  C9_24 
REMARK    5  A    between atoms: C9_24  and  C10_26 
REMARK    6  A    between atoms: C10_26  and  C11_27 
REMARK    7  A    between atoms: C10_26  and  O2_46 
REMARK    8  A    between atoms: C11_27  and  C12_28 
REMARK    9  A    between atoms: N10_31  and  C15_32 
REMARK   10  A    between atoms: C15_32  and  C16_33 
REMARK   11  A    between atoms: C16_33  and  C17_34 
REMARK   12  A    between atoms: C17_34  and  C18_35 
REMARK   13  A    between atoms: C18_35  and  C19_36 
REMARK   14  A    between atoms: C19_36  and  C20_37 
REMARK   15  A    between atoms: C20_37  and  C21_38 
REMARK   16  A    between atoms: C21_38  and  C22_39 
REMARK   17  A    between atoms: C22_39  and  N11_40 
REMARK   18  A    between atoms: O2_46  and  C25_47 
REMARK   19  A    between atoms: C25_47  and  C26_48 
REMARK   20  A    between atoms: C26_48  and  N12_49 
REMARK       I    between atoms: N12_49  and  C27_51 
ROOT
HETATM    1  C1  UNL     1      38.059  20.634  67.498  1.00  0.00     0.165 C 
HETATM    2  N1  UNL     1      37.379  19.785  66.539  1.00  0.00    -0.230 N 
ATOM      3  H1  UNL     1      37.156  20.159  65.616  1.00  0.00     0.177 HD
HETATM    4  C2  UNL     1      37.047  18.563  66.821  1.00  0.00     0.689 C 
HETATM    5  N2  UNL     1      37.320  17.969  68.075  1.00  0.00    -0.126 N 
ATOM      6  H2  UNL     1      36.552  17.747  68.708  1.00  0.00     0.197 HD
HETATM    7  C3  UNL     1      38.634  17.685  68.453  1.00  0.00     0.196 C 
HETATM    8  N3  UNL     1      39.712  17.451  68.776  1.00  0.00    -0.171 NA
HETATM    9  N4  UNL     1      36.381  17.782  65.836  1.00  0.00    -0.163 N 
ATOM     10  H4  UNL     1      36.381  18.084  64.861  1.00  0.00     0.187 HD
HETATM   11  C4  UNL     1      35.719  16.590  66.202  1.00  0.00     0.209 C 
HETATM   12  N5  UNL     1      34.594  16.635  67.045  1.00  0.00    -0.063 NA
HETATM   13  N6  UNL     1      36.145  15.467  65.766  1.00  0.00    -0.304 N 
ATOM     14  H6  UNL     1      35.657  14.614  66.039  1.00  0.00     0.171 HD
HETATM   15  C5  UNL     1      37.277  15.369  64.913  1.00  0.00     0.190 C 
HETATM   16  N7  UNL     1      38.509  14.934  65.469  1.00  0.00    -0.063 NA
HETATM   17  N8  UNL     1      37.181  15.674  63.649  1.00  0.00    -0.364 N 
ATOM     18  H8  UNL     1      36.278  15.984  63.290  1.00  0.00     0.162 HD
ENDROOT
BRANCH  17  19
HETATM   19  C6  UNL     1      38.284  15.593  62.745  1.00  0.00     0.124 C 
BRANCH  19  20
HETATM   20  C7  UNL     1      39.135  16.865  62.858  1.00  0.00     0.039 C 
BRANCH  20  21
HETATM   21  C8  UNL     1      40.571  16.460  62.690  1.00  0.00     0.124 C 
BRANCH  21  22
HETATM   22  N9  UNL     1      41.509  17.535  62.734  1.00  0.00    -0.359 N 
HETATM   23  C9  UNL     1      41.960  18.170  63.908  1.00  0.00     0.246 C 
HETATM   24  O1  UNL     1      41.543  17.809  65.062  1.00  0.00    -0.271 OA
ATOM     25  H9  UNL     1      41.881  17.870  61.845  1.00  0.00     0.162 HD
BRANCH  23  26
HETATM   26  C10 UNL     1      42.935  19.288  63.895  1.00  0.00     0.217 C 
BRANCH  26  27
HETATM   27  C11 UNL     1      42.183  20.542  64.294  1.00  0.00     0.080 C 
BRANCH  27  28
HETATM   28  C12 UNL     1      43.051  21.384  65.203  1.00  0.00    -0.053 A 
HETATM   29  C13 UNL     1      43.250  22.711  64.979  1.00  0.00     0.024 A 
HETATM   30  C14 UNL     1      44.048  23.434  65.830  1.00  0.00     0.091 A 
HETATM   31  N10 UNL     1      44.654  22.879  66.895  1.00  0.00    -0.366 N 
HETATM   32  C23 UNL     1      44.446  21.567  67.099  1.00  0.00     0.091 A 
HETATM   33  C24 UNL     1      43.658  20.789  66.285  1.00  0.00     0.024 A 
BRANCH  31  34
HETATM   34  C15 UNL     1      45.502  23.629  67.815  1.00  0.00     0.128 C 
BRANCH  34  35
HETATM   35  C16 UNL     1      46.207  24.700  67.019  1.00  0.00     0.020 C 
BRANCH  35  36
HETATM   36  C17 UNL     1      47.520  24.241  66.442  1.00  0.00     0.002 C 
BRANCH  36  37
HETATM   37  C18 UNL     1      48.692  24.979  67.086  1.00  0.00     0.000 C 
BRANCH  37  38
HETATM   38  C19 UNL     1      48.522  26.460  67.024  1.00  0.00     0.000 C 
BRANCH  38  39
HETATM   39  C20 UNL     1      49.207  27.141  65.896  1.00  0.00     0.002 C 
BRANCH  39  40
HETATM   40  C21 UNL     1      48.503  27.075  64.582  1.00  0.00     0.027 C 
BRANCH  40  41
HETATM   41  C22 UNL     1      49.282  26.220  63.604  1.00  0.00     0.229 C 
BRANCH  41  42
HETATM   42  N11 UNL     1      48.444  25.255  62.942  1.00  0.00    -0.079 N 
ATOM     43 3H11 UNL     1      48.948  24.386  62.767  1.00  0.00     0.274 HD
ATOM     44 2H11 UNL     1      47.722  24.900  63.570  1.00  0.00     0.274 HD
ATOM     45 1H11 UNL     1      48.037  25.626  62.084  1.00  0.00     0.274 HD
ENDBRANCH  41  42
ENDBRANCH  40  41
ENDBRANCH  39  40
ENDBRANCH  38  39
ENDBRANCH  37  38
ENDBRANCH  36  37
ENDBRANCH  35  36
ENDBRANCH  34  35
ENDBRANCH  31  34
ENDBRANCH  27  28
ENDBRANCH  26  27
BRANCH  26  46
HETATM   46  O2  UNL     1      43.488  19.374  62.642  1.00  0.00    -0.374 OA
BRANCH  46  47
HETATM   47  C25 UNL     1      44.854  19.660  62.644  1.00  0.00     0.188 C 
BRANCH  47  48
HETATM   48  C26 UNL     1      45.067  20.817  61.721  1.00  0.00     0.150 C 
BRANCH  48  49
HETATM   49  N12 UNL     1      46.435  21.069  61.368  1.00  0.00    -0.343 N 
HETATM   50  C27 UNL     1      47.238  21.939  62.128  1.00  0.00     0.328 C 
HETATM   51  N13 UNL     1      48.611  22.203  61.780  1.00  0.00    -0.040 NA
HETATM   52  O3  UNL     1      46.822  22.539  63.148  1.00  0.00    -0.251 OA
ATOM     53  H12 UNL     1      46.833  20.610  60.550  1.00  0.00     0.163 HD
ENDBRANCH  48  49
ENDBRANCH  47  48
ENDBRANCH  46  47
ENDBRANCH  26  46
ENDBRANCH  23  26
ENDBRANCH  21  22
ENDBRANCH  20  21
ENDBRANCH  19  20
ENDBRANCH  17  19
TORSDOF 20
ENDMDL
MODEL 5
REMARK VINA RESULT: -7.848510289      1.698      4.698
REMARK  20 active torsions:
REMARK  status: ('A' for Active; 'I' for Inactive)
REMARK       I    between atoms: C2_4  and  N2_5 
REMARK       I    between atoms: C2_4  and  N4_9 
REMARK       I    between atoms: N4_9  and  C4_11 
REMARK       I    between atoms: N6_13  and  C5_15 
REMARK    1  A    between atoms: N8_17  and  C6_19 
REMARK    2  A    between atoms: C6_19  and  C7_20 
REMARK    3  A    between atoms: C7_20  and  C8_21 
REMARK    4  A    between atoms: C8_21  and  N9_22 
REMARK       I    between atoms: N9_22  and  C9_24 
REMARK    5  A    between atoms: C9_24  and  C10_26 
REMARK    6  A    between atoms: C10_26  and  C11_27 
REMARK    7  A    between atoms: C10_26  and  O2_46 
REMARK    8  A    between atoms: C11_27  and  C12_28 
REMARK    9  A    between atoms: N10_31  and  C15_32 
REMARK   10  A    between atoms: C15_32  and  C16_33 
REMARK   11  A    between atoms: C16_33  and  C17_34 
REMARK   12  A    between atoms: C17_34  and  C18_35 
REMARK   13  A    between atoms: C18_35  and  C19_36 
REMARK   14  A    between atoms: C19_36  and  C20_37 
REMARK   15  A    between atoms: C20_37  and  C21_38 
REMARK   16  A    between atoms: C21_38  and  C22_39 
REMARK   17  A    between atoms: C22_39  and  N11_40 
REMARK   18  A    between atoms: O2_46  and  C25_47 
REMARK   19  A    between atoms: C25_47  and  C26_48 
REMARK   20  A    between atoms: C26_48  and  N12_49 
REMARK       I    between atoms: N12_49  and  C27_51 
ROOT
HETATM    1  C1  UNL     1      35.890  18.389  68.058  1.00  0.00     0.165 C 
HETATM    2  N1  UNL     1      35.759  18.118  66.639  1.00  0.00    -0.230 N 
ATOM      3  H1  UNL     1      35.642  18.900  65.994  1.00  0.00     0.177 HD
HETATM    4  C2  UNL     1      35.786  16.910  66.167  1.00  0.00     0.689 C 
HETATM    5  N2  UNL     1      35.945  15.773  66.993  1.00  0.00    -0.126 N 
ATOM      6  H2  UNL     1      35.168  15.124  67.116  1.00  0.00     0.197 HD
HETATM    7  C3  UNL     1      37.158  15.532  67.643  1.00  0.00     0.196 C 
HETATM    8  N3  UNL     1      38.150  15.327  68.185  1.00  0.00    -0.171 NA
HETATM    9  N4  UNL     1      35.652  16.712  64.765  1.00  0.00    -0.163 N 
ATOM     10  H4  UNL     1      35.776  17.497  64.126  1.00  0.00     0.187 HD
HETATM   11  C4  UNL     1      35.348  15.430  64.254  1.00  0.00     0.209 C 
HETATM   12  N5  UNL     1      34.110  14.829  64.541  1.00  0.00    -0.063 NA
HETATM   13  N6  UNL     1      36.203  14.816  63.531  1.00  0.00    -0.304 N 
ATOM     14  H6  UNL     1      35.970  13.891  63.169  1.00  0.00     0.171 HD
HETATM   15  C5  UNL     1      37.468  15.380  63.214  1.00  0.00     0.190 C 
HETATM   16  N7  UNL     1      38.614  14.905  63.904  1.00  0.00    -0.063 NA
HETATM   17  N8  UNL     1      37.568  16.313  62.308  1.00  0.00    -0.364 N 
ATOM     18  H8  UNL     1      36.720  16.627  61.836  1.00  0.00     0.162 HD
ENDROOT
BRANCH  17  19
HETATM   19  C6  UNL     1      38.813  16.914  61.947  1.00  0.00     0.124 C 
BRANCH  19  20
HETATM   20  C7  UNL     1      39.718  15.865  61.288  1.00  0.00     0.039 C 
BRANCH  20  21
HETATM   21  C8  UNL     1      41.068  15.966  61.937  1.00  0.00     0.124 C 
BRANCH  21  22
HETATM   22  N9  UNL     1      41.076  16.603  63.214  1.00  0.00    -0.359 N 
HETATM   23  C9  UNL     1      41.801  17.768  63.535  1.00  0.00     0.246 C 
HETATM   24  O1  UNL     1      42.531  18.358  62.666  1.00  0.00    -0.271 OA
ATOM     25  H9  UNL     1      40.512  16.182  63.952  1.00  0.00     0.162 HD
BRANCH  23  26
HETATM   26  C10 UNL     1      41.775  18.387  64.883  1.00  0.00     0.217 C 
BRANCH  26  27
HETATM   27  C11 UNL     1      43.194  18.354  65.417  1.00  0.00     0.080 C 
BRANCH  27  28
HETATM   28  C12 UNL     1      43.643  19.761  65.743  1.00  0.00    -0.053 A 
HETATM   29  C13 UNL     1      42.765  20.798  65.812  1.00  0.00     0.024 A 
HETATM   30  C14 UNL     1      43.220  22.058  66.110  1.00  0.00     0.091 A 
HETATM   31  N10 UNL     1      44.519  22.320  66.340  1.00  0.00    -0.366 N 
HETATM   32  C23 UNL     1      45.372  21.282  66.266  1.00  0.00     0.091 A 
HETATM   33  C24 UNL     1      44.978  19.997  65.974  1.00  0.00     0.024 A 
BRANCH  31  34
HETATM   34  C15 UNL     1      45.024  23.649  66.662  1.00  0.00     0.128 C 
BRANCH  34  35
HETATM   35  C16 UNL     1      45.339  23.675  68.138  1.00  0.00     0.020 C 
BRANCH  35  36
HETATM   36  C17 UNL     1      46.522  24.543  68.476  1.00  0.00     0.002 C 
BRANCH  36  37
HETATM   37  C18 UNL     1      46.819  25.531  67.350  1.00  0.00     0.000 C 
BRANCH  37  38
HETATM   38  C19 UNL     1      48.250  25.487  66.930  1.00  0.00     0.000 C 
BRANCH  38  39
HETATM   39  C20 UNL     1      48.509  24.921  65.582  1.00  0.00     0.002 C 
BRANCH  39  40
HETATM   40  C21 UNL     1      48.284  23.452  65.445  1.00  0.00     0.027 C 
BRANCH  40  41
HETATM   41  C22 UNL     1      47.831  23.112  64.041  1.00  0.00     0.229 C 
BRANCH  41  42
HETATM   42  N11 UNL     1      47.793  21.691  63.814  1.00  0.00    -0.079 N 
ATOM     43 3H11 UNL     1      48.711  21.270  63.954  1.00  0.00     0.274 HD
ATOM     44 2H11 UNL     1      47.281  21.212  64.555  1.00  0.00     0.274 HD
ATOM     45 1H11 UNL     1      47.416  21.459  62.895  1.00  0.00     0.274 HD
ENDBRANCH  41  42
ENDBRANCH  40  41
ENDBRANCH  39  40
ENDBRANCH  38  39
ENDBRANCH  37  38
ENDBRANCH  36  37
ENDBRANCH  35  36
ENDBRANCH  34  35
ENDBRANCH  31  34
ENDBRANCH  27  28
ENDBRANCH  26  27
BRANCH  26  46
HETATM   46  O2  UNL     1      40.894  17.689  65.669  1.00  0.00    -0.374 OA
BRANCH  46  47
HETATM   47  C25 UNL     1      39.708  18.375  65.937  1.00  0.00     0.188 C 
BRANCH  47  48
HETATM   48  C26 UNL     1      39.524  18.382  67.420  1.00  0.00     0.150 C 
BRANCH  48  49
HETATM   49  N12 UNL     1      39.873  19.613  68.070  1.00  0.00    -0.343 N 
HETATM   50  C27 UNL     1      39.065  20.758  67.948  1.00  0.00     0.328 C 
HETATM   51  N13 UNL     1      39.409  22.001  68.592  1.00  0.00    -0.040 NA
HETATM   52  O3  UNL     1      38.005  20.781  67.279  1.00  0.00    -0.251 OA
ATOM     53  H12 UNL     1      40.723  19.659  68.631  1.00  0.00     0.163 HD
ENDBRANCH  48  49
ENDBRANCH  47  48
ENDBRANCH  46  47
ENDBRANCH  26  46
ENDBRANCH  23  26
ENDBRANCH  21  22
ENDBRANCH  20  21
ENDBRANCH  19  20
ENDBRANCH  17  19
TORSDOF 20
ENDMDL
