MODEL 1
REMARK VINA RESULT: -5.848526330      0.000      0.000
REMARK  14 active torsions:
REMARK  status: ('A' for Active; 'I' for Inactive)
REMARK    1  A    between atoms: C1_1  and  C2_2 
REMARK    2  A    between atoms: C1_1  and  C13_13 
REMARK    3  A    between atoms: C2_2  and  C3_3 
REMARK    4  A    between atoms: C3_3  and  C4_4 
REMARK    5  A    between atoms: C4_4  and  C5_5 
REMARK    6  A    between atoms: C5_5  and  C6_6 
REMARK    7  A    between atoms: C6_6  and  C7_7 
REMARK    8  A    between atoms: C13_13  and  C14_14 
REMARK    9  A    between atoms: C14_14  and  C15_15 
REMARK   10  A    between atoms: C15_15  and  C16_16 
REMARK   11  A    between atoms: C16_16  and  N1_17 
REMARK   12  A    between atoms: N1_17  and  C17_20 
REMARK   13  A    between atoms: C17_20  and  C18_21 
REMARK   14  A    between atoms: C18_21  and  C19_22 
ROOT
HETATM    1  C1  UNL     1     -50.348  70.010  -9.085  1.00  0.00     0.000 C 
ENDROOT
BRANCH   1   2
HETATM    2  C2  UNL     1     -51.049  71.154  -9.790  1.00  0.00     0.000 C 
BRANCH   2   3
HETATM    3  C3  UNL     1     -50.582  72.493  -9.250  1.00  0.00     0.000 C 
BRANCH   3   4
HETATM    4  C4  UNL     1     -51.108  72.869  -7.926  1.00  0.00     0.000 C 
BRANCH   4   5
HETATM    5  C5  UNL     1     -50.100  73.373  -6.918  1.00  0.00     0.000 C 
BRANCH   5   6
HETATM    6  C6  UNL     1     -49.576  72.255  -6.068  1.00  0.00     0.004 C 
BRANCH   6   7
HETATM    7  C7  UNL     1     -48.226  71.743  -6.371  1.00  0.00    -0.014 C 
HETATM    8  C8  UNL     1     -47.346  71.371  -5.233  1.00  0.00     0.004 C 
HETATM    9  C9  UNL     1     -46.078  70.742  -5.772  1.00  0.00     0.000 C 
HETATM   10  C10 UNL     1     -45.783  71.041  -7.194  1.00  0.00     0.000 C 
HETATM   11  C11 UNL     1     -46.150  72.449  -7.614  1.00  0.00     0.000 C 
HETATM   12  C12 UNL     1     -47.508  72.858  -7.160  1.00  0.00     0.004 C 
ENDBRANCH   6   7
ENDBRANCH   5   6
ENDBRANCH   4   5
ENDBRANCH   3   4
ENDBRANCH   2   3
ENDBRANCH   1   2
BRANCH   1  13
HETATM   13  C13 UNL     1     -48.863  69.941  -9.425  1.00  0.00     0.000 C 
BRANCH  13  14
HETATM   14  C14 UNL     1     -48.218  68.747  -8.759  1.00  0.00     0.002 C 
BRANCH  14  15
HETATM   15  C15 UNL     1     -48.865  67.481  -9.331  1.00  0.00     0.027 C 
BRANCH  15  16
HETATM   16  C16 UNL     1     -48.095  67.083 -10.597  1.00  0.00     0.232 C 
BRANCH  16  17
HETATM   17  N1  UNL     1     -48.974  66.874 -11.734  1.00  0.00    -0.075 N 
ATOM     18  H12 UNL     1     -48.925  65.908 -12.060  1.00  0.00     0.277 HD
ATOM     19  H11 UNL     1     -49.952  66.904 -11.449  1.00  0.00     0.277 HD
BRANCH  17  20
HETATM   20  C17 UNL     1     -48.727  67.782 -12.801  1.00  0.00     0.232 C 
BRANCH  20  21
HETATM   21  C18 UNL     1     -49.808  68.742 -13.146  1.00  0.00     0.032 C 
BRANCH  21  22
HETATM   22  C19 UNL     1     -51.099  68.540 -12.455  1.00  0.00    -0.013 A 
HETATM   23  C20 UNL     1     -52.218  67.849 -13.179  1.00  0.00     0.005 A 
HETATM   24  C21 UNL     1     -52.360  69.295 -12.801  1.00  0.00     0.005 A 
ENDBRANCH  21  22
ENDBRANCH  20  21
ENDBRANCH  17  20
ENDBRANCH  16  17
ENDBRANCH  15  16
ENDBRANCH  14  15
ENDBRANCH  13  14
ENDBRANCH   1  13
TORSDOF 14
ENDMDL
MODEL 2
REMARK VINA RESULT: -5.844839232      1.815      6.484
REMARK  14 active torsions:
REMARK  status: ('A' for Active; 'I' for Inactive)
REMARK    1  A    between atoms: C1_1  and  C2_2 
REMARK    2  A    between atoms: C1_1  and  C13_13 
REMARK    3  A    between atoms: C2_2  and  C3_3 
REMARK    4  A    between atoms: C3_3  and  C4_4 
REMARK    5  A    between atoms: C4_4  and  C5_5 
REMARK    6  A    between atoms: C5_5  and  C6_6 
REMARK    7  A    between atoms: C6_6  and  C7_7 
REMARK    8  A    between atoms: C13_13  and  C14_14 
REMARK    9  A    between atoms: C14_14  and  C15_15 
REMARK   10  A    between atoms: C15_15  and  C16_16 
REMARK   11  A    between atoms: C16_16  and  N1_17 
REMARK   12  A    between atoms: N1_17  and  C17_20 
REMARK   13  A    between atoms: C17_20  and  C18_21 
REMARK   14  A    between atoms: C18_21  and  C19_22 
ROOT
HETATM    1  C1  UNL     1     -50.455  70.977 -10.164  1.00  0.00     0.000 C 
ENDROOT
BRANCH   1   2
HETATM    2  C2  UNL     1     -51.828  71.406 -10.644  1.00  0.00     0.000 C 
BRANCH   2   3
HETATM    3  C3  UNL     1     -51.919  71.342 -12.157  1.00  0.00     0.000 C 
BRANCH   3   4
HETATM    4  C4  UNL     1     -53.072  70.601 -12.699  1.00  0.00     0.000 C 
BRANCH   4   5
HETATM    5  C5  UNL     1     -52.852  69.136 -12.998  1.00  0.00     0.000 C 
BRANCH   5   6
HETATM    6  C6  UNL     1     -51.609  68.927 -13.811  1.00  0.00     0.004 C 
BRANCH   6   7
HETATM    7  C7  UNL     1     -50.550  68.081 -13.231  1.00  0.00    -0.014 C 
HETATM    8  C8  UNL     1     -50.789  67.475 -11.896  1.00  0.00     0.004 C 
HETATM    9  C9  UNL     1     -49.645  66.539 -11.565  1.00  0.00     0.000 C 
HETATM   10  C10 UNL     1     -48.401  66.768 -12.338  1.00  0.00     0.000 C 
HETATM   11  C11 UNL     1     -48.109  68.228 -12.615  1.00  0.00     0.000 C 
HETATM   12  C12 UNL     1     -49.299  68.976 -13.110  1.00  0.00     0.004 C 
ENDBRANCH   6   7
ENDBRANCH   5   6
ENDBRANCH   4   5
ENDBRANCH   3   4
ENDBRANCH   2   3
ENDBRANCH   1   2
BRANCH   1  13
HETATM   13  C13 UNL     1     -50.528  69.938  -9.050  1.00  0.00     0.000 C 
BRANCH  13  14
HETATM   14  C14 UNL     1     -49.265  69.108  -9.010  1.00  0.00     0.002 C 
BRANCH  14  15
HETATM   15  C15 UNL     1     -48.082  70.035  -9.313  1.00  0.00     0.027 C 
BRANCH  15  16
HETATM   16  C16 UNL     1     -46.959  69.715  -8.318  1.00  0.00     0.232 C 
BRANCH  16  17
HETATM   17  N1  UNL     1     -46.627  70.851  -7.476  1.00  0.00    -0.075 N 
ATOM     18  H12 UNL     1     -45.659  70.801  -7.161  1.00  0.00     0.277 HD
ATOM     19  H11 UNL     1     -46.580  71.709  -8.025  1.00  0.00     0.277 HD
BRANCH  17  20
HETATM   20  C17 UNL     1     -47.513  71.001  -6.373  1.00  0.00     0.232 C 
BRANCH  20  21
HETATM   21  C18 UNL     1     -48.027  72.367  -6.089  1.00  0.00     0.032 C 
BRANCH  21  22
HETATM   22  C19 UNL     1     -49.497  72.500  -6.003  1.00  0.00    -0.013 A 
HETATM   23  C20 UNL     1     -50.237  73.180  -7.118  1.00  0.00     0.005 A 
HETATM   24  C21 UNL     1     -50.204  73.812  -5.757  1.00  0.00     0.005 A 
ENDBRANCH  21  22
ENDBRANCH  20  21
ENDBRANCH  17  20
ENDBRANCH  16  17
ENDBRANCH  15  16
ENDBRANCH  14  15
ENDBRANCH  13  14
ENDBRANCH   1  13
TORSDOF 14
ENDMDL
MODEL 3
REMARK VINA RESULT: -5.807980261      1.992      6.797
REMARK  14 active torsions:
REMARK  status: ('A' for Active; 'I' for Inactive)
REMARK    1  A    between atoms: C1_1  and  C2_2 
REMARK    2  A    between atoms: C1_1  and  C13_13 
REMARK    3  A    between atoms: C2_2  and  C3_3 
REMARK    4  A    between atoms: C3_3  and  C4_4 
REMARK    5  A    between atoms: C4_4  and  C5_5 
REMARK    6  A    between atoms: C5_5  and  C6_6 
REMARK    7  A    between atoms: C6_6  and  C7_7 
REMARK    8  A    between atoms: C13_13  and  C14_14 
REMARK    9  A    between atoms: C14_14  and  C15_15 
REMARK   10  A    between atoms: C15_15  and  C16_16 
REMARK   11  A    between atoms: C16_16  and  N1_17 
REMARK   12  A    between atoms: N1_17  and  C17_20 
REMARK   13  A    between atoms: C17_20  and  C18_21 
REMARK   14  A    between atoms: C18_21  and  C19_22 
ROOT
HETATM    1  C1  UNL     1     -47.363  69.990  -8.953  1.00  0.00     0.000 C 
ENDROOT
BRANCH   1   2
HETATM    2  C2  UNL     1     -47.870  68.877  -9.849  1.00  0.00     0.000 C 
BRANCH   2   3
HETATM    3  C3  UNL     1     -48.592  67.815  -9.041  1.00  0.00     0.000 C 
BRANCH   3   4
HETATM    4  C4  UNL     1     -49.948  67.471  -9.503  1.00  0.00     0.000 C 
BRANCH   4   5
HETATM    5  C5  UNL     1     -50.057  66.321 -10.478  1.00  0.00     0.000 C 
BRANCH   5   6
HETATM    6  C6  UNL     1     -50.001  66.804 -11.896  1.00  0.00     0.004 C 
BRANCH   6   7
HETATM    7  C7  UNL     1     -50.953  67.857 -12.296  1.00  0.00    -0.014 C 
HETATM    8  C8  UNL     1     -52.042  67.496 -13.240  1.00  0.00     0.004 C 
HETATM    9  C9  UNL     1     -52.975  68.678 -13.396  1.00  0.00     0.000 C 
HETATM   10  C10 UNL     1     -52.402  69.988 -13.001  1.00  0.00     0.000 C 
HETATM   11  C11 UNL     1     -50.937  70.147 -13.349  1.00  0.00     0.000 C 
HETATM   12  C12 UNL     1     -50.115  68.966 -12.966  1.00  0.00     0.004 C 
ENDBRANCH   6   7
ENDBRANCH   5   6
ENDBRANCH   4   5
ENDBRANCH   3   4
ENDBRANCH   2   3
ENDBRANCH   1   2
BRANCH   1  13
HETATM   13  C13 UNL     1     -47.705  69.755  -7.486  1.00  0.00     0.000 C 
BRANCH  13  14
HETATM   14  C14 UNL     1     -46.944  70.715  -6.599  1.00  0.00     0.002 C 
BRANCH  14  15
HETATM   15  C15 UNL     1     -47.954  71.689  -5.983  1.00  0.00     0.027 C 
BRANCH  15  16
HETATM   16  C16 UNL     1     -47.671  73.088  -6.545  1.00  0.00     0.232 C 
BRANCH  16  17
HETATM   17  N1  UNL     1     -48.694  73.525  -7.478  1.00  0.00    -0.075 N 
ATOM     18  H12 UNL     1     -48.511  74.475  -7.801  1.00  0.00     0.277 HD
ATOM     19  H11 UNL     1     -48.614  73.029  -8.365  1.00  0.00     0.277 HD
BRANCH  17  20
HETATM   20  C17 UNL     1     -50.011  73.415  -6.950  1.00  0.00     0.232 C 
BRANCH  20  21
HETATM   21  C18 UNL     1     -51.068  72.889  -7.852  1.00  0.00     0.032 C 
BRANCH  21  22
HETATM   22  C19 UNL     1     -50.609  72.384  -9.163  1.00  0.00    -0.013 A 
HETATM   23  C20 UNL     1     -51.613  72.167 -10.258  1.00  0.00     0.005 A 
HETATM   24  C21 UNL     1     -50.891  70.990  -9.668  1.00  0.00     0.005 A 
ENDBRANCH  21  22
ENDBRANCH  20  21
ENDBRANCH  17  20
ENDBRANCH  16  17
ENDBRANCH  15  16
ENDBRANCH  14  15
ENDBRANCH  13  14
ENDBRANCH   1  13
TORSDOF 14
ENDMDL
MODEL 4
REMARK VINA RESULT: -5.803922586      1.242      2.549
REMARK  14 active torsions:
REMARK  status: ('A' for Active; 'I' for Inactive)
REMARK    1  A    between atoms: C1_1  and  C2_2 
REMARK    2  A    between atoms: C1_1  and  C13_13 
REMARK    3  A    between atoms: C2_2  and  C3_3 
REMARK    4  A    between atoms: C3_3  and  C4_4 
REMARK    5  A    between atoms: C4_4  and  C5_5 
REMARK    6  A    between atoms: C5_5  and  C6_6 
REMARK    7  A    between atoms: C6_6  and  C7_7 
REMARK    8  A    between atoms: C13_13  and  C14_14 
REMARK    9  A    between atoms: C14_14  and  C15_15 
REMARK   10  A    between atoms: C15_15  and  C16_16 
REMARK   11  A    between atoms: C16_16  and  N1_17 
REMARK   12  A    between atoms: N1_17  and  C17_20 
REMARK   13  A    between atoms: C17_20  and  C18_21 
REMARK   14  A    between atoms: C18_21  and  C19_22 
ROOT
HETATM    1  C1  UNL     1     -50.326  67.743  -9.353  1.00  0.00     0.000 C 
ENDROOT
BRANCH   1   2
HETATM    2  C2  UNL     1     -49.477  68.976  -9.112  1.00  0.00     0.000 C 
BRANCH   2   3
HETATM    3  C3  UNL     1     -50.054  70.182  -9.832  1.00  0.00     0.000 C 
BRANCH   3   4
HETATM    4  C4  UNL     1     -51.001  71.000  -9.053  1.00  0.00     0.000 C 
BRANCH   4   5
HETATM    5  C5  UNL     1     -50.705  72.480  -8.972  1.00  0.00     0.000 C 
BRANCH   5   6
HETATM    6  C6  UNL     1     -50.413  72.899  -7.562  1.00  0.00     0.004 C 
BRANCH   6   7
HETATM    7  C7  UNL     1     -48.998  73.057  -7.177  1.00  0.00    -0.014 C 
HETATM    8  C8  UNL     1     -47.972  73.027  -8.251  1.00  0.00     0.004 C 
HETATM    9  C9  UNL     1     -46.619  73.351  -7.653  1.00  0.00     0.000 C 
HETATM   10  C10 UNL     1     -46.519  73.166  -6.185  1.00  0.00     0.000 C 
HETATM   11  C11 UNL     1     -47.298  71.977  -5.661  1.00  0.00     0.000 C 
HETATM   12  C12 UNL     1     -48.681  71.899  -6.208  1.00  0.00     0.004 C 
ENDBRANCH   6   7
ENDBRANCH   5   6
ENDBRANCH   4   5
ENDBRANCH   3   4
ENDBRANCH   2   3
ENDBRANCH   1   2
BRANCH   1  13
HETATM   13  C13 UNL     1     -49.514  66.581  -9.917  1.00  0.00     0.000 C 
BRANCH  13  14
HETATM   14  C14 UNL     1     -48.262  67.085 -10.597  1.00  0.00     0.002 C 
BRANCH  14  15
HETATM   15  C15 UNL     1     -48.398  66.811 -12.099  1.00  0.00     0.027 C 
BRANCH  15  16
HETATM   16  C16 UNL     1     -48.672  68.145 -12.805  1.00  0.00     0.232 C 
BRANCH  16  17
HETATM   17  N1  UNL     1     -49.777  68.057 -13.742  1.00  0.00    -0.075 N 
ATOM     18  H12 UNL     1     -49.860  68.914 -14.290  1.00  0.00     0.277 HD
ATOM     19  H11 UNL     1     -49.567  67.400 -14.493  1.00  0.00     0.277 HD
BRANCH  17  20
HETATM   20  C17 UNL     1     -51.013  67.735 -13.115  1.00  0.00     0.232 C 
BRANCH  20  21
HETATM   21  C18 UNL     1     -51.899  68.863 -12.727  1.00  0.00     0.032 C 
BRANCH  21  22
HETATM   22  C19 UNL     1     -51.652  70.147 -13.417  1.00  0.00    -0.013 A 
HETATM   23  C20 UNL     1     -51.983  71.432 -12.714  1.00  0.00     0.005 A 
HETATM   24  C21 UNL     1     -52.751  71.039 -13.943  1.00  0.00     0.005 A 
ENDBRANCH  21  22
ENDBRANCH  20  21
ENDBRANCH  17  20
ENDBRANCH  16  17
ENDBRANCH  15  16
ENDBRANCH  14  15
ENDBRANCH  13  14
ENDBRANCH   1  13
TORSDOF 14
ENDMDL
MODEL 5
REMARK VINA RESULT: -5.800391872      2.043      6.339
REMARK  14 active torsions:
REMARK  status: ('A' for Active; 'I' for Inactive)
REMARK    1  A    between atoms: C1_1  and  C2_2 
REMARK    2  A    between atoms: C1_1  and  C13_13 
REMARK    3  A    between atoms: C2_2  and  C3_3 
REMARK    4  A    between atoms: C3_3  and  C4_4 
REMARK    5  A    between atoms: C4_4  and  C5_5 
REMARK    6  A    between atoms: C5_5  and  C6_6 
REMARK    7  A    between atoms: C6_6  and  C7_7 
REMARK    8  A    between atoms: C13_13  and  C14_14 
REMARK    9  A    between atoms: C14_14  and  C15_15 
REMARK   10  A    between atoms: C15_15  and  C16_16 
REMARK   11  A    between atoms: C16_16  and  N1_17 
REMARK   12  A    between atoms: N1_17  and  C17_20 
REMARK   13  A    between atoms: C17_20  and  C18_21 
REMARK   14  A    between atoms: C18_21  and  C19_22 
ROOT
HETATM    1  C1  UNL     1     -51.002  70.752 -10.427  1.00  0.00     0.000 C 
ENDROOT
BRANCH   1   2
HETATM    2  C2  UNL     1     -51.746  71.826 -11.195  1.00  0.00     0.000 C 
BRANCH   2   3
HETATM    3  C3  UNL     1     -52.113  71.344 -12.586  1.00  0.00     0.000 C 
BRANCH   3   4
HETATM    4  C4  UNL     1     -53.211  70.364 -12.656  1.00  0.00     0.000 C 
BRANCH   4   5
HETATM    5  C5  UNL     1     -52.839  68.963 -13.082  1.00  0.00     0.000 C 
BRANCH   5   6
HETATM    6  C6  UNL     1     -51.547  68.950 -13.843  1.00  0.00     0.004 C 
BRANCH   6   7
HETATM    7  C7  UNL     1     -50.457  68.104 -13.323  1.00  0.00    -0.014 C 
HETATM    8  C8  UNL     1     -50.627  67.488 -11.982  1.00  0.00     0.004 C 
HETATM    9  C9  UNL     1     -49.466  66.554 -11.714  1.00  0.00     0.000 C 
HETATM   10  C10 UNL     1     -48.262  66.792 -12.547  1.00  0.00     0.000 C 
HETATM   11  C11 UNL     1     -47.990  68.255 -12.828  1.00  0.00     0.000 C 
HETATM   12  C12 UNL     1     -49.204  69.002 -13.258  1.00  0.00     0.004 C 
ENDBRANCH   6   7
ENDBRANCH   5   6
ENDBRANCH   4   5
ENDBRANCH   3   4
ENDBRANCH   2   3
ENDBRANCH   1   2
BRANCH   1  13
HETATM   13  C13 UNL     1     -50.951  71.038  -8.930  1.00  0.00     0.000 C 
BRANCH  13  14
HETATM   14  C14 UNL     1     -51.184  72.507  -8.658  1.00  0.00     0.002 C 
BRANCH  14  15
HETATM   15  C15 UNL     1     -50.400  72.882  -7.395  1.00  0.00     0.027 C 
BRANCH  15  16
HETATM   16  C16 UNL     1     -48.907  72.677  -7.682  1.00  0.00     0.232 C 
BRANCH  16  17
HETATM   17  N1  UNL     1     -48.243  71.921  -6.635  1.00  0.00    -0.075 N 
ATOM     18  H12 UNL     1     -47.529  72.485  -6.175  1.00  0.00     0.277 HD
ATOM     19  H11 UNL     1     -48.869  71.767  -5.844  1.00  0.00     0.277 HD
BRANCH  17  20
HETATM   20  C17 UNL     1     -47.697  70.692  -7.099  1.00  0.00     0.232 C 
BRANCH  20  21
HETATM   21  C18 UNL     1     -47.213  70.644  -8.503  1.00  0.00     0.032 C 
BRANCH  21  22
HETATM   22  C19 UNL     1     -47.664  69.488  -9.305  1.00  0.00    -0.013 A 
HETATM   23  C20 UNL     1     -48.311  68.324  -8.613  1.00  0.00     0.005 A 
HETATM   24  C21 UNL     1     -46.982  68.141  -9.287  1.00  0.00     0.005 A 
ENDBRANCH  21  22
ENDBRANCH  20  21
ENDBRANCH  17  20
ENDBRANCH  16  17
ENDBRANCH  15  16
ENDBRANCH  14  15
ENDBRANCH  13  14
ENDBRANCH   1  13
TORSDOF 14
ENDMDL
