MODEL 1
REMARK VINA RESULT: -5.238436164      0.000      0.000
REMARK  3 active torsions:
REMARK  status: ('A' for Active; 'I' for Inactive)
REMARK    1  A    between atoms: C2_2  and  O1_3 
REMARK    2  A    between atoms: O1_3  and  C3_4 
REMARK    3  A    between atoms: C4_7  and  N2_8 
ROOT
HETATM    1  C3  UNL     1      14.759  38.523  36.885  1.00  0.00     0.254 A 
HETATM    2  N1  UNL     1      15.522  38.943  37.947  1.00  0.00    -0.153 N 
ATOM      3  H1  UNL     1      15.556  38.522  38.876  1.00  0.00     0.188 HD
HETATM    4  C4  UNL     1      16.211  40.011  37.530  1.00  0.00     0.693 A 
HETATM    5  N3  UNL     1      15.871  40.224  36.261  1.00  0.00    -0.129 N 
ATOM      6  H3  UNL     1      16.244  40.979  35.685  1.00  0.00     0.205 HD
HETATM    7  N4  UNL     1      14.992  39.335  35.843  1.00  0.00    -0.250 N 
ATOM      8  H4  UNL     1      14.573  39.276  34.914  1.00  0.00     0.191 HD
ENDROOT
BRANCH   1   9
HETATM    9  O1  UNL     1      13.893  37.444  36.884  1.00  0.00    -0.310 OA
BRANCH   9  10
HETATM   10  C2  UNL     1      14.103  36.375  35.997  1.00  0.00     0.067 C 
HETATM   11  C1  UNL     1      15.478  35.823  36.094  1.00  0.00     0.047 C 
HETATM   12  C5  UNL     1      13.085  35.256  36.112  1.00  0.00     0.038 C 
HETATM   13  C6  UNL     1      12.276  35.959  35.046  1.00  0.00     0.006 C 
HETATM   14  C7  UNL     1      13.573  36.640  34.613  1.00  0.00     0.038 C 
ENDBRANCH   9  10
ENDBRANCH   1   9
BRANCH   4  15
HETATM   15  N2  UNL     1      17.062  40.734  38.210  1.00  0.00    -0.233 N 
ATOM     16  H22 UNL     1      17.376  40.530  39.159  1.00  0.00     0.174 HD
ATOM     17  H21 UNL     1      17.536  41.588  37.914  1.00  0.00     0.174 HD
ENDBRANCH   4  15
TORSDOF 3
ENDMDL
MODEL 2
REMARK VINA RESULT: -5.177047969      1.150      1.396
REMARK  3 active torsions:
REMARK  status: ('A' for Active; 'I' for Inactive)
REMARK    1  A    between atoms: C2_2  and  O1_3 
REMARK    2  A    between atoms: O1_3  and  C3_4 
REMARK    3  A    between atoms: C4_7  and  N2_8 
ROOT
HETATM    1  C3  UNL     1      14.919  38.675  37.176  1.00  0.00     0.254 A 
HETATM    2  N1  UNL     1      15.997  39.052  37.940  1.00  0.00    -0.153 N 
ATOM      3  H1  UNL     1      16.220  38.727  38.881  1.00  0.00     0.188 HD
HETATM    4  C4  UNL     1      16.698  39.929  37.211  1.00  0.00     0.693 A 
HETATM    5  N3  UNL     1      16.062  40.071  36.051  1.00  0.00    -0.129 N 
ATOM      6  H3  UNL     1      16.372  40.684  35.297  1.00  0.00     0.205 HD
HETATM    7  N4  UNL     1      14.978  39.321  36.002  1.00  0.00    -0.250 N 
ATOM      8  H4  UNL     1      14.319  39.247  35.227  1.00  0.00     0.191 HD
ENDROOT
BRANCH   1   9
HETATM    9  O1  UNL     1      13.934  37.778  37.550  1.00  0.00    -0.310 OA
BRANCH   9  10
HETATM   10  C2  UNL     1      14.221  36.404  37.613  1.00  0.00     0.067 C 
HETATM   11  C1  UNL     1      14.725  35.995  38.949  1.00  0.00     0.047 C 
HETATM   12  C5  UNL     1      13.075  35.504  37.193  1.00  0.00     0.038 C 
HETATM   13  C6  UNL     1      13.637  35.539  35.790  1.00  0.00     0.006 C 
HETATM   14  C7  UNL     1      14.983  35.902  36.416  1.00  0.00     0.038 C 
ENDBRANCH   9  10
ENDBRANCH   1   9
BRANCH   4  15
HETATM   15  N2  UNL     1      17.801  40.548  37.543  1.00  0.00    -0.233 N 
ATOM     16  H22 UNL     1      18.631  40.099  37.930  1.00  0.00     0.174 HD
ATOM     17  H21 UNL     1      18.006  41.545  37.469  1.00  0.00     0.174 HD
ENDBRANCH   4  15
TORSDOF 3
ENDMDL
MODEL 3
REMARK VINA RESULT: -5.076206027      3.192      4.916
REMARK  3 active torsions:
REMARK  status: ('A' for Active; 'I' for Inactive)
REMARK    1  A    between atoms: C2_2  and  O1_3 
REMARK    2  A    between atoms: O1_3  and  C3_4 
REMARK    3  A    between atoms: C4_7  and  N2_8 
ROOT
HETATM    1  C3  UNL     1      13.185  35.771  35.669  1.00  0.00     0.254 A 
HETATM    2  N1  UNL     1      13.039  36.731  34.697  1.00  0.00    -0.153 N 
ATOM      3  H1  UNL     1      13.672  37.508  34.510  1.00  0.00     0.188 HD
HETATM    4  C4  UNL     1      11.905  36.449  34.044  1.00  0.00     0.693 A 
HETATM    5  N3  UNL     1      11.390  35.358  34.606  1.00  0.00    -0.129 N 
ATOM      6  H3  UNL     1      10.521  34.915  34.310  1.00  0.00     0.205 HD
HETATM    7  N4  UNL     1      12.147  34.925  35.595  1.00  0.00    -0.250 N 
ATOM      8  H4  UNL     1      11.977  34.109  36.185  1.00  0.00     0.191 HD
ENDROOT
BRANCH   1   9
HETATM    9  O1  UNL     1      14.226  35.687  36.576  1.00  0.00    -0.310 OA
BRANCH   9  10
HETATM   10  C2  UNL     1      14.102  36.271  37.847  1.00  0.00     0.067 C 
HETATM   11  C1  UNL     1      13.052  35.617  38.668  1.00  0.00     0.047 C 
HETATM   12  C5  UNL     1      15.398  36.353  38.631  1.00  0.00     0.038 C 
HETATM   13  C6  UNL     1      15.605  37.727  38.037  1.00  0.00     0.006 C 
HETATM   14  C7  UNL     1      14.095  37.776  37.809  1.00  0.00     0.038 C 
ENDBRANCH   9  10
ENDBRANCH   1   9
BRANCH   4  15
HETATM   15  N2  UNL     1      11.373  37.099  33.042  1.00  0.00    -0.233 N 
ATOM     16  H22 UNL     1      11.890  37.469  32.244  1.00  0.00     0.174 HD
ATOM     17  H21 UNL     1      10.391  37.332  32.897  1.00  0.00     0.174 HD
ENDBRANCH   4  15
TORSDOF 3
ENDMDL
MODEL 4
REMARK VINA RESULT: -5.073004138      3.220      4.986
REMARK  3 active torsions:
REMARK  status: ('A' for Active; 'I' for Inactive)
REMARK    1  A    between atoms: C2_2  and  O1_3 
REMARK    2  A    between atoms: O1_3  and  C3_4 
REMARK    3  A    between atoms: C4_7  and  N2_8 
ROOT
HETATM    1  C3  UNL     1      13.137  35.885  35.552  1.00  0.00     0.254 A 
HETATM    2  N1  UNL     1      11.971  35.184  35.362  1.00  0.00    -0.153 N 
ATOM      3  H1  UNL     1      11.660  34.366  35.886  1.00  0.00     0.188 HD
HETATM    4  C4  UNL     1      11.322  35.781  34.355  1.00  0.00     0.693 A 
HETATM    5  N3  UNL     1      12.075  36.803  33.956  1.00  0.00    -0.129 N 
ATOM      6  H3  UNL     1      11.826  37.438  33.198  1.00  0.00     0.205 HD
HETATM    7  N4  UNL     1      13.182  36.891  34.666  1.00  0.00    -0.250 N 
ATOM      8  H4  UNL     1      13.924  37.584  34.563  1.00  0.00     0.191 HD
ENDROOT
BRANCH   1   9
HETATM    9  O1  UNL     1      14.107  35.604  36.499  1.00  0.00    -0.310 OA
BRANCH   9  10
HETATM   10  C2  UNL     1      14.019  36.166  37.783  1.00  0.00     0.067 C 
HETATM   11  C1  UNL     1      12.936  35.554  38.594  1.00  0.00     0.047 C 
HETATM   12  C5  UNL     1      15.320  36.155  38.563  1.00  0.00     0.038 C 
HETATM   13  C6  UNL     1      15.603  37.529  38.000  1.00  0.00     0.006 C 
HETATM   14  C7  UNL     1      14.098  37.669  37.779  1.00  0.00     0.038 C 
ENDBRANCH   9  10
ENDBRANCH   1   9
BRANCH   4  15
HETATM   15  N2  UNL     1      10.169  35.450  33.834  1.00  0.00    -0.233 N 
ATOM     16  H22 UNL     1       9.666  34.585  34.030  1.00  0.00     0.174 HD
ATOM     17  H21 UNL     1       9.605  35.983  33.173  1.00  0.00     0.174 HD
ENDBRANCH   4  15
TORSDOF 3
ENDMDL
MODEL 5
REMARK VINA RESULT: -5.055372932      1.307      1.748
REMARK  3 active torsions:
REMARK  status: ('A' for Active; 'I' for Inactive)
REMARK    1  A    between atoms: C2_2  and  O1_3 
REMARK    2  A    between atoms: O1_3  and  C3_4 
REMARK    3  A    between atoms: C4_7  and  N2_8 
ROOT
HETATM    1  C3  UNL     1      14.879  38.693  37.040  1.00  0.00     0.254 A 
HETATM    2  N1  UNL     1      15.845  39.083  37.936  1.00  0.00    -0.153 N 
ATOM      3  H1  UNL     1      15.968  38.737  38.888  1.00  0.00     0.188 HD
HETATM    4  C4  UNL     1      16.594  40.005  37.320  1.00  0.00     0.693 A 
HETATM    5  N3  UNL     1      16.093  40.162  36.097  1.00  0.00    -0.129 N 
ATOM      6  H3  UNL     1      16.466  40.808  35.401  1.00  0.00     0.205 HD
HETATM    7  N4  UNL     1      15.052  39.378  35.900  1.00  0.00    -0.250 N 
ATOM      8  H4  UNL     1      14.490  39.306  35.051  1.00  0.00     0.191 HD
ENDROOT
BRANCH   1   9
HETATM    9  O1  UNL     1      13.891  37.753  37.271  1.00  0.00    -0.310 OA
BRANCH   9  10
HETATM   10  C2  UNL     1      14.226  36.393  37.377  1.00  0.00     0.067 C 
HETATM   11  C1  UNL     1      15.398  36.033  36.540  1.00  0.00     0.047 C 
HETATM   12  C5  UNL     1      14.436  35.908  38.799  1.00  0.00     0.038 C 
HETATM   13  C6  UNL     1      12.973  35.532  38.827  1.00  0.00     0.006 C 
HETATM   14  C7  UNL     1      13.031  35.481  37.301  1.00  0.00     0.038 C 
ENDBRANCH   9  10
ENDBRANCH   1   9
BRANCH   4  15
HETATM   15  N2  UNL     1      17.626  40.651  37.796  1.00  0.00    -0.233 N 
ATOM     16  H22 UNL     1      18.436  40.944  37.249  1.00  0.00     0.174 HD
ATOM     17  H21 UNL     1      17.785  40.958  38.756  1.00  0.00     0.174 HD
ENDBRANCH   4  15
TORSDOF 3
ENDMDL
