MODEL 1
REMARK VINA RESULT: -4.322158440      0.000      0.000
REMARK  3 active torsions:
REMARK  status: ('A' for Active; 'I' for Inactive)
REMARK    1  A    between atoms: C2_2  and  C4_4 
REMARK    2  A    between atoms: C4_4  and  C5_5 
REMARK    3  A    between atoms: C4_4  and  N2_9 
ROOT
HETATM    1  C4  UNL     1      15.808  37.616  38.313  1.00  0.00     0.124 C 
ENDROOT
BRANCH   1   2
HETATM    2  C2  UNL     1      14.366  37.459  37.984  1.00  0.00     0.005 C 
HETATM    3  C1  UNL     1      13.654  36.254  38.510  1.00  0.00     0.012 C 
HETATM    4  C3  UNL     1      14.162  37.381  36.451  1.00  0.00     0.012 C 
ENDBRANCH   1   2
BRANCH   1   5
HETATM    5  C5  UNL     1      16.636  36.731  37.402  1.00  0.00     0.078 C 
HETATM    6  N1  UNL     1      17.458  35.940  37.943  1.00  0.00    -0.409 N 
ATOM      7  H12 UNL     1      17.550  35.910  38.958  1.00  0.00     0.155 HD
ATOM      8  H11 UNL     1      18.015  35.345  37.331  1.00  0.00     0.155 HD
ENDBRANCH   1   5
BRANCH   1   9
HETATM    9  N2  UNL     1      16.357  38.865  38.498  1.00  0.00    -0.380 N 
HETATM   10  C6  UNL     1      15.869  39.780  39.424  1.00  0.00     0.085 C 
HETATM   11  C7  UNL     1      15.749  41.213  39.020  1.00  0.00     0.212 C 
HETATM   12  O1  UNL     1      15.742  41.492  37.697  1.00  0.00    -0.385 OA
HETATM   13  C8  UNL     1      16.187  40.536  36.839  1.00  0.00     0.187 C 
HETATM   14  C9  UNL     1      17.087  39.500  37.465  1.00  0.00     0.149 C 
ENDBRANCH   1   9
TORSDOF 3
ENDMDL
MODEL 2
REMARK VINA RESULT: -4.317908327      3.975      5.859
REMARK  3 active torsions:
REMARK  status: ('A' for Active; 'I' for Inactive)
REMARK    1  A    between atoms: C2_2  and  C4_4 
REMARK    2  A    between atoms: C4_4  and  C5_5 
REMARK    3  A    between atoms: C4_4  and  N2_9 
ROOT
HETATM    1  C4  UNL     1      13.231  36.497  36.485  1.00  0.00     0.124 C 
ENDROOT
BRANCH   1   2
HETATM    2  C2  UNL     1      13.559  35.753  37.731  1.00  0.00     0.005 C 
HETATM    3  C1  UNL     1      12.521  35.691  38.804  1.00  0.00     0.012 C 
HETATM    4  C3  UNL     1      14.792  36.378  38.430  1.00  0.00     0.012 C 
ENDBRANCH   1   2
BRANCH   1   5
HETATM    5  C5  UNL     1      14.411  37.361  36.084  1.00  0.00     0.078 C 
HETATM    6  N1  UNL     1      14.214  38.603  35.966  1.00  0.00    -0.409 N 
ATOM      7  H12 UNL     1      13.288  38.995  36.138  1.00  0.00     0.155 HD
ATOM      8  H11 UNL     1      15.007  39.184  35.696  1.00  0.00     0.155 HD
ENDBRANCH   1   5
BRANCH   1   9
HETATM    9  N2  UNL     1      12.642  35.859  35.417  1.00  0.00    -0.380 N 
HETATM   10  C6  UNL     1      12.111  36.538  34.326  1.00  0.00     0.085 C 
HETATM   11  C7  UNL     1      10.796  36.091  33.775  1.00  0.00     0.212 C 
HETATM   12  O1  UNL     1      10.010  35.330  34.569  1.00  0.00    -0.385 OA
HETATM   13  C8  UNL     1      10.580  34.732  35.649  1.00  0.00     0.187 C 
HETATM   14  C9  UNL     1      12.077  34.569  35.560  1.00  0.00     0.149 C 
ENDBRANCH   1   9
TORSDOF 3
ENDMDL
MODEL 3
REMARK VINA RESULT: -4.301151166      2.854      4.604
REMARK  3 active torsions:
REMARK  status: ('A' for Active; 'I' for Inactive)
REMARK    1  A    between atoms: C2_2  and  C4_4 
REMARK    2  A    between atoms: C4_4  and  C5_5 
REMARK    3  A    between atoms: C4_4  and  N2_9 
ROOT
HETATM    1  C4  UNL     1      16.189  41.482  39.598  1.00  0.00     0.124 C 
ENDROOT
BRANCH   1   2
HETATM    2  C2  UNL     1      14.948  41.353  40.408  1.00  0.00     0.005 C 
HETATM    3  C1  UNL     1      14.072  42.556  40.547  1.00  0.00     0.012 C 
HETATM    4  C3  UNL     1      15.289  40.961  41.867  1.00  0.00     0.012 C 
ENDBRANCH   1   2
BRANCH   1   5
HETATM    5  C5  UNL     1      17.261  42.175  40.418  1.00  0.00     0.078 C 
HETATM    6  N1  UNL     1      17.702  43.278  39.990  1.00  0.00    -0.409 N 
ATOM      7  H12 UNL     1      17.341  43.676  39.123  1.00  0.00     0.155 HD
ATOM      8  H11 UNL     1      18.423  43.745  40.541  1.00  0.00     0.155 HD
ENDBRANCH   1   5
BRANCH   1   9
HETATM    9  N2  UNL     1      16.670  40.418  38.870  1.00  0.00    -0.380 N 
HETATM   10  C6  UNL     1      17.997  40.003  38.916  1.00  0.00     0.085 C 
HETATM   11  C7  UNL     1      18.678  39.637  37.637  1.00  0.00     0.212 C 
HETATM   12  O1  UNL     1      18.129  40.083  36.486  1.00  0.00    -0.385 OA
HETATM   13  C8  UNL     1      16.841  40.521  36.518  1.00  0.00     0.187 C 
HETATM   14  C9  UNL     1      16.030  40.002  37.678  1.00  0.00     0.149 C 
ENDBRANCH   1   9
TORSDOF 3
ENDMDL
MODEL 4
REMARK VINA RESULT: -4.286317124      1.336      2.054
REMARK  3 active torsions:
REMARK  status: ('A' for Active; 'I' for Inactive)
REMARK    1  A    between atoms: C2_2  and  C4_4 
REMARK    2  A    between atoms: C4_4  and  C5_5 
REMARK    3  A    between atoms: C4_4  and  N2_9 
ROOT
HETATM    1  C4  UNL     1      15.618  37.625  37.528  1.00  0.00     0.124 C 
ENDROOT
BRANCH   1   2
HETATM    2  C2  UNL     1      15.697  36.318  38.234  1.00  0.00     0.005 C 
HETATM    3  C1  UNL     1      14.722  36.055  39.335  1.00  0.00     0.012 C 
HETATM    4  C3  UNL     1      17.083  36.145  38.904  1.00  0.00     0.012 C 
ENDBRANCH   1   2
BRANCH   1   5
HETATM    5  C5  UNL     1      14.203  37.847  37.028  1.00  0.00     0.078 C 
HETATM    6  N1  UNL     1      14.050  38.105  35.802  1.00  0.00    -0.409 N 
ATOM      7  H12 UNL     1      14.858  38.159  35.182  1.00  0.00     0.155 HD
ATOM      8  H11 UNL     1      13.098  38.254  35.466  1.00  0.00     0.155 HD
ENDBRANCH   1   5
BRANCH   1   9
HETATM    9  N2  UNL     1      16.182  38.756  38.073  1.00  0.00    -0.380 N 
HETATM   10  C6  UNL     1      15.590  39.480  39.102  1.00  0.00     0.085 C 
HETATM   11  C7  UNL     1      15.596  40.972  39.024  1.00  0.00     0.212 C 
HETATM   12  O1  UNL     1      15.813  41.535  37.814  1.00  0.00    -0.385 OA
HETATM   13  C8  UNL     1      16.350  40.759  36.834  1.00  0.00     0.187 C 
HETATM   14  C9  UNL     1      17.094  39.545  37.332  1.00  0.00     0.149 C 
ENDBRANCH   1   9
TORSDOF 3
ENDMDL
MODEL 5
REMARK VINA RESULT: -4.210292272      1.868      2.409
REMARK  3 active torsions:
REMARK  status: ('A' for Active; 'I' for Inactive)
REMARK    1  A    between atoms: C2_2  and  C4_4 
REMARK    2  A    between atoms: C4_4  and  C5_5 
REMARK    3  A    between atoms: C4_4  and  N2_9 
ROOT
HETATM    1  C4  UNL     1      15.813  37.897  37.858  1.00  0.00     0.124 C 
ENDROOT
BRANCH   1   2
HETATM    2  C2  UNL     1      14.953  37.030  38.707  1.00  0.00     0.005 C 
HETATM    3  C1  UNL     1      15.600  35.894  39.432  1.00  0.00     0.012 C 
HETATM    4  C3  UNL     1      13.849  36.357  37.855  1.00  0.00     0.012 C 
ENDBRANCH   1   2
BRANCH   1   5
HETATM    5  C5  UNL     1      14.986  39.036  37.294  1.00  0.00     0.078 C 
HETATM    6  N1  UNL     1      14.978  39.187  36.040  1.00  0.00    -0.409 N 
ATOM      7  H12 UNL     1      15.512  38.558  35.443  1.00  0.00     0.155 HD
ATOM      8  H11 UNL     1      14.421  39.953  35.661  1.00  0.00     0.155 HD
ENDBRANCH   1   5
BRANCH   1   9
HETATM    9  N2  UNL     1      17.057  38.296  38.291  1.00  0.00    -0.380 N 
HETATM   10  C6  UNL     1      17.251  39.339  39.190  1.00  0.00     0.085 C 
HETATM   11  C7  UNL     1      18.354  40.313  38.930  1.00  0.00     0.212 C 
HETATM   12  O1  UNL     1      18.851  40.376  37.675  1.00  0.00    -0.385 OA
HETATM   13  C8  UNL     1      18.585  39.345  36.829  1.00  0.00     0.187 C 
HETATM   14  C9  UNL     1      18.213  38.053  37.511  1.00  0.00     0.149 C 
ENDBRANCH   1   9
TORSDOF 3
ENDMDL
