MODEL 1
REMARK VINA RESULT: -3.793879476      0.000      0.000
REMARK  0 active torsions:
REMARK  status: ('A' for Active; 'I' for Inactive)
ROOT
HETATM    1  C1  UNL     1      10.848  34.980  34.080  1.00  0.00     0.028 C 
HETATM    2  C2  UNL     1      11.878  35.994  34.188  1.00  0.00     0.123 C 
HETATM    3  N1  UNL     1      11.888  36.919  33.128  1.00  0.00    -0.179 NA
HETATM    4  S1  UNL     1      10.591  36.438  32.007  1.00  0.00    -0.066 SA
HETATM    5  C3  UNL     1      10.442  34.734  32.674  1.00  0.00     0.094 C 
ENDROOT
TORSDOF 0
ENDMDL
MODEL 2
REMARK VINA RESULT: -3.738917437      1.759      1.981
REMARK  0 active torsions:
REMARK  status: ('A' for Active; 'I' for Inactive)
ROOT
HETATM    1  C1  UNL     1      10.444  35.715  31.572  1.00  0.00     0.028 C 
HETATM    2  C2  UNL     1      10.937  36.999  32.030  1.00  0.00     0.123 C 
HETATM    3  N1  UNL     1      11.353  37.008  33.374  1.00  0.00    -0.179 NA
HETATM    4  S1  UNL     1      11.069  35.372  34.017  1.00  0.00    -0.066 SA
HETATM    5  C3  UNL     1       9.909  34.886  32.679  1.00  0.00     0.094 C 
ENDROOT
TORSDOF 0
ENDMDL
MODEL 3
REMARK VINA RESULT: -3.693727916      1.414      1.949
REMARK  0 active torsions:
REMARK  status: ('A' for Active; 'I' for Inactive)
ROOT
HETATM    1  C1  UNL     1      10.986  34.962  34.224  1.00  0.00     0.028 C 
HETATM    2  C2  UNL     1       9.589  35.142  33.880  1.00  0.00     0.123 C 
HETATM    3  N1  UNL     1       9.366  36.075  32.850  1.00  0.00    -0.179 NA
HETATM    4  S1  UNL     1      10.959  36.714  32.376  1.00  0.00    -0.066 SA
HETATM    5  C3  UNL     1      11.805  36.157  33.907  1.00  0.00     0.094 C 
ENDROOT
TORSDOF 0
ENDMDL
MODEL 4
REMARK VINA RESULT: -3.475510510      1.565      1.822
REMARK  0 active torsions:
REMARK  status: ('A' for Active; 'I' for Inactive)
ROOT
HETATM    1  C1  UNL     1      11.683  36.157  33.884  1.00  0.00     0.028 C 
HETATM    2  C2  UNL     1      11.426  36.702  32.566  1.00  0.00     0.123 C 
HETATM    3  N1  UNL     1      10.170  36.357  32.035  1.00  0.00    -0.179 NA
HETATM    4  S1  UNL     1       9.369  35.313  33.236  1.00  0.00    -0.066 SA
HETATM    5  C3  UNL     1      10.915  34.914  34.141  1.00  0.00     0.094 C 
ENDROOT
TORSDOF 0
ENDMDL
MODEL 5
REMARK VINA RESULT: -3.459832493      1.441      1.675
REMARK  0 active torsions:
REMARK  status: ('A' for Active; 'I' for Inactive)
ROOT
HETATM    1  C1  UNL     1       9.217  34.581  32.679  1.00  0.00     0.028 C 
HETATM    2  C2  UNL     1       9.795  35.074  33.914  1.00  0.00     0.123 C 
HETATM    3  N1  UNL     1      10.676  36.158  33.745  1.00  0.00    -0.179 NA
HETATM    4  S1  UNL     1      10.760  36.490  31.997  1.00  0.00    -0.066 SA
HETATM    5  C3  UNL     1      10.077  34.859  31.503  1.00  0.00     0.094 C 
ENDROOT
TORSDOF 0
ENDMDL
