MODEL 1
REMARK VINA RESULT: -5.266276743      0.000      0.000
REMARK  8 active torsions:
REMARK  status: ('A' for Active; 'I' for Inactive)
REMARK    1  A    between atoms: C2_2  and  N1_3 
REMARK    2  A    between atoms: N1_3  and  C3_6 
REMARK    3  A    between atoms: C3_6  and  C4_7 
REMARK    4  A    between atoms: C4_7  and  O1_8 
REMARK    5  A    between atoms: C4_7  and  C6_10 
REMARK    6  A    between atoms: C7_11  and  N2_12 
REMARK    7  A    between atoms: N2_12  and  C8_14 
REMARK    8  A    between atoms: N5_20  and  C11_21 
ROOT
HETATM    1  C8  UNL     1      17.826   8.409  42.856  1.00  0.00     0.244 C 
HETATM    2  C9  UNL     1      17.829   6.971  42.691  1.00  0.00     0.078 C 
HETATM    3  N3  UNL     1      17.829   5.825  42.576  1.00  0.00    -0.196 NA
ENDROOT
BRANCH   1   4
HETATM    4  N2  UNL     1      17.088   9.073  41.804  1.00  0.00    -0.375 N 
ATOM      5  H2  UNL     1      16.431   9.814  42.050  1.00  0.00     0.160 HD
BRANCH   4   6
HETATM    6  C7  UNL     1      17.252   8.726  40.458  1.00  0.00     0.073 A 
HETATM    7  C6  UNL     1      16.259   8.173  39.638  1.00  0.00     0.087 A 
HETATM    8  N5  UNL     1      16.813   7.995  38.468  1.00  0.00    -0.287 N 
HETATM    9  N4  UNL     1      18.098   8.391  38.485  1.00  0.00    -0.307 N 
HETATM   10  C10 UNL     1      18.393   8.850  39.710  1.00  0.00     0.138 A 
ATOM     11  H4  UNL     1      18.743   8.350  37.695  1.00  0.00     0.186 HD
BRANCH   7  12
HETATM   12  C4  UNL     1      14.857   7.998  40.070  1.00  0.00     0.200 C 
BRANCH  12  13
HETATM   13  C3  UNL     1      14.318   9.080  40.949  1.00  0.00     0.270 C 
BRANCH  13  14
HETATM   14  N1  UNL     1      13.966  10.257  40.104  1.00  0.00    -0.073 N 
ATOM     15  H12 UNL     1      13.758  10.011  39.136  1.00  0.00     0.277 HD
ATOM     16  H11 UNL     1      14.760  10.868  39.912  1.00  0.00     0.277 HD
BRANCH  14  17
HETATM   17  C2  UNL     1      12.848  10.944  40.790  1.00  0.00     0.228 C 
HETATM   18  C1  UNL     1      13.410  12.157  41.544  1.00  0.00     0.034 C 
ENDBRANCH  14  17
ENDBRANCH  13  14
ENDBRANCH  12  13
BRANCH  12  19
HETATM   19  O1  UNL     1      14.942   6.866  41.015  1.00  0.00    -0.383 OA
HETATM   20  C5  UNL     1      14.081   7.078  42.059  1.00  0.00     0.202 C 
ENDBRANCH  12  19
ENDBRANCH   7  12
BRANCH   8  21
HETATM   21  C11 UNL     1      16.233   7.568  37.211  1.00  0.00     0.108 C 
HETATM   22  C12 UNL     1      17.319   6.883  36.420  1.00  0.00     0.027 C 
HETATM   23  C13 UNL     1      16.888   6.664  34.980  1.00  0.00     0.002 C 
HETATM   24  C14 UNL     1      16.690   8.029  34.341  1.00  0.00     0.000 C 
HETATM   25  C15 UNL     1      15.538   8.671  35.077  1.00  0.00     0.002 C 
HETATM   26  C16 UNL     1      15.867   8.928  36.520  1.00  0.00     0.027 C 
ENDBRANCH   8  21
ENDBRANCH   4   6
ENDBRANCH   1   4
TORSDOF 8
ENDMDL
MODEL 2
REMARK VINA RESULT: -5.261091999      2.655      4.275
REMARK  8 active torsions:
REMARK  status: ('A' for Active; 'I' for Inactive)
REMARK    1  A    between atoms: C2_2  and  N1_3 
REMARK    2  A    between atoms: N1_3  and  C3_6 
REMARK    3  A    between atoms: C3_6  and  C4_7 
REMARK    4  A    between atoms: C4_7  and  O1_8 
REMARK    5  A    between atoms: C4_7  and  C6_10 
REMARK    6  A    between atoms: C7_11  and  N2_12 
REMARK    7  A    between atoms: N2_12  and  C8_14 
REMARK    8  A    between atoms: N5_20  and  C11_21 
ROOT
HETATM    1  C8  UNL     1      13.992   9.670  45.298  1.00  0.00     0.244 C 
HETATM    2  C9  UNL     1      12.634   9.453  44.848  1.00  0.00     0.078 C 
HETATM    3  N3  UNL     1      11.550   9.297  44.491  1.00  0.00    -0.196 NA
ENDROOT
BRANCH   1   4
HETATM    4  N2  UNL     1      14.933   8.816  44.608  1.00  0.00    -0.375 N 
ATOM      5  H2  UNL     1      15.320   8.008  45.096  1.00  0.00     0.160 HD
BRANCH   4   6
HETATM    6  C7  UNL     1      15.328   9.069  43.289  1.00  0.00     0.073 A 
HETATM    7  C6  UNL     1      15.646   8.089  42.337  1.00  0.00     0.087 A 
HETATM    8  N5  UNL     1      15.965   8.735  41.247  1.00  0.00    -0.287 N 
HETATM    9  N4  UNL     1      15.880  10.063  41.438  1.00  0.00    -0.307 N 
HETATM   10  C10 UNL     1      15.486  10.295  42.698  1.00  0.00     0.138 A 
ATOM     11  H4  UNL     1      16.083  10.778  40.738  1.00  0.00     0.186 HD
BRANCH   7  12
HETATM   12  C4  UNL     1      15.480   6.642  42.580  1.00  0.00     0.200 C 
BRANCH  12  13
HETATM   13  C3  UNL     1      14.188   6.241  43.216  1.00  0.00     0.270 C 
BRANCH  13  14
HETATM   14  N1  UNL     1      13.326   5.592  42.188  1.00  0.00    -0.073 N 
ATOM     15  H12 UNL     1      13.314   4.575  42.255  1.00  0.00     0.277 HD
ATOM     16  H11 UNL     1      13.708   5.652  41.243  1.00  0.00     0.277 HD
BRANCH  14  17
HETATM   17  C2  UNL     1      11.986   6.207  42.318  1.00  0.00     0.228 C 
HETATM   18  C1  UNL     1      11.305   5.634  43.569  1.00  0.00     0.034 C 
ENDBRANCH  14  17
ENDBRANCH  13  14
ENDBRANCH  12  13
BRANCH  12  19
HETATM   19  O1  UNL     1      16.440   6.379  43.672  1.00  0.00    -0.383 OA
HETATM   20  C5  UNL     1      17.662   6.065  43.138  1.00  0.00     0.202 C 
ENDBRANCH  12  19
ENDBRANCH   7  12
BRANCH   8  21
HETATM   21  C11 UNL     1      16.262   8.240  39.917  1.00  0.00     0.108 C 
HETATM   22  C12 UNL     1      17.758   8.297  39.737  1.00  0.00     0.027 C 
HETATM   23  C13 UNL     1      18.140   8.079  38.283  1.00  0.00     0.002 C 
HETATM   24  C14 UNL     1      17.568   9.231  37.474  1.00  0.00     0.000 C 
HETATM   25  C15 UNL     1      16.067   9.112  37.582  1.00  0.00     0.002 C 
HETATM   26  C16 UNL     1      15.587   9.312  38.991  1.00  0.00     0.027 C 
ENDBRANCH   8  21
ENDBRANCH   4   6
ENDBRANCH   1   4
TORSDOF 8
ENDMDL
MODEL 3
REMARK VINA RESULT: -5.189685354      2.472      4.353
REMARK  8 active torsions:
REMARK  status: ('A' for Active; 'I' for Inactive)
REMARK    1  A    between atoms: C2_2  and  N1_3 
REMARK    2  A    between atoms: N1_3  and  C3_6 
REMARK    3  A    between atoms: C3_6  and  C4_7 
REMARK    4  A    between atoms: C4_7  and  O1_8 
REMARK    5  A    between atoms: C4_7  and  C6_10 
REMARK    6  A    between atoms: C7_11  and  N2_12 
REMARK    7  A    between atoms: N2_12  and  C8_14 
REMARK    8  A    between atoms: N5_20  and  C11_21 
ROOT
HETATM    1  C8  UNL     1      12.629   9.955  43.481  1.00  0.00     0.244 C 
HETATM    2  C9  UNL     1      11.940   8.927  44.232  1.00  0.00     0.078 C 
HETATM    3  N3  UNL     1      11.379   8.112  44.820  1.00  0.00    -0.196 NA
ENDROOT
BRANCH   1   4
HETATM    4  N2  UNL     1      14.020   9.625  43.263  1.00  0.00    -0.375 N 
ATOM      5  H2  UNL     1      14.608   9.401  44.065  1.00  0.00     0.160 HD
BRANCH   4   6
HETATM    6  C7  UNL     1      14.580   9.606  41.980  1.00  0.00     0.073 A 
HETATM    7  C6  UNL     1      15.297   8.537  41.425  1.00  0.00     0.087 A 
HETATM    8  N5  UNL     1      15.647   8.919  40.226  1.00  0.00    -0.287 N 
HETATM    9  N4  UNL     1      15.208  10.166  39.976  1.00  0.00    -0.307 N 
HETATM   10  C10 UNL     1      14.542  10.613  41.051  1.00  0.00     0.138 A 
ATOM     11  H4  UNL     1      15.358  10.687  39.112  1.00  0.00     0.186 HD
BRANCH   7  12
HETATM   12  C4  UNL     1      15.446   7.229  42.095  1.00  0.00     0.200 C 
BRANCH  12  13
HETATM   13  C3  UNL     1      14.167   6.543  42.455  1.00  0.00     0.270 C 
BRANCH  13  14
HETATM   14  N1  UNL     1      14.153   5.191  41.829  1.00  0.00    -0.073 N 
ATOM     15  H12 UNL     1      14.344   5.208  40.827  1.00  0.00     0.277 HD
ATOM     16  H11 UNL     1      13.220   4.781  41.772  1.00  0.00     0.277 HD
BRANCH  14  17
HETATM   17  C2  UNL     1      15.112   4.364  42.596  1.00  0.00     0.228 C 
HETATM   18  C1  UNL     1      14.586   4.210  44.030  1.00  0.00     0.034 C 
ENDBRANCH  14  17
ENDBRANCH  13  14
ENDBRANCH  12  13
BRANCH  12  19
HETATM   19  O1  UNL     1      15.967   7.598  43.426  1.00  0.00    -0.383 OA
HETATM   20  C5  UNL     1      17.319   7.379  43.463  1.00  0.00     0.202 C 
ENDBRANCH  12  19
ENDBRANCH   7  12
BRANCH   8  21
HETATM   21  C11 UNL     1      16.298   8.184  39.160  1.00  0.00     0.108 C 
HETATM   22  C12 UNL     1      17.786   8.346  39.341  1.00  0.00     0.027 C 
HETATM   23  C13 UNL     1      18.539   7.861  38.115  1.00  0.00     0.002 C 
HETATM   24  C14 UNL     1      18.152   8.754  36.947  1.00  0.00     0.000 C 
HETATM   25  C15 UNL     1      16.680   8.517  36.711  1.00  0.00     0.002 C 
HETATM   26  C16 UNL     1      15.844   8.964  37.876  1.00  0.00     0.027 C 
ENDBRANCH   8  21
ENDBRANCH   4   6
ENDBRANCH   1   4
TORSDOF 8
ENDMDL
MODEL 4
REMARK VINA RESULT: -5.106194987      2.272      3.706
REMARK  8 active torsions:
REMARK  status: ('A' for Active; 'I' for Inactive)
REMARK    1  A    between atoms: C2_2  and  N1_3 
REMARK    2  A    between atoms: N1_3  and  C3_6 
REMARK    3  A    between atoms: C3_6  and  C4_7 
REMARK    4  A    between atoms: C4_7  and  O1_8 
REMARK    5  A    between atoms: C4_7  and  C6_10 
REMARK    6  A    between atoms: C7_11  and  N2_12 
REMARK    7  A    between atoms: N2_12  and  C8_14 
REMARK    8  A    between atoms: N5_20  and  C11_21 
ROOT
HETATM    1  C8  UNL     1      15.083  10.875  44.441  1.00  0.00     0.244 C 
HETATM    2  C9  UNL     1      16.400  11.303  44.019  1.00  0.00     0.078 C 
HETATM    3  N3  UNL     1      17.452  11.643  43.700  1.00  0.00    -0.196 NA
ENDROOT
BRANCH   1   4
HETATM    4  N2  UNL     1      14.521   9.890  43.544  1.00  0.00    -0.375 N 
ATOM      5  H2  UNL     1      13.832   9.228  43.902  1.00  0.00     0.160 HD
BRANCH   4   6
HETATM    6  C7  UNL     1      14.897   9.821  42.197  1.00  0.00     0.073 A 
HETATM    7  C6  UNL     1      15.555   8.739  41.595  1.00  0.00     0.087 A 
HETATM    8  N5  UNL     1      15.726   9.071  40.343  1.00  0.00    -0.287 N 
HETATM    9  N4  UNL     1      15.226  10.297  40.103  1.00  0.00    -0.307 N 
HETATM   10  C10 UNL     1      14.705  10.782  41.240  1.00  0.00     0.138 A 
ATOM     11  H4  UNL     1      15.241  10.779  39.204  1.00  0.00     0.186 HD
BRANCH   7  12
HETATM   12  C4  UNL     1      15.828   7.467  42.294  1.00  0.00     0.200 C 
BRANCH  12  13
HETATM   13  C3  UNL     1      14.629   6.773  42.854  1.00  0.00     0.270 C 
BRANCH  13  14
HETATM   14  N1  UNL     1      13.670   6.499  41.747  1.00  0.00    -0.073 N 
ATOM     15  H12 UNL     1      13.660   5.522  41.453  1.00  0.00     0.277 HD
ATOM     16  H11 UNL     1      13.960   6.896  40.853  1.00  0.00     0.277 HD
BRANCH  14  17
HETATM   17  C2  UNL     1      12.350   6.988  42.206  1.00  0.00     0.228 C 
HETATM   18  C1  UNL     1      11.631   5.844  42.933  1.00  0.00     0.034 C 
ENDBRANCH  14  17
ENDBRANCH  13  14
ENDBRANCH  12  13
BRANCH  12  19
HETATM   19  O1  UNL     1      16.515   7.909  43.525  1.00  0.00    -0.383 OA
HETATM   20  C5  UNL     1      17.732   7.286  43.616  1.00  0.00     0.202 C 
ENDBRANCH  12  19
ENDBRANCH   7  12
BRANCH   8  21
HETATM   21  C11 UNL     1      16.239   8.299  39.229  1.00  0.00     0.108 C 
HETATM   22  C12 UNL     1      17.745   8.328  39.313  1.00  0.00     0.027 C 
HETATM   23  C13 UNL     1      18.372   7.799  38.035  1.00  0.00     0.002 C 
HETATM   24  C14 UNL     1      17.988   8.740  36.905  1.00  0.00     0.000 C 
HETATM   25  C15 UNL     1      16.489   8.634  36.764  1.00  0.00     0.002 C 
HETATM   26  C16 UNL     1      15.773   9.134  37.985  1.00  0.00     0.027 C 
ENDBRANCH   8  21
ENDBRANCH   4   6
ENDBRANCH   1   4
TORSDOF 8
ENDMDL
MODEL 5
REMARK VINA RESULT: -5.072634659      2.500      3.656
REMARK  8 active torsions:
REMARK  status: ('A' for Active; 'I' for Inactive)
REMARK    1  A    between atoms: C2_2  and  N1_3 
REMARK    2  A    between atoms: N1_3  and  C3_6 
REMARK    3  A    between atoms: C3_6  and  C4_7 
REMARK    4  A    between atoms: C4_7  and  O1_8 
REMARK    5  A    between atoms: C4_7  and  C6_10 
REMARK    6  A    between atoms: C7_11  and  N2_12 
REMARK    7  A    between atoms: N2_12  and  C8_14 
REMARK    8  A    between atoms: N5_20  and  C11_21 
ROOT
HETATM    1  C8  UNL     1      16.823   9.071  45.955  1.00  0.00     0.244 C 
HETATM    2  C9  UNL     1      18.191   8.740  45.618  1.00  0.00     0.078 C 
HETATM    3  N3  UNL     1      19.282   8.472  45.366  1.00  0.00    -0.196 NA
ENDROOT
BRANCH   1   4
HETATM    4  N2  UNL     1      15.895   8.650  44.929  1.00  0.00    -0.375 N 
ATOM      5  H2  UNL     1      15.063   8.125  45.198  1.00  0.00     0.160 HD
BRANCH   4   6
HETATM    6  C7  UNL     1      16.110   8.943  43.577  1.00  0.00     0.073 A 
HETATM    7  C6  UNL     1      16.191   7.996  42.547  1.00  0.00     0.087 A 
HETATM    8  N5  UNL     1      16.401   8.673  41.449  1.00  0.00    -0.287 N 
HETATM    9  N4  UNL     1      16.467   9.991  41.707  1.00  0.00    -0.307 N 
HETATM   10  C10 UNL     1      16.288  10.183  43.023  1.00  0.00     0.138 A 
ATOM     11  H4  UNL     1      16.626  10.725  41.017  1.00  0.00     0.186 HD
BRANCH   7  12
HETATM   12  C4  UNL     1      15.933   6.556  42.749  1.00  0.00     0.200 C 
BRANCH  12  13
HETATM   13  C3  UNL     1      14.594   6.218  43.319  1.00  0.00     0.270 C 
BRANCH  13  14
HETATM   14  N1  UNL     1      13.690   5.800  42.210  1.00  0.00    -0.073 N 
ATOM     15  H12 UNL     1      13.474   4.803  42.218  1.00  0.00     0.277 HD
ATOM     16  H11 UNL     1      14.135   5.825  41.293  1.00  0.00     0.277 HD
BRANCH  14  17
HETATM   17  C2  UNL     1      12.489   6.662  42.302  1.00  0.00     0.228 C 
HETATM   18  C1  UNL     1      12.771   7.974  41.557  1.00  0.00     0.034 C 
ENDBRANCH  14  17
ENDBRANCH  13  14
ENDBRANCH  12  13
BRANCH  12  19
HETATM   19  O1  UNL     1      16.827   6.217  43.875  1.00  0.00    -0.383 OA
HETATM   20  C5  UNL     1      17.997   5.698  43.387  1.00  0.00     0.202 C 
ENDBRANCH  12  19
ENDBRANCH   7  12
BRANCH   8  21
HETATM   21  C11 UNL     1      16.450   8.231  40.069  1.00  0.00     0.108 C 
HETATM   22  C12 UNL     1      17.895   8.244  39.640  1.00  0.00     0.027 C 
HETATM   23  C13 UNL     1      18.019   8.081  38.136  1.00  0.00     0.002 C 
HETATM   24  C14 UNL     1      17.369   9.290  37.482  1.00  0.00     0.000 C 
HETATM   25  C15 UNL     1      15.903   9.219  37.838  1.00  0.00     0.002 C 
HETATM   26  C16 UNL     1      15.675   9.369  39.315  1.00  0.00     0.027 C 
ENDBRANCH   8  21
ENDBRANCH   4   6
ENDBRANCH   1   4
TORSDOF 8
ENDMDL
