MODEL 1
REMARK VINA RESULT: -4.613263939      0.000      0.000
REMARK  3 active torsions:
REMARK  status: ('A' for Active; 'I' for Inactive)
REMARK    1  A    between atoms: N1_2  and  C2_5 
REMARK    2  A    between atoms: C2_5  and  C3_6 
REMARK    3  A    between atoms: C3_6  and  C4_7 
ROOT
HETATM    1  C4  UNL     1      14.685  37.422  35.878  1.00  0.00     0.133 C 
HETATM    2  O1  UNL     1      13.857  37.067  34.776  1.00  0.00    -0.384 OA
HETATM    3  C5  UNL     1      12.811  36.395  35.382  1.00  0.00     0.175 C 
HETATM    4  C6  UNL     1      13.470  35.456  36.349  1.00  0.00     0.046 C 
HETATM    5  C7  UNL     1      12.865  35.465  37.727  1.00  0.00     0.175 C 
HETATM    6  O2  UNL     1      13.764  36.029  38.599  1.00  0.00    -0.390 OA
HETATM    7  C8  UNL     1      15.011  35.999  37.986  1.00  0.00     0.179 C 
HETATM    8  C9  UNL     1      14.815  36.131  36.533  1.00  0.00     0.011 C 
HETATM    9  C10 UNL     1      15.831  35.290  35.742  1.00  0.00     0.020 C 
ENDROOT
BRANCH   1  10
HETATM   10  C3  UNL     1      14.066  38.584  36.516  1.00  0.00     0.060 C 
BRANCH  10  11
HETATM   11  C2  UNL     1      14.930  39.571  37.223  1.00  0.00     0.234 C 
BRANCH  11  12
HETATM   12  N1  UNL     1      16.055  39.866  36.306  1.00  0.00    -0.079 N 
HETATM   13  C1  UNL     1      17.313  39.906  37.001  1.00  0.00     0.266 C 
ATOM     14  H12 UNL     1      15.892  40.726  35.783  1.00  0.00     0.276 HD
ATOM     15  H11 UNL     1      16.082  39.208  35.528  1.00  0.00     0.276 HD
ENDBRANCH  11  12
ENDBRANCH  10  11
ENDBRANCH   1  10
TORSDOF 3
ENDMDL
MODEL 2
REMARK VINA RESULT: -4.609523932      2.311      3.789
REMARK  3 active torsions:
REMARK  status: ('A' for Active; 'I' for Inactive)
REMARK    1  A    between atoms: N1_2  and  C2_5 
REMARK    2  A    between atoms: C2_5  and  C3_6 
REMARK    3  A    between atoms: C3_6  and  C4_7 
ROOT
HETATM    1  C4  UNL     1      14.352  35.857  37.514  1.00  0.00     0.133 C 
HETATM    2  O1  UNL     1      14.854  37.187  37.570  1.00  0.00    -0.384 OA
HETATM    3  C5  UNL     1      14.059  37.855  36.658  1.00  0.00     0.175 C 
HETATM    4  C6  UNL     1      14.024  36.959  35.454  1.00  0.00     0.046 C 
HETATM    5  C7  UNL     1      12.647  36.736  34.890  1.00  0.00     0.175 C 
HETATM    6  O2  UNL     1      12.283  35.431  35.119  1.00  0.00    -0.390 OA
HETATM    7  C8  UNL     1      13.444  34.721  35.401  1.00  0.00     0.179 C 
HETATM    8  C9  UNL     1      14.387  35.625  36.079  1.00  0.00     0.011 C 
HETATM    9  C10 UNL     1      15.842  35.341  35.673  1.00  0.00     0.020 C 
ENDROOT
BRANCH   1  10
HETATM   10  C3  UNL     1      13.116  35.837  38.297  1.00  0.00     0.060 C 
BRANCH  10  11
HETATM   11  C2  UNL     1      13.129  35.234  39.660  1.00  0.00     0.234 C 
BRANCH  11  12
HETATM   12  N1  UNL     1      14.494  35.449  40.193  1.00  0.00    -0.079 N 
HETATM   13  C1  UNL     1      14.580  35.119  41.590  1.00  0.00     0.266 C 
ATOM     14  H12 UNL     1      14.816  36.401  40.017  1.00  0.00     0.276 HD
ATOM     15  H11 UNL     1      15.190  34.941  39.648  1.00  0.00     0.276 HD
ENDBRANCH  11  12
ENDBRANCH  10  11
ENDBRANCH   1  10
TORSDOF 3
ENDMDL
MODEL 3
REMARK VINA RESULT: -4.601696172      1.616      2.952
REMARK  3 active torsions:
REMARK  status: ('A' for Active; 'I' for Inactive)
REMARK    1  A    between atoms: N1_2  and  C2_5 
REMARK    2  A    between atoms: C2_5  and  C3_6 
REMARK    3  A    between atoms: C3_6  and  C4_7 
ROOT
HETATM    1  C4  UNL     1      14.431  37.860  37.850  1.00  0.00     0.133 C 
HETATM    2  O1  UNL     1      15.543  37.655  38.713  1.00  0.00    -0.384 OA
HETATM    3  C5  UNL     1      16.382  36.863  37.952  1.00  0.00     0.175 C 
HETATM    4  C6  UNL     1      15.487  35.806  37.373  1.00  0.00     0.046 C 
HETATM    5  C7  UNL     1      15.674  35.579  35.897  1.00  0.00     0.175 C 
HETATM    6  O2  UNL     1      14.556  36.029  35.237  1.00  0.00    -0.390 OA
HETATM    7  C8  UNL     1      13.537  36.136  36.175  1.00  0.00     0.179 C 
HETATM    8  C9  UNL     1      14.136  36.487  37.472  1.00  0.00     0.011 C 
HETATM    9  C10 UNL     1      13.399  35.815  38.642  1.00  0.00     0.020 C 
ENDROOT
BRANCH   1  10
HETATM   10  C3  UNL     1      14.828  38.887  36.886  1.00  0.00     0.060 C 
BRANCH  10  11
HETATM   11  C2  UNL     1      15.400  40.169  37.384  1.00  0.00     0.234 C 
BRANCH  11  12
HETATM   12  N1  UNL     1      14.677  40.485  38.638  1.00  0.00    -0.079 N 
HETATM   13  C1  UNL     1      15.455  41.328  39.505  1.00  0.00     0.266 C 
ATOM     14  H12 UNL     1      14.377  39.636  39.117  1.00  0.00     0.276 HD
ATOM     15  H11 UNL     1      13.762  40.892  38.446  1.00  0.00     0.276 HD
ENDBRANCH  11  12
ENDBRANCH  10  11
ENDBRANCH   1  10
TORSDOF 3
ENDMDL
MODEL 4
REMARK VINA RESULT: -4.601173283      2.193      4.031
REMARK  3 active torsions:
REMARK  status: ('A' for Active; 'I' for Inactive)
REMARK    1  A    between atoms: N1_2  and  C2_5 
REMARK    2  A    between atoms: C2_5  and  C3_6 
REMARK    3  A    between atoms: C3_6  and  C4_7 
ROOT
HETATM    1  C4  UNL     1      13.579  36.529  36.007  1.00  0.00     0.133 C 
HETATM    2  O1  UNL     1      14.572  36.242  35.030  1.00  0.00    -0.384 OA
HETATM    3  C5  UNL     1      15.574  35.646  35.774  1.00  0.00     0.175 C 
HETATM    4  C6  UNL     1      15.728  36.528  36.979  1.00  0.00     0.046 C 
HETATM    5  C7  UNL     1      15.773  35.784  38.287  1.00  0.00     0.175 C 
HETATM    6  O2  UNL     1      14.623  36.057  38.987  1.00  0.00    -0.390 OA
HETATM    7  C8  UNL     1      14.063  37.202  38.435  1.00  0.00     0.179 C 
HETATM    8  C9  UNL     1      14.383  37.227  36.998  1.00  0.00     0.011 C 
HETATM    9  C10 UNL     1      14.633  38.658  36.495  1.00  0.00     0.020 C 
ENDROOT
BRANCH   1  10
HETATM   10  C3  UNL     1      12.880  35.274  36.284  1.00  0.00     0.060 C 
BRANCH  10  11
HETATM   11  C2  UNL     1      11.918  34.742  35.278  1.00  0.00     0.234 C 
BRANCH  11  12
HETATM   12  N1  UNL     1      11.602  35.869  34.371  1.00  0.00    -0.079 N 
HETATM   13  C1  UNL     1      10.447  35.595  33.561  1.00  0.00     0.266 C 
ATOM     14  H12 UNL     1      12.408  36.120  33.797  1.00  0.00     0.276 HD
ATOM     15  H11 UNL     1      11.496  36.742  34.887  1.00  0.00     0.276 HD
ENDBRANCH  11  12
ENDBRANCH  10  11
ENDBRANCH   1  10
TORSDOF 3
ENDMDL
MODEL 5
REMARK VINA RESULT: -4.514103131      2.123      3.348
REMARK  3 active torsions:
REMARK  status: ('A' for Active; 'I' for Inactive)
REMARK    1  A    between atoms: N1_2  and  C2_5 
REMARK    2  A    between atoms: C2_5  and  C3_6 
REMARK    3  A    between atoms: C3_6  and  C4_7 
ROOT
HETATM    1  C4  UNL     1      16.008  37.110  37.070  1.00  0.00     0.133 C 
HETATM    2  O1  UNL     1      16.232  37.347  38.455  1.00  0.00    -0.384 OA
HETATM    3  C5  UNL     1      15.277  36.552  39.061  1.00  0.00     0.175 C 
HETATM    4  C6  UNL     1      14.014  36.824  38.297  1.00  0.00     0.046 C 
HETATM    5  C7  UNL     1      13.258  35.586  37.895  1.00  0.00     0.175 C 
HETATM    6  O2  UNL     1      13.337  35.447  36.530  1.00  0.00    -0.390 OA
HETATM    7  C8  UNL     1      13.713  36.678  36.009  1.00  0.00     0.179 C 
HETATM    8  C9  UNL     1      14.576  37.353  36.992  1.00  0.00     0.011 C 
HETATM    9  C10 UNL     1      14.344  38.873  37.008  1.00  0.00     0.020 C 
ENDROOT
BRANCH   1  10
HETATM   10  C3  UNL     1      16.619  35.818  36.757  1.00  0.00     0.060 C 
BRANCH  10  11
HETATM   11  C2  UNL     1      18.103  35.719  36.664  1.00  0.00     0.234 C 
BRANCH  11  12
HETATM   12  N1  UNL     1      18.594  37.094  36.416  1.00  0.00    -0.079 N 
HETATM   13  C1  UNL     1      20.001  37.215  36.684  1.00  0.00     0.266 C 
ATOM     14  H12 UNL     1      18.055  37.781  36.944  1.00  0.00     0.276 HD
ATOM     15  H11 UNL     1      18.367  37.405  35.472  1.00  0.00     0.276 HD
ENDBRANCH  11  12
ENDBRANCH  10  11
ENDBRANCH   1  10
TORSDOF 3
ENDMDL
