MODEL 1
REMARK VINA RESULT: -4.859191267      0.000      0.000
REMARK  3 active torsions:
REMARK  status: ('A' for Active; 'I' for Inactive)
REMARK    1  A    between atoms: C2_2  and  O1_3 
REMARK    2  A    between atoms: C2_2  and  N1_6 
REMARK    3  A    between atoms: N1_6  and  C3_8 
ROOT
HETATM    1  N1  UNL     1      12.203  36.613  34.830  1.00  0.00    -0.379 N 
ATOM      2  H1  UNL     1      11.545  37.286  35.222  1.00  0.00     0.157 HD
ENDROOT
BRANCH   1   3
HETATM    3  C2  UNL     1      13.566  36.821  35.053  1.00  0.00     0.185 C 
HETATM    4  C1  UNL     1      14.210  35.499  35.501  1.00  0.00     0.084 C 
HETATM    5  S1  UNL     1      14.037  38.065  36.270  1.00  0.00    -0.033 SA
BRANCH   3   6
HETATM    6  O1  UNL     1      14.198  37.201  33.830  1.00  0.00    -0.362 OA
ATOM      7  H1  UNL     1      14.202  38.151  33.802  1.00  0.00     0.213 HD
ENDBRANCH   3   6
ENDBRANCH   1   3
BRANCH   1   8
HETATM    8  C3  UNL     1      11.687  35.540  34.100  1.00  0.00     0.080 C 
HETATM    9  C4  UNL     1      10.619  34.799  34.853  1.00  0.00     0.025 C 
HETATM   10  C5  UNL     1       9.388  34.780  33.953  1.00  0.00     0.002 C 
HETATM   11  C6  UNL     1       9.588  35.899  32.965  1.00  0.00     0.002 C 
HETATM   12  C7  UNL     1      11.071  35.944  32.773  1.00  0.00     0.025 C 
ENDBRANCH   1   8
TORSDOF 3
ENDMDL
MODEL 2
REMARK VINA RESULT: -4.599935577      2.809      4.199
REMARK  3 active torsions:
REMARK  status: ('A' for Active; 'I' for Inactive)
REMARK    1  A    between atoms: C2_2  and  O1_3 
REMARK    2  A    between atoms: C2_2  and  N1_6 
REMARK    3  A    between atoms: N1_6  and  C3_8 
ROOT
HETATM    1  N1  UNL     1      11.248  34.903  33.450  1.00  0.00    -0.379 N 
ATOM      2  H1  UNL     1      11.726  34.050  33.160  1.00  0.00     0.157 HD
ENDROOT
BRANCH   1   3
HETATM    3  C2  UNL     1      10.280  35.436  32.596  1.00  0.00     0.185 C 
HETATM    4  C1  UNL     1       9.760  34.326  31.669  1.00  0.00     0.084 C 
HETATM    5  S1  UNL     1      10.762  36.813  31.537  1.00  0.00    -0.033 SA
BRANCH   3   6
HETATM    6  O1  UNL     1       9.166  35.896  33.365  1.00  0.00    -0.362 OA
ATOM      7  H1  UNL     1       9.015  35.254  34.048  1.00  0.00     0.213 HD
ENDBRANCH   3   6
ENDBRANCH   1   3
BRANCH   1   8
HETATM    8  C3  UNL     1      11.601  35.468  34.678  1.00  0.00     0.080 C 
HETATM    9  C4  UNL     1      12.439  34.542  35.512  1.00  0.00     0.025 C 
HETATM   10  C5  UNL     1      13.710  35.306  35.864  1.00  0.00     0.002 C 
HETATM   11  C6  UNL     1      13.813  36.414  34.849  1.00  0.00     0.002 C 
HETATM   12  C7  UNL     1      12.388  36.759  34.551  1.00  0.00     0.025 C 
ENDBRANCH   1   8
TORSDOF 3
ENDMDL
MODEL 3
REMARK VINA RESULT: -4.469552546      2.709      4.263
REMARK  3 active torsions:
REMARK  status: ('A' for Active; 'I' for Inactive)
REMARK    1  A    between atoms: C2_2  and  O1_3 
REMARK    2  A    between atoms: C2_2  and  N1_6 
REMARK    3  A    between atoms: N1_6  and  C3_8 
ROOT
HETATM    1  N1  UNL     1      11.058  35.917  34.261  1.00  0.00    -0.379 N 
ATOM      2  H1  UNL     1      10.534  36.119  35.113  1.00  0.00     0.157 HD
ENDROOT
BRANCH   1   3
HETATM    3  C2  UNL     1      10.356  35.873  33.054  1.00  0.00     0.185 C 
HETATM    4  C1  UNL     1      10.423  34.448  32.484  1.00  0.00     0.084 C 
HETATM    5  S1  UNL     1      10.884  36.984  31.735  1.00  0.00    -0.033 SA
BRANCH   3   6
HETATM    6  O1  UNL     1       8.978  36.166  33.292  1.00  0.00    -0.362 OA
ATOM      7  H1  UNL     1       8.485  35.796  32.569  1.00  0.00     0.213 HD
ENDBRANCH   3   6
ENDBRANCH   1   3
BRANCH   1   8
HETATM    8  C3  UNL     1      12.434  35.702  34.371  1.00  0.00     0.080 C 
HETATM    9  C4  UNL     1      13.180  36.956  34.730  1.00  0.00     0.025 C 
HETATM   10  C5  UNL     1      13.983  36.638  35.986  1.00  0.00     0.002 C 
HETATM   11  C6  UNL     1      13.321  35.431  36.598  1.00  0.00     0.002 C 
HETATM   12  C7  UNL     1      12.808  34.669  35.418  1.00  0.00     0.025 C 
ENDBRANCH   1   8
TORSDOF 3
ENDMDL
MODEL 4
REMARK VINA RESULT: -4.436793820      1.411      1.942
REMARK  3 active torsions:
REMARK  status: ('A' for Active; 'I' for Inactive)
REMARK    1  A    between atoms: C2_2  and  O1_3 
REMARK    2  A    between atoms: C2_2  and  N1_6 
REMARK    3  A    between atoms: N1_6  and  C3_8 
ROOT
HETATM    1  N1  UNL     1      13.428  35.550  35.083  1.00  0.00    -0.379 N 
ATOM      2  H1  UNL     1      13.768  34.784  34.502  1.00  0.00     0.157 HD
ENDROOT
BRANCH   1   3
HETATM    3  C2  UNL     1      14.321  36.139  35.981  1.00  0.00     0.185 C 
HETATM    4  C1  UNL     1      15.698  35.473  35.832  1.00  0.00     0.084 C 
HETATM    5  S1  UNL     1      13.907  36.087  37.735  1.00  0.00    -0.033 SA
BRANCH   3   6
HETATM    6  O1  UNL     1      14.486  37.520  35.652  1.00  0.00    -0.362 OA
ATOM      7  H1  UNL     1      14.609  37.988  36.469  1.00  0.00     0.213 HD
ENDBRANCH   3   6
ENDBRANCH   1   3
BRANCH   1   8
HETATM    8  C3  UNL     1      12.097  35.946  34.935  1.00  0.00     0.080 C 
HETATM    9  C4  UNL     1      11.857  36.662  33.636  1.00  0.00     0.025 C 
HETATM   10  C5  UNL     1      10.728  35.917  32.933  1.00  0.00     0.002 C 
HETATM   11  C6  UNL     1      10.688  34.549  33.562  1.00  0.00     0.002 C 
HETATM   12  C7  UNL     1      11.109  34.794  34.976  1.00  0.00     0.025 C 
ENDBRANCH   1   8
TORSDOF 3
ENDMDL
MODEL 5
REMARK VINA RESULT: -4.424025005      3.788      4.988
REMARK  3 active torsions:
REMARK  status: ('A' for Active; 'I' for Inactive)
REMARK    1  A    between atoms: C2_2  and  O1_3 
REMARK    2  A    between atoms: C2_2  and  N1_6 
REMARK    3  A    between atoms: N1_6  and  C3_8 
ROOT
HETATM    1  N1  UNL     1      15.427  38.776  36.249  1.00  0.00    -0.379 N 
ATOM      2  H1  UNL     1      15.541  38.860  35.239  1.00  0.00     0.157 HD
ENDROOT
BRANCH   1   3
HETATM    3  C2  UNL     1      15.902  39.815  37.052  1.00  0.00     0.185 C 
HETATM    4  C1  UNL     1      17.436  39.743  37.116  1.00  0.00     0.084 C 
HETATM    5  S1  UNL     1      15.316  39.895  38.756  1.00  0.00    -0.033 SA
BRANCH   3   6
HETATM    6  O1  UNL     1      15.565  41.070  36.457  1.00  0.00    -0.362 OA
ATOM      7  H1  UNL     1      15.529  40.932  35.518  1.00  0.00     0.213 HD
ENDBRANCH   3   6
ENDBRANCH   1   3
BRANCH   1   8
HETATM    8  C3  UNL     1      14.807  37.628  36.747  1.00  0.00     0.080 C 
HETATM    9  C4  UNL     1      13.754  37.099  35.815  1.00  0.00     0.025 C 
HETATM   10  C5  UNL     1      14.111  35.643  35.538  1.00  0.00     0.002 C 
HETATM   11  C6  UNL     1      15.572  35.510  35.880  1.00  0.00     0.002 C 
HETATM   12  C7  UNL     1      15.765  36.478  37.003  1.00  0.00     0.025 C 
ENDBRANCH   1   8
TORSDOF 3
ENDMDL
