MODEL 1
REMARK VINA RESULT: -9.741939260      0.000      0.000
REMARK  11 active torsions:
REMARK  status: ('A' for Active; 'I' for Inactive)
REMARK    1  A    between atoms: C2_2  and  C3_3 
REMARK    2  A    between atoms: C3_3  and  C4_4 
REMARK    3  A    between atoms: C3_3  and  N3_22 
REMARK    4  A    between atoms: C5_5  and  O1_6 
REMARK    5  A    between atoms: C5_5  and  N1_8 
REMARK    6  A    between atoms: C9_12  and  C10_13 
REMARK       I    between atoms: C10_13  and  N2_15 
REMARK    7  A    between atoms: N2_15  and  C11_17 
REMARK       I    between atoms: N3_22  and  C16_23 
REMARK       I    between atoms: N3_22  and  C25_33 
REMARK    8  A    between atoms: C16_23  and  C17_25 
REMARK    9  A    between atoms: C17_25  and  C18_26 
REMARK   10  A    between atoms: C25_33  and  C26_35 
REMARK   11  A    between atoms: C26_35  and  N4_36 
ROOT
HETATM    1  N3  UNL     1      10.871  23.652   4.857  1.00  0.00    -0.255 N 
HETATM    2  C16 UNL     1      10.700  24.490   5.976  1.00  0.00     0.231 C 
HETATM    3  O3  UNL     1      11.702  24.697   6.748  1.00  0.00    -0.273 OA
HETATM    4  C25 UNL     1       9.887  23.400   3.893  1.00  0.00     0.259 C 
HETATM    5  O4  UNL     1      10.218  22.540   2.979  1.00  0.00    -0.271 OA
ENDROOT
BRANCH   1   6
HETATM    6  C3  UNL     1      12.187  22.958   4.685  1.00  0.00     0.026 C 
BRANCH   6   7
HETATM    7  C2  UNL     1      13.280  23.903   4.495  1.00  0.00     0.053 C 
HETATM    8  C1  UNL     1      14.587  23.161   4.168  1.00  0.00     0.011 C 
ENDBRANCH   6   7
BRANCH   6   9
HETATM    9  C4  UNL     1      12.340  21.763   5.552  1.00  0.00     0.081 C 
HETATM   10  C5  UNL     1      12.829  21.819   6.898  1.00  0.00     0.139 C 
BRANCH  10  11
HETATM   11  O1  UNL     1      11.928  21.978   7.825  1.00  0.00    -0.346 OA
ATOM     12  H1  UNL     1      12.168  22.551   8.543  1.00  0.00     0.219 HD
ENDBRANCH  10  11
BRANCH  10  13
HETATM   13  N1  UNL     1      14.134  21.721   7.350  1.00  0.00    -0.361 N 
HETATM   14  C6  UNL     1      14.766  22.957   7.907  1.00  0.00     0.125 C 
HETATM   15  C7  UNL     1      16.249  22.854   7.581  1.00  0.00     0.021 C 
HETATM   16  C8  UNL     1      16.900  21.734   8.381  1.00  0.00     0.017 C 
HETATM   17  C9  UNL     1      15.843  20.695   8.682  1.00  0.00     0.096 C 
HETATM   18  C15 UNL     1      15.001  20.577   7.405  1.00  0.00     0.139 C 
BRANCH  17  19
HETATM   19  C10 UNL     1      16.443  19.414   9.085  1.00  0.00     0.224 C 
HETATM   20  O2  UNL     1      17.592  19.141   8.655  1.00  0.00    -0.273 OA
HETATM   21  N2  UNL     1      15.805  18.475   9.926  1.00  0.00    -0.353 N 
ATOM     22  H2  UNL     1      14.871  18.692  10.277  1.00  0.00     0.163 HD
BRANCH  21  23
HETATM   23  C11 UNL     1      16.404  17.237  10.310  1.00  0.00     0.022 C 
HETATM   24  C12 UNL     1      15.333  16.279  10.794  1.00  0.00     0.037 C 
HETATM   25  C13 UNL     1      17.356  17.469  11.449  1.00  0.00     0.037 C 
HETATM   26  C14 UNL     1      17.142  16.529   9.197  1.00  0.00     0.037 C 
ENDBRANCH  21  23
ENDBRANCH  17  19
ENDBRANCH  10  13
ENDBRANCH   6   9
ENDBRANCH   1   6
BRANCH   2  27
HETATM   27  C17 UNL     1       9.437  25.142   6.320  1.00  0.00     0.108 C 
BRANCH  27  28
HETATM   28  C18 UNL     1       9.705  26.213   7.387  1.00  0.00    -0.002 C 
HETATM   29  C19 UNL     1       8.918  27.429   7.084  1.00  0.00     0.005 C 
HETATM   30  C20 UNL     1       8.067  27.947   8.221  1.00  0.00     0.000 C 
HETATM   31  C21 UNL     1       8.668  27.838   9.572  1.00  0.00     0.000 C 
HETATM   32  C22 UNL     1       9.810  26.882   9.705  1.00  0.00     0.004 C 
HETATM   33  C23 UNL     1       9.505  25.700   8.777  1.00  0.00    -0.014 C 
HETATM   34  C24 UNL     1       8.180  25.070   9.045  1.00  0.00     0.010 C 
ENDBRANCH  27  28
ENDBRANCH   2  27
BRANCH   4  35
HETATM   35  C26 UNL     1       8.537  23.947   3.738  1.00  0.00     0.375 C 
BRANCH  35  36
HETATM   36  N4  UNL     1       8.243  24.249   2.311  1.00  0.00     0.101 N 
HETATM   37  C27 UNL     1       8.531  25.606   2.002  1.00  0.00     0.305 C 
HETATM   38  C28 UNL     1       7.479  26.556   2.452  1.00  0.00     0.210 C 
HETATM   39  C29 UNL     1       7.765  27.112   3.841  1.00  0.00     0.042 C 
HETATM   40  N5  UNL     1       6.145  25.995   2.410  1.00  0.00    -0.064 N 
HETATM   41  C30 UNL     1       6.101  24.958   1.402  1.00  0.00     0.210 C 
ATOM     42  H52 UNL     1       5.833  25.663   3.322  1.00  0.00     0.278 HD
ATOM     43  H51 UNL     1       5.429  26.708   2.265  1.00  0.00     0.278 HD
HETATM   44  C31 UNL     1       4.668  24.469   1.207  1.00  0.00     0.042 C 
HETATM   45  C32 UNL     1       6.927  23.801   1.982  1.00  0.00     0.305 C 
ENDBRANCH  35  36
ENDBRANCH   4  35
TORSDOF 11
ENDMDL
MODEL 2
REMARK VINA RESULT: -9.377165330      0.819      1.172
REMARK  11 active torsions:
REMARK  status: ('A' for Active; 'I' for Inactive)
REMARK    1  A    between atoms: C2_2  and  C3_3 
REMARK    2  A    between atoms: C3_3  and  C4_4 
REMARK    3  A    between atoms: C3_3  and  N3_22 
REMARK    4  A    between atoms: C5_5  and  O1_6 
REMARK    5  A    between atoms: C5_5  and  N1_8 
REMARK    6  A    between atoms: C9_12  and  C10_13 
REMARK       I    between atoms: C10_13  and  N2_15 
REMARK    7  A    between atoms: N2_15  and  C11_17 
REMARK       I    between atoms: N3_22  and  C16_23 
REMARK       I    between atoms: N3_22  and  C25_33 
REMARK    8  A    between atoms: C16_23  and  C17_25 
REMARK    9  A    between atoms: C17_25  and  C18_26 
REMARK   10  A    between atoms: C25_33  and  C26_35 
REMARK   11  A    between atoms: C26_35  and  N4_36 
ROOT
HETATM    1  N3  UNL     1      11.066  23.467   4.687  1.00  0.00    -0.255 N 
HETATM    2  C16 UNL     1      11.490  24.594   5.417  1.00  0.00     0.231 C 
HETATM    3  O3  UNL     1      12.718  24.668   5.777  1.00  0.00    -0.273 OA
HETATM    4  C25 UNL     1       9.777  23.293   4.168  1.00  0.00     0.259 C 
HETATM    5  O4  UNL     1       9.566  22.151   3.590  1.00  0.00    -0.271 OA
ENDROOT
BRANCH   1   6
HETATM    6  C3  UNL     1      12.047  22.359   4.461  1.00  0.00     0.026 C 
BRANCH   6   7
HETATM    7  C2  UNL     1      13.219  22.811   3.721  1.00  0.00     0.053 C 
HETATM    8  C1  UNL     1      14.224  21.660   3.544  1.00  0.00     0.011 C 
ENDBRANCH   6   7
BRANCH   6   9
HETATM    9  C4  UNL     1      12.172  21.438   5.620  1.00  0.00     0.081 C 
HETATM   10  C5  UNL     1      12.733  21.823   6.881  1.00  0.00     0.139 C 
BRANCH  10  11
HETATM   11  O1  UNL     1      11.893  22.295   7.757  1.00  0.00    -0.346 OA
ATOM     12  H1  UNL     1      12.257  22.508   8.608  1.00  0.00     0.219 HD
ENDBRANCH  10  11
BRANCH  10  13
HETATM   13  N1  UNL     1      14.052  21.758   7.298  1.00  0.00    -0.361 N 
HETATM   14  C6  UNL     1      14.669  23.010   7.836  1.00  0.00     0.125 C 
HETATM   15  C7  UNL     1      16.145  22.941   7.472  1.00  0.00     0.021 C 
HETATM   16  C8  UNL     1      16.842  21.839   8.257  1.00  0.00     0.017 C 
HETATM   17  C9  UNL     1      15.819  20.776   8.587  1.00  0.00     0.096 C 
HETATM   18  C15 UNL     1      14.947  20.635   7.333  1.00  0.00     0.139 C 
BRANCH  17  19
HETATM   19  C10 UNL     1      16.459  19.510   8.977  1.00  0.00     0.224 C 
HETATM   20  O2  UNL     1      17.584  19.244   8.484  1.00  0.00    -0.273 OA
HETATM   21  N2  UNL     1      15.885  18.580   9.872  1.00  0.00    -0.353 N 
ATOM     22  H2  UNL     1      14.971  18.791  10.274  1.00  0.00     0.163 HD
BRANCH  21  23
HETATM   23  C11 UNL     1      16.523  17.357  10.242  1.00  0.00     0.022 C 
HETATM   24  C12 UNL     1      15.489  16.379  10.763  1.00  0.00     0.037 C 
HETATM   25  C13 UNL     1      17.504  17.615  11.349  1.00  0.00     0.037 C 
HETATM   26  C14 UNL     1      17.241  16.661   9.109  1.00  0.00     0.037 C 
ENDBRANCH  21  23
ENDBRANCH  17  19
ENDBRANCH  10  13
ENDBRANCH   6   9
ENDBRANCH   1   6
BRANCH   2  27
HETATM   27  C17 UNL     1      10.608  25.697   5.798  1.00  0.00     0.108 C 
BRANCH  27  28
HETATM   28  C18 UNL     1      10.108  25.461   7.231  1.00  0.00    -0.002 C 
HETATM   29  C19 UNL     1      11.087  26.006   8.198  1.00  0.00     0.005 C 
HETATM   30  C20 UNL     1      10.517  26.952   9.229  1.00  0.00     0.000 C 
HETATM   31  C21 UNL     1       9.168  26.607   9.739  1.00  0.00     0.000 C 
HETATM   32  C22 UNL     1       8.378  25.651   8.904  1.00  0.00     0.004 C 
HETATM   33  C23 UNL     1       8.716  25.961   7.441  1.00  0.00    -0.014 C 
HETATM   34  C24 UNL     1       8.483  27.388   7.076  1.00  0.00     0.010 C 
ENDBRANCH  27  28
ENDBRANCH   2  27
BRANCH   4  35
HETATM   35  C26 UNL     1       8.618  24.188   4.166  1.00  0.00     0.375 C 
BRANCH  35  36
HETATM   36  N4  UNL     1       7.830  24.038   2.912  1.00  0.00     0.101 N 
HETATM   37  C27 UNL     1       7.938  25.196   2.095  1.00  0.00     0.305 C 
HETATM   38  C28 UNL     1       7.075  26.323   2.540  1.00  0.00     0.210 C 
HETATM   39  C29 UNL     1       7.809  27.270   3.480  1.00  0.00     0.042 C 
HETATM   40  N5  UNL     1       5.834  25.888   3.146  1.00  0.00    -0.064 N 
HETATM   41  C30 UNL     1       5.480  24.589   2.615  1.00  0.00     0.210 C 
ATOM     42  H52 UNL     1       5.876  25.893   4.164  1.00  0.00     0.278 HD
ATOM     43  H51 UNL     1       5.086  26.572   3.030  1.00  0.00     0.278 HD
HETATM   44  C31 UNL     1       4.089  24.182   3.097  1.00  0.00     0.042 C 
HETATM   45  C32 UNL     1       6.502  23.617   3.222  1.00  0.00     0.305 C 
ENDBRANCH  35  36
ENDBRANCH   4  35
TORSDOF 11
ENDMDL
MODEL 3
REMARK VINA RESULT: -9.253970444      1.358      4.564
REMARK  11 active torsions:
REMARK  status: ('A' for Active; 'I' for Inactive)
REMARK    1  A    between atoms: C2_2  and  C3_3 
REMARK    2  A    between atoms: C3_3  and  C4_4 
REMARK    3  A    between atoms: C3_3  and  N3_22 
REMARK    4  A    between atoms: C5_5  and  O1_6 
REMARK    5  A    between atoms: C5_5  and  N1_8 
REMARK    6  A    between atoms: C9_12  and  C10_13 
REMARK       I    between atoms: C10_13  and  N2_15 
REMARK    7  A    between atoms: N2_15  and  C11_17 
REMARK       I    between atoms: N3_22  and  C16_23 
REMARK       I    between atoms: N3_22  and  C25_33 
REMARK    8  A    between atoms: C16_23  and  C17_25 
REMARK    9  A    between atoms: C17_25  and  C18_26 
REMARK   10  A    between atoms: C25_33  and  C26_35 
REMARK   11  A    between atoms: C26_35  and  N4_36 
ROOT
HETATM    1  N3  UNL     1      11.068  23.758   5.113  1.00  0.00    -0.255 N 
HETATM    2  C16 UNL     1       9.916  23.514   4.341  1.00  0.00     0.231 C 
HETATM    3  O3  UNL     1       9.921  22.529   3.522  1.00  0.00    -0.273 OA
HETATM    4  C25 UNL     1      11.173  24.750   6.097  1.00  0.00     0.259 C 
HETATM    5  O4  UNL     1      12.344  24.861   6.644  1.00  0.00    -0.271 OA
ENDROOT
BRANCH   1   6
HETATM    6  C3  UNL     1      12.282  22.919   4.860  1.00  0.00     0.026 C 
BRANCH   6   7
HETATM    7  C2  UNL     1      13.433  23.728   4.480  1.00  0.00     0.053 C 
HETATM    8  C1  UNL     1      14.611  22.831   4.063  1.00  0.00     0.011 C 
ENDBRANCH   6   7
BRANCH   6   9
HETATM    9  C4  UNL     1      12.415  21.777   5.800  1.00  0.00     0.081 C 
HETATM   10  C5  UNL     1      13.010  21.886   7.099  1.00  0.00     0.139 C 
BRANCH  10  11
HETATM   11  O1  UNL     1      12.199  22.178   8.074  1.00  0.00    -0.346 OA
ATOM     12  H1  UNL     1      11.720  21.449   8.448  1.00  0.00     0.219 HD
ENDBRANCH  10  11
BRANCH  10  13
HETATM   13  N1  UNL     1      14.336  21.718   7.461  1.00  0.00    -0.361 N 
HETATM   14  C6  UNL     1      15.090  22.931   7.907  1.00  0.00     0.125 C 
HETATM   15  C7  UNL     1      16.533  22.709   7.481  1.00  0.00     0.021 C 
HETATM   16  C8  UNL     1      17.165  21.584   8.290  1.00  0.00     0.017 C 
HETATM   17  C9  UNL     1      16.068  20.638   8.718  1.00  0.00     0.096 C 
HETATM   18  C15 UNL     1      15.126  20.520   7.513  1.00  0.00     0.139 C 
BRANCH  17  19
HETATM   19  C10 UNL     1      16.609  19.337   9.143  1.00  0.00     0.224 C 
HETATM   20  O2  UNL     1      17.771  19.036   8.775  1.00  0.00    -0.273 OA
HETATM   21  N2  UNL     1      15.899  18.411   9.941  1.00  0.00    -0.353 N 
ATOM     22  H2  UNL     1      14.954  18.651  10.241  1.00  0.00     0.163 HD
BRANCH  21  23
HETATM   23  C11 UNL     1      16.442  17.154  10.347  1.00  0.00     0.022 C 
HETATM   24  C12 UNL     1      15.329  16.254  10.844  1.00  0.00     0.037 C 
HETATM   25  C13 UNL     1      17.402  17.363  11.483  1.00  0.00     0.037 C 
HETATM   26  C14 UNL     1      17.149  16.396   9.247  1.00  0.00     0.037 C 
ENDBRANCH  21  23
ENDBRANCH  17  19
ENDBRANCH  10  13
ENDBRANCH   6   9
ENDBRANCH   1   6
BRANCH   2  27
HETATM   27  C17 UNL     1       8.700  24.326   4.413  1.00  0.00     0.108 C 
BRANCH  27  28
HETATM   28  C18 UNL     1       8.111  24.463   3.001  1.00  0.00    -0.002 C 
HETATM   29  C19 UNL     1       6.729  23.935   2.984  1.00  0.00     0.005 C 
HETATM   30  C20 UNL     1       5.687  24.874   2.419  1.00  0.00     0.000 C 
HETATM   31  C21 UNL     1       6.123  25.695   1.264  1.00  0.00     0.000 C 
HETATM   32  C22 UNL     1       7.600  25.813   1.067  1.00  0.00     0.004 C 
HETATM   33  C23 UNL     1       8.229  25.853   2.464  1.00  0.00    -0.014 C 
HETATM   34  C24 UNL     1       7.666  26.928   3.331  1.00  0.00     0.010 C 
ENDBRANCH  27  28
ENDBRANCH   2  27
BRANCH   4  35
HETATM   35  C26 UNL     1      10.178  25.689   6.618  1.00  0.00     0.375 C 
BRANCH  35  36
HETATM   36  N4  UNL     1       9.826  25.367   8.028  1.00  0.00     0.101 N 
HETATM   37  C27 UNL     1       8.461  24.989   8.145  1.00  0.00     0.305 C 
HETATM   38  C28 UNL     1       7.521  26.142   8.141  1.00  0.00     0.210 C 
HETATM   39  C29 UNL     1       7.013  26.464   6.742  1.00  0.00     0.042 C 
HETATM   40  N5  UNL     1       8.073  27.333   8.752  1.00  0.00    -0.064 N 
HETATM   41  C30 UNL     1       9.076  26.944   9.721  1.00  0.00     0.210 C 
ATOM     42  H52 UNL     1       8.435  27.992   8.063  1.00  0.00     0.278 HD
ATOM     43  H51 UNL     1       7.353  27.931   9.157  1.00  0.00     0.278 HD
HETATM   44  C31 UNL     1       9.551  28.163  10.509  1.00  0.00     0.042 C 
HETATM   45  C32 UNL     1      10.256  26.423   8.888  1.00  0.00     0.305 C 
ENDBRANCH  35  36
ENDBRANCH   4  35
TORSDOF 11
ENDMDL
MODEL 4
REMARK VINA RESULT: -9.237006304      2.590     10.785
REMARK  11 active torsions:
REMARK  status: ('A' for Active; 'I' for Inactive)
REMARK    1  A    between atoms: C2_2  and  C3_3 
REMARK    2  A    between atoms: C3_3  and  C4_4 
REMARK    3  A    between atoms: C3_3  and  N3_22 
REMARK    4  A    between atoms: C5_5  and  O1_6 
REMARK    5  A    between atoms: C5_5  and  N1_8 
REMARK    6  A    between atoms: C9_12  and  C10_13 
REMARK       I    between atoms: C10_13  and  N2_15 
REMARK    7  A    between atoms: N2_15  and  C11_17 
REMARK       I    between atoms: N3_22  and  C16_23 
REMARK       I    between atoms: N3_22  and  C25_33 
REMARK    8  A    between atoms: C16_23  and  C17_25 
REMARK    9  A    between atoms: C17_25  and  C18_26 
REMARK   10  A    between atoms: C25_33  and  C26_35 
REMARK   11  A    between atoms: C26_35  and  N4_36 
ROOT
HETATM    1  N3  UNL     1      13.298  22.590   6.099  1.00  0.00    -0.255 N 
HETATM    2  C16 UNL     1      13.985  22.546   4.871  1.00  0.00     0.231 C 
HETATM    3  O3  UNL     1      13.639  23.360   3.943  1.00  0.00    -0.273 OA
HETATM    4  C25 UNL     1      13.619  21.814   7.219  1.00  0.00     0.259 C 
HETATM    5  O4  UNL     1      12.818  21.948   8.231  1.00  0.00    -0.271 OA
ENDROOT
BRANCH   1   6
HETATM    6  C3  UNL     1      12.124  23.512   6.222  1.00  0.00     0.026 C 
BRANCH   6   7
HETATM    7  C2  UNL     1      12.514  24.824   6.722  1.00  0.00     0.053 C 
HETATM    8  C1  UNL     1      11.648  25.222   7.930  1.00  0.00     0.011 C 
ENDBRANCH   6   7
BRANCH   6   9
HETATM    9  C4  UNL     1      11.142  23.365   5.119  1.00  0.00     0.081 C 
HETATM   10  C5  UNL     1      10.501  24.474   4.475  1.00  0.00     0.139 C 
BRANCH  10  11
HETATM   11  O1  UNL     1      11.114  24.959   3.434  1.00  0.00    -0.346 OA
ATOM     12  H1  UNL     1      11.398  24.325   2.787  1.00  0.00     0.219 HD
ENDBRANCH  10  11
BRANCH  10  13
HETATM   13  N1  UNL     1       9.312  25.099   4.809  1.00  0.00    -0.361 N 
HETATM   14  C6  UNL     1       9.395  26.471   5.401  1.00  0.00     0.125 C 
HETATM   15  C7  UNL     1       8.214  26.591   6.351  1.00  0.00     0.021 C 
HETATM   16  C8  UNL     1       6.902  26.620   5.579  1.00  0.00     0.017 C 
HETATM   17  C9  UNL     1       7.102  25.865   4.284  1.00  0.00     0.096 C 
HETATM   18  C15 UNL     1       7.960  24.645   4.643  1.00  0.00     0.139 C 
BRANCH  17  19
HETATM   19  C10 UNL     1       5.817  25.493   3.671  1.00  0.00     0.224 C 
HETATM   20  O2  UNL     1       5.277  26.317   2.891  1.00  0.00    -0.273 OA
HETATM   21  N2  UNL     1       5.158  24.265   3.906  1.00  0.00    -0.353 N 
ATOM     22  H2  UNL     1       5.592  23.593   4.540  1.00  0.00     0.163 HD
BRANCH  21  23
HETATM   23  C11 UNL     1       3.912  23.919   3.299  1.00  0.00     0.022 C 
HETATM   24  C12 UNL     1       3.522  22.511   3.700  1.00  0.00     0.037 C 
HETATM   25  C13 UNL     1       4.056  23.944   1.804  1.00  0.00     0.037 C 
HETATM   26  C14 UNL     1       2.758  24.813   3.691  1.00  0.00     0.037 C 
ENDBRANCH  21  23
ENDBRANCH  17  19
ENDBRANCH  10  13
ENDBRANCH   6   9
ENDBRANCH   1   6
BRANCH   2  27
HETATM   27  C17 UNL     1      15.079  21.619   4.581  1.00  0.00     0.108 C 
BRANCH  27  28
HETATM   28  C18 UNL     1      14.492  20.327   3.993  1.00  0.00    -0.002 C 
HETATM   29  C19 UNL     1      14.248  20.503   2.544  1.00  0.00     0.005 C 
HETATM   30  C20 UNL     1      14.853  19.442   1.654  1.00  0.00     0.000 C 
HETATM   31  C21 UNL     1      14.822  18.061   2.192  1.00  0.00     0.000 C 
HETATM   32  C22 UNL     1      14.598  17.938   3.665  1.00  0.00     0.004 C 
HETATM   33  C23 UNL     1      15.316  19.123   4.320  1.00  0.00    -0.014 C 
HETATM   34  C24 UNL     1      16.758  19.211   3.952  1.00  0.00     0.010 C 
ENDBRANCH  27  28
ENDBRANCH   2  27
BRANCH   4  35
HETATM   35  C26 UNL     1      14.716  20.870   7.447  1.00  0.00     0.375 C 
BRANCH  35  36
HETATM   36  N4  UNL     1      15.309  21.056   8.799  1.00  0.00     0.101 N 
HETATM   37  C27 UNL     1      16.590  21.667   8.720  1.00  0.00     0.305 C 
HETATM   38  C28 UNL     1      17.676  20.725   8.338  1.00  0.00     0.210 C 
HETATM   39  C29 UNL     1      17.913  20.702   6.833  1.00  0.00     0.042 C 
HETATM   40  N5  UNL     1      17.465  19.379   8.826  1.00  0.00    -0.064 N 
HETATM   41  C30 UNL     1      16.648  19.433  10.019  1.00  0.00     0.210 C 
ATOM     42  H52 UNL     1      17.072  18.765   8.113  1.00  0.00     0.278 HD
ATOM     43  H51 UNL     1      18.342  18.879   8.977  1.00  0.00     0.278 HD
HETATM   44  C31 UNL     1      16.554  18.049  10.659  1.00  0.00     0.042 C 
HETATM   45  C32 UNL     1      15.248  19.829   9.528  1.00  0.00     0.305 C 
ENDBRANCH  35  36
ENDBRANCH   4  35
TORSDOF 11
ENDMDL
MODEL 5
REMARK VINA RESULT: -9.215220828      2.574     10.618
REMARK  11 active torsions:
REMARK  status: ('A' for Active; 'I' for Inactive)
REMARK    1  A    between atoms: C2_2  and  C3_3 
REMARK    2  A    between atoms: C3_3  and  C4_4 
REMARK    3  A    between atoms: C3_3  and  N3_22 
REMARK    4  A    between atoms: C5_5  and  O1_6 
REMARK    5  A    between atoms: C5_5  and  N1_8 
REMARK    6  A    between atoms: C9_12  and  C10_13 
REMARK       I    between atoms: C10_13  and  N2_15 
REMARK    7  A    between atoms: N2_15  and  C11_17 
REMARK       I    between atoms: N3_22  and  C16_23 
REMARK       I    between atoms: N3_22  and  C25_33 
REMARK    8  A    between atoms: C16_23  and  C17_25 
REMARK    9  A    between atoms: C17_25  and  C18_26 
REMARK   10  A    between atoms: C25_33  and  C26_35 
REMARK   11  A    between atoms: C26_35  and  N4_36 
ROOT
HETATM    1  N3  UNL     1      13.221  22.451   6.087  1.00  0.00    -0.255 N 
HETATM    2  C16 UNL     1      13.900  22.433   4.854  1.00  0.00     0.231 C 
HETATM    3  O3  UNL     1      13.507  23.222   3.924  1.00  0.00    -0.273 OA
HETATM    4  C25 UNL     1      13.589  21.699   7.210  1.00  0.00     0.259 C 
HETATM    5  O4  UNL     1      12.789  21.801   8.227  1.00  0.00    -0.271 OA
ENDROOT
BRANCH   1   6
HETATM    6  C3  UNL     1      12.004  23.314   6.214  1.00  0.00     0.026 C 
BRANCH   6   7
HETATM    7  C2  UNL     1      12.338  24.733   6.185  1.00  0.00     0.053 C 
HETATM    8  C1  UNL     1      11.675  25.469   7.362  1.00  0.00     0.011 C 
ENDBRANCH   6   7
BRANCH   6   9
HETATM    9  C4  UNL     1      10.825  22.782   5.484  1.00  0.00     0.081 C 
HETATM   10  C5  UNL     1      10.454  23.203   4.165  1.00  0.00     0.139 C 
BRANCH  10  11
HETATM   11  O1  UNL     1      10.968  22.519   3.184  1.00  0.00    -0.346 OA
ATOM     12  H1  UNL     1      11.916  22.480   3.157  1.00  0.00     0.219 HD
ENDBRANCH  10  11
BRANCH  10  13
HETATM   13  N1  UNL     1       9.616  24.240   3.792  1.00  0.00    -0.361 N 
HETATM   14  C6  UNL     1       8.951  24.142   2.455  1.00  0.00     0.125 C 
HETATM   15  C7  UNL     1       8.796  25.572   1.958  1.00  0.00     0.021 C 
HETATM   16  C8  UNL     1       7.781  26.328   2.802  1.00  0.00     0.017 C 
HETATM   17  C9  UNL     1       7.772  25.719   4.186  1.00  0.00     0.096 C 
HETATM   18  C15 UNL     1       9.240  25.421   4.517  1.00  0.00     0.139 C 
BRANCH  17  19
HETATM   19  C10 UNL     1       7.141  26.615   5.168  1.00  0.00     0.224 C 
HETATM   20  O2  UNL     1       7.678  27.732   5.375  1.00  0.00    -0.273 OA
HETATM   21  N2  UNL     1       5.968  26.293   5.888  1.00  0.00    -0.353 N 
ATOM     22  H2  UNL     1       5.529  25.387   5.723  1.00  0.00     0.163 HD
BRANCH  21  23
HETATM   23  C11 UNL     1       5.367  27.177   6.835  1.00  0.00     0.022 C 
HETATM   24  C12 UNL     1       6.330  27.433   7.977  1.00  0.00     0.037 C 
HETATM   25  C13 UNL     1       4.137  26.537   7.412  1.00  0.00     0.037 C 
HETATM   26  C14 UNL     1       4.994  28.531   6.276  1.00  0.00     0.037 C 
ENDBRANCH  21  23
ENDBRANCH  17  19
ENDBRANCH  10  13
ENDBRANCH   6   9
ENDBRANCH   1   6
BRANCH   2  27
HETATM   27  C17 UNL     1      15.035  21.559   4.561  1.00  0.00     0.108 C 
BRANCH  27  28
HETATM   28  C18 UNL     1      14.511  20.248   3.958  1.00  0.00    -0.002 C 
HETATM   29  C19 UNL     1      14.280  20.422   2.507  1.00  0.00     0.005 C 
HETATM   30  C20 UNL     1      14.941  19.391   1.621  1.00  0.00     0.000 C 
HETATM   31  C21 UNL     1      14.959  18.007   2.151  1.00  0.00     0.000 C 
HETATM   32  C22 UNL     1      14.719  17.866   3.620  1.00  0.00     0.004 C 
HETATM   33  C23 UNL     1      15.378  19.077   4.291  1.00  0.00    -0.014 C 
HETATM   34  C24 UNL     1      16.821  19.226   3.945  1.00  0.00     0.010 C 
ENDBRANCH  27  28
ENDBRANCH   2  27
BRANCH   4  35
HETATM   35  C26 UNL     1      14.732  20.813   7.435  1.00  0.00     0.375 C 
BRANCH  35  36
HETATM   36  N4  UNL     1      15.326  21.036   8.781  1.00  0.00     0.101 N 
HETATM   37  C27 UNL     1      16.596  21.667   8.686  1.00  0.00     0.305 C 
HETATM   38  C28 UNL     1      17.697  20.738   8.320  1.00  0.00     0.210 C 
HETATM   39  C29 UNL     1      17.931  20.689   6.816  1.00  0.00     0.042 C 
HETATM   40  N5  UNL     1      17.511  19.398   8.835  1.00  0.00    -0.064 N 
HETATM   41  C30 UNL     1      16.696  19.461  10.029  1.00  0.00     0.210 C 
ATOM     42  H52 UNL     1      17.127  18.763   8.136  1.00  0.00     0.278 HD
ATOM     43  H51 UNL     1      18.397  18.917   8.994  1.00  0.00     0.278 HD
HETATM   44  C31 UNL     1      16.628  18.090  10.697  1.00  0.00     0.042 C 
HETATM   45  C32 UNL     1      15.288  19.823   9.534  1.00  0.00     0.305 C 
ENDBRANCH  35  36
ENDBRANCH   4  35
TORSDOF 11
ENDMDL
