MODEL 1
REMARK VINA RESULT: -8.581765319      0.000      0.000
REMARK  12 active torsions:
REMARK  status: ('A' for Active; 'I' for Inactive)
REMARK    1  A    between atoms: C2_2  and  C3_3 
REMARK    2  A    between atoms: C3_3  and  S1_4 
REMARK    3  A    between atoms: S1_4  and  C4_6 
REMARK    4  A    between atoms: C4_6  and  C5_7 
REMARK    5  A    between atoms: C5_7  and  C6_8 
REMARK    6  A    between atoms: C5_7  and  N2_18 
REMARK       I    between atoms: C6_8  and  N1_10 
REMARK    7  A    between atoms: N1_10  and  C7_12 
REMARK    8  A    between atoms: C14_21  and  S2_22 
REMARK    9  A    between atoms: S2_22  and  C15_23 
REMARK   10  A    between atoms: C15_23  and  N3_25 
REMARK   11  A    between atoms: N3_25  and  C17_27 
REMARK   12  A    between atoms: C24_34  and  C26_36 
ROOT
HETATM    1  N2  UNL     1      10.012  24.993   6.096  1.00  0.00    -0.318 N 
HETATM    2  C13 UNL     1      11.389  25.095   5.704  1.00  0.00     0.236 C 
HETATM    3  O3  UNL     1      11.854  25.552   4.663  1.00  0.00    -0.272 OA
HETATM    4  C14 UNL     1      12.251  24.524   6.824  1.00  0.00     0.149 C 
HETATM    5  C23 UNL     1      11.402  25.078   7.976  1.00  0.00     0.067 C 
HETATM    6  C24 UNL     1      10.006  24.758   7.516  1.00  0.00     0.122 C 
HETATM    7  C25 UNL     1       9.641  23.313   7.863  1.00  0.00     0.050 C 
ENDROOT
BRANCH   1   8
HETATM    8  C5  UNL     1       8.859  25.090   5.209  1.00  0.00     0.192 C 
BRANCH   8   9
HETATM    9  C4  UNL     1       9.189  24.838   3.762  1.00  0.00     0.143 C 
BRANCH   9  10
HETATM   10  S1  UNL     1       8.223  23.607   2.972  1.00  0.00     0.017 S 
HETATM   11  O1  UNL     1       9.167  22.515   2.110  1.00  0.00    -0.258 OA
BRANCH  10  12
HETATM   12  C3  UNL     1       7.005  24.345   1.891  1.00  0.00     0.108 C 
BRANCH  12  13
HETATM   13  C2  UNL     1       7.059  25.856   2.036  1.00  0.00     0.008 C 
HETATM   14  C1  UNL     1       7.679  26.467   0.815  1.00  0.00     0.006 C 
ENDBRANCH  12  13
ENDBRANCH  10  12
ENDBRANCH   9  10
ENDBRANCH   8   9
BRANCH   8  15
HETATM   15  C6  UNL     1       8.032  26.280   5.411  1.00  0.00     0.241 C 
HETATM   16  O2  UNL     1       8.441  27.486   5.306  1.00  0.00    -0.271 OA
HETATM   17  N1  UNL     1       6.662  26.147   5.754  1.00  0.00    -0.355 N 
ATOM     18  H1  UNL     1       6.283  25.205   5.847  1.00  0.00     0.162 HD
BRANCH  17  19
HETATM   19  C7  UNL     1       5.768  27.264   5.980  1.00  0.00     0.084 C 
HETATM   20  C8  UNL     1       4.780  27.392   4.859  1.00  0.00     0.025 C 
HETATM   21  C9  UNL     1       3.778  28.484   5.198  1.00  0.00     0.002 C 
HETATM   22  C10 UNL     1       2.994  28.120   6.416  1.00  0.00     0.000 C 
HETATM   23  C11 UNL     1       3.984  28.013   7.575  1.00  0.00     0.002 C 
HETATM   24  C12 UNL     1       5.006  26.967   7.279  1.00  0.00     0.025 C 
ENDBRANCH  17  19
ENDBRANCH   8  15
ENDBRANCH   1   8
BRANCH   6  25
HETATM   25  C26 UNL     1       9.085  25.673   8.260  1.00  0.00     0.202 C 
HETATM   26  O4  UNL     1       9.501  26.828   8.522  1.00  0.00    -0.646 OA
HETATM   27  O5  UNL     1       7.843  25.246   8.630  1.00  0.00    -0.646 OA
ENDBRANCH   6  25
BRANCH   4  28
HETATM   28  S2  UNL     1      12.271  22.771   6.762  1.00  0.00    -0.086 SA
BRANCH  28  29
HETATM   29  C15 UNL     1      13.825  21.993   6.593  1.00  0.00     0.137 C 
HETATM   30  S3  UNL     1      14.618  21.515   8.014  1.00  0.00    -0.053 SA
BRANCH  29  31
HETATM   31  N3  UNL     1      14.546  21.658   5.422  1.00  0.00    -0.366 N 
HETATM   32  C16 UNL     1      14.922  22.620   4.404  1.00  0.00     0.151 C 
BRANCH  31  33
HETATM   33  C17 UNL     1      14.967  20.265   5.262  1.00  0.00     0.085 C 
HETATM   34  C18 UNL     1      14.176  19.485   4.269  1.00  0.00     0.025 C 
HETATM   35  C19 UNL     1      14.828  19.330   2.922  1.00  0.00     0.002 C 
HETATM   36  C20 UNL     1      16.092  18.484   3.085  1.00  0.00     0.000 C 
HETATM   37  C21 UNL     1      16.757  18.845   4.408  1.00  0.00     0.002 C 
HETATM   38  C22 UNL     1      16.398  20.299   4.704  1.00  0.00     0.025 C 
ENDBRANCH  31  33
ENDBRANCH  29  31
ENDBRANCH  28  29
ENDBRANCH   4  28
TORSDOF 12
ENDMDL
MODEL 2
REMARK VINA RESULT: -8.499435153      1.038      1.196
REMARK  12 active torsions:
REMARK  status: ('A' for Active; 'I' for Inactive)
REMARK    1  A    between atoms: C2_2  and  C3_3 
REMARK    2  A    between atoms: C3_3  and  S1_4 
REMARK    3  A    between atoms: S1_4  and  C4_6 
REMARK    4  A    between atoms: C4_6  and  C5_7 
REMARK    5  A    between atoms: C5_7  and  C6_8 
REMARK    6  A    between atoms: C5_7  and  N2_18 
REMARK       I    between atoms: C6_8  and  N1_10 
REMARK    7  A    between atoms: N1_10  and  C7_12 
REMARK    8  A    between atoms: C14_21  and  S2_22 
REMARK    9  A    between atoms: S2_22  and  C15_23 
REMARK   10  A    between atoms: C15_23  and  N3_25 
REMARK   11  A    between atoms: N3_25  and  C17_27 
REMARK   12  A    between atoms: C24_34  and  C26_36 
ROOT
HETATM    1  N2  UNL     1      10.076  25.070   6.039  1.00  0.00    -0.318 N 
HETATM    2  C13 UNL     1      11.476  25.156   5.735  1.00  0.00     0.236 C 
HETATM    3  O3  UNL     1      12.012  25.619   4.732  1.00  0.00    -0.272 OA
HETATM    4  C14 UNL     1      12.258  24.556   6.899  1.00  0.00     0.149 C 
HETATM    5  C23 UNL     1      11.347  25.108   8.003  1.00  0.00     0.067 C 
HETATM    6  C24 UNL     1       9.978  24.816   7.453  1.00  0.00     0.122 C 
HETATM    7  C25 UNL     1       9.571  23.373   7.756  1.00  0.00     0.050 C 
ENDROOT
BRANCH   1   8
HETATM    8  C5  UNL     1       8.982  25.196   5.084  1.00  0.00     0.192 C 
BRANCH   8   9
HETATM    9  C4  UNL     1       9.417  25.063   3.649  1.00  0.00     0.143 C 
BRANCH   9  10
HETATM   10  S1  UNL     1       8.124  24.834   2.488  1.00  0.00     0.017 S 
HETATM   11  O1  UNL     1       7.453  26.293   1.988  1.00  0.00    -0.258 OA
BRANCH  10  12
HETATM   12  C3  UNL     1       6.848  23.773   3.151  1.00  0.00     0.108 C 
BRANCH  12  13
HETATM   13  C2  UNL     1       5.487  24.333   2.777  1.00  0.00     0.008 C 
HETATM   14  C1  UNL     1       4.426  23.739   3.655  1.00  0.00     0.006 C 
ENDBRANCH  12  13
ENDBRANCH  10  12
ENDBRANCH   9  10
ENDBRANCH   8   9
BRANCH   8  15
HETATM   15  C6  UNL     1       8.102  26.342   5.313  1.00  0.00     0.241 C 
HETATM   16  O2  UNL     1       8.433  27.567   5.161  1.00  0.00    -0.271 OA
HETATM   17  N1  UNL     1       6.764  26.141   5.739  1.00  0.00    -0.355 N 
ATOM     18  H1  UNL     1       6.445  25.181   5.872  1.00  0.00     0.162 HD
BRANCH  17  19
HETATM   19  C7  UNL     1       5.822  27.211   5.998  1.00  0.00     0.084 C 
HETATM   20  C8  UNL     1       4.871  27.373   4.849  1.00  0.00     0.025 C 
HETATM   21  C9  UNL     1       3.819  28.407   5.214  1.00  0.00     0.002 C 
HETATM   22  C10 UNL     1       3.005  27.942   6.377  1.00  0.00     0.000 C 
HETATM   23  C11 UNL     1       3.955  27.799   7.564  1.00  0.00     0.002 C 
HETATM   24  C12 UNL     1       5.025  26.808   7.246  1.00  0.00     0.025 C 
ENDBRANCH  17  19
ENDBRANCH   8  15
ENDBRANCH   1   8
BRANCH   6  25
HETATM   25  C26 UNL     1       9.026  25.735   8.151  1.00  0.00     0.202 C 
HETATM   26  O4  UNL     1       9.384  26.927   8.315  1.00  0.00    -0.646 OA
HETATM   27  O5  UNL     1       7.817  25.273   8.585  1.00  0.00    -0.646 OA
ENDBRANCH   6  25
BRANCH   4  28
HETATM   28  S2  UNL     1      12.256  22.804   6.813  1.00  0.00    -0.086 SA
BRANCH  28  29
HETATM   29  C15 UNL     1      13.802  22.008   6.650  1.00  0.00     0.137 C 
HETATM   30  S3  UNL     1      14.567  21.491   8.073  1.00  0.00    -0.053 SA
BRANCH  29  31
HETATM   31  N3  UNL     1      14.534  21.686   5.484  1.00  0.00    -0.366 N 
HETATM   32  C16 UNL     1      14.930  22.662   4.486  1.00  0.00     0.151 C 
BRANCH  31  33
HETATM   33  C17 UNL     1      14.948  20.293   5.307  1.00  0.00     0.085 C 
HETATM   34  C18 UNL     1      14.155  19.530   4.302  1.00  0.00     0.025 C 
HETATM   35  C19 UNL     1      14.809  19.388   2.955  1.00  0.00     0.002 C 
HETATM   36  C20 UNL     1      16.067  18.533   3.110  1.00  0.00     0.000 C 
HETATM   37  C21 UNL     1      16.732  18.874   4.439  1.00  0.00     0.002 C 
HETATM   38  C22 UNL     1      16.380  20.326   4.752  1.00  0.00     0.025 C 
ENDBRANCH  31  33
ENDBRANCH  29  31
ENDBRANCH  28  29
ENDBRANCH   4  28
TORSDOF 12
ENDMDL
MODEL 3
REMARK VINA RESULT: -8.407497909      1.687      2.262
REMARK  12 active torsions:
REMARK  status: ('A' for Active; 'I' for Inactive)
REMARK    1  A    between atoms: C2_2  and  C3_3 
REMARK    2  A    between atoms: C3_3  and  S1_4 
REMARK    3  A    between atoms: S1_4  and  C4_6 
REMARK    4  A    between atoms: C4_6  and  C5_7 
REMARK    5  A    between atoms: C5_7  and  C6_8 
REMARK    6  A    between atoms: C5_7  and  N2_18 
REMARK       I    between atoms: C6_8  and  N1_10 
REMARK    7  A    between atoms: N1_10  and  C7_12 
REMARK    8  A    between atoms: C14_21  and  S2_22 
REMARK    9  A    between atoms: S2_22  and  C15_23 
REMARK   10  A    between atoms: C15_23  and  N3_25 
REMARK   11  A    between atoms: N3_25  and  C17_27 
REMARK   12  A    between atoms: C24_34  and  C26_36 
ROOT
HETATM    1  N2  UNL     1       9.999  24.980   6.077  1.00  0.00    -0.318 N 
HETATM    2  C13 UNL     1      11.371  25.087   5.670  1.00  0.00     0.236 C 
HETATM    3  O3  UNL     1      11.825  25.564   4.633  1.00  0.00    -0.272 OA
HETATM    4  C14 UNL     1      12.245  24.492   6.770  1.00  0.00     0.149 C 
HETATM    5  C23 UNL     1      11.411  25.025   7.941  1.00  0.00     0.067 C 
HETATM    6  C24 UNL     1      10.009  24.717   7.493  1.00  0.00     0.122 C 
HETATM    7  C25 UNL     1       9.645  23.267   7.815  1.00  0.00     0.050 C 
ENDROOT
BRANCH   1   8
HETATM    8  C5  UNL     1       8.836  25.097   5.205  1.00  0.00     0.192 C 
BRANCH   8   9
HETATM    9  C4  UNL     1       9.148  24.870   3.751  1.00  0.00     0.143 C 
BRANCH   9  10
HETATM   10  S1  UNL     1       8.202  23.621   2.964  1.00  0.00     0.017 S 
HETATM   11  O1  UNL     1       9.165  22.521   2.133  1.00  0.00    -0.258 OA
BRANCH  10  12
HETATM   12  C3  UNL     1       6.996  24.335   1.854  1.00  0.00     0.108 C 
BRANCH  12  13
HETATM   13  C2  UNL     1       6.992  25.844   2.025  1.00  0.00     0.008 C 
HETATM   14  C1  UNL     1       7.675  26.495   0.860  1.00  0.00     0.006 C 
ENDBRANCH  12  13
ENDBRANCH  10  12
ENDBRANCH   9  10
ENDBRANCH   8   9
BRANCH   8  15
HETATM   15  C6  UNL     1       8.017  26.287   5.439  1.00  0.00     0.241 C 
HETATM   16  O2  UNL     1       8.439  27.492   5.390  1.00  0.00    -0.271 OA
HETATM   17  N1  UNL     1       6.639  26.156   5.747  1.00  0.00    -0.355 N 
ATOM     18  H1  UNL     1       6.249  25.215   5.795  1.00  0.00     0.162 HD
BRANCH  17  19
HETATM   19  C7  UNL     1       5.751  27.272   6.000  1.00  0.00     0.084 C 
HETATM   20  C8  UNL     1       4.740  27.408   4.901  1.00  0.00     0.025 C 
HETATM   21  C9  UNL     1       3.747  28.500   5.268  1.00  0.00     0.002 C 
HETATM   22  C10 UNL     1       2.988  28.129   6.500  1.00  0.00     0.000 C 
HETATM   23  C11 UNL     1       4.002  28.013   7.637  1.00  0.00     0.002 C 
HETATM   24  C12 UNL     1       5.016  26.967   7.312  1.00  0.00     0.025 C 
ENDBRANCH  17  19
ENDBRANCH   8  15
ENDBRANCH   1   8
BRANCH   6  25
HETATM   25  C26 UNL     1       9.099  25.619   8.265  1.00  0.00     0.202 C 
HETATM   26  O4  UNL     1       9.527  26.763   8.557  1.00  0.00    -0.646 OA
HETATM   27  O5  UNL     1       7.855  25.194   8.628  1.00  0.00    -0.646 OA
ENDBRANCH   6  25
BRANCH   4  28
HETATM   28  S2  UNL     1      12.261  22.740   6.672  1.00  0.00    -0.086 SA
BRANCH  28  29
HETATM   29  C15 UNL     1      13.789  21.970   6.326  1.00  0.00     0.137 C 
HETATM   30  S3  UNL     1      13.937  21.159   4.844  1.00  0.00    -0.053 SA
BRANCH  29  31
HETATM   31  N3  UNL     1      14.976  21.932   7.095  1.00  0.00    -0.366 N 
HETATM   32  C16 UNL     1      15.763  23.106   7.420  1.00  0.00     0.151 C 
BRANCH  31  33
HETATM   33  C17 UNL     1      15.400  20.633   7.621  1.00  0.00     0.085 C 
HETATM   34  C18 UNL     1      16.858  20.353   7.485  1.00  0.00     0.025 C 
HETATM   35  C19 UNL     1      17.665  20.579   8.734  1.00  0.00     0.002 C 
HETATM   36  C20 UNL     1      17.225  19.566   9.792  1.00  0.00     0.000 C 
HETATM   37  C21 UNL     1      15.718  19.362   9.678  1.00  0.00     0.002 C 
HETATM   38  C22 UNL     1      15.133  20.663   9.134  1.00  0.00     0.025 C 
ENDBRANCH  31  33
ENDBRANCH  29  31
ENDBRANCH  28  29
ENDBRANCH   4  28
TORSDOF 12
ENDMDL
MODEL 4
REMARK VINA RESULT: -8.365368116      1.937      2.612
REMARK  12 active torsions:
REMARK  status: ('A' for Active; 'I' for Inactive)
REMARK    1  A    between atoms: C2_2  and  C3_3 
REMARK    2  A    between atoms: C3_3  and  S1_4 
REMARK    3  A    between atoms: S1_4  and  C4_6 
REMARK    4  A    between atoms: C4_6  and  C5_7 
REMARK    5  A    between atoms: C5_7  and  C6_8 
REMARK    6  A    between atoms: C5_7  and  N2_18 
REMARK       I    between atoms: C6_8  and  N1_10 
REMARK    7  A    between atoms: N1_10  and  C7_12 
REMARK    8  A    between atoms: C14_21  and  S2_22 
REMARK    9  A    between atoms: S2_22  and  C15_23 
REMARK   10  A    between atoms: C15_23  and  N3_25 
REMARK   11  A    between atoms: N3_25  and  C17_27 
REMARK   12  A    between atoms: C24_34  and  C26_36 
ROOT
HETATM    1  N2  UNL     1      10.112  25.081   6.059  1.00  0.00    -0.318 N 
HETATM    2  C13 UNL     1      11.517  25.144   5.775  1.00  0.00     0.236 C 
HETATM    3  O3  UNL     1      12.075  25.586   4.774  1.00  0.00    -0.272 OA
HETATM    4  C14 UNL     1      12.273  24.550   6.959  1.00  0.00     0.149 C 
HETATM    5  C23 UNL     1      11.353  25.129   8.041  1.00  0.00     0.067 C 
HETATM    6  C24 UNL     1       9.989  24.848   7.475  1.00  0.00     0.122 C 
HETATM    7  C25 UNL     1       9.558  23.415   7.791  1.00  0.00     0.050 C 
ENDROOT
BRANCH   1   8
HETATM    8  C5  UNL     1       9.035  25.209   5.085  1.00  0.00     0.192 C 
BRANCH   8   9
HETATM    9  C4  UNL     1       9.497  25.097   3.657  1.00  0.00     0.143 C 
BRANCH   9  10
HETATM   10  S1  UNL     1       8.225  24.903   2.466  1.00  0.00     0.017 S 
HETATM   11  O1  UNL     1       7.554  26.375   2.006  1.00  0.00    -0.258 OA
BRANCH  10  12
HETATM   12  C3  UNL     1       6.944  23.812   3.070  1.00  0.00     0.108 C 
BRANCH  12  13
HETATM   13  C2  UNL     1       5.587  24.369   2.677  1.00  0.00     0.008 C 
HETATM   14  C1  UNL     1       4.534  23.875   3.623  1.00  0.00     0.006 C 
ENDBRANCH  12  13
ENDBRANCH  10  12
ENDBRANCH   9  10
ENDBRANCH   8   9
BRANCH   8  15
HETATM   15  C6  UNL     1       8.139  26.343   5.312  1.00  0.00     0.241 C 
HETATM   16  O2  UNL     1       8.454  27.572   5.156  1.00  0.00    -0.271 OA
HETATM   17  N1  UNL     1       6.805  26.125   5.740  1.00  0.00    -0.355 N 
ATOM     18  H1  UNL     1       6.499  25.161   5.876  1.00  0.00     0.162 HD
BRANCH  17  19
HETATM   19  C7  UNL     1       5.848  27.182   5.997  1.00  0.00     0.084 C 
HETATM   20  C8  UNL     1       4.926  27.361   4.828  1.00  0.00     0.025 C 
HETATM   21  C9  UNL     1       3.856  28.381   5.188  1.00  0.00     0.002 C 
HETATM   22  C10 UNL     1       3.017  27.887   6.321  1.00  0.00     0.000 C 
HETATM   23  C11 UNL     1       3.939  27.726   7.528  1.00  0.00     0.002 C 
HETATM   24  C12 UNL     1       5.024  26.749   7.216  1.00  0.00     0.025 C 
ENDBRANCH  17  19
ENDBRANCH   8  15
ENDBRANCH   1   8
BRANCH   6  25
HETATM   25  C26 UNL     1       9.039  25.789   8.145  1.00  0.00     0.202 C 
HETATM   26  O4  UNL     1       7.937  25.326   8.530  1.00  0.00    -0.646 OA
HETATM   27  O5  UNL     1       9.377  27.099   8.320  1.00  0.00    -0.646 OA
ENDBRANCH   6  25
BRANCH   4  28
HETATM   28  S2  UNL     1      12.249  22.797   6.896  1.00  0.00    -0.086 SA
BRANCH  28  29
HETATM   29  C15 UNL     1      13.737  21.989   6.467  1.00  0.00     0.137 C 
HETATM   30  S3  UNL     1      13.777  21.165   4.985  1.00  0.00    -0.053 SA
BRANCH  29  31
HETATM   31  N3  UNL     1      14.967  21.930   7.163  1.00  0.00    -0.366 N 
HETATM   32  C16 UNL     1      15.798  23.088   7.430  1.00  0.00     0.151 C 
BRANCH  31  33
HETATM   33  C17 UNL     1      15.393  20.626   7.675  1.00  0.00     0.085 C 
HETATM   34  C18 UNL     1      16.847  20.341   7.519  1.00  0.00     0.025 C 
HETATM   35  C19 UNL     1      17.670  20.555   8.759  1.00  0.00     0.002 C 
HETATM   36  C20 UNL     1      17.239  19.536   9.815  1.00  0.00     0.000 C 
HETATM   37  C21 UNL     1      15.731  19.339   9.719  1.00  0.00     0.002 C 
HETATM   38  C22 UNL     1      15.144  20.646   9.191  1.00  0.00     0.025 C 
ENDBRANCH  31  33
ENDBRANCH  29  31
ENDBRANCH  28  29
ENDBRANCH   4  28
TORSDOF 12
ENDMDL
MODEL 5
REMARK VINA RESULT: -8.334241327      1.533      2.220
REMARK  12 active torsions:
REMARK  status: ('A' for Active; 'I' for Inactive)
REMARK    1  A    between atoms: C2_2  and  C3_3 
REMARK    2  A    between atoms: C3_3  and  S1_4 
REMARK    3  A    between atoms: S1_4  and  C4_6 
REMARK    4  A    between atoms: C4_6  and  C5_7 
REMARK    5  A    between atoms: C5_7  and  C6_8 
REMARK    6  A    between atoms: C5_7  and  N2_18 
REMARK       I    between atoms: C6_8  and  N1_10 
REMARK    7  A    between atoms: N1_10  and  C7_12 
REMARK    8  A    between atoms: C14_21  and  S2_22 
REMARK    9  A    between atoms: S2_22  and  C15_23 
REMARK   10  A    between atoms: C15_23  and  N3_25 
REMARK   11  A    between atoms: N3_25  and  C17_27 
REMARK   12  A    between atoms: C24_34  and  C26_36 
ROOT
HETATM    1  N2  UNL     1      10.036  24.998   6.159  1.00  0.00    -0.318 N 
HETATM    2  C13 UNL     1      11.404  25.242   5.801  1.00  0.00     0.236 C 
HETATM    3  O3  UNL     1      11.843  25.807   4.803  1.00  0.00    -0.272 OA
HETATM    4  C14 UNL     1      12.296  24.669   6.897  1.00  0.00     0.149 C 
HETATM    5  C23 UNL     1      11.388  25.068   8.066  1.00  0.00     0.067 C 
HETATM    6  C24 UNL     1      10.030  24.665   7.560  1.00  0.00     0.122 C 
HETATM    7  C25 UNL     1       9.785  23.175   7.801  1.00  0.00     0.050 C 
ENDROOT
BRANCH   1   8
HETATM    8  C5  UNL     1       8.891  25.059   5.258  1.00  0.00     0.192 C 
BRANCH   8   9
HETATM    9  C4  UNL     1       9.241  24.787   3.820  1.00  0.00     0.143 C 
BRANCH   9  10
HETATM   10  S1  UNL     1       8.259  23.574   3.022  1.00  0.00     0.017 S 
HETATM   11  O1  UNL     1       9.186  22.485   2.137  1.00  0.00    -0.258 OA
BRANCH  10  12
HETATM   12  C3  UNL     1       7.037  24.335   1.961  1.00  0.00     0.108 C 
BRANCH  12  13
HETATM   13  C2  UNL     1       7.131  25.845   2.096  1.00  0.00     0.008 C 
HETATM   14  C1  UNL     1       7.697  26.439   0.841  1.00  0.00     0.006 C 
ENDBRANCH  12  13
ENDBRANCH  10  12
ENDBRANCH   9  10
ENDBRANCH   8   9
BRANCH   8  15
HETATM   15  C6  UNL     1       8.042  26.238   5.430  1.00  0.00     0.241 C 
HETATM   16  O2  UNL     1       8.415  27.447   5.247  1.00  0.00    -0.271 OA
HETATM   17  N1  UNL     1       6.690  26.091   5.832  1.00  0.00    -0.355 N 
ATOM     18  H1  UNL     1       6.338  25.147   5.988  1.00  0.00     0.162 HD
BRANCH  17  19
HETATM   19  C7  UNL     1       5.776  27.197   6.034  1.00  0.00     0.084 C 
HETATM   20  C8  UNL     1       4.812  27.308   4.891  1.00  0.00     0.025 C 
HETATM   21  C9  UNL     1       3.789  28.389   5.203  1.00  0.00     0.002 C 
HETATM   22  C10 UNL     1       2.982  28.018   6.404  1.00  0.00     0.000 C 
HETATM   23  C11 UNL     1       3.947  27.928   7.585  1.00  0.00     0.002 C 
HETATM   24  C12 UNL     1       4.989  26.894   7.316  1.00  0.00     0.025 C 
ENDBRANCH  17  19
ENDBRANCH   8  15
ENDBRANCH   1   8
BRANCH   6  25
HETATM   25  C26 UNL     1       9.025  25.446   8.345  1.00  0.00     0.202 C 
HETATM   26  O4  UNL     1       7.963  24.862   8.673  1.00  0.00    -0.646 OA
HETATM   27  O5  UNL     1       9.273  26.745   8.681  1.00  0.00    -0.646 OA
ENDBRANCH   6  25
BRANCH   4  28
HETATM   28  S2  UNL     1      12.466  22.932   6.716  1.00  0.00    -0.086 SA
BRANCH  28  29
HETATM   29  C15 UNL     1      13.916  22.345   5.940  1.00  0.00     0.137 C 
HETATM   30  S3  UNL     1      14.413  23.128   4.519  1.00  0.00    -0.053 SA
BRANCH  29  31
HETATM   31  N3  UNL     1      14.791  21.304   6.329  1.00  0.00    -0.366 N 
HETATM   32  C16 UNL     1      14.936  20.058   5.600  1.00  0.00     0.151 C 
BRANCH  31  33
HETATM   33  C17 UNL     1      15.624  21.526   7.512  1.00  0.00     0.085 C 
HETATM   34  C18 UNL     1      15.031  21.043   8.791  1.00  0.00     0.025 C 
HETATM   35  C19 UNL     1      15.554  19.717   9.270  1.00  0.00     0.002 C 
HETATM   36  C20 UNL     1      17.034  19.872   9.623  1.00  0.00     0.000 C 
HETATM   37  C21 UNL     1      17.679  20.823   8.621  1.00  0.00     0.002 C 
HETATM   38  C22 UNL     1      16.899  20.692   7.316  1.00  0.00     0.025 C 
ENDBRANCH  31  33
ENDBRANCH  29  31
ENDBRANCH  28  29
ENDBRANCH   4  28
TORSDOF 12
ENDMDL
