MODEL 1
REMARK VINA RESULT: -6.319551519      0.000      0.000
REMARK  8 active torsions:
REMARK  status: ('A' for Active; 'I' for Inactive)
REMARK    1  A    between atoms: C4_4  and  C5_5 
REMARK    2  A    between atoms: C5_5  and  N1_6 
REMARK    3  A    between atoms: N1_6  and  C6_9 
REMARK    4  A    between atoms: C6_9  and  C7_10 
REMARK    5  A    between atoms: C7_10  and  C8_11 
REMARK    6  A    between atoms: C8_11  and  N2_12 
REMARK    7  A    between atoms: N2_12  and  C9_15 
REMARK    8  A    between atoms: C9_15  and  C10_16 
ROOT
HETATM    1  C6  UNL     1      22.939  71.422  -6.797  1.00  0.00     0.234 C 
ENDROOT
BRANCH   1   2
HETATM    2  N1  UNL     1      22.499  70.249  -7.518  1.00  0.00    -0.071 N 
ATOM      3  H12 UNL     1      22.213  70.443  -8.478  1.00  0.00     0.277 HD
ATOM      4  H11 UNL     1      21.604  69.883  -7.196  1.00  0.00     0.277 HD
BRANCH   2   5
HETATM    5  C5  UNL     1      23.604  69.285  -7.415  1.00  0.00     0.270 C 
BRANCH   5   6
HETATM    6  C4  UNL     1      23.266  67.958  -7.945  1.00  0.00    -0.033 A 
HETATM    7  C3  UNL     1      22.193  67.872  -8.801  1.00  0.00     0.009 A 
HETATM    8  C2  UNL     1      21.813  66.665  -9.381  1.00  0.00     0.001 A 
HETATM    9  C1  UNL     1      22.530  65.518  -9.092  1.00  0.00     0.000 A 
HETATM   10  C15 UNL     1      23.601  65.602  -8.235  1.00  0.00     0.001 A 
HETATM   11  C14 UNL     1      23.971  66.811  -7.660  1.00  0.00     0.009 A 
ENDBRANCH   5   6
ENDBRANCH   2   5
ENDBRANCH   1   2
BRANCH   1  12
HETATM   12  C7  UNL     1      23.062  71.168  -5.313  1.00  0.00     0.055 C 
BRANCH  12  13
HETATM   13  C8  UNL     1      21.687  71.086  -4.742  1.00  0.00     0.234 C 
BRANCH  13  14
HETATM   14  N2  UNL     1      21.435  69.794  -4.184  1.00  0.00    -0.069 N 
ATOM     15  H22 UNL     1      20.434  69.601  -4.149  1.00  0.00     0.277 HD
ATOM     16  H21 UNL     1      21.724  69.057  -4.827  1.00  0.00     0.277 HD
BRANCH  14  17
HETATM   17  C9  UNL     1      22.038  69.613  -2.891  1.00  0.00     0.296 C 
BRANCH  17  18
HETATM   18  C10 UNL     1      22.872  68.368  -3.004  1.00  0.00     0.078 A 
HETATM   19  C11 UNL     1      23.303  67.635  -4.056  1.00  0.00     0.036 A 
HETATM   20  C12 UNL     1      24.055  66.567  -3.565  1.00  0.00     0.027 A 
HETATM   21  C13 UNL     1      24.037  66.711  -2.203  1.00  0.00     0.142 A 
HETATM   22  O1  UNL     1      23.342  67.765  -1.905  1.00  0.00    -0.325 OA
ENDBRANCH  17  18
ENDBRANCH  14  17
ENDBRANCH  13  14
ENDBRANCH  12  13
ENDBRANCH   1  12
TORSDOF 8
ENDMDL
MODEL 2
REMARK VINA RESULT: -6.293111142      1.100      1.937
REMARK  8 active torsions:
REMARK  status: ('A' for Active; 'I' for Inactive)
REMARK    1  A    between atoms: C4_4  and  C5_5 
REMARK    2  A    between atoms: C5_5  and  N1_6 
REMARK    3  A    between atoms: N1_6  and  C6_9 
REMARK    4  A    between atoms: C6_9  and  C7_10 
REMARK    5  A    between atoms: C7_10  and  C8_11 
REMARK    6  A    between atoms: C8_11  and  N2_12 
REMARK    7  A    between atoms: N2_12  and  C9_15 
REMARK    8  A    between atoms: C9_15  and  C10_16 
ROOT
HETATM    1  C6  UNL     1      22.557  70.639  -6.147  1.00  0.00     0.234 C 
ENDROOT
BRANCH   1   2
HETATM    2  N1  UNL     1      22.636  70.143  -7.502  1.00  0.00    -0.071 N 
ATOM      3  H12 UNL     1      22.789  70.874  -8.197  1.00  0.00     0.277 HD
ATOM      4  H11 UNL     1      21.745  69.811  -7.869  1.00  0.00     0.277 HD
BRANCH   2   5
HETATM    5  C5  UNL     1      23.688  69.114  -7.486  1.00  0.00     0.270 C 
BRANCH   5   6
HETATM    6  C4  UNL     1      23.271  67.851  -8.107  1.00  0.00    -0.033 A 
HETATM    7  C3  UNL     1      24.020  66.731  -7.830  1.00  0.00     0.009 A 
HETATM    8  C2  UNL     1      23.686  65.481  -8.344  1.00  0.00     0.001 A 
HETATM    9  C1  UNL     1      22.573  65.356  -9.156  1.00  0.00     0.000 A 
HETATM   10  C15 UNL     1      21.825  66.475  -9.435  1.00  0.00     0.001 A 
HETATM   11  C14 UNL     1      22.167  67.718  -8.918  1.00  0.00     0.009 A 
ENDBRANCH   5   6
ENDBRANCH   2   5
ENDBRANCH   1   2
BRANCH   1  12
HETATM   12  C7  UNL     1      21.803  69.699  -5.236  1.00  0.00     0.055 C 
BRANCH  12  13
HETATM   13  C8  UNL     1      22.519  69.647  -3.930  1.00  0.00     0.234 C 
BRANCH  13  14
HETATM   14  N2  UNL     1      22.573  68.312  -3.422  1.00  0.00    -0.069 N 
ATOM     15  H22 UNL     1      22.565  68.309  -2.402  1.00  0.00     0.277 HD
ATOM     16  H21 UNL     1      21.697  67.820  -3.597  1.00  0.00     0.277 HD
BRANCH  14  17
HETATM   17  C9  UNL     1      23.692  67.563  -3.929  1.00  0.00     0.296 C 
BRANCH  17  18
HETATM   18  C10 UNL     1      23.863  66.404  -2.988  1.00  0.00     0.078 A 
HETATM   19  C11 UNL     1      23.985  65.069  -3.176  1.00  0.00     0.036 A 
HETATM   20  C12 UNL     1      24.120  64.462  -1.927  1.00  0.00     0.027 A 
HETATM   21  C13 UNL     1      24.068  65.490  -1.022  1.00  0.00     0.142 A 
HETATM   22  O1  UNL     1      23.918  66.605  -1.666  1.00  0.00    -0.325 OA
ENDBRANCH  17  18
ENDBRANCH  14  17
ENDBRANCH  13  14
ENDBRANCH  12  13
ENDBRANCH   1  12
TORSDOF 8
ENDMDL
MODEL 3
REMARK VINA RESULT: -6.279168470      1.984      5.282
REMARK  8 active torsions:
REMARK  status: ('A' for Active; 'I' for Inactive)
REMARK    1  A    between atoms: C4_4  and  C5_5 
REMARK    2  A    between atoms: C5_5  and  N1_6 
REMARK    3  A    between atoms: N1_6  and  C6_9 
REMARK    4  A    between atoms: C6_9  and  C7_10 
REMARK    5  A    between atoms: C7_10  and  C8_11 
REMARK    6  A    between atoms: C8_11  and  N2_12 
REMARK    7  A    between atoms: N2_12  and  C9_15 
REMARK    8  A    between atoms: C9_15  and  C10_16 
ROOT
HETATM    1  C6  UNL     1      22.454  69.177  -4.664  1.00  0.00     0.234 C 
ENDROOT
BRANCH   1   2
HETATM    2  N1  UNL     1      22.592  67.749  -4.836  1.00  0.00    -0.071 N 
ATOM      3  H12 UNL     1      22.367  67.426  -5.777  1.00  0.00     0.277 HD
ATOM      4  H11 UNL     1      21.877  67.208  -4.349  1.00  0.00     0.277 HD
BRANCH   2   5
HETATM    5  C5  UNL     1      23.964  67.430  -4.414  1.00  0.00     0.270 C 
BRANCH   5   6
HETATM    6  C4  UNL     1      24.043  66.245  -3.550  1.00  0.00    -0.033 A 
HETATM    7  C3  UNL     1      23.979  66.446  -2.191  1.00  0.00     0.009 A 
HETATM    8  C2  UNL     1      24.013  65.384  -1.291  1.00  0.00     0.001 A 
HETATM    9  C1  UNL     1      24.114  64.091  -1.771  1.00  0.00     0.000 A 
HETATM   10  C15 UNL     1      24.180  63.890  -3.129  1.00  0.00     0.001 A 
HETATM   11  C14 UNL     1      24.147  64.955  -4.019  1.00  0.00     0.009 A 
ENDBRANCH   5   6
ENDBRANCH   2   5
ENDBRANCH   1   2
BRANCH   1  12
HETATM   12  C7  UNL     1      23.341  69.955  -5.608  1.00  0.00     0.055 C 
BRANCH  12  13
HETATM   13  C8  UNL     1      22.527  70.341  -6.795  1.00  0.00     0.234 C 
BRANCH  13  14
HETATM   14  N2  UNL     1      22.875  69.558  -7.939  1.00  0.00    -0.069 N 
ATOM     15  H22 UNL     1      23.213  70.150  -8.697  1.00  0.00     0.277 HD
ATOM     16  H21 UNL     1      23.719  69.013  -7.763  1.00  0.00     0.277 HD
BRANCH  14  17
HETATM   17  C9  UNL     1      21.802  68.712  -8.388  1.00  0.00     0.296 C 
BRANCH  17  18
HETATM   18  C10 UNL     1      22.395  67.337  -8.513  1.00  0.00     0.078 A 
HETATM   19  C11 UNL     1      22.091  66.264  -9.279  1.00  0.00     0.036 A 
HETATM   20  C12 UNL     1      22.991  65.241  -8.975  1.00  0.00     0.027 A 
HETATM   21  C13 UNL     1      23.813  65.762  -8.010  1.00  0.00     0.142 A 
HETATM   22  O1  UNL     1      23.444  66.980  -7.762  1.00  0.00    -0.325 OA
ENDBRANCH  17  18
ENDBRANCH  14  17
ENDBRANCH  13  14
ENDBRANCH  12  13
ENDBRANCH   1  12
TORSDOF 8
ENDMDL
MODEL 4
REMARK VINA RESULT: -6.271748724      1.645      2.094
REMARK  8 active torsions:
REMARK  status: ('A' for Active; 'I' for Inactive)
REMARK    1  A    between atoms: C4_4  and  C5_5 
REMARK    2  A    between atoms: C5_5  and  N1_6 
REMARK    3  A    between atoms: N1_6  and  C6_9 
REMARK    4  A    between atoms: C6_9  and  C7_10 
REMARK    5  A    between atoms: C7_10  and  C8_11 
REMARK    6  A    between atoms: C8_11  and  N2_12 
REMARK    7  A    between atoms: N2_12  and  C9_15 
REMARK    8  A    between atoms: C9_15  and  C10_16 
ROOT
HETATM    1  C6  UNL     1      22.630  70.666  -6.111  1.00  0.00     0.234 C 
ENDROOT
BRANCH   1   2
HETATM    2  N1  UNL     1      22.532  70.116  -7.443  1.00  0.00    -0.071 N 
ATOM      3  H12 UNL     1      22.480  70.825  -8.176  1.00  0.00     0.277 HD
ATOM      4  H11 UNL     1      21.633  69.675  -7.638  1.00  0.00     0.277 HD
BRANCH   2   5
HETATM    5  C5  UNL     1      23.679  69.207  -7.582  1.00  0.00     0.270 C 
BRANCH   5   6
HETATM    6  C4  UNL     1      23.308  67.881  -8.090  1.00  0.00    -0.033 A 
HETATM    7  C3  UNL     1      22.159  67.787  -8.839  1.00  0.00     0.009 A 
HETATM    8  C2  UNL     1      21.741  66.581  -9.393  1.00  0.00     0.001 A 
HETATM    9  C1  UNL     1      22.498  65.442  -9.188  1.00  0.00     0.000 A 
HETATM   10  C15 UNL     1      23.646  65.533  -8.438  1.00  0.00     0.001 A 
HETATM   11  C14 UNL     1      24.054  66.741  -7.889  1.00  0.00     0.009 A 
ENDBRANCH   5   6
ENDBRANCH   2   5
ENDBRANCH   1   2
BRANCH   1  12
HETATM   12  C7  UNL     1      21.729  69.955  -5.130  1.00  0.00     0.055 C 
BRANCH  12  13
HETATM   13  C8  UNL     1      22.589  69.241  -4.144  1.00  0.00     0.234 C 
BRANCH  13  14
HETATM   14  N2  UNL     1      22.573  67.830  -4.369  1.00  0.00    -0.069 N 
ATOM     15  H22 UNL     1      21.617  67.475  -4.390  1.00  0.00     0.277 HD
ATOM     16  H21 UNL     1      22.854  67.610  -5.324  1.00  0.00     0.277 HD
BRANCH  14  17
HETATM   17  C9  UNL     1      23.370  67.101  -3.418  1.00  0.00     0.296 C 
BRANCH  17  18
HETATM   18  C10 UNL     1      23.773  65.833  -4.116  1.00  0.00     0.078 A 
HETATM   19  C11 UNL     1      23.112  64.691  -4.416  1.00  0.00     0.036 A 
HETATM   20  C12 UNL     1      23.993  63.838  -5.082  1.00  0.00     0.027 A 
HETATM   21  C13 UNL     1      25.176  64.526  -5.150  1.00  0.00     0.142 A 
HETATM   22  O1  UNL     1      25.019  65.681  -4.581  1.00  0.00    -0.325 OA
ENDBRANCH  17  18
ENDBRANCH  14  17
ENDBRANCH  13  14
ENDBRANCH  12  13
ENDBRANCH   1  12
TORSDOF 8
ENDMDL
MODEL 5
REMARK VINA RESULT: -6.183711144      2.125      3.922
REMARK  8 active torsions:
REMARK  status: ('A' for Active; 'I' for Inactive)
REMARK    1  A    between atoms: C4_4  and  C5_5 
REMARK    2  A    between atoms: C5_5  and  N1_6 
REMARK    3  A    between atoms: N1_6  and  C6_9 
REMARK    4  A    between atoms: C6_9  and  C7_10 
REMARK    5  A    between atoms: C7_10  and  C8_11 
REMARK    6  A    between atoms: C8_11  and  N2_12 
REMARK    7  A    between atoms: N2_12  and  C9_15 
REMARK    8  A    between atoms: C9_15  and  C10_16 
ROOT
HETATM    1  C6  UNL     1      25.099  64.890  -4.977  1.00  0.00     0.234 C 
ENDROOT
BRANCH   1   2
HETATM    2  N1  UNL     1      24.164  64.704  -6.062  1.00  0.00    -0.071 N 
ATOM      3  H12 UNL     1      23.220  65.028  -5.849  1.00  0.00     0.277 HD
ATOM      4  H11 UNL     1      23.921  63.728  -6.230  1.00  0.00     0.277 HD
BRANCH   2   5
HETATM    5  C5  UNL     1      24.769  65.371  -7.225  1.00  0.00     0.270 C 
BRANCH   5   6
HETATM    6  C4  UNL     1      23.813  66.180  -7.991  1.00  0.00    -0.033 A 
HETATM    7  C3  UNL     1      22.829  65.513  -8.682  1.00  0.00     0.009 A 
HETATM    8  C2  UNL     1      21.856  66.192  -9.410  1.00  0.00     0.001 A 
HETATM    9  C1  UNL     1      21.876  67.574  -9.444  1.00  0.00     0.000 A 
HETATM   10  C15 UNL     1      22.860  68.242  -8.755  1.00  0.00     0.001 A 
HETATM   11  C14 UNL     1      23.826  67.555  -8.032  1.00  0.00     0.009 A 
ENDBRANCH   5   6
ENDBRANCH   2   5
ENDBRANCH   1   2
BRANCH   1  12
HETATM   12  C7  UNL     1      24.424  64.850  -3.626  1.00  0.00     0.055 C 
BRANCH  12  13
HETATM   13  C8  UNL     1      22.969  65.100  -3.828  1.00  0.00     0.234 C 
BRANCH  13  14
HETATM   14  N2  UNL     1      22.493  66.123  -2.950  1.00  0.00    -0.069 N 
ATOM     15  H22 UNL     1      21.575  66.458  -3.244  1.00  0.00     0.277 HD
ATOM     16  H21 UNL     1      22.245  65.736  -2.040  1.00  0.00     0.277 HD
BRANCH  14  17
HETATM   17  C9  UNL     1      23.417  67.216  -2.809  1.00  0.00     0.296 C 
BRANCH  17  18
HETATM   18  C10 UNL     1      22.865  68.325  -3.661  1.00  0.00     0.078 A 
HETATM   19  C11 UNL     1      22.607  68.435  -4.984  1.00  0.00     0.036 A 
HETATM   20  C12 UNL     1      22.093  69.710  -5.225  1.00  0.00     0.027 A 
HETATM   21  C13 UNL     1      22.069  70.324  -4.000  1.00  0.00     0.142 A 
HETATM   22  O1  UNL     1      22.523  69.496  -3.111  1.00  0.00    -0.325 OA
ENDBRANCH  17  18
ENDBRANCH  14  17
ENDBRANCH  13  14
ENDBRANCH  12  13
ENDBRANCH   1  12
TORSDOF 8
ENDMDL
