MODEL 1
REMARK VINA RESULT: -6.066839875      0.000      0.000
REMARK  3 active torsions:
REMARK  status: ('A' for Active; 'I' for Inactive)
REMARK    1  A    between atoms: C4_7  and  C5_8 
REMARK    2  A    between atoms: C5_8  and  N2_9 
REMARK    3  A    between atoms: N2_9  and  C6_12 
ROOT
HETATM    1  C5  UNL     1       9.633 -51.096  36.719  1.00  0.00     0.239 C 
ENDROOT
BRANCH   1   2
HETATM    2  C4  UNL     1      10.109 -51.315  35.313  1.00  0.00     0.037 C 
HETATM    3  C3  UNL     1      11.506 -51.824  35.202  1.00  0.00     0.238 C 
HETATM    4  N1  UNL     1      12.427 -50.780  34.762  1.00  0.00    -0.075 N 
HETATM    5  C2  UNL     1      12.125 -50.608  33.343  1.00  0.00     0.232 C 
ATOM      6  H12 UNL     1      13.407 -50.978  34.960  1.00  0.00     0.277 HD
ATOM      7  H11 UNL     1      12.373 -49.920  35.308  1.00  0.00     0.277 HD
HETATM    8  C1  UNL     1      10.758 -49.990  33.269  1.00  0.00     0.028 C 
HETATM    9  C11 UNL     1      10.018 -50.004  34.575  1.00  0.00     0.009 C 
ENDBRANCH   1   2
BRANCH   1  10
HETATM   10  N2  UNL     1       9.851 -49.731  37.164  1.00  0.00    -0.070 N 
ATOM     11  H22 UNL     1      10.686 -49.653  37.744  1.00  0.00     0.277 HD
ATOM     12  H21 UNL     1      10.140 -49.126  36.396  1.00  0.00     0.277 HD
BRANCH  10  13
HETATM   13  C6  UNL     1       8.687 -49.216  37.837  1.00  0.00     0.185 C 
HETATM   14  C7  UNL     1       8.076 -50.400  38.581  1.00  0.00     0.033 C 
HETATM   15  C8  UNL     1       6.688 -49.915  38.895  1.00  0.00     0.002 C 
HETATM   16  C9  UNL     1       6.361 -48.889  37.828  1.00  0.00     0.002 C 
HETATM   17  C10 UNL     1       7.567 -48.851  36.897  1.00  0.00     0.033 C 
ENDBRANCH  10  13
ENDBRANCH   1  10
TORSDOF 3
ENDMDL
MODEL 2
REMARK VINA RESULT: -6.015881439      1.341      1.786
REMARK  3 active torsions:
REMARK  status: ('A' for Active; 'I' for Inactive)
REMARK    1  A    between atoms: C4_7  and  C5_8 
REMARK    2  A    between atoms: C5_8  and  N2_9 
REMARK    3  A    between atoms: N2_9  and  C6_12 
ROOT
HETATM    1  C5  UNL     1      10.653 -49.308  36.543  1.00  0.00     0.239 C 
ENDROOT
BRANCH   1   2
HETATM    2  C4  UNL     1      11.055 -50.003  35.276  1.00  0.00     0.037 C 
HETATM    3  C3  UNL     1      10.272 -49.603  34.071  1.00  0.00     0.238 C 
HETATM    4  N1  UNL     1       9.318 -50.637  33.682  1.00  0.00    -0.075 N 
HETATM    5  C2  UNL     1      10.145 -51.685  33.088  1.00  0.00     0.232 C 
ATOM      6  H12 UNL     1       8.567 -50.305  33.078  1.00  0.00     0.277 HD
ATOM      7  H11 UNL     1       8.718 -50.959  34.442  1.00  0.00     0.277 HD
HETATM    8  C1  UNL     1      10.944 -52.285  34.210  1.00  0.00     0.028 C 
HETATM    9  C11 UNL     1      10.894 -51.488  35.481  1.00  0.00     0.009 C 
ENDBRANCH   1   2
BRANCH   1  10
HETATM   10  N2  UNL     1       9.782 -50.130  37.365  1.00  0.00    -0.070 N 
ATOM     11  H22 UNL     1       9.528 -50.998  36.894  1.00  0.00     0.277 HD
ATOM     12  H21 UNL     1      10.280 -50.527  38.161  1.00  0.00     0.277 HD
BRANCH  10  13
HETATM   13  C6  UNL     1       8.618 -49.391  37.781  1.00  0.00     0.185 C 
HETATM   14  C7  UNL     1       7.763 -50.372  38.577  1.00  0.00     0.033 C 
HETATM   15  C8  UNL     1       6.422 -49.693  38.613  1.00  0.00     0.002 C 
HETATM   16  C9  UNL     1       6.377 -48.811  37.381  1.00  0.00     0.002 C 
HETATM   17  C10 UNL     1       7.690 -49.050  36.644  1.00  0.00     0.033 C 
ENDBRANCH  10  13
ENDBRANCH   1  10
TORSDOF 3
ENDMDL
MODEL 3
REMARK VINA RESULT: -5.833736764      1.343      1.893
REMARK  3 active torsions:
REMARK  status: ('A' for Active; 'I' for Inactive)
REMARK    1  A    between atoms: C4_7  and  C5_8 
REMARK    2  A    between atoms: C5_8  and  N2_9 
REMARK    3  A    between atoms: N2_9  and  C6_12 
ROOT
HETATM    1  C5  UNL     1       9.753 -48.788  35.603  1.00  0.00     0.239 C 
ENDROOT
BRANCH   1   2
HETATM    2  C4  UNL     1      10.296 -49.524  34.414  1.00  0.00     0.037 C 
HETATM    3  C3  UNL     1       9.406 -50.600  33.890  1.00  0.00     0.238 C 
HETATM    4  N1  UNL     1       9.900 -51.927  34.241  1.00  0.00    -0.075 N 
HETATM    5  C2  UNL     1      11.052 -52.127  33.365  1.00  0.00     0.232 C 
ATOM      6  H12 UNL     1       9.198 -52.664  34.182  1.00  0.00     0.277 HD
ATOM      7  H11 UNL     1      10.105 -52.047  35.234  1.00  0.00     0.277 HD
HETATM    8  C1  UNL     1      12.114 -51.171  33.831  1.00  0.00     0.028 C 
HETATM    9  C11 UNL     1      11.614 -50.142  34.803  1.00  0.00     0.009 C 
ENDBRANCH   1   2
BRANCH   1  10
HETATM   10  N2  UNL     1      10.393 -49.199  36.840  1.00  0.00    -0.070 N 
ATOM     11  H22 UNL     1      11.052 -49.962  36.688  1.00  0.00     0.277 HD
ATOM     12  H21 UNL     1      11.049 -48.494  37.178  1.00  0.00     0.277 HD
BRANCH  10  13
HETATM   13  C6  UNL     1       9.413 -49.535  37.841  1.00  0.00     0.185 C 
HETATM   14  C7  UNL     1       9.333 -51.058  37.852  1.00  0.00     0.033 C 
HETATM   15  C8  UNL     1       8.041 -51.318  38.575  1.00  0.00     0.002 C 
HETATM   16  C9  UNL     1       7.186 -50.088  38.342  1.00  0.00     0.002 C 
HETATM   17  C10 UNL     1       8.007 -49.171  37.443  1.00  0.00     0.033 C 
ENDBRANCH  10  13
ENDBRANCH   1  10
TORSDOF 3
ENDMDL
MODEL 4
REMARK VINA RESULT: -5.746351159      1.172      1.462
REMARK  3 active torsions:
REMARK  status: ('A' for Active; 'I' for Inactive)
REMARK    1  A    between atoms: C4_7  and  C5_8 
REMARK    2  A    between atoms: C5_8  and  N2_9 
REMARK    3  A    between atoms: N2_9  and  C6_12 
ROOT
HETATM    1  C5  UNL     1      10.684 -49.457  36.464  1.00  0.00     0.239 C 
ENDROOT
BRANCH   1   2
HETATM    2  C4  UNL     1      10.828 -49.752  35.001  1.00  0.00     0.037 C 
HETATM    3  C3  UNL     1       9.895 -50.793  34.481  1.00  0.00     0.238 C 
HETATM    4  N1  UNL     1      10.582 -52.057  34.237  1.00  0.00    -0.075 N 
HETATM    5  C2  UNL     1      11.363 -51.816  33.026  1.00  0.00     0.232 C 
ATOM      6  H12 UNL     1       9.961 -52.865  34.180  1.00  0.00     0.277 HD
ATOM      7  H11 UNL     1      11.131 -52.394  35.029  1.00  0.00     0.277 HD
HETATM    8  C1  UNL     1      12.444 -50.843  33.403  1.00  0.00     0.028 C 
HETATM    9  C11 UNL     1      12.242 -50.208  34.748  1.00  0.00     0.009 C 
ENDBRANCH   1   2
BRANCH   1  10
HETATM   10  N2  UNL     1       9.689 -50.306  37.098  1.00  0.00    -0.070 N 
ATOM     11  H22 UNL     1       9.294 -50.978  36.441  1.00  0.00     0.277 HD
ATOM     12  H21 UNL     1      10.116 -50.962  37.752  1.00  0.00     0.277 HD
BRANCH  10  13
HETATM   13  C6  UNL     1       8.665 -49.515  37.730  1.00  0.00     0.185 C 
HETATM   14  C7  UNL     1       7.863 -50.485  38.593  1.00  0.00     0.033 C 
HETATM   15  C8  UNL     1       6.602 -49.716  38.874  1.00  0.00     0.002 C 
HETATM   16  C9  UNL     1       6.444 -48.751  37.715  1.00  0.00     0.002 C 
HETATM   17  C10 UNL     1       7.607 -49.033  36.772  1.00  0.00     0.033 C 
ENDBRANCH  10  13
ENDBRANCH   1  10
TORSDOF 3
ENDMDL
MODEL 5
REMARK VINA RESULT: -5.744191142      1.247      1.569
REMARK  3 active torsions:
REMARK  status: ('A' for Active; 'I' for Inactive)
REMARK    1  A    between atoms: C4_7  and  C5_8 
REMARK    2  A    between atoms: C5_8  and  N2_9 
REMARK    3  A    between atoms: N2_9  and  C6_12 
ROOT
HETATM    1  C5  UNL     1      10.377 -51.251  36.034  1.00  0.00     0.239 C 
ENDROOT
BRANCH   1   2
HETATM    2  C4  UNL     1      11.200 -51.378  34.787  1.00  0.00     0.037 C 
HETATM    3  C3  UNL     1      11.938 -52.668  34.657  1.00  0.00     0.238 C 
HETATM    4  N1  UNL     1      13.364 -52.501  34.918  1.00  0.00    -0.075 N 
HETATM    5  C2  UNL     1      13.871 -51.819  33.729  1.00  0.00     0.232 C 
ATOM      6  H12 UNL     1      13.852 -53.368  35.143  1.00  0.00     0.277 HD
ATOM      7  H11 UNL     1      13.575 -52.023  35.795  1.00  0.00     0.277 HD
HETATM    8  C1  UNL     1      13.297 -50.431  33.756  1.00  0.00     0.028 C 
HETATM    9  C11 UNL     1      12.200 -50.251  34.764  1.00  0.00     0.009 C 
ENDBRANCH   1   2
BRANCH   1  10
HETATM   10  N2  UNL     1      10.457 -49.920  36.609  1.00  0.00    -0.070 N 
ATOM     11  H22 UNL     1      11.391 -49.721  36.968  1.00  0.00     0.277 HD
ATOM     12  H21 UNL     1      10.410 -49.196  35.892  1.00  0.00     0.277 HD
BRANCH  10  13
HETATM   13  C6  UNL     1       9.449 -49.733  37.620  1.00  0.00     0.185 C 
HETATM   14  C7  UNL     1       9.172 -51.118  38.195  1.00  0.00     0.033 C 
HETATM   15  C8  UNL     1       7.862 -50.927  38.907  1.00  0.00     0.002 C 
HETATM   16  C9  UNL     1       7.172 -49.780  38.196  1.00  0.00     0.002 C 
HETATM   17  C10 UNL     1       8.099 -49.375  37.056  1.00  0.00     0.033 C 
ENDBRANCH  10  13
ENDBRANCH   1  10
TORSDOF 3
ENDMDL
