MODEL 1
REMARK VINA RESULT: -4.564653991      0.000      0.000
REMARK  4 active torsions:
REMARK  status: ('A' for Active; 'I' for Inactive)
REMARK    1  A    between atoms: N1_2  and  C2_5 
REMARK    2  A    between atoms: C2_5  and  C3_6 
REMARK    3  A    between atoms: C3_6  and  N2_7 
REMARK    4  A    between atoms: C5_11  and  N4_12 
ROOT
HETATM    1  N2  UNL     1       8.606  -1.476  18.439  1.00  0.00    -0.271 N 
HETATM    2  C4  UNL     1       9.836  -0.960  18.467  1.00  0.00     0.218 A 
HETATM    3  N3  UNL     1       9.888  -0.124  19.514  1.00  0.00    -0.185 N 
ATOM      4  H3  UNL     1      10.695   0.428  19.806  1.00  0.00     0.185 HD
HETATM    5  C5  UNL     1       8.686  -0.144  20.106  1.00  0.00     0.691 A 
HETATM    6  N5  UNL     1       7.901  -0.990  19.423  1.00  0.00    -0.129 N 
ATOM      7  H5  UNL     1       6.929  -1.212  19.635  1.00  0.00     0.206 HD
ENDROOT
BRANCH   1   8
HETATM    8  C3  UNL     1       8.091  -2.432  17.469  1.00  0.00     0.177 C 
BRANCH   8   9
HETATM    9  C2  UNL     1       9.217  -2.856  16.591  1.00  0.00     0.253 C 
BRANCH   9  10
HETATM   10  N1  UNL     1       8.919  -2.900  15.186  1.00  0.00    -0.077 N 
HETATM   11  C1  UNL     1       8.872  -1.562  14.685  1.00  0.00     0.267 C 
ATOM     12  H12 UNL     1       8.066  -3.422  14.984  1.00  0.00     0.276 HD
ATOM     13  H11 UNL     1       9.571  -3.488  14.667  1.00  0.00     0.276 HD
ENDBRANCH   9  10
ENDBRANCH   8   9
ENDBRANCH   1   8
BRANCH   5  14
HETATM   14  N4  UNL     1       8.323   0.534  21.162  1.00  0.00    -0.233 N 
ATOM     15  H42 UNL     1       7.719   1.356  21.154  1.00  0.00     0.174 HD
ATOM     16  H41 UNL     1       8.586   0.345  22.128  1.00  0.00     0.174 HD
ENDBRANCH   5  14
TORSDOF 4
ENDMDL
MODEL 2
REMARK VINA RESULT: -4.549017995      1.252      4.629
REMARK  4 active torsions:
REMARK  status: ('A' for Active; 'I' for Inactive)
REMARK    1  A    between atoms: N1_2  and  C2_5 
REMARK    2  A    between atoms: C2_5  and  C3_6 
REMARK    3  A    between atoms: C3_6  and  N2_7 
REMARK    4  A    between atoms: C5_11  and  N4_12 
ROOT
HETATM    1  N2  UNL     1       8.631  -1.566  18.178  1.00  0.00    -0.271 N 
HETATM    2  C4  UNL     1       9.897  -1.266  17.877  1.00  0.00     0.218 A 
HETATM    3  N3  UNL     1      10.162  -1.830  16.690  1.00  0.00    -0.185 N 
ATOM      4  H3  UNL     1      11.047  -1.784  16.185  1.00  0.00     0.185 HD
HETATM    5  C5  UNL     1       9.052  -2.464  16.287  1.00  0.00     0.691 A 
HETATM    6  N5  UNL     1       8.111  -2.290  17.227  1.00  0.00    -0.129 N 
ATOM      7  H5  UNL     1       7.161  -2.658  17.201  1.00  0.00     0.206 HD
ENDROOT
BRANCH   1   8
HETATM    8  C3  UNL     1       7.911  -1.167  19.379  1.00  0.00     0.177 C 
BRANCH   8   9
HETATM    9  C2  UNL     1       8.677  -0.075  20.041  1.00  0.00     0.253 C 
BRANCH   9  10
HETATM   10  N1  UNL     1       8.182   0.333  21.326  1.00  0.00    -0.077 N 
HETATM   11  C1  UNL     1       6.934  -0.322  21.566  1.00  0.00     0.267 C 
ATOM     12  H12 UNL     1       8.113   1.347  21.414  1.00  0.00     0.276 HD
ATOM     13  H11 UNL     1       8.857   0.172  22.074  1.00  0.00     0.276 HD
ENDBRANCH   9  10
ENDBRANCH   8   9
ENDBRANCH   1   8
BRANCH   5  14
HETATM   14  N4  UNL     1       8.896  -3.140  15.181  1.00  0.00    -0.233 N 
ATOM     15  H42 UNL     1       9.389  -2.959  14.307  1.00  0.00     0.174 HD
ATOM     16  H41 UNL     1       8.270  -3.930  15.032  1.00  0.00     0.174 HD
ENDBRANCH   5  14
TORSDOF 4
ENDMDL
MODEL 3
REMARK VINA RESULT: -4.370463992      1.132      1.660
REMARK  4 active torsions:
REMARK  status: ('A' for Active; 'I' for Inactive)
REMARK    1  A    between atoms: N1_2  and  C2_5 
REMARK    2  A    between atoms: C2_5  and  C3_6 
REMARK    3  A    between atoms: C3_6  and  N2_7 
REMARK    4  A    between atoms: C5_11  and  N4_12 
ROOT
HETATM    1  N2  UNL     1       8.663  -1.974  17.958  1.00  0.00    -0.271 N 
HETATM    2  C4  UNL     1       7.470  -1.962  18.558  1.00  0.00     0.218 A 
HETATM    3  N3  UNL     1       7.528  -1.039  19.528  1.00  0.00    -0.185 N 
ATOM      4  H3  UNL     1       6.774  -0.790  20.168  1.00  0.00     0.185 HD
HETATM    5  C5  UNL     1       8.755  -0.502  19.503  1.00  0.00     0.691 A 
HETATM    6  N5  UNL     1       9.448  -1.097  18.521  1.00  0.00    -0.129 N 
ATOM      7  H5  UNL     1      10.414  -0.899  18.261  1.00  0.00     0.206 HD
ENDROOT
BRANCH   1   8
HETATM    8  C3  UNL     1       9.064  -2.824  16.847  1.00  0.00     0.177 C 
BRANCH   8   9
HETATM    9  C2  UNL     1       8.805  -2.087  15.579  1.00  0.00     0.253 C 
BRANCH   9  10
HETATM   10  N1  UNL     1       9.883  -1.256  15.118  1.00  0.00    -0.077 N 
HETATM   11  C1  UNL     1       9.522  -0.697  13.853  1.00  0.00     0.267 C 
ATOM     12  H12 UNL     1      10.773  -1.754  15.085  1.00  0.00     0.276 HD
ATOM     13  H11 UNL     1      10.145  -0.543  15.799  1.00  0.00     0.276 HD
ENDBRANCH   9  10
ENDBRANCH   8   9
ENDBRANCH   1   8
BRANCH   5  14
HETATM   14  N4  UNL     1       9.215   0.433  20.289  1.00  0.00    -0.233 N 
ATOM     15  H42 UNL     1       9.365   1.406  20.020  1.00  0.00     0.174 HD
ATOM     16  H41 UNL     1       9.488   0.330  21.266  1.00  0.00     0.174 HD
ENDBRANCH   5  14
TORSDOF 4
ENDMDL
MODEL 4
REMARK VINA RESULT: -4.352688594      1.446      5.041
REMARK  4 active torsions:
REMARK  status: ('A' for Active; 'I' for Inactive)
REMARK    1  A    between atoms: N1_2  and  C2_5 
REMARK    2  A    between atoms: C2_5  and  C3_6 
REMARK    3  A    between atoms: C3_6  and  N2_7 
REMARK    4  A    between atoms: C5_11  and  N4_12 
ROOT
HETATM    1  N2  UNL     1       8.670  -1.102  18.784  1.00  0.00    -0.271 N 
HETATM    2  C4  UNL     1       7.488  -1.697  18.607  1.00  0.00     0.218 A 
HETATM    3  N3  UNL     1       7.629  -2.557  17.589  1.00  0.00    -0.185 N 
ATOM      4  H3  UNL     1       6.904  -3.165  17.210  1.00  0.00     0.185 HD
HETATM    5  C5  UNL     1       8.896  -2.472  17.162  1.00  0.00     0.691 A 
HETATM    6  N5  UNL     1       9.529  -1.561  17.915  1.00  0.00    -0.129 N 
ATOM      7  H5  UNL     1      10.504  -1.279  17.826  1.00  0.00     0.206 HD
ENDROOT
BRANCH   1   8
HETATM    8  C3  UNL     1       8.988  -0.088  19.778  1.00  0.00     0.177 C 
BRANCH   8   9
HETATM    9  C2  UNL     1       7.951  -0.141  20.845  1.00  0.00     0.253 C 
BRANCH   9  10
HETATM   10  N1  UNL     1       8.244   0.622  22.028  1.00  0.00    -0.077 N 
HETATM   11  C1  UNL     1       7.530   0.053  23.128  1.00  0.00     0.267 C 
ATOM     12  H12 UNL     1       8.049   1.616  21.909  1.00  0.00     0.276 HD
ATOM     13  H11 UNL     1       9.245   0.694  22.208  1.00  0.00     0.276 HD
ENDBRANCH   9  10
ENDBRANCH   8   9
ENDBRANCH   1   8
BRANCH   5  14
HETATM   14  N4  UNL     1       9.438  -3.148  16.184  1.00  0.00    -0.233 N 
ATOM     15  H42 UNL     1       9.236  -3.012  15.193  1.00  0.00     0.174 HD
ATOM     16  H41 UNL     1      10.127  -3.895  16.266  1.00  0.00     0.174 HD
ENDBRANCH   5  14
TORSDOF 4
ENDMDL
MODEL 5
REMARK VINA RESULT: -4.285631949      0.841      1.404
REMARK  4 active torsions:
REMARK  status: ('A' for Active; 'I' for Inactive)
REMARK    1  A    between atoms: N1_2  and  C2_5 
REMARK    2  A    between atoms: C2_5  and  C3_6 
REMARK    3  A    between atoms: C3_6  and  N2_7 
REMARK    4  A    between atoms: C5_11  and  N4_12 
ROOT
HETATM    1  N2  UNL     1       8.767  -1.287  18.582  1.00  0.00    -0.271 N 
HETATM    2  C4  UNL     1       7.563  -1.729  18.953  1.00  0.00     0.218 A 
HETATM    3  N3  UNL     1       7.243  -1.090  20.087  1.00  0.00    -0.185 N 
ATOM      4  H3  UNL     1       6.383  -1.208  20.622  1.00  0.00     0.185 HD
HETATM    5  C5  UNL     1       8.257  -0.268  20.388  1.00  0.00     0.691 A 
HETATM    6  N5  UNL     1       9.197  -0.405  19.441  1.00  0.00    -0.129 N 
ATOM      7  H5  UNL     1      10.087   0.090  19.401  1.00  0.00     0.206 HD
ENDROOT
BRANCH   1   8
HETATM    8  C3  UNL     1       9.518  -1.707  17.407  1.00  0.00     0.177 C 
BRANCH   8   9
HETATM    9  C2  UNL     1       8.651  -2.608  16.598  1.00  0.00     0.253 C 
BRANCH   9  10
HETATM   10  N1  UNL     1       9.027  -2.748  15.218  1.00  0.00    -0.077 N 
HETATM   11  C1  UNL     1       8.869  -1.484  14.569  1.00  0.00     0.267 C 
ATOM     12  H12 UNL     1       8.514  -3.494  14.748  1.00  0.00     0.276 HD
ATOM     13  H11 UNL     1       9.966  -3.129  15.106  1.00  0.00     0.276 HD
ENDBRANCH   9  10
ENDBRANCH   8   9
ENDBRANCH   1   8
BRANCH   5  14
HETATM   14  N4  UNL     1       8.337   0.531  21.417  1.00  0.00    -0.233 N 
ATOM     15  H42 UNL     1       8.018   1.500  21.435  1.00  0.00     0.174 HD
ATOM     16  H41 UNL     1       8.723   0.309  22.334  1.00  0.00     0.174 HD
ENDBRANCH   5  14
TORSDOF 4
ENDMDL
