MODEL 1
REMARK VINA RESULT: -9.689668817      0.000      0.000
REMARK  10 active torsions:
REMARK  status: ('A' for Active; 'I' for Inactive)
REMARK    1  A    between atoms: N1_2  and  C2_4 
REMARK    2  A    between atoms: C3_7  and  C4_8 
REMARK    3  A    between atoms: C4_8  and  C5_10 
REMARK    4  A    between atoms: C5_10  and  N3_11 
REMARK    5  A    between atoms: C6_12  and  N4_13 
REMARK    6  A    between atoms: C8_23  and  O2_24 
REMARK    7  A    between atoms: O2_24  and  N8_25 
REMARK    8  A    between atoms: N8_25  and  C9_27 
REMARK    9  A    between atoms: C10_30  and  O3_31 
REMARK   10  A    between atoms: C14_43  and  O4_44 
ROOT
HETATM    1  N3  UNL     1      14.327  -2.353  -3.279  1.00  0.00    -0.157 N 
HETATM    2  C6  UNL     1      14.289  -1.002  -3.179  1.00  0.00     0.681 A 
HETATM    3  N5  UNL     1      13.242  -0.703  -2.403  1.00  0.00    -0.172 N 
ATOM      4  H5  UNL     1      12.960   0.243  -2.148  1.00  0.00     0.186 HD
HETATM    5  C7  UNL     1      12.615  -1.814  -2.008  1.00  0.00     0.181 A 
HETATM    6  N6  UNL     1      11.520  -2.053  -1.226  1.00  0.00    -0.279 N 
ATOM      7  H6  UNL     1      10.994  -1.288  -0.803  1.00  0.00     0.189 HD
HETATM    8  N7  UNL     1      11.170  -3.313  -1.039  1.00  0.00    -0.262 N 
ATOM      9  H7  UNL     1      10.354  -3.507  -0.457  1.00  0.00     0.190 HD
HETATM   10  C8  UNL     1      11.833  -4.353  -1.575  1.00  0.00     0.264 A 
HETATM   11  N12 UNL     1      12.914  -4.165  -2.350  1.00  0.00    -0.302 N 
ATOM     12  H12 UNL     1      13.422  -4.948  -2.763  1.00  0.00     0.171 HD
HETATM   13  C12 UNL     1      13.296  -2.868  -2.557  1.00  0.00     0.173 A 
ENDROOT
BRANCH   1  14
HETATM   14  C5  UNL     1      15.257  -3.147  -4.038  1.00  0.00     0.235 C 
BRANCH  14  15
HETATM   15  C4  UNL     1      16.433  -3.665  -3.330  1.00  0.00     0.195 C 
HETATM   16  O1  UNL     1      16.319  -3.955  -2.071  1.00  0.00    -0.289 OA
BRANCH  15  17
HETATM   17  C3  UNL     1      17.758  -3.900  -3.884  1.00  0.00     0.100 A 
HETATM   18  N2  UNL     1      18.340  -3.142  -4.805  1.00  0.00    -0.188 N 
HETATM   19  C2  UNL     1      19.544  -3.300  -5.354  1.00  0.00     0.680 A 
ATOM     20  H2  UNL     1      17.800  -2.342  -5.134  1.00  0.00     0.184 HD
HETATM   21  N13 UNL     1      20.274  -4.354  -4.930  1.00  0.00    -0.171 N 
HETATM   22  C14 UNL     1      19.753  -5.177  -3.992  1.00  0.00     0.157 A 
ATOM     23  H13 UNL     1      21.204  -4.527  -5.313  1.00  0.00     0.186 HD
HETATM   24  C13 UNL     1      18.512  -4.995  -3.441  1.00  0.00     0.090 A 
BRANCH  19  25
HETATM   25  N1  UNL     1      19.994  -2.487  -6.246  1.00  0.00    -0.230 N 
HETATM   26  C1  UNL     1      19.171  -1.745  -7.144  1.00  0.00     0.165 C 
ATOM     27  H1  UNL     1      21.005  -2.366  -6.314  1.00  0.00     0.177 HD
ENDBRANCH  19  25
BRANCH  22  28
HETATM   28  O4  UNL     1      20.477  -6.282  -3.524  1.00  0.00    -0.346 OA
ATOM     29  H4  UNL     1      21.205  -6.562  -4.066  1.00  0.00     0.219 HD
ENDBRANCH  22  28
ENDBRANCH  15  17
ENDBRANCH  14  15
ENDBRANCH   1  14
BRANCH   2  30
HETATM   30  N4  UNL     1      15.121  -0.186  -3.741  1.00  0.00    -0.234 N 
ATOM     31  H42 UNL     1      15.794   0.434  -3.289  1.00  0.00     0.174 HD
ATOM     32  H41 UNL     1      15.221  -0.045  -4.746  1.00  0.00     0.174 HD
ENDBRANCH   2  30
BRANCH  10  33
HETATM   33  O2  UNL     1      11.341  -5.630  -1.287  1.00  0.00    -0.184 OA
BRANCH  33  34
HETATM   34  N8  UNL     1      10.446  -6.289  -2.076  1.00  0.00    -0.088 N 
ATOM     35  H8  UNL     1       9.482  -5.956  -2.084  1.00  0.00     0.214 HD
BRANCH  34  36
HETATM   36  C9  UNL     1      10.771  -7.409  -2.887  1.00  0.00     0.699 C 
HETATM   37  N9  UNL     1      11.161  -8.526  -2.364  1.00  0.00    -0.173 N 
HETATM   38  C10 UNL     1      11.504  -9.700  -3.138  1.00  0.00     0.442 C 
ATOM     39  H9  UNL     1      11.229  -8.583  -1.348  1.00  0.00     0.182 HD
HETATM   40  N10 UNL     1      11.916  -9.340  -4.487  1.00  0.00    -0.014 N 
HETATM   41  C11 UNL     1      10.850  -8.565  -5.082  1.00  0.00     0.376 C 
ATOM     42 2H10 UNL     1      12.816  -8.860  -4.511  1.00  0.00     0.284 HD
ATOM     43 1H10 UNL     1      12.179 -10.149  -5.049  1.00  0.00     0.284 HD
HETATM   44  N11 UNL     1      10.686  -7.361  -4.314  1.00  0.00    -0.200 N 
ATOM     45  H11 UNL     1      10.509  -6.474  -4.786  1.00  0.00     0.179 HD
BRANCH  38  46
HETATM   46  O3  UNL     1      12.626 -10.275  -2.525  1.00  0.00    -0.354 OA
ATOM     47  H3  UNL     1      13.352 -10.172  -3.128  1.00  0.00     0.214 HD
ENDBRANCH  38  46
ENDBRANCH  34  36
ENDBRANCH  33  34
ENDBRANCH  10  33
TORSDOF 10
ENDMDL
MODEL 2
REMARK VINA RESULT: -9.639616438      1.145      1.926
REMARK  10 active torsions:
REMARK  status: ('A' for Active; 'I' for Inactive)
REMARK    1  A    between atoms: N1_2  and  C2_4 
REMARK    2  A    between atoms: C3_7  and  C4_8 
REMARK    3  A    between atoms: C4_8  and  C5_10 
REMARK    4  A    between atoms: C5_10  and  N3_11 
REMARK    5  A    between atoms: C6_12  and  N4_13 
REMARK    6  A    between atoms: C8_23  and  O2_24 
REMARK    7  A    between atoms: O2_24  and  N8_25 
REMARK    8  A    between atoms: N8_25  and  C9_27 
REMARK    9  A    between atoms: C10_30  and  O3_31 
REMARK   10  A    between atoms: C14_43  and  O4_44 
ROOT
HETATM    1  N3  UNL     1      14.294  -2.313  -3.308  1.00  0.00    -0.157 N 
HETATM    2  C6  UNL     1      14.243  -0.962  -3.205  1.00  0.00     0.681 A 
HETATM    3  N5  UNL     1      13.203  -0.676  -2.414  1.00  0.00    -0.172 N 
ATOM      4  H5  UNL     1      12.914   0.267  -2.153  1.00  0.00     0.186 HD
HETATM    5  C7  UNL     1      12.593  -1.794  -2.013  1.00  0.00     0.181 A 
HETATM    6  N6  UNL     1      11.512  -2.046  -1.216  1.00  0.00    -0.279 N 
ATOM      7  H6  UNL     1      10.983  -1.288  -0.784  1.00  0.00     0.189 HD
HETATM    8  N7  UNL     1      11.177  -3.310  -1.027  1.00  0.00    -0.262 N 
ATOM      9  H7  UNL     1      10.372  -3.514  -0.435  1.00  0.00     0.190 HD
HETATM   10  C8  UNL     1      11.844  -4.343  -1.574  1.00  0.00     0.264 A 
HETATM   11  N12 UNL     1      12.913  -4.142  -2.364  1.00  0.00    -0.302 N 
ATOM     12  H12 UNL     1      13.424  -4.918  -2.785  1.00  0.00     0.171 HD
HETATM   13  C12 UNL     1      13.278  -2.840  -2.574  1.00  0.00     0.173 A 
ENDROOT
BRANCH   1  14
HETATM   14  C5  UNL     1      15.221  -3.094  -4.082  1.00  0.00     0.235 C 
BRANCH  14  15
HETATM   15  C4  UNL     1      16.393  -3.634  -3.381  1.00  0.00     0.195 C 
HETATM   16  O1  UNL     1      16.271  -3.957  -2.131  1.00  0.00    -0.289 OA
BRANCH  15  17
HETATM   17  C3  UNL     1      17.719  -3.859  -3.935  1.00  0.00     0.100 A 
HETATM   18  N2  UNL     1      18.528  -4.853  -3.588  1.00  0.00    -0.188 N 
HETATM   19  C2  UNL     1      19.748  -5.116  -4.053  1.00  0.00     0.680 A 
ATOM     20  H2  UNL     1      18.172  -5.493  -2.878  1.00  0.00     0.184 HD
HETATM   21  N13 UNL     1      20.236  -4.280  -4.995  1.00  0.00    -0.171 N 
HETATM   22  C14 UNL     1      19.474  -3.240  -5.405  1.00  0.00     0.157 A 
ATOM     23  H13 UNL     1      21.165  -4.430  -5.390  1.00  0.00     0.186 HD
HETATM   24  C13 UNL     1      18.221  -2.988  -4.913  1.00  0.00     0.090 A 
BRANCH  19  25
HETATM   25  N1  UNL     1      20.434  -6.121  -3.628  1.00  0.00    -0.230 N 
HETATM   26  C1  UNL     1      20.076  -6.917  -2.500  1.00  0.00     0.165 C 
ATOM     27  H1  UNL     1      21.288  -6.362  -4.131  1.00  0.00     0.177 HD
ENDBRANCH  19  25
BRANCH  22  28
HETATM   28  O4  UNL     1      19.941  -2.348  -6.380  1.00  0.00    -0.346 OA
ATOM     29  H4  UNL     1      20.788  -2.553  -6.760  1.00  0.00     0.219 HD
ENDBRANCH  22  28
ENDBRANCH  15  17
ENDBRANCH  14  15
ENDBRANCH   1  14
BRANCH   2  30
HETATM   30  N4  UNL     1      15.058  -0.136  -3.777  1.00  0.00    -0.234 N 
ATOM     31  H42 UNL     1      16.004   0.114  -3.486  1.00  0.00     0.174 HD
ATOM     32  H41 UNL     1      14.861   0.397  -4.624  1.00  0.00     0.174 HD
ENDBRANCH   2  30
BRANCH  10  33
HETATM   33  O2  UNL     1      11.371  -5.625  -1.282  1.00  0.00    -0.184 OA
BRANCH  33  34
HETATM   34  N8  UNL     1      10.461  -6.286  -2.053  1.00  0.00    -0.088 N 
ATOM     35  H8  UNL     1       9.494  -5.959  -2.037  1.00  0.00     0.214 HD
BRANCH  34  36
HETATM   36  C9  UNL     1      10.773  -7.401  -2.876  1.00  0.00     0.699 C 
HETATM   37  N9  UNL     1      11.154  -8.527  -2.366  1.00  0.00    -0.173 N 
HETATM   38  C10 UNL     1      11.485  -9.696  -3.152  1.00  0.00     0.442 C 
ATOM     39  H9  UNL     1      11.225  -8.595  -1.350  1.00  0.00     0.182 HD
HETATM   40  N10 UNL     1      11.896  -9.326  -4.498  1.00  0.00    -0.014 N 
HETATM   41  C11 UNL     1      10.836  -8.535  -5.083  1.00  0.00     0.376 C 
ATOM     42 2H10 UNL     1      12.800  -8.854  -4.520  1.00  0.00     0.284 HD
ATOM     43 1H10 UNL     1      12.151 -10.131  -5.070  1.00  0.00     0.284 HD
HETATM   44  N11 UNL     1      10.685  -7.337  -4.302  1.00  0.00    -0.200 N 
ATOM     45  H11 UNL     1      10.515  -6.444  -4.765  1.00  0.00     0.179 HD
BRANCH  38  46
HETATM   46  O3  UNL     1      12.602 -10.288  -2.548  1.00  0.00    -0.354 OA
ATOM     47  H3  UNL     1      12.440 -11.224  -2.529  1.00  0.00     0.214 HD
ENDBRANCH  38  46
ENDBRANCH  34  36
ENDBRANCH  33  34
ENDBRANCH  10  33
TORSDOF 10
ENDMDL
MODEL 3
REMARK VINA RESULT: -9.225480826      1.238      1.449
REMARK  10 active torsions:
REMARK  status: ('A' for Active; 'I' for Inactive)
REMARK    1  A    between atoms: N1_2  and  C2_4 
REMARK    2  A    between atoms: C3_7  and  C4_8 
REMARK    3  A    between atoms: C4_8  and  C5_10 
REMARK    4  A    between atoms: C5_10  and  N3_11 
REMARK    5  A    between atoms: C6_12  and  N4_13 
REMARK    6  A    between atoms: C8_23  and  O2_24 
REMARK    7  A    between atoms: O2_24  and  N8_25 
REMARK    8  A    between atoms: N8_25  and  C9_27 
REMARK    9  A    between atoms: C10_30  and  O3_31 
REMARK   10  A    between atoms: C14_43  and  O4_44 
ROOT
HETATM    1  N3  UNL     1      14.862  -1.886  -4.024  1.00  0.00    -0.157 N 
HETATM    2  C6  UNL     1      14.687  -1.194  -5.176  1.00  0.00     0.681 A 
HETATM    3  N5  UNL     1      13.506  -1.574  -5.677  1.00  0.00    -0.172 N 
ATOM      4  H5  UNL     1      13.103  -1.220  -6.545  1.00  0.00     0.186 HD
HETATM    5  C7  UNL     1      12.928  -2.480  -4.886  1.00  0.00     0.181 A 
HETATM    6  N6  UNL     1      11.748  -3.167  -4.944  1.00  0.00    -0.279 N 
ATOM      7  H6  UNL     1      11.094  -3.034  -5.715  1.00  0.00     0.189 HD
HETATM    8  N7  UNL     1      11.487  -4.011  -3.960  1.00  0.00    -0.262 N 
ATOM      9  H7  UNL     1      10.610  -4.531  -3.990  1.00  0.00     0.190 HD
HETATM   10  C8  UNL     1      12.318  -4.218  -2.923  1.00  0.00     0.264 A 
HETATM   11  N12 UNL     1      13.488  -3.565  -2.826  1.00  0.00    -0.302 N 
ATOM     12  H12 UNL     1      14.125  -3.717  -2.044  1.00  0.00     0.171 HD
HETATM   13  C12 UNL     1      13.779  -2.685  -3.833  1.00  0.00     0.173 A 
ENDROOT
BRANCH   1  14
HETATM   14  C5  UNL     1      15.999  -1.842  -3.144  1.00  0.00     0.235 C 
BRANCH  14  15
HETATM   15  C4  UNL     1      16.733  -3.096  -2.933  1.00  0.00     0.195 C 
HETATM   16  O1  UNL     1      16.337  -3.894  -1.990  1.00  0.00    -0.289 OA
BRANCH  15  17
HETATM   17  C3  UNL     1      17.891  -3.570  -3.677  1.00  0.00     0.100 A 
HETATM   18  N2  UNL     1      18.477  -2.911  -4.668  1.00  0.00    -0.188 N 
HETATM   19  C2  UNL     1      19.534  -3.285  -5.387  1.00  0.00     0.680 A 
ATOM     20  H2  UNL     1      18.069  -2.008  -4.909  1.00  0.00     0.184 HD
HETATM   21  N13 UNL     1      20.089  -4.478  -5.082  1.00  0.00    -0.171 N 
HETATM   22  C14 UNL     1      19.551  -5.214  -4.083  1.00  0.00     0.157 A 
ATOM     23  H13 UNL     1      20.901  -4.819  -5.597  1.00  0.00     0.186 HD
HETATM   24  C13 UNL     1      18.463  -4.809  -3.355  1.00  0.00     0.090 A 
BRANCH  19  25
HETATM   25  N1  UNL     1      20.009  -2.547  -6.330  1.00  0.00    -0.230 N 
HETATM   26  C1  UNL     1      19.211  -1.746  -7.201  1.00  0.00     0.165 C 
ATOM     27  H1  UNL     1      21.020  -2.534  -6.463  1.00  0.00     0.177 HD
ENDBRANCH  19  25
BRANCH  22  28
HETATM   28  O4  UNL     1      20.095  -6.457  -3.733  1.00  0.00    -0.346 OA
ATOM     29  H4  UNL     1      20.900  -6.432  -3.228  1.00  0.00     0.219 HD
ENDBRANCH  22  28
ENDBRANCH  15  17
ENDBRANCH  14  15
ENDBRANCH   1  14
BRANCH   2  30
HETATM   30  N4  UNL     1      15.522  -0.338  -5.670  1.00  0.00    -0.234 N 
ATOM     31  H42 UNL     1      16.537  -0.420  -5.740  1.00  0.00     0.174 HD
ATOM     32  H41 UNL     1      15.273   0.567  -6.068  1.00  0.00     0.174 HD
ENDBRANCH   2  30
BRANCH  10  33
HETATM   33  O2  UNL     1      11.904  -5.142  -1.959  1.00  0.00    -0.184 OA
BRANCH  33  34
HETATM   34  N8  UNL     1      10.829  -5.967  -2.118  1.00  0.00    -0.088 N 
ATOM     35  H8  UNL     1       9.940  -5.676  -1.712  1.00  0.00     0.214 HD
BRANCH  34  36
HETATM   36  C9  UNL     1      10.871  -7.205  -2.814  1.00  0.00     0.699 C 
HETATM   37  N9  UNL     1      11.296  -8.283  -2.241  1.00  0.00    -0.173 N 
HETATM   38  C10 UNL     1      11.361  -9.572  -2.898  1.00  0.00     0.442 C 
ATOM     39  H9  UNL     1      11.604  -8.223  -1.270  1.00  0.00     0.182 HD
HETATM   40  N10 UNL     1      11.459  -9.422  -4.342  1.00  0.00    -0.014 N 
HETATM   41  C11 UNL     1      10.338  -8.622  -4.781  1.00  0.00     0.376 C 
ATOM     42 2H10 UNL     1      12.358  -9.042  -4.641  1.00  0.00     0.284 HD
ATOM     43 1H10 UNL     1      11.522 -10.316  -4.829  1.00  0.00     0.284 HD
HETATM   44  N11 UNL     1      10.448  -7.322  -4.176  1.00  0.00    -0.200 N 
ATOM     45  H11 UNL     1      10.224  -6.486  -4.715  1.00  0.00     0.179 HD
BRANCH  38  46
HETATM   46  O3  UNL     1      12.554 -10.179  -2.483  1.00  0.00    -0.354 OA
ATOM     47  H3  UNL     1      13.263  -9.700  -2.895  1.00  0.00     0.214 HD
ENDBRANCH  38  46
ENDBRANCH  34  36
ENDBRANCH  33  34
ENDBRANCH  10  33
TORSDOF 10
ENDMDL
MODEL 4
REMARK VINA RESULT: -9.208616743      0.985      1.245
REMARK  10 active torsions:
REMARK  status: ('A' for Active; 'I' for Inactive)
REMARK    1  A    between atoms: N1_2  and  C2_4 
REMARK    2  A    between atoms: C3_7  and  C4_8 
REMARK    3  A    between atoms: C4_8  and  C5_10 
REMARK    4  A    between atoms: C5_10  and  N3_11 
REMARK    5  A    between atoms: C6_12  and  N4_13 
REMARK    6  A    between atoms: C8_23  and  O2_24 
REMARK    7  A    between atoms: O2_24  and  N8_25 
REMARK    8  A    between atoms: N8_25  and  C9_27 
REMARK    9  A    between atoms: C10_30  and  O3_31 
REMARK   10  A    between atoms: C14_43  and  O4_44 
ROOT
HETATM    1  N3  UNL     1      14.211  -2.400  -3.235  1.00  0.00    -0.157 N 
HETATM    2  C6  UNL     1      14.096  -1.057  -3.090  1.00  0.00     0.681 A 
HETATM    3  N5  UNL     1      13.032  -0.845  -2.308  1.00  0.00    -0.172 N 
ATOM      4  H5  UNL     1      12.696   0.075  -2.022  1.00  0.00     0.186 HD
HETATM    5  C7  UNL     1      12.469  -2.002  -1.954  1.00  0.00     0.181 A 
HETATM    6  N6  UNL     1      11.388  -2.330  -1.184  1.00  0.00    -0.279 N 
ATOM      7  H6  UNL     1      10.818  -1.611  -0.737  1.00  0.00     0.189 HD
HETATM    8  N7  UNL     1      11.109  -3.613  -1.041  1.00  0.00    -0.262 N 
ATOM      9  H7  UNL     1      10.305  -3.873  -0.469  1.00  0.00     0.190 HD
HETATM   10  C8  UNL     1      11.832  -4.596  -1.610  1.00  0.00     0.264 A 
HETATM   11  N12 UNL     1      12.902  -4.320  -2.374  1.00  0.00    -0.302 N 
ATOM     12  H12 UNL     1      13.454  -5.058  -2.811  1.00  0.00     0.171 HD
HETATM   13  C12 UNL     1      13.210  -2.997  -2.536  1.00  0.00     0.173 A 
ENDROOT
BRANCH   1  14
HETATM   14  C5  UNL     1      15.186  -3.112  -4.018  1.00  0.00     0.235 C 
BRANCH  14  15
HETATM   15  C4  UNL     1      16.367  -3.626  -3.314  1.00  0.00     0.195 C 
HETATM   16  O1  UNL     1      16.260  -3.911  -2.053  1.00  0.00    -0.289 OA
BRANCH  15  17
HETATM   17  C3  UNL     1      17.688  -3.864  -3.876  1.00  0.00     0.100 A 
HETATM   18  N2  UNL     1      18.269  -3.104  -4.796  1.00  0.00    -0.188 N 
HETATM   19  C2  UNL     1      19.470  -3.263  -5.350  1.00  0.00     0.680 A 
ATOM     20  H2  UNL     1      17.730  -2.300  -5.118  1.00  0.00     0.184 HD
HETATM   21  N13 UNL     1      20.198  -4.322  -4.935  1.00  0.00    -0.171 N 
HETATM   22  C14 UNL     1      19.679  -5.147  -3.998  1.00  0.00     0.157 A 
ATOM     23  H13 UNL     1      21.126  -4.496  -5.322  1.00  0.00     0.186 HD
HETATM   24  C13 UNL     1      18.441  -4.964  -3.441  1.00  0.00     0.090 A 
BRANCH  19  25
HETATM   25  N1  UNL     1      19.919  -2.448  -6.240  1.00  0.00    -0.230 N 
HETATM   26  C1  UNL     1      19.097  -1.730  -7.160  1.00  0.00     0.165 C 
ATOM     27  H1  UNL     1      20.928  -2.306  -6.292  1.00  0.00     0.177 HD
ENDBRANCH  19  25
BRANCH  22  28
HETATM   28  O4  UNL     1      20.400  -6.257  -3.538  1.00  0.00    -0.346 OA
ATOM     29  H4  UNL     1      20.709  -6.858  -4.206  1.00  0.00     0.219 HD
ENDBRANCH  22  28
ENDBRANCH  15  17
ENDBRANCH  14  15
ENDBRANCH   1  14
BRANCH   2  30
HETATM   30  N4  UNL     1      14.881  -0.176  -3.621  1.00  0.00    -0.234 N 
ATOM     31  H42 UNL     1      14.623   0.646  -4.168  1.00  0.00     0.174 HD
ATOM     32  H41 UNL     1      15.899  -0.183  -3.564  1.00  0.00     0.174 HD
ENDBRANCH   2  30
BRANCH  10  33
HETATM   33  O2  UNL     1      11.413  -5.907  -1.367  1.00  0.00    -0.184 OA
BRANCH  33  34
HETATM   34  N8  UNL     1      10.489  -6.557  -2.130  1.00  0.00    -0.088 N 
ATOM     35  H8  UNL     1       9.627  -6.062  -2.361  1.00  0.00     0.214 HD
BRANCH  34  36
HETATM   36  C9  UNL     1      10.650  -7.879  -2.624  1.00  0.00     0.699 C 
HETATM   37  N9  UNL     1       9.959  -8.309  -3.629  1.00  0.00    -0.173 N 
HETATM   38  C10 UNL     1      10.080  -9.644  -4.176  1.00  0.00     0.442 C 
ATOM     39  H9  UNL     1       9.291  -7.671  -4.062  1.00  0.00     0.182 HD
HETATM   40  N10 UNL     1      10.583 -10.578  -3.180  1.00  0.00    -0.014 N 
HETATM   41  C11 UNL     1      11.836 -10.059  -2.680  1.00  0.00     0.376 C 
ATOM     42 2H10 UNL     1       9.909 -10.767  -2.438  1.00  0.00     0.284 HD
ATOM     43 1H10 UNL     1      10.663 -11.531  -3.536  1.00  0.00     0.284 HD
HETATM   44  N11 UNL     1      11.578  -8.798  -2.040  1.00  0.00    -0.200 N 
ATOM     45  H11 UNL     1      12.055  -8.559  -1.170  1.00  0.00     0.179 HD
BRANCH  38  46
HETATM   46  O3  UNL     1       8.784 -10.070  -4.496  1.00  0.00    -0.354 OA
ATOM     47  H3  UNL     1       8.252  -9.287  -4.585  1.00  0.00     0.214 HD
ENDBRANCH  38  46
ENDBRANCH  34  36
ENDBRANCH  33  34
ENDBRANCH  10  33
TORSDOF 10
ENDMDL
MODEL 5
REMARK VINA RESULT: -9.191757966      1.823      2.366
REMARK  10 active torsions:
REMARK  status: ('A' for Active; 'I' for Inactive)
REMARK    1  A    between atoms: N1_2  and  C2_4 
REMARK    2  A    between atoms: C3_7  and  C4_8 
REMARK    3  A    between atoms: C4_8  and  C5_10 
REMARK    4  A    between atoms: C5_10  and  N3_11 
REMARK    5  A    between atoms: C6_12  and  N4_13 
REMARK    6  A    between atoms: C8_23  and  O2_24 
REMARK    7  A    between atoms: O2_24  and  N8_25 
REMARK    8  A    between atoms: N8_25  and  C9_27 
REMARK    9  A    between atoms: C10_30  and  O3_31 
REMARK   10  A    between atoms: C14_43  and  O4_44 
ROOT
HETATM    1  N3  UNL     1      14.003  -2.358  -4.638  1.00  0.00    -0.157 N 
HETATM    2  C6  UNL     1      14.372  -1.066  -4.461  1.00  0.00     0.681 A 
HETATM    3  N5  UNL     1      14.034  -0.739  -3.209  1.00  0.00    -0.172 N 
ATOM      4  H5  UNL     1      14.190   0.177  -2.787  1.00  0.00     0.186 HD
HETATM    5  C7  UNL     1      13.465  -1.774  -2.588  1.00  0.00     0.181 A 
HETATM    6  N6  UNL     1      12.956  -1.957  -1.332  1.00  0.00    -0.279 N 
ATOM      7  H6  UNL     1      12.961  -1.206  -0.643  1.00  0.00     0.189 HD
HETATM    8  N7  UNL     1      12.456  -3.147  -1.047  1.00  0.00    -0.262 N 
ATOM      9  H7  UNL     1      12.072  -3.299  -0.114  1.00  0.00     0.190 HD
HETATM   10  C8  UNL     1      12.428  -4.168  -1.923  1.00  0.00     0.264 A 
HETATM   11  N12 UNL     1      12.917  -4.032  -3.167  1.00  0.00    -0.302 N 
ATOM     12  H12 UNL     1      12.898  -4.799  -3.839  1.00  0.00     0.171 HD
HETATM   13  C12 UNL     1      13.441  -2.809  -3.485  1.00  0.00     0.173 A 
ENDROOT
BRANCH   1  14
HETATM   14  C5  UNL     1      14.129  -3.146  -5.836  1.00  0.00     0.235 C 
BRANCH  14  15
HETATM   15  C4  UNL     1      15.244  -4.099  -5.899  1.00  0.00     0.195 C 
HETATM   16  O1  UNL     1      14.972  -5.365  -5.963  1.00  0.00    -0.289 OA
BRANCH  15  17
HETATM   17  C3  UNL     1      16.665  -3.787  -5.898  1.00  0.00     0.100 A 
HETATM   18  N2  UNL     1      17.597  -4.498  -5.276  1.00  0.00    -0.188 N 
HETATM   19  C2  UNL     1      18.909  -4.271  -5.234  1.00  0.00     0.680 A 
ATOM     20  H2  UNL     1      17.269  -5.319  -4.767  1.00  0.00     0.184 HD
HETATM   21  N13 UNL     1      19.362  -3.189  -5.903  1.00  0.00    -0.171 N 
HETATM   22  C14 UNL     1      18.476  -2.409  -6.565  1.00  0.00     0.157 A 
ATOM     23  H13 UNL     1      20.357  -2.962  -5.909  1.00  0.00     0.186 HD
HETATM   24  C13 UNL     1      17.130  -2.663  -6.594  1.00  0.00     0.090 A 
BRANCH  19  25
HETATM   25  N1  UNL     1      19.711  -5.044  -4.588  1.00  0.00    -0.230 N 
HETATM   26  C1  UNL     1      19.465  -5.538  -3.273  1.00  0.00     0.165 C 
ATOM     27  H1  UNL     1      20.579  -5.321  -5.047  1.00  0.00     0.177 HD
ENDBRANCH  19  25
BRANCH  22  28
HETATM   28  O4  UNL     1      18.903  -1.278  -7.272  1.00  0.00    -0.346 OA
ATOM     29  H4  UNL     1      19.178  -1.427  -8.169  1.00  0.00     0.219 HD
ENDBRANCH  22  28
ENDBRANCH  15  17
ENDBRANCH  14  15
ENDBRANCH   1  14
BRANCH   2  30
HETATM   30  N4  UNL     1      14.939  -0.321  -5.353  1.00  0.00    -0.234 N 
ATOM     31  H42 UNL     1      15.854   0.128  -5.306  1.00  0.00     0.174 HD
ATOM     32  H41 UNL     1      14.535  -0.069  -6.255  1.00  0.00     0.174 HD
ENDBRANCH   2  30
BRANCH  10  33
HETATM   33  O2  UNL     1      11.866  -5.367  -1.475  1.00  0.00    -0.184 OA
BRANCH  33  34
HETATM   34  N8  UNL     1      10.789  -5.961  -2.063  1.00  0.00    -0.088 N 
ATOM     35  H8  UNL     1       9.880  -5.508  -1.963  1.00  0.00     0.214 HD
BRANCH  34  36
HETATM   36  C9  UNL     1      10.852  -7.170  -2.807  1.00  0.00     0.699 C 
HETATM   37  N9  UNL     1      11.249  -8.273  -2.263  1.00  0.00    -0.173 N 
HETATM   38  C10 UNL     1      11.334  -9.534  -2.968  1.00  0.00     0.442 C 
ATOM     39  H9  UNL     1      11.517  -8.254  -1.278  1.00  0.00     0.182 HD
HETATM   40  N10 UNL     1      11.491  -9.327  -4.400  1.00  0.00    -0.014 N 
HETATM   41  C11 UNL     1      10.392  -8.502  -4.851  1.00  0.00     0.376 C 
ATOM     42 2H10 UNL     1      12.403  -8.941  -4.647  1.00  0.00     0.284 HD
ATOM     43 1H10 UNL     1      11.570 -10.200  -4.920  1.00  0.00     0.284 HD
HETATM   44  N11 UNL     1      10.484  -7.229  -4.189  1.00  0.00    -0.200 N 
ATOM     45  H11 UNL     1      10.287  -6.370  -4.702  1.00  0.00     0.179 HD
BRANCH  38  46
HETATM   46  O3  UNL     1      12.506 -10.165  -2.531  1.00  0.00    -0.354 OA
ATOM     47  H3  UNL     1      12.528 -11.020  -2.944  1.00  0.00     0.214 HD
ENDBRANCH  38  46
ENDBRANCH  34  36
ENDBRANCH  33  34
ENDBRANCH  10  33
TORSDOF 10
ENDMDL
