MODEL 1
REMARK VINA RESULT: -5.619359979      0.000      0.000
REMARK  4 active torsions:
REMARK  status: ('A' for Active; 'I' for Inactive)
REMARK    1  A    between atoms: N1_1  and  C1_4 
REMARK    2  A    between atoms: C3_8  and  C4_9 
REMARK    3  A    between atoms: N4_11  and  N5_13 
REMARK    4  A    between atoms: C5_15  and  N6_16 
ROOT
HETATM    1  C1  UNL     1      15.336  -3.582  36.205  1.00  0.00     0.678 A 
HETATM    2  N2  UNL     1      16.242  -3.127  37.087  1.00  0.00    -0.201 N 
ATOM      3  H2  UNL     1      16.736  -3.770  37.706  1.00  0.00     0.183 HD
HETATM    4  C2  UNL     1      16.483  -1.804  37.136  1.00  0.00     0.126 A 
HETATM    5  C3  UNL     1      15.848  -0.883  36.327  1.00  0.00     0.091 A 
HETATM    6  C6  UNL     1      14.917  -1.407  35.429  1.00  0.00     0.274 A 
HETATM    7  O3  UNL     1      14.299  -0.606  34.657  1.00  0.00    -0.267 OA
HETATM    8  N7  UNL     1      14.687  -2.731  35.392  1.00  0.00    -0.156 N 
ATOM      9  H7  UNL     1      14.003  -3.098  34.731  1.00  0.00     0.187 HD
ENDROOT
BRANCH   5  10
HETATM   10  C4  UNL     1      16.121   0.541  36.396  1.00  0.00     0.148 C 
HETATM   11  N3  UNL     1      15.713   1.298  37.518  1.00  0.00    -0.080 NA
HETATM   12  N4  UNL     1      16.735   1.132  35.439  1.00  0.00    -0.286 N 
ATOM     13  H4  UNL     1      17.018   0.562  34.642  1.00  0.00     0.188 HD
BRANCH  12  14
HETATM   14  N5  UNL     1      17.046   2.470  35.397  1.00  0.00    -0.289 N 
HETATM   15  C5  UNL     1      16.928   3.155  34.319  1.00  0.00     0.274 C 
ATOM     16  H5  UNL     1      17.378   2.931  36.244  1.00  0.00     0.188 HD
BRANCH  15  17
HETATM   17  N6  UNL     1      17.253   4.526  34.302  1.00  0.00    -0.110 N 
HETATM   18  O1  UNL     1      18.033   5.032  33.309  1.00  0.00    -0.531 OA
HETATM   19  O2  UNL     1      16.787   5.324  35.272  1.00  0.00    -0.531 OA
ENDBRANCH  15  17
ENDBRANCH  12  14
ENDBRANCH   5  10
BRANCH   1  20
HETATM   20  N1  UNL     1      15.083  -4.840  36.133  1.00  0.00    -0.234 N 
ATOM     21  H12 UNL     1      15.843  -5.494  35.948  1.00  0.00     0.174 HD
ATOM     22  H11 UNL     1      14.129  -5.177  36.261  1.00  0.00     0.174 HD
ENDBRANCH   1  20
TORSDOF 4
ENDMDL
MODEL 2
REMARK VINA RESULT: -5.471410552      2.600      6.741
REMARK  4 active torsions:
REMARK  status: ('A' for Active; 'I' for Inactive)
REMARK    1  A    between atoms: N1_1  and  C1_4 
REMARK    2  A    between atoms: C3_8  and  C4_9 
REMARK    3  A    between atoms: N4_11  and  N5_13 
REMARK    4  A    between atoms: C5_15  and  N6_16 
ROOT
HETATM    1  C1  UNL     1      16.973   3.944  34.657  1.00  0.00     0.678 A 
HETATM    2  N2  UNL     1      17.017   3.126  33.591  1.00  0.00    -0.201 N 
ATOM      3  H2  UNL     1      17.320   3.472  32.680  1.00  0.00     0.183 HD
HETATM    4  C2  UNL     1      16.652   1.841  33.752  1.00  0.00     0.126 A 
HETATM    5  C3  UNL     1      16.232   1.313  34.956  1.00  0.00     0.091 A 
HETATM    6  C6  UNL     1      16.205   2.203  36.031  1.00  0.00     0.274 A 
HETATM    7  O3  UNL     1      15.826   1.774  37.167  1.00  0.00    -0.267 OA
HETATM    8  N7  UNL     1      16.572   3.484  35.854  1.00  0.00    -0.156 N 
ATOM      9  H7  UNL     1      16.546   4.123  36.649  1.00  0.00     0.187 HD
ENDROOT
BRANCH   5  10
HETATM   10  C4  UNL     1      15.842  -0.077  35.109  1.00  0.00     0.148 C 
HETATM   11  N3  UNL     1      14.582  -0.525  34.648  1.00  0.00    -0.080 NA
HETATM   12  N4  UNL     1      16.633  -0.917  35.667  1.00  0.00    -0.286 N 
ATOM     13  H4  UNL     1      17.534  -0.566  35.990  1.00  0.00     0.188 HD
BRANCH  12  14
HETATM   14  N5  UNL     1      16.368  -2.251  35.864  1.00  0.00    -0.289 N 
HETATM   15  C5  UNL     1      17.138  -2.992  36.573  1.00  0.00     0.274 C 
ATOM     16  H5  UNL     1      15.539  -2.663  35.436  1.00  0.00     0.188 HD
BRANCH  15  17
HETATM   17  N6  UNL     1      16.845  -4.357  36.761  1.00  0.00    -0.110 N 
HETATM   18  O1  UNL     1      16.568  -4.834  38.005  1.00  0.00    -0.531 OA
HETATM   19  O2  UNL     1      16.841  -5.180  35.704  1.00  0.00    -0.531 OA
ENDBRANCH  15  17
ENDBRANCH  12  14
ENDBRANCH   5  10
BRANCH   1  20
HETATM   20  N1  UNL     1      17.314   5.177  34.536  1.00  0.00    -0.234 N 
ATOM     21  H12 UNL     1      17.937   5.594  35.228  1.00  0.00     0.174 HD
ATOM     22  H11 UNL     1      16.963   5.730  33.754  1.00  0.00     0.174 HD
ENDBRANCH   1  20
TORSDOF 4
ENDMDL
MODEL 3
REMARK VINA RESULT: -5.353029116      1.211      1.768
REMARK  4 active torsions:
REMARK  status: ('A' for Active; 'I' for Inactive)
REMARK    1  A    between atoms: N1_1  and  C1_4 
REMARK    2  A    between atoms: C3_8  and  C4_9 
REMARK    3  A    between atoms: N4_11  and  N5_13 
REMARK    4  A    between atoms: C5_15  and  N6_16 
ROOT
HETATM    1  C1  UNL     1      15.335  -3.574  36.149  1.00  0.00     0.678 A 
HETATM    2  N2  UNL     1      16.564  -3.210  36.555  1.00  0.00    -0.201 N 
ATOM      3  H2  UNL     1      17.171  -3.872  37.037  1.00  0.00     0.183 HD
HETATM    4  C2  UNL     1      16.974  -1.952  36.310  1.00  0.00     0.126 A 
HETATM    5  C3  UNL     1      16.200  -1.009  35.664  1.00  0.00     0.091 A 
HETATM    6  C6  UNL     1      14.934  -1.438  35.264  1.00  0.00     0.274 A 
HETATM    7  O3  UNL     1      14.175  -0.613  34.663  1.00  0.00    -0.267 OA
HETATM    8  N7  UNL     1      14.537  -2.698  35.515  1.00  0.00    -0.156 N 
ATOM      9  H7  UNL     1      13.608  -2.995  35.217  1.00  0.00     0.187 HD
ENDROOT
BRANCH   5  10
HETATM   10  C4  UNL     1      16.662   0.344  35.410  1.00  0.00     0.148 C 
HETATM   11  N3  UNL     1      17.629   0.598  34.410  1.00  0.00    -0.080 NA
HETATM   12  N4  UNL     1      16.199   1.326  36.091  1.00  0.00    -0.286 N 
ATOM     13  H4  UNL     1      15.503   1.113  36.805  1.00  0.00     0.188 HD
BRANCH  12  14
HETATM   14  N5  UNL     1      16.563   2.643  35.937  1.00  0.00    -0.289 N 
HETATM   15  C5  UNL     1      15.920   3.590  36.514  1.00  0.00     0.274 C 
ATOM     16  H5  UNL     1      17.364   2.872  35.349  1.00  0.00     0.188 HD
BRANCH  15  17
HETATM   17  N6  UNL     1      16.312   4.932  36.340  1.00  0.00    -0.110 N 
HETATM   18  O1  UNL     1      16.311   5.788  37.398  1.00  0.00    -0.531 OA
HETATM   19  O2  UNL     1      16.686   5.356  35.126  1.00  0.00    -0.531 OA
ENDBRANCH  15  17
ENDBRANCH  12  14
ENDBRANCH   5  10
BRANCH   1  20
HETATM   20  N1  UNL     1      14.912  -4.768  36.368  1.00  0.00    -0.234 N 
ATOM     21  H12 UNL     1      14.960  -5.151  37.312  1.00  0.00     0.174 HD
ATOM     22  H11 UNL     1      14.534  -5.325  35.602  1.00  0.00     0.174 HD
ENDBRANCH   1  20
TORSDOF 4
ENDMDL
MODEL 4
REMARK VINA RESULT: -5.344998614      1.869      2.490
REMARK  4 active torsions:
REMARK  status: ('A' for Active; 'I' for Inactive)
REMARK    1  A    between atoms: N1_1  and  C1_4 
REMARK    2  A    between atoms: C3_8  and  C4_9 
REMARK    3  A    between atoms: N4_11  and  N5_13 
REMARK    4  A    between atoms: C5_15  and  N6_16 
ROOT
HETATM    1  C1  UNL     1      15.915  -4.648  37.288  1.00  0.00     0.678 A 
HETATM    2  N2  UNL     1      15.098  -4.575  36.224  1.00  0.00    -0.201 N 
ATOM      3  H2  UNL     1      14.542  -5.381  35.937  1.00  0.00     0.183 HD
HETATM    4  C2  UNL     1      15.029  -3.415  35.546  1.00  0.00     0.126 A 
HETATM    5  C3  UNL     1      15.754  -2.290  35.882  1.00  0.00     0.091 A 
HETATM    6  C6  UNL     1      16.588  -2.419  36.994  1.00  0.00     0.274 A 
HETATM    7  O3  UNL     1      17.283  -1.415  37.352  1.00  0.00    -0.267 OA
HETATM    8  N7  UNL     1      16.647  -3.584  37.662  1.00  0.00    -0.156 N 
ATOM      9  H7  UNL     1      17.262  -3.662  38.472  1.00  0.00     0.187 HD
ENDROOT
BRANCH   5  10
HETATM   10  C4  UNL     1      15.666  -1.048  35.136  1.00  0.00     0.148 C 
HETATM   11  N3  UNL     1      14.407  -0.510  34.782  1.00  0.00    -0.080 NA
HETATM   12  N4  UNL     1      16.729  -0.423  34.787  1.00  0.00    -0.286 N 
ATOM     13  H4  UNL     1      17.623  -0.834  35.055  1.00  0.00     0.188 HD
BRANCH  12  14
HETATM   14  N5  UNL     1      16.764   0.756  34.081  1.00  0.00    -0.289 N 
HETATM   15  C5  UNL     1      17.113   1.860  34.632  1.00  0.00     0.274 C 
ATOM     16  H5  UNL     1      16.507   0.753  33.094  1.00  0.00     0.188 HD
BRANCH  15  17
HETATM   17  N6  UNL     1      17.140   3.056  33.887  1.00  0.00    -0.110 N 
HETATM   18  O1  UNL     1      16.539   4.177  34.369  1.00  0.00    -0.531 OA
HETATM   19  O2  UNL     1      17.764   3.078  32.702  1.00  0.00    -0.531 OA
ENDBRANCH  15  17
ENDBRANCH  12  14
ENDBRANCH   5  10
BRANCH   1  20
HETATM   20  N1  UNL     1      16.005  -5.742  37.957  1.00  0.00    -0.234 N 
ATOM     21  H12 UNL     1      16.729  -6.418  37.716  1.00  0.00     0.174 HD
ATOM     22  H11 UNL     1      15.355  -5.928  38.721  1.00  0.00     0.174 HD
ENDBRANCH   1  20
TORSDOF 4
ENDMDL
MODEL 5
REMARK VINA RESULT: -5.332200907      2.674      6.757
REMARK  4 active torsions:
REMARK  status: ('A' for Active; 'I' for Inactive)
REMARK    1  A    between atoms: N1_1  and  C1_4 
REMARK    2  A    between atoms: C3_8  and  C4_9 
REMARK    3  A    between atoms: N4_11  and  N5_13 
REMARK    4  A    between atoms: C5_15  and  N6_16 
ROOT
HETATM    1  C1  UNL     1      17.285   3.945  34.187  1.00  0.00     0.678 A 
HETATM    2  N2  UNL     1      16.179   3.755  34.927  1.00  0.00    -0.201 N 
ATOM      3  H2  UNL     1      15.655   4.550  35.295  1.00  0.00     0.183 HD
HETATM    4  C2  UNL     1      15.778   2.495  35.171  1.00  0.00     0.126 A 
HETATM    5  C3  UNL     1      16.442   1.378  34.704  1.00  0.00     0.091 A 
HETATM    6  C6  UNL     1      17.584   1.630  33.942  1.00  0.00     0.274 A 
HETATM    7  O3  UNL     1      18.239   0.640  33.484  1.00  0.00    -0.267 OA
HETATM    8  N7  UNL     1      17.973   2.895  33.706  1.00  0.00    -0.156 N 
ATOM      9  H7  UNL     1      18.810   3.062  33.148  1.00  0.00     0.187 HD
ENDROOT
BRANCH   5  10
HETATM   10  C4  UNL     1      15.994   0.025  34.980  1.00  0.00     0.148 C 
HETATM   11  N3  UNL     1      14.662  -0.361  34.702  1.00  0.00    -0.080 NA
HETATM   12  N4  UNL     1      16.799  -0.837  35.481  1.00  0.00    -0.286 N 
ATOM     13  H4  UNL     1      17.753  -0.530  35.671  1.00  0.00     0.188 HD
BRANCH  12  14
HETATM   14  N5  UNL     1      16.484  -2.140  35.782  1.00  0.00    -0.289 N 
HETATM   15  C5  UNL     1      17.267  -2.878  36.479  1.00  0.00     0.274 C 
ATOM     16  H5  UNL     1      15.605  -2.531  35.442  1.00  0.00     0.188 HD
BRANCH  15  17
HETATM   17  N6  UNL     1      16.921  -4.212  36.774  1.00  0.00    -0.110 N 
HETATM   18  O1  UNL     1      16.633  -4.577  38.052  1.00  0.00    -0.531 OA
HETATM   19  O2  UNL     1      16.879  -5.114  35.785  1.00  0.00    -0.531 OA
ENDBRANCH  15  17
ENDBRANCH  12  14
ENDBRANCH   5  10
BRANCH   1  20
HETATM   20  N1  UNL     1      17.695   5.137  33.936  1.00  0.00    -0.234 N 
ATOM     21  H12 UNL     1      18.579   5.456  34.332  1.00  0.00     0.174 HD
ATOM     22  H11 UNL     1      17.138   5.755  33.346  1.00  0.00     0.174 HD
ENDBRANCH   1  20
TORSDOF 4
ENDMDL
