MODEL 1
REMARK VINA RESULT: -6.743396699      0.000      0.000
REMARK  9 active torsions:
REMARK  status: ('A' for Active; 'I' for Inactive)
REMARK    1  A    between atoms: C2_2  and  N3_8 
REMARK    2  A    between atoms: N1_3  and  N2_5 
REMARK    3  A    between atoms: N3_8  and  N4_10 
REMARK    4  A    between atoms: N4_10  and  C3_12 
REMARK    5  A    between atoms: C3_12  and  N5_14 
REMARK    6  A    between atoms: N5_14  and  N6_16 
REMARK    7  A    between atoms: N6_16  and  C4_18 
REMARK    8  A    between atoms: C4_18  and  N7_20 
REMARK    9  A    between atoms: N7_20  and  C5_22 
ROOT
HETATM    1  C3  UNL     1      22.195  89.969  74.010  1.00  0.00     0.205 C 
HETATM    2  S1  UNL     1      22.166  91.494  73.383  1.00  0.00    -0.038 SA
ENDROOT
BRANCH   1   3
HETATM    3  N4  UNL     1      22.855  88.915  73.304  1.00  0.00    -0.274 N 
ATOM      4  H4  UNL     1      22.849  87.959  73.658  1.00  0.00     0.189 HD
BRANCH   3   5
HETATM    5  N3  UNL     1      23.508  89.242  72.117  1.00  0.00    -0.286 N 
ATOM      6  H3  UNL     1      22.964  89.529  71.304  1.00  0.00     0.188 HD
BRANCH   5   7
HETATM    7  C2  UNL     1      24.922  89.177  72.031  1.00  0.00     0.106 C 
HETATM    8  C1  UNL     1      25.716  90.358  72.392  1.00  0.00     0.092 C 
HETATM    9  N1  UNL     1      25.484  88.067  71.631  1.00  0.00    -0.295 N 
ATOM     10  H1  UNL     1      26.500  88.006  71.565  1.00  0.00     0.187 HD
BRANCH   9  11
HETATM   11  N2  UNL     1      24.698  86.962  71.294  1.00  0.00    -0.344 N 
ATOM     12  H22 UNL     1      23.688  87.017  71.428  1.00  0.00     0.176 HD
ATOM     13  H21 UNL     1      25.131  86.118  70.920  1.00  0.00     0.176 HD
ENDBRANCH   9  11
ENDBRANCH   5   7
ENDBRANCH   3   5
ENDBRANCH   1   3
BRANCH   1  14
HETATM   14  N5  UNL     1      21.550  89.760  75.249  1.00  0.00    -0.273 N 
ATOM     15  H5  UNL     1      22.106  89.618  76.092  1.00  0.00     0.189 HD
BRANCH  14  16
HETATM   16  N6  UNL     1      20.174  89.745  75.324  1.00  0.00    -0.274 N 
ATOM     17  H6  UNL     1      19.689  90.364  75.973  1.00  0.00     0.189 HD
BRANCH  16  18
HETATM   18  C4  UNL     1      19.440  88.864  74.495  1.00  0.00     0.188 C 
HETATM   19  S2  UNL     1      19.725  87.273  74.585  1.00  0.00    -0.039 SA
BRANCH  18  20
HETATM   20  N7  UNL     1      18.476  89.369  73.609  1.00  0.00    -0.338 N 
ATOM     21  H7  UNL     1      18.543  90.343  73.313  1.00  0.00     0.164 HD
BRANCH  20  22
HETATM   22  C5  UNL     1      17.399  88.567  73.105  1.00  0.00     0.246 A 
HETATM   23  C6  UNL     1      16.256  89.098  72.470  1.00  0.00     0.224 A 
HETATM   24  O1  UNL     1      16.108  88.686  73.795  1.00  0.00    -0.360 OA
ENDBRANCH  20  22
ENDBRANCH  18  20
ENDBRANCH  16  18
ENDBRANCH  14  16
ENDBRANCH   1  14
TORSDOF 9
ENDMDL
MODEL 2
REMARK VINA RESULT: -6.713446328      1.472      1.552
REMARK  9 active torsions:
REMARK  status: ('A' for Active; 'I' for Inactive)
REMARK    1  A    between atoms: C2_2  and  N3_8 
REMARK    2  A    between atoms: N1_3  and  N2_5 
REMARK    3  A    between atoms: N3_8  and  N4_10 
REMARK    4  A    between atoms: N4_10  and  C3_12 
REMARK    5  A    between atoms: C3_12  and  N5_14 
REMARK    6  A    between atoms: N5_14  and  N6_16 
REMARK    7  A    between atoms: N6_16  and  C4_18 
REMARK    8  A    between atoms: C4_18  and  N7_20 
REMARK    9  A    between atoms: N7_20  and  C5_22 
ROOT
HETATM    1  C3  UNL     1      22.326  89.652  73.771  1.00  0.00     0.205 C 
HETATM    2  S1  UNL     1      21.644  90.183  75.175  1.00  0.00    -0.038 SA
ENDROOT
BRANCH   1   3
HETATM    3  N4  UNL     1      23.329  90.434  73.120  1.00  0.00    -0.274 N 
ATOM      4  H4  UNL     1      23.596  91.352  73.475  1.00  0.00     0.189 HD
BRANCH   3   5
HETATM    5  N3  UNL     1      23.931  89.898  71.983  1.00  0.00    -0.286 N 
ATOM      6  H3  UNL     1      23.390  89.799  71.124  1.00  0.00     0.188 HD
BRANCH   5   7
HETATM    7  C2  UNL     1      25.289  89.487  72.012  1.00  0.00     0.106 C 
HETATM    8  C1  UNL     1      26.323  90.460  72.386  1.00  0.00     0.092 C 
HETATM    9  N1  UNL     1      25.586  88.252  71.704  1.00  0.00    -0.295 N 
ATOM     10  H1  UNL     1      26.557  87.943  71.721  1.00  0.00     0.187 HD
BRANCH   9  11
HETATM   11  N2  UNL     1      24.575  87.353  71.351  1.00  0.00    -0.344 N 
ATOM     12  H22 UNL     1      23.606  87.671  71.362  1.00  0.00     0.176 HD
ATOM     13  H21 UNL     1      24.809  86.396  71.086  1.00  0.00     0.176 HD
ENDBRANCH   9  11
ENDBRANCH   5   7
ENDBRANCH   3   5
ENDBRANCH   1   3
BRANCH   1  14
HETATM   14  N5  UNL     1      21.881  88.414  73.256  1.00  0.00    -0.273 N 
ATOM     15  H5  UNL     1      22.304  87.546  73.584  1.00  0.00     0.189 HD
BRANCH  14  16
HETATM   16  N6  UNL     1      20.878  88.373  72.311  1.00  0.00    -0.274 N 
ATOM     17  H6  UNL     1      21.081  88.593  71.336  1.00  0.00     0.189 HD
BRANCH  16  18
HETATM   18  C4  UNL     1      19.564  88.025  72.705  1.00  0.00     0.188 C 
HETATM   19  S2  UNL     1      19.347  86.782  73.720  1.00  0.00    -0.039 SA
BRANCH  18  20
HETATM   20  N7  UNL     1      18.466  88.752  72.220  1.00  0.00    -0.338 N 
ATOM     21  H7  UNL     1      18.420  88.965  71.223  1.00  0.00     0.164 HD
BRANCH  20  22
HETATM   22  C5  UNL     1      17.408  89.208  73.073  1.00  0.00     0.246 A 
HETATM   23  C6  UNL     1      16.089  88.709  73.022  1.00  0.00     0.224 A 
HETATM   24  O1  UNL     1      16.317  89.954  72.432  1.00  0.00    -0.360 OA
ENDBRANCH  20  22
ENDBRANCH  18  20
ENDBRANCH  16  18
ENDBRANCH  14  16
ENDBRANCH   1  14
TORSDOF 9
ENDMDL
MODEL 3
REMARK VINA RESULT: -6.547570552      2.613      5.635
REMARK  9 active torsions:
REMARK  status: ('A' for Active; 'I' for Inactive)
REMARK    1  A    between atoms: C2_2  and  N3_8 
REMARK    2  A    between atoms: N1_3  and  N2_5 
REMARK    3  A    between atoms: N3_8  and  N4_10 
REMARK    4  A    between atoms: N4_10  and  C3_12 
REMARK    5  A    between atoms: C3_12  and  N5_14 
REMARK    6  A    between atoms: N5_14  and  N6_16 
REMARK    7  A    between atoms: N6_16  and  C4_18 
REMARK    8  A    between atoms: C4_18  and  N7_20 
REMARK    9  A    between atoms: N7_20  and  C5_22 
ROOT
HETATM    1  C3  UNL     1      20.175  88.193  74.563  1.00  0.00     0.205 C 
HETATM    2  S1  UNL     1      20.559  87.598  76.052  1.00  0.00    -0.038 SA
ENDROOT
BRANCH   1   3
HETATM    3  N4  UNL     1      19.055  89.067  74.406  1.00  0.00    -0.274 N 
ATOM      4  H4  UNL     1      18.522  89.392  75.213  1.00  0.00     0.189 HD
BRANCH   3   5
HETATM    5  N3  UNL     1      18.717  89.459  73.113  1.00  0.00    -0.286 N 
ATOM      6  H3  UNL     1      19.264  90.181  72.644  1.00  0.00     0.188 HD
BRANCH   5   7
HETATM    7  C2  UNL     1      17.618  88.862  72.443  1.00  0.00     0.106 C 
HETATM    8  C1  UNL     1      16.295  88.880  73.080  1.00  0.00     0.092 C 
HETATM    9  N1  UNL     1      17.811  88.309  71.274  1.00  0.00    -0.295 N 
ATOM     10  H1  UNL     1      17.030  87.877  70.780  1.00  0.00     0.187 HD
BRANCH   9  11
HETATM   11  N2  UNL     1      19.084  88.310  70.697  1.00  0.00    -0.344 N 
ATOM     12  H22 UNL     1      19.792  88.944  71.067  1.00  0.00     0.176 HD
ATOM     13  H21 UNL     1      19.295  87.684  69.920  1.00  0.00     0.176 HD
ENDBRANCH   9  11
ENDBRANCH   5   7
ENDBRANCH   3   5
ENDBRANCH   1   3
BRANCH   1  14
HETATM   14  N5  UNL     1      20.989  87.806  73.476  1.00  0.00    -0.273 N 
ATOM     15  H5  UNL     1      20.560  87.439  72.626  1.00  0.00     0.189 HD
BRANCH  14  16
HETATM   16  N6  UNL     1      22.360  87.923  73.556  1.00  0.00    -0.274 N 
ATOM     17  H6  UNL     1      22.863  87.532  74.353  1.00  0.00     0.189 HD
BRANCH  16  18
HETATM   18  C4  UNL     1      23.064  88.589  72.525  1.00  0.00     0.188 C 
HETATM   19  S2  UNL     1      24.463  87.969  71.996  1.00  0.00    -0.039 SA
BRANCH  18  20
HETATM   20  N7  UNL     1      22.551  89.772  71.972  1.00  0.00    -0.338 N 
ATOM     21  H7  UNL     1      22.229  89.762  71.004  1.00  0.00     0.164 HD
BRANCH  20  22
HETATM   22  C5  UNL     1      22.463  90.994  72.716  1.00  0.00     0.246 A 
HETATM   23  C6  UNL     1      22.707  91.087  74.103  1.00  0.00     0.224 A 
HETATM   24  O1  UNL     1      21.372  91.094  73.695  1.00  0.00    -0.360 OA
ENDBRANCH  20  22
ENDBRANCH  18  20
ENDBRANCH  16  18
ENDBRANCH  14  16
ENDBRANCH   1  14
TORSDOF 9
ENDMDL
MODEL 4
REMARK VINA RESULT: -6.414010763      1.514      1.833
REMARK  9 active torsions:
REMARK  status: ('A' for Active; 'I' for Inactive)
REMARK    1  A    between atoms: C2_2  and  N3_8 
REMARK    2  A    between atoms: N1_3  and  N2_5 
REMARK    3  A    between atoms: N3_8  and  N4_10 
REMARK    4  A    between atoms: N4_10  and  C3_12 
REMARK    5  A    between atoms: C3_12  and  N5_14 
REMARK    6  A    between atoms: N5_14  and  N6_16 
REMARK    7  A    between atoms: N6_16  and  C4_18 
REMARK    8  A    between atoms: C4_18  and  N7_20 
REMARK    9  A    between atoms: N7_20  and  C5_22 
ROOT
HETATM    1  C3  UNL     1      21.922  89.442  73.160  1.00  0.00     0.205 C 
HETATM    2  S1  UNL     1      21.759  90.838  74.021  1.00  0.00    -0.038 SA
ENDROOT
BRANCH   1   3
HETATM    3  N4  UNL     1      22.443  89.476  71.829  1.00  0.00    -0.274 N 
ATOM      4  H4  UNL     1      21.836  89.339  71.021  1.00  0.00     0.189 HD
BRANCH   3   5
HETATM    5  N3  UNL     1      23.809  89.703  71.675  1.00  0.00    -0.286 N 
ATOM      6  H3  UNL     1      24.142  90.634  71.427  1.00  0.00     0.188 HD
BRANCH   5   7
HETATM    7  C2  UNL     1      24.740  88.648  71.861  1.00  0.00     0.106 C 
HETATM    8  C1  UNL     1      24.294  87.260  71.685  1.00  0.00     0.092 C 
HETATM    9  N1  UNL     1      25.973  88.938  72.183  1.00  0.00    -0.295 N 
ATOM     10  H1  UNL     1      26.653  88.191  72.319  1.00  0.00     0.187 HD
BRANCH   9  11
HETATM   11  N2  UNL     1      26.363  90.271  72.343  1.00  0.00    -0.344 N 
ATOM     12  H22 UNL     1      25.649  90.974  72.533  1.00  0.00     0.176 HD
ATOM     13  H21 UNL     1      27.347  90.530  72.270  1.00  0.00     0.176 HD
ENDBRANCH   9  11
ENDBRANCH   5   7
ENDBRANCH   3   5
ENDBRANCH   1   3
BRANCH   1  14
HETATM   14  N5  UNL     1      21.533  88.238  73.788  1.00  0.00    -0.273 N 
ATOM     15  H5  UNL     1      22.201  87.728  74.365  1.00  0.00     0.189 HD
BRANCH  14  16
HETATM   16  N6  UNL     1      20.254  87.750  73.625  1.00  0.00    -0.274 N 
ATOM     17  H6  UNL     1      20.010  87.220  72.788  1.00  0.00     0.189 HD
BRANCH  16  18
HETATM   18  C4  UNL     1      19.284  87.989  74.626  1.00  0.00     0.188 C 
HETATM   19  S2  UNL     1      19.755  88.113  76.170  1.00  0.00    -0.039 SA
BRANCH  18  20
HETATM   20  N7  UNL     1      17.930  88.120  74.279  1.00  0.00    -0.338 N 
ATOM     21  H7  UNL     1      17.229  88.109  75.020  1.00  0.00     0.164 HD
BRANCH  20  22
HETATM   22  C5  UNL     1      17.496  88.267  72.920  1.00  0.00     0.246 A 
HETATM   23  C6  UNL     1      16.518  89.197  72.506  1.00  0.00     0.224 A 
HETATM   24  O1  UNL     1      16.114  87.865  72.621  1.00  0.00    -0.360 OA
ENDBRANCH  20  22
ENDBRANCH  18  20
ENDBRANCH  16  18
ENDBRANCH  14  16
ENDBRANCH   1  14
TORSDOF 9
ENDMDL
MODEL 5
REMARK VINA RESULT: -6.411186064      2.240      4.148
REMARK  9 active torsions:
REMARK  status: ('A' for Active; 'I' for Inactive)
REMARK    1  A    between atoms: C2_2  and  N3_8 
REMARK    2  A    between atoms: N1_3  and  N2_5 
REMARK    3  A    between atoms: N3_8  and  N4_10 
REMARK    4  A    between atoms: N4_10  and  C3_12 
REMARK    5  A    between atoms: C3_12  and  N5_14 
REMARK    6  A    between atoms: N5_14  and  N6_16 
REMARK    7  A    between atoms: N6_16  and  C4_18 
REMARK    8  A    between atoms: C4_18  and  N7_20 
REMARK    9  A    between atoms: N7_20  and  C5_22 
ROOT
HETATM    1  C3  UNL     1      22.029  89.782  73.987  1.00  0.00     0.205 C 
HETATM    2  S1  UNL     1      22.577  91.092  73.150  1.00  0.00    -0.038 SA
ENDROOT
BRANCH   1   3
HETATM    3  N4  UNL     1      21.772  89.883  75.390  1.00  0.00    -0.274 N 
ATOM      4  H4  UNL     1      22.402  90.397  76.006  1.00  0.00     0.189 HD
BRANCH   3   5
HETATM    5  N3  UNL     1      20.632  89.255  75.885  1.00  0.00    -0.286 N 
ATOM      6  H3  UNL     1      19.710  89.633  75.668  1.00  0.00     0.188 HD
BRANCH   5   7
HETATM    7  C2  UNL     1      20.743  88.092  76.691  1.00  0.00     0.106 C 
HETATM    8  C1  UNL     1      22.074  87.629  77.101  1.00  0.00     0.092 C 
HETATM    9  N1  UNL     1      19.655  87.461  77.048  1.00  0.00    -0.295 N 
ATOM     10  H1  UNL     1      19.720  86.624  77.628  1.00  0.00     0.187 HD
BRANCH   9  11
HETATM   11  N2  UNL     1      18.404  87.929  76.639  1.00  0.00    -0.344 N 
ATOM     12  H22 UNL     1      18.338  88.473  75.779  1.00  0.00     0.176 HD
ATOM     13  H21 UNL     1      17.573  87.727  77.195  1.00  0.00     0.176 HD
ENDBRANCH   9  11
ENDBRANCH   5   7
ENDBRANCH   3   5
ENDBRANCH   1   3
BRANCH   1  14
HETATM   14  N5  UNL     1      21.828  88.584  73.267  1.00  0.00    -0.273 N 
ATOM     15  H5  UNL     1      22.386  87.759  73.490  1.00  0.00     0.189 HD
BRANCH  14  16
HETATM   16  N6  UNL     1      20.883  88.522  72.266  1.00  0.00    -0.274 N 
ATOM     17  H6  UNL     1      21.122  88.807  71.316  1.00  0.00     0.189 HD
BRANCH  16  18
HETATM   18  C4  UNL     1      19.579  88.062  72.566  1.00  0.00     0.188 C 
HETATM   19  S2  UNL     1      19.400  86.690  73.408  1.00  0.00    -0.039 SA
BRANCH  18  20
HETATM   20  N7  UNL     1      18.458  88.790  72.139  1.00  0.00    -0.338 N 
ATOM     21  H7  UNL     1      18.369  89.019  71.148  1.00  0.00     0.164 HD
BRANCH  20  22
HETATM   22  C5  UNL     1      17.434  89.226  73.043  1.00  0.00     0.246 A 
HETATM   23  C6  UNL     1      16.115  88.725  73.034  1.00  0.00     0.224 A 
HETATM   24  O1  UNL     1      16.316  89.981  72.460  1.00  0.00    -0.360 OA
ENDBRANCH  20  22
ENDBRANCH  18  20
ENDBRANCH  16  18
ENDBRANCH  14  16
ENDBRANCH   1  14
TORSDOF 9
ENDMDL
