MODEL 1
REMARK VINA RESULT: -9.099672069      0.000      0.000
REMARK  8 active torsions:
REMARK  status: ('A' for Active; 'I' for Inactive)
REMARK    1  A    between atoms: C1_2  and  N1_3 
REMARK    2  A    between atoms: C1_2  and  C11_21 
REMARK    3  A    between atoms: N1_3  and  C2_5 
REMARK    4  A    between atoms: C2_5  and  C3_6 
REMARK    5  A    between atoms: C3_6  and  C4_7 
REMARK    6  A    between atoms: C4_7  and  C5_8 
REMARK    7  A    between atoms: C5_8  and  N2_9 
REMARK    8  A    between atoms: N2_9  and  C6_11 
ROOT
HETATM    1  C2  UNL     1      16.035   7.561  19.231  1.00  0.00     0.120 C 
ENDROOT
BRANCH   1   2
HETATM    2  N1  UNL     1      16.359   6.546  20.244  1.00  0.00    -0.384 N 
ATOM      3  H1  UNL     1      17.184   5.957  20.131  1.00  0.00     0.160 HD
BRANCH   2   4
HETATM    4  C1  UNL     1      15.530   6.389  21.371  1.00  0.00     0.082 C 
HETATM    5  S1  UNL     1      15.652   7.385  22.645  1.00  0.00    -0.065 SA
BRANCH   4   6
HETATM    6  C11 UNL     1      14.482   5.316  21.425  1.00  0.00     0.014 C 
HETATM    7  C12 UNL     1      14.993   4.194  20.544  1.00  0.00     0.021 C 
HETATM    8  C13 UNL     1      13.947   3.096  20.514  1.00  0.00    -0.013 C 
HETATM    9  C14 UNL     1      13.786   2.584  21.915  1.00  0.00     0.009 C 
HETATM   10  C18 UNL     1      12.684   3.697  19.961  1.00  0.00     0.009 C 
HETATM   11  C15 UNL     1      13.266   3.708  22.782  1.00  0.00    -0.013 C 
HETATM   12  C16 UNL     1      11.960   4.225  22.263  1.00  0.00     0.009 C 
HETATM   13  C20 UNL     1      14.313   4.788  22.822  1.00  0.00     0.021 C 
HETATM   14  C17 UNL     1      12.149   4.772  20.872  1.00  0.00    -0.013 C 
HETATM   15  C19 UNL     1      13.186   5.873  20.950  1.00  0.00     0.021 C 
ENDBRANCH   4   6
ENDBRANCH   2   4
ENDBRANCH   1   2
BRANCH   1  16
HETATM   16  C3  UNL     1      16.818   8.807  19.459  1.00  0.00     0.021 C 
BRANCH  16  17
HETATM   17  C4  UNL     1      17.245   9.509  18.221  1.00  0.00     0.022 C 
BRANCH  17  18
HETATM   18  C5  UNL     1      16.957   8.819  16.951  1.00  0.00     0.138 C 
BRANCH  18  19
HETATM   19  N2  UNL     1      17.977   8.820  15.943  1.00  0.00    -0.225 N 
ATOM     20  H2  UNL     1      18.399   7.930  15.676  1.00  0.00     0.177 HD
BRANCH  19  21
HETATM   21  C6  UNL     1      18.385   9.902  15.354  1.00  0.00     0.694 A 
HETATM   22  N3  UNL     1      19.496  10.560  15.720  1.00  0.00    -0.178 N 
HETATM   23  C7  UNL     1      19.656  11.637  14.933  1.00  0.00     0.114 A 
ATOM     24  H3  UNL     1      20.122  10.284  16.477  1.00  0.00     0.185 HD
HETATM   25  N4  UNL     1      18.638  11.661  14.063  1.00  0.00    -0.266 N 
HETATM   26  C10 UNL     1      20.571  12.787  14.712  1.00  0.00     0.080 C 
HETATM   27  N5  UNL     1      17.884  10.601  14.337  1.00  0.00    -0.129 N 
HETATM   28  C8  UNL     1      18.777  12.828  13.188  1.00  0.00     0.151 C 
ATOM     29  H5  UNL     1      17.032  10.355  13.834  1.00  0.00     0.206 HD
HETATM   30  C9  UNL     1      20.248  13.163  13.283  1.00  0.00     0.029 C 
ENDBRANCH  19  21
ENDBRANCH  18  19
ENDBRANCH  17  18
ENDBRANCH  16  17
ENDBRANCH   1  16
TORSDOF 8
ENDMDL
MODEL 2
REMARK VINA RESULT: -9.094004633      0.084      1.445
REMARK  8 active torsions:
REMARK  status: ('A' for Active; 'I' for Inactive)
REMARK    1  A    between atoms: C1_2  and  N1_3 
REMARK    2  A    between atoms: C1_2  and  C11_21 
REMARK    3  A    between atoms: N1_3  and  C2_5 
REMARK    4  A    between atoms: C2_5  and  C3_6 
REMARK    5  A    between atoms: C3_6  and  C4_7 
REMARK    6  A    between atoms: C4_7  and  C5_8 
REMARK    7  A    between atoms: C5_8  and  N2_9 
REMARK    8  A    between atoms: N2_9  and  C6_11 
ROOT
HETATM    1  C2  UNL     1      16.027   7.621  19.235  1.00  0.00     0.120 C 
ENDROOT
BRANCH   1   2
HETATM    2  N1  UNL     1      16.372   6.593  20.227  1.00  0.00    -0.384 N 
ATOM      3  H1  UNL     1      17.214   6.029  20.106  1.00  0.00     0.160 HD
BRANCH   2   4
HETATM    4  C1  UNL     1      15.541   6.388  21.344  1.00  0.00     0.082 C 
HETATM    5  S1  UNL     1      15.620   7.363  22.637  1.00  0.00    -0.065 SA
BRANCH   4   6
HETATM    6  C11 UNL     1      14.530   5.279  21.371  1.00  0.00     0.014 C 
HETATM    7  C12 UNL     1      13.255   5.868  20.801  1.00  0.00     0.021 C 
HETATM    8  C13 UNL     1      12.173   4.806  20.853  1.00  0.00    -0.013 C 
HETATM    9  C14 UNL     1      12.615   3.666  19.984  1.00  0.00     0.009 C 
HETATM   10  C18 UNL     1      12.000   4.413  22.295  1.00  0.00     0.009 C 
HETATM   11  C15 UNL     1      13.881   3.079  20.567  1.00  0.00    -0.013 C 
HETATM   12  C16 UNL     1      13.657   2.609  21.971  1.00  0.00     0.009 C 
HETATM   13  C20 UNL     1      14.955   4.130  20.501  1.00  0.00     0.021 C 
HETATM   14  C17 UNL     1      13.253   3.774  22.837  1.00  0.00    -0.013 C 
HETATM   15  C19 UNL     1      14.365   4.800  22.770  1.00  0.00     0.021 C 
ENDBRANCH   4   6
ENDBRANCH   2   4
ENDBRANCH   1   2
BRANCH   1  16
HETATM   16  C3  UNL     1      16.810   8.867  19.467  1.00  0.00     0.021 C 
BRANCH  16  17
HETATM   17  C4  UNL     1      17.244   9.569  18.231  1.00  0.00     0.022 C 
BRANCH  17  18
HETATM   18  C5  UNL     1      16.970   8.875  16.960  1.00  0.00     0.138 C 
BRANCH  18  19
HETATM   19  N2  UNL     1      18.002   8.871  15.965  1.00  0.00    -0.225 N 
ATOM     20  H2  UNL     1      18.436   7.982  15.716  1.00  0.00     0.177 HD
BRANCH  19  21
HETATM   21  C6  UNL     1      18.408   9.948  15.366  1.00  0.00     0.694 A 
HETATM   22  N3  UNL     1      19.546  10.582  15.690  1.00  0.00    -0.178 N 
HETATM   23  C7  UNL     1      19.695  11.661  14.904  1.00  0.00     0.114 A 
ATOM     24  H3  UNL     1      20.197  10.289  16.419  1.00  0.00     0.185 HD
HETATM   25  N4  UNL     1      18.644  11.711  14.076  1.00  0.00    -0.266 N 
HETATM   26  C10 UNL     1      20.623  12.794  14.652  1.00  0.00     0.080 C 
HETATM   27  N5  UNL     1      17.880  10.665  14.375  1.00  0.00    -0.129 N 
HETATM   28  C8  UNL     1      18.770  12.881  13.203  1.00  0.00     0.151 C 
ATOM     29  H5  UNL     1      17.003  10.439  13.905  1.00  0.00     0.206 HD
HETATM   30  C9  UNL     1      20.250  13.186  13.240  1.00  0.00     0.029 C 
ENDBRANCH  19  21
ENDBRANCH  18  19
ENDBRANCH  17  18
ENDBRANCH  16  17
ENDBRANCH   1  16
TORSDOF 8
ENDMDL
MODEL 3
REMARK VINA RESULT: -9.057267514      0.133      1.491
REMARK  8 active torsions:
REMARK  status: ('A' for Active; 'I' for Inactive)
REMARK    1  A    between atoms: C1_2  and  N1_3 
REMARK    2  A    between atoms: C1_2  and  C11_21 
REMARK    3  A    between atoms: N1_3  and  C2_5 
REMARK    4  A    between atoms: C2_5  and  C3_6 
REMARK    5  A    between atoms: C3_6  and  C4_7 
REMARK    6  A    between atoms: C4_7  and  C5_8 
REMARK    7  A    between atoms: C5_8  and  N2_9 
REMARK    8  A    between atoms: N2_9  and  C6_11 
ROOT
HETATM    1  C2  UNL     1      16.086   7.477  19.187  1.00  0.00     0.120 C 
ENDROOT
BRANCH   1   2
HETATM    2  N1  UNL     1      16.409   6.479  20.217  1.00  0.00    -0.384 N 
ATOM      3  H1  UNL     1      17.260   5.922  20.140  1.00  0.00     0.160 HD
BRANCH   2   4
HETATM    4  C1  UNL     1      15.542   6.293  21.311  1.00  0.00     0.082 C 
HETATM    5  S1  UNL     1      15.610   7.265  22.607  1.00  0.00    -0.065 SA
BRANCH   4   6
HETATM    6  C11 UNL     1      14.503   5.210  21.307  1.00  0.00     0.014 C 
HETATM    7  C12 UNL     1      14.267   4.859  22.763  1.00  0.00     0.021 C 
HETATM    8  C13 UNL     1      13.261   3.725  22.824  1.00  0.00    -0.013 C 
HETATM    9  C14 UNL     1      11.978   4.225  22.228  1.00  0.00     0.009 C 
HETATM   10  C18 UNL     1      13.847   2.565  22.066  1.00  0.00     0.009 C 
HETATM   11  C15 UNL     1      12.222   4.562  20.774  1.00  0.00    -0.013 C 
HETATM   12  C16 UNL     1      12.715   3.365  20.021  1.00  0.00     0.009 C 
HETATM   13  C20 UNL     1      13.209   5.696  20.719  1.00  0.00     0.021 C 
HETATM   14  C17 UNL     1      14.024   2.903  20.608  1.00  0.00    -0.013 C 
HETATM   15  C19 UNL     1      15.001   4.055  20.512  1.00  0.00     0.021 C 
ENDBRANCH   4   6
ENDBRANCH   2   4
ENDBRANCH   1   2
BRANCH   1  16
HETATM   16  C3  UNL     1      16.801   8.758  19.447  1.00  0.00     0.021 C 
BRANCH  16  17
HETATM   17  C4  UNL     1      17.252   9.478  18.228  1.00  0.00     0.022 C 
BRANCH  17  18
HETATM   18  C5  UNL     1      16.942   8.831  16.940  1.00  0.00     0.138 C 
BRANCH  18  19
HETATM   19  N2  UNL     1      17.962   8.826  15.932  1.00  0.00    -0.225 N 
ATOM     20  H2  UNL     1      18.384   7.935  15.670  1.00  0.00     0.177 HD
BRANCH  19  21
HETATM   21  C6  UNL     1      18.370   9.905  15.338  1.00  0.00     0.694 A 
HETATM   22  N3  UNL     1      19.486  10.561  15.695  1.00  0.00    -0.178 N 
HETATM   23  C7  UNL     1      19.644  11.635  14.904  1.00  0.00     0.114 A 
ATOM     24  H3  UNL     1      20.115  10.285  16.450  1.00  0.00     0.185 HD
HETATM   25  N4  UNL     1      18.622  11.659  14.040  1.00  0.00    -0.266 N 
HETATM   26  C10 UNL     1      20.561  12.782  14.675  1.00  0.00     0.080 C 
HETATM   27  N5  UNL     1      17.866  10.603  14.322  1.00  0.00    -0.129 N 
HETATM   28  C8  UNL     1      18.760  12.823  13.161  1.00  0.00     0.151 C 
ATOM     29  H5  UNL     1      17.010  10.358  13.824  1.00  0.00     0.206 HD
HETATM   30  C9  UNL     1      20.232  13.154  13.247  1.00  0.00     0.029 C 
ENDBRANCH  19  21
ENDBRANCH  18  19
ENDBRANCH  17  18
ENDBRANCH  16  17
ENDBRANCH   1  16
TORSDOF 8
ENDMDL
MODEL 4
REMARK VINA RESULT: -8.994356022      1.413      2.296
REMARK  8 active torsions:
REMARK  status: ('A' for Active; 'I' for Inactive)
REMARK    1  A    between atoms: C1_2  and  N1_3 
REMARK    2  A    between atoms: C1_2  and  C11_21 
REMARK    3  A    between atoms: N1_3  and  C2_5 
REMARK    4  A    between atoms: C2_5  and  C3_6 
REMARK    5  A    between atoms: C3_6  and  C4_7 
REMARK    6  A    between atoms: C4_7  and  C5_8 
REMARK    7  A    between atoms: C5_8  and  N2_9 
REMARK    8  A    between atoms: N2_9  and  C6_11 
ROOT
HETATM    1  C2  UNL     1      16.454   9.507  20.183  1.00  0.00     0.120 C 
ENDROOT
BRANCH   1   2
HETATM    2  N1  UNL     1      16.799   8.097  20.415  1.00  0.00    -0.384 N 
ATOM      3  H1  UNL     1      17.560   7.855  21.049  1.00  0.00     0.160 HD
BRANCH   2   4
HETATM    4  C1  UNL     1      16.077   7.081  19.761  1.00  0.00     0.082 C 
HETATM    5  S1  UNL     1      15.788   7.152  18.166  1.00  0.00    -0.065 SA
BRANCH   4   6
HETATM    6  C11 UNL     1      15.573   5.878  20.505  1.00  0.00     0.014 C 
HETATM    7  C12 UNL     1      15.594   6.261  21.972  1.00  0.00     0.021 C 
HETATM    8  C13 UNL     1      15.146   5.062  22.785  1.00  0.00    -0.013 C 
HETATM    9  C14 UNL     1      13.736   4.743  22.383  1.00  0.00     0.009 C 
HETATM   10  C18 UNL     1      16.106   3.941  22.496  1.00  0.00     0.009 C 
HETATM   11  C15 UNL     1      13.728   4.353  20.922  1.00  0.00    -0.013 C 
HETATM   12  C16 UNL     1      14.619   3.175  20.678  1.00  0.00     0.009 C 
HETATM   13  C20 UNL     1      14.159   5.549  20.119  1.00  0.00     0.021 C 
HETATM   14  C17 UNL     1      16.037   3.526  21.048  1.00  0.00    -0.013 C 
HETATM   15  C19 UNL     1      16.449   4.714  20.204  1.00  0.00     0.021 C 
ENDBRANCH   4   6
ENDBRANCH   2   4
ENDBRANCH   1   2
BRANCH   1  16
HETATM   16  C3  UNL     1      17.596  10.237  19.563  1.00  0.00     0.021 C 
BRANCH  16  17
HETATM   17  C4  UNL     1      17.486  10.432  18.094  1.00  0.00     0.022 C 
BRANCH  17  18
HETATM   18  C5  UNL     1      18.323   9.554  17.257  1.00  0.00     0.138 C 
BRANCH  18  19
HETATM   19  N2  UNL     1      18.134   9.605  15.837  1.00  0.00    -0.225 N 
ATOM     20  H2  UNL     1      17.647   8.833  15.382  1.00  0.00     0.177 HD
BRANCH  19  21
HETATM   21  C6  UNL     1      18.555  10.590  15.105  1.00  0.00     0.694 A 
HETATM   22  N3  UNL     1      19.715  11.227  15.330  1.00  0.00    -0.178 N 
HETATM   23  C7  UNL     1      19.876  12.198  14.416  1.00  0.00     0.114 A 
ATOM     24  H3  UNL     1      20.372  11.008  16.079  1.00  0.00     0.185 HD
HETATM   25  N4  UNL     1      18.810  12.176  13.606  1.00  0.00    -0.266 N 
HETATM   26  C10 UNL     1      20.826  13.267  14.013  1.00  0.00     0.080 C 
HETATM   27  N5  UNL     1      18.026  11.195  14.042  1.00  0.00    -0.129 N 
HETATM   28  C8  UNL     1      18.949  13.227  12.595  1.00  0.00     0.151 C 
ATOM     29  H5  UNL     1      17.135  10.937  13.618  1.00  0.00     0.206 HD
HETATM   30  C9  UNL     1      20.436  13.494  12.570  1.00  0.00     0.029 C 
ENDBRANCH  19  21
ENDBRANCH  18  19
ENDBRANCH  17  18
ENDBRANCH  16  17
ENDBRANCH   1  16
TORSDOF 8
ENDMDL
MODEL 5
REMARK VINA RESULT: -8.949107992      1.320      2.014
REMARK  8 active torsions:
REMARK  status: ('A' for Active; 'I' for Inactive)
REMARK    1  A    between atoms: C1_2  and  N1_3 
REMARK    2  A    between atoms: C1_2  and  C11_21 
REMARK    3  A    between atoms: N1_3  and  C2_5 
REMARK    4  A    between atoms: C2_5  and  C3_6 
REMARK    5  A    between atoms: C3_6  and  C4_7 
REMARK    6  A    between atoms: C4_7  and  C5_8 
REMARK    7  A    between atoms: C5_8  and  N2_9 
REMARK    8  A    between atoms: N2_9  and  C6_11 
ROOT
HETATM    1  C2  UNL     1      16.388   9.455  20.237  1.00  0.00     0.120 C 
ENDROOT
BRANCH   1   2
HETATM    2  N1  UNL     1      16.726   8.041  20.455  1.00  0.00    -0.384 N 
ATOM      3  H1  UNL     1      17.506   7.790  21.062  1.00  0.00     0.160 HD
BRANCH   2   4
HETATM    4  C1  UNL     1      15.971   7.034  19.825  1.00  0.00     0.082 C 
HETATM    5  S1  UNL     1      15.632   7.108  18.241  1.00  0.00    -0.065 SA
BRANCH   4   6
HETATM    6  C11 UNL     1      15.478   5.837  20.586  1.00  0.00     0.014 C 
HETATM    7  C12 UNL     1      14.078   5.567  20.069  1.00  0.00     0.021 C 
HETATM    8  C13 UNL     1      13.501   4.396  20.842  1.00  0.00    -0.013 C 
HETATM    9  C14 UNL     1      14.365   3.201  20.565  1.00  0.00     0.009 C 
HETATM   10  C18 UNL     1      13.485   4.784  22.295  1.00  0.00     0.009 C 
HETATM   11  C15 UNL     1      15.754   3.477  21.094  1.00  0.00    -0.013 C 
HETATM   12  C16 UNL     1      15.721   3.767  22.562  1.00  0.00     0.009 C 
HETATM   13  C20 UNL     1      16.328   4.628  20.315  1.00  0.00     0.021 C 
HETATM   14  C17 UNL     1      14.884   4.994  22.817  1.00  0.00    -0.013 C 
HETATM   15  C19 UNL     1      15.502   6.139  22.043  1.00  0.00     0.021 C 
ENDBRANCH   4   6
ENDBRANCH   2   4
ENDBRANCH   1   2
BRANCH   1  16
HETATM   16  C3  UNL     1      17.508  10.170  19.563  1.00  0.00     0.021 C 
BRANCH  16  17
HETATM   17  C4  UNL     1      17.395  10.247  18.083  1.00  0.00     0.022 C 
BRANCH  17  18
HETATM   18  C5  UNL     1      18.198   9.275  17.319  1.00  0.00     0.138 C 
BRANCH  18  19
HETATM   19  N2  UNL     1      18.125   9.325  15.888  1.00  0.00    -0.225 N 
ATOM     20  H2  UNL     1      17.752   8.517  15.390  1.00  0.00     0.177 HD
BRANCH  19  21
HETATM   21  C6  UNL     1      18.513  10.354  15.198  1.00  0.00     0.694 A 
HETATM   22  N3  UNL     1      19.662  11.005  15.436  1.00  0.00    -0.178 N 
HETATM   23  C7  UNL     1      19.787  12.022  14.567  1.00  0.00     0.114 A 
ATOM     24  H3  UNL     1      20.336  10.764  16.163  1.00  0.00     0.185 HD
HETATM   25  N4  UNL     1      18.708  12.015  13.774  1.00  0.00    -0.266 N 
HETATM   26  C10 UNL     1      20.708  13.130  14.202  1.00  0.00     0.080 C 
HETATM   27  N5  UNL     1      17.953  10.997  14.174  1.00  0.00    -0.129 N 
HETATM   28  C8  UNL     1      18.807  13.117  12.813  1.00  0.00     0.151 C 
ATOM     29  H5  UNL     1      17.061  10.741  13.752  1.00  0.00     0.206 HD
HETATM   30  C9  UNL     1      20.288  13.418  12.778  1.00  0.00     0.029 C 
ENDBRANCH  19  21
ENDBRANCH  18  19
ENDBRANCH  17  18
ENDBRANCH  16  17
ENDBRANCH   1  16
TORSDOF 8
ENDMDL
