MODEL 1
REMARK VINA RESULT: -7.551687076      0.000      0.000
REMARK  2 active torsions:
REMARK  status: ('A' for Active; 'I' for Inactive)
REMARK    1  A    between atoms: C2_2  and  C4_5 
REMARK       I    between atoms: C4_5  and  N1_7 
REMARK    2  A    between atoms: C10_14  and  N2_15 
ROOT
HETATM    1  C4  UNL     1      17.678  -4.136  -3.468  1.00  0.00     0.259 C 
HETATM    2  O1  UNL     1      17.522  -4.170  -2.199  1.00  0.00    -0.270 OA
HETATM    3  N1  UNL     1      16.588  -3.670  -4.237  1.00  0.00    -0.347 N 
HETATM    4  C5  UNL     1      15.361  -3.261  -3.517  1.00  0.00     0.126 C 
HETATM    5  C6  UNL     1      15.720  -2.067  -2.709  1.00  0.00     0.020 C 
HETATM    6  C7  UNL     1      14.580  -1.043  -2.584  1.00  0.00     0.009 C 
HETATM    7  C8  UNL     1      13.349  -1.739  -2.255  1.00  0.00     0.087 C 
HETATM    8  C9  UNL     1      12.048  -1.149  -2.589  1.00  0.00     0.192 C 
HETATM    9  O2  UNL     1      11.113  -1.825  -1.998  1.00  0.00    -0.289 OA
HETATM   10  C10 UNL     1      11.695  -0.017  -3.413  1.00  0.00     0.141 C 
HETATM   11  N3  UNL     1      12.100   0.304  -4.730  1.00  0.00    -0.374 N 
ATOM     12  H3  UNL     1      12.080   1.290  -4.994  1.00  0.00     0.161 HD
HETATM   13  C11 UNL     1      12.543  -0.638  -5.741  1.00  0.00     0.123 C 
HETATM   14  C12 UNL     1      11.546  -0.793  -6.845  1.00  0.00     0.046 C 
HETATM   15  C13 UNL     1      12.217  -1.323  -8.102  1.00  0.00     0.169 C 
HETATM   16  O3  UNL     1      12.325  -2.700  -8.114  1.00  0.00    -0.389 OA
HETATM   17  C14 UNL     1      13.413  -3.184  -7.417  1.00  0.00     0.193 C 
HETATM   18  C15 UNL     1      14.221  -4.215  -8.163  1.00  0.00     0.193 C 
HETATM   19  O4  UNL     1      15.536  -4.138  -7.671  1.00  0.00    -0.387 OA
HETATM   20  C16 UNL     1      15.647  -4.514  -6.358  1.00  0.00     0.187 C 
HETATM   21  C17 UNL     1      16.636  -3.587  -5.676  1.00  0.00     0.152 C 
ENDROOT
BRANCH   1  22
HETATM   22  C2  UNL     1      18.977  -4.584  -3.992  1.00  0.00     0.176 C 
HETATM   23  C1  UNL     1      19.815  -3.358  -4.369  1.00  0.00     0.062 C 
HETATM   24  C3  UNL     1      19.787  -5.321  -2.933  1.00  0.00     0.062 C 
HETATM   25  F1  UNL     1      18.861  -5.331  -5.151  1.00  0.00    -0.233 F 
ENDBRANCH   1  22
BRANCH  10  26
HETATM   26  N2  UNL     1      10.880   0.838  -2.872  1.00  0.00    -0.383 N 
ATOM     27  H22 UNL     1      10.945   0.905  -1.856  1.00  0.00     0.157 HD
ATOM     28  H21 UNL     1      10.275   1.341  -3.522  1.00  0.00     0.157 HD
ENDBRANCH  10  26
TORSDOF 2
ENDMDL
MODEL 2
REMARK VINA RESULT: -7.188356781      0.953      1.122
REMARK  2 active torsions:
REMARK  status: ('A' for Active; 'I' for Inactive)
REMARK    1  A    between atoms: C2_2  and  C4_5 
REMARK       I    between atoms: C4_5  and  N1_7 
REMARK    2  A    between atoms: C10_14  and  N2_15 
ROOT
HETATM    1  C4  UNL     1      18.047  -4.086  -3.248  1.00  0.00     0.259 C 
HETATM    2  O1  UNL     1      17.820  -4.417  -2.034  1.00  0.00    -0.270 OA
HETATM    3  N1  UNL     1      16.965  -3.548  -3.981  1.00  0.00    -0.347 N 
HETATM    4  C5  UNL     1      15.664  -3.411  -3.288  1.00  0.00     0.126 C 
HETATM    5  C6  UNL     1      15.858  -2.405  -2.213  1.00  0.00     0.020 C 
HETATM    6  C7  UNL     1      14.620  -1.530  -1.958  1.00  0.00     0.009 C 
HETATM    7  C8  UNL     1      13.444  -2.379  -1.888  1.00  0.00     0.087 C 
HETATM    8  C9  UNL     1      12.114  -1.835  -2.187  1.00  0.00     0.192 C 
HETATM    9  O2  UNL     1      11.215  -2.698  -1.835  1.00  0.00    -0.289 OA
HETATM   10  C10 UNL     1      11.704  -0.578  -2.769  1.00  0.00     0.141 C 
HETATM   11  N3  UNL     1      12.155   0.063  -3.946  1.00  0.00    -0.374 N 
ATOM     12  H3  UNL     1      12.056   1.078  -3.988  1.00  0.00     0.161 HD
HETATM   13  C11 UNL     1      12.746  -0.589  -5.101  1.00  0.00     0.123 C 
HETATM   14  C12 UNL     1      11.836  -0.570  -6.287  1.00  0.00     0.046 C 
HETATM   15  C13 UNL     1      12.629  -0.747  -7.573  1.00  0.00     0.169 C 
HETATM   16  O3  UNL     1      12.868  -2.073  -7.877  1.00  0.00    -0.389 OA
HETATM   17  C14 UNL     1      13.954  -2.613  -7.219  1.00  0.00     0.193 C 
HETATM   18  C15 UNL     1      14.901  -3.382  -8.106  1.00  0.00     0.193 C 
HETATM   19  O4  UNL     1      16.170  -3.313  -7.506  1.00  0.00    -0.387 OA
HETATM   20  C16 UNL     1      16.238  -3.964  -6.303  1.00  0.00     0.187 C 
HETATM   21  C17 UNL     1      17.091  -3.139  -5.358  1.00  0.00     0.152 C 
ENDROOT
BRANCH   1  22
HETATM   22  C2  UNL     1      19.412  -4.299  -3.753  1.00  0.00     0.176 C 
HETATM   23  C1  UNL     1      20.211  -5.093  -2.713  1.00  0.00     0.062 C 
HETATM   24  C3  UNL     1      19.420  -5.156  -5.012  1.00  0.00     0.062 C 
HETATM   25  F1  UNL     1      20.107  -3.118  -3.940  1.00  0.00    -0.233 F 
ENDBRANCH   1  22
BRANCH  10  26
HETATM   26  N2  UNL     1      10.780   0.065  -2.120  1.00  0.00    -0.383 N 
ATOM     27  H22 UNL     1      10.505  -0.362  -1.235  1.00  0.00     0.157 HD
ATOM     28  H21 UNL     1      10.442   0.917  -2.567  1.00  0.00     0.157 HD
ENDBRANCH  10  26
TORSDOF 2
ENDMDL
MODEL 3
REMARK VINA RESULT: -6.982354147      3.090      6.366
REMARK  2 active torsions:
REMARK  status: ('A' for Active; 'I' for Inactive)
REMARK    1  A    between atoms: C2_2  and  C4_5 
REMARK       I    between atoms: C4_5  and  N1_7 
REMARK    2  A    between atoms: C10_14  and  N2_15 
ROOT
HETATM    1  C4  UNL     1      12.491  -2.204  -2.639  1.00  0.00     0.259 C 
HETATM    2  O1  UNL     1      11.403  -2.298  -3.305  1.00  0.00    -0.270 OA
HETATM    3  N1  UNL     1      13.699  -2.243  -3.371  1.00  0.00    -0.347 N 
HETATM    4  C5  UNL     1      13.609  -2.388  -4.841  1.00  0.00     0.126 C 
HETATM    5  C6  UNL     1      12.961  -1.154  -5.353  1.00  0.00     0.020 C 
HETATM    6  C7  UNL     1      13.487  -0.706  -6.726  1.00  0.00     0.009 C 
HETATM    7  C8  UNL     1      13.546  -1.857  -7.611  1.00  0.00     0.087 C 
HETATM    8  C9  UNL     1      14.468  -1.871  -8.752  1.00  0.00     0.192 C 
HETATM    9  O2  UNL     1      14.180  -2.877  -9.516  1.00  0.00    -0.289 OA
HETATM   10  C10 UNL     1      15.559  -0.995  -9.111  1.00  0.00     0.141 C 
HETATM   11  N3  UNL     1      16.644  -0.535  -8.330  1.00  0.00    -0.374 N 
ATOM     12  H3  UNL     1      17.072   0.350  -8.605  1.00  0.00     0.161 HD
HETATM   13  C11 UNL     1      17.206  -1.204  -7.170  1.00  0.00     0.123 C 
HETATM   14  C12 UNL     1      18.563  -1.767  -7.445  1.00  0.00     0.046 C 
HETATM   15  C13 UNL     1      19.334  -1.965  -6.150  1.00  0.00     0.169 C 
HETATM   16  O3  UNL     1      19.047  -3.169  -5.534  1.00  0.00    -0.389 OA
HETATM   17  C14 UNL     1      17.902  -3.147  -4.765  1.00  0.00     0.193 C 
HETATM   18  C15 UNL     1      18.064  -3.742  -3.389  1.00  0.00     0.193 C 
HETATM   19  O4  UNL     1      17.118  -3.116  -2.559  1.00  0.00    -0.387 OA
HETATM   20  C16 UNL     1      15.823  -3.408  -2.897  1.00  0.00     0.187 C 
HETATM   21  C17 UNL     1      14.991  -2.149  -2.738  1.00  0.00     0.152 C 
ENDROOT
BRANCH   1  22
HETATM   22  C2  UNL     1      12.368  -2.063  -1.179  1.00  0.00     0.176 C 
HETATM   23  C1  UNL     1      11.144  -1.197  -0.862  1.00  0.00     0.062 C 
HETATM   24  C3  UNL     1      12.106  -3.402  -0.505  1.00  0.00     0.062 C 
HETATM   25  F1  UNL     1      13.448  -1.412  -0.609  1.00  0.00    -0.233 F 
ENDBRANCH   1  22
BRANCH  10  26
HETATM   26  N2  UNL     1      15.550  -0.563 -10.337  1.00  0.00    -0.383 N 
ATOM     27  H22 UNL     1      14.663  -0.684 -10.825  1.00  0.00     0.157 HD
ATOM     28  H21 UNL     1      16.425  -0.154 -10.665  1.00  0.00     0.157 HD
ENDBRANCH  10  26
TORSDOF 2
ENDMDL
MODEL 4
REMARK VINA RESULT: -6.892033194      1.187      1.247
REMARK  2 active torsions:
REMARK  status: ('A' for Active; 'I' for Inactive)
REMARK    1  A    between atoms: C2_2  and  C4_5 
REMARK       I    between atoms: C4_5  and  N1_7 
REMARK    2  A    between atoms: C10_14  and  N2_15 
ROOT
HETATM    1  C4  UNL     1      17.552  -3.589  -3.717  1.00  0.00     0.259 C 
HETATM    2  O1  UNL     1      17.163  -3.726  -2.507  1.00  0.00    -0.270 OA
HETATM    3  N1  UNL     1      16.584  -3.185  -4.663  1.00  0.00    -0.347 N 
HETATM    4  C5  UNL     1      15.204  -2.952  -4.179  1.00  0.00     0.126 C 
HETATM    5  C6  UNL     1      15.264  -1.787  -3.260  1.00  0.00     0.020 C 
HETATM    6  C7  UNL     1      14.013  -0.895  -3.314  1.00  0.00     0.009 C 
HETATM    7  C8  UNL     1      12.829  -1.735  -3.267  1.00  0.00     0.087 C 
HETATM    8  C9  UNL     1      11.557  -1.258  -3.822  1.00  0.00     0.192 C 
HETATM    9  O2  UNL     1      10.609  -2.064  -3.461  1.00  0.00    -0.289 OA
HETATM   10  C10 UNL     1      11.242  -0.113  -4.645  1.00  0.00     0.141 C 
HETATM   11  N3  UNL     1      11.852   0.338  -5.839  1.00  0.00    -0.374 N 
ATOM     12  H3  UNL     1      11.771   1.332  -6.053  1.00  0.00     0.161 HD
HETATM   13  C11 UNL     1      12.584  -0.483  -6.787  1.00  0.00     0.123 C 
HETATM   14  C12 UNL     1      11.840  -0.661  -8.071  1.00  0.00     0.046 C 
HETATM   15  C13 UNL     1      12.794  -1.031  -9.196  1.00  0.00     0.169 C 
HETATM   16  O3  UNL     1      13.057  -2.386  -9.252  1.00  0.00    -0.389 OA
HETATM   17  C14 UNL     1      14.039  -2.804  -8.378  1.00  0.00     0.193 C 
HETATM   18  C15 UNL     1      15.087  -3.694  -8.999  1.00  0.00     0.193 C 
HETATM   19  O4  UNL     1      16.266  -3.518  -8.254  1.00  0.00    -0.387 OA
HETATM   20  C16 UNL     1      16.166  -3.970  -6.965  1.00  0.00     0.187 C 
HETATM   21  C17 UNL     1      16.896  -2.997  -6.058  1.00  0.00     0.152 C 
ENDROOT
BRANCH   1  22
HETATM   22  C2  UNL     1      18.970  -3.866  -3.995  1.00  0.00     0.176 C 
HETATM   23  C1  UNL     1      19.765  -3.766  -2.689  1.00  0.00     0.062 C 
HETATM   24  C3  UNL     1      19.179  -5.291  -4.490  1.00  0.00     0.062 C 
HETATM   25  F1  UNL     1      19.540  -2.943  -4.854  1.00  0.00    -0.233 F 
ENDBRANCH   1  22
BRANCH  10  26
HETATM   26  N2  UNL     1      10.247   0.615  -4.235  1.00  0.00    -0.383 N 
ATOM     27  H22 UNL     1       9.338   0.155  -4.274  1.00  0.00     0.157 HD
ATOM     28  H21 UNL     1      10.491   1.555  -3.920  1.00  0.00     0.157 HD
ENDBRANCH  10  26
TORSDOF 2
ENDMDL
MODEL 5
REMARK VINA RESULT: -6.721497940      1.714      1.980
REMARK  2 active torsions:
REMARK  status: ('A' for Active; 'I' for Inactive)
REMARK    1  A    between atoms: C2_2  and  C4_5 
REMARK       I    between atoms: C4_5  and  N1_7 
REMARK    2  A    between atoms: C10_14  and  N2_15 
ROOT
HETATM    1  C4  UNL     1      16.577  -2.992  -2.238  1.00  0.00     0.259 C 
HETATM    2  O1  UNL     1      15.918  -2.885  -1.147  1.00  0.00    -0.270 OA
HETATM    3  N1  UNL     1      15.849  -2.883  -3.444  1.00  0.00    -0.347 N 
HETATM    4  C5  UNL     1      14.390  -2.654  -3.348  1.00  0.00     0.126 C 
HETATM    5  C6  UNL     1      14.208  -1.312  -2.739  1.00  0.00     0.020 C 
HETATM    6  C7  UNL     1      12.986  -0.551  -3.278  1.00  0.00     0.009 C 
HETATM    7  C8  UNL     1      11.841  -1.445  -3.301  1.00  0.00     0.087 C 
HETATM    8  C9  UNL     1      10.725  -1.202  -4.222  1.00  0.00     0.192 C 
HETATM    9  O2  UNL     1       9.737  -1.976  -3.903  1.00  0.00    -0.289 OA
HETATM   10  C10 UNL     1      10.587  -0.296  -5.339  1.00  0.00     0.141 C 
HETATM   11  N3  UNL     1      11.451  -0.078  -6.438  1.00  0.00    -0.374 N 
ATOM     12  H3  UNL     1      11.401   0.834  -6.893  1.00  0.00     0.161 HD
HETATM   13  C11 UNL     1      12.402  -1.032  -6.979  1.00  0.00     0.123 C 
HETATM   14  C12 UNL     1      11.984  -1.549  -8.319  1.00  0.00     0.046 C 
HETATM   15  C13 UNL     1      13.183  -2.087  -9.084  1.00  0.00     0.169 C 
HETATM   16  O3  UNL     1      13.481  -3.397  -8.760  1.00  0.00    -0.389 OA
HETATM   17  C14 UNL     1      14.240  -3.535  -7.616  1.00  0.00     0.193 C 
HETATM   18  C15 UNL     1      15.422  -4.459  -7.761  1.00  0.00     0.193 C 
HETATM   19  O4  UNL     1      16.390  -4.033  -6.835  1.00  0.00    -0.387 OA
HETATM   20  C16 UNL     1      16.000  -4.192  -5.531  1.00  0.00     0.187 C 
HETATM   21  C17 UNL     1      16.475  -2.989  -4.738  1.00  0.00     0.152 C 
ENDROOT
BRANCH   1  22
HETATM   22  C2  UNL     1      18.026  -3.217  -2.120  1.00  0.00     0.176 C 
HETATM   23  C1  UNL     1      18.585  -2.308  -1.019  1.00  0.00     0.062 C 
HETATM   24  C3  UNL     1      18.341  -4.638  -1.672  1.00  0.00     0.062 C 
HETATM   25  F1  UNL     1      18.718  -2.884  -3.271  1.00  0.00    -0.233 F 
ENDBRANCH   1  22
BRANCH  10  26
HETATM   26  N2  UNL     1       9.509   0.428  -5.344  1.00  0.00    -0.383 N 
ATOM     27  H22 UNL     1       8.731   0.037  -4.812  1.00  0.00     0.157 HD
ATOM     28  H21 UNL     1       9.567   1.298  -5.872  1.00  0.00     0.157 HD
ENDBRANCH  10  26
TORSDOF 2
ENDMDL
