MODEL 1
REMARK VINA RESULT: -8.603059661      0.000      0.000
REMARK  0 active torsions:
REMARK  status: ('A' for Active; 'I' for Inactive)
ROOT
HETATM    1  N1  UNL     1      20.502  -1.699  -6.983  1.00  0.00    -0.197 NA
HETATM    2  C1  UNL     1      19.439  -1.977  -6.597  1.00  0.00     0.064 C 
HETATM    3  C2  UNL     1      18.072  -2.316  -6.124  1.00  0.00     0.101 C 
HETATM    4  C3  UNL     1      17.158  -1.996  -7.257  1.00  0.00     0.043 C 
HETATM    5  C4  UNL     1      15.803  -2.570  -7.221  1.00  0.00     0.054 C 
HETATM    6  C5  UNL     1      15.740  -3.964  -6.676  1.00  0.00     0.045 C 
HETATM    7  C6  UNL     1      16.585  -4.190  -5.496  1.00  0.00     0.084 C 
HETATM    8  C7  UNL     1      18.041  -3.734  -5.682  1.00  0.00     0.033 C 
HETATM    9  C8  UNL     1      18.481  -3.961  -4.266  1.00  0.00    -0.004 C 
HETATM   10  C9  UNL     1      19.752  -3.450  -3.767  1.00  0.00     0.012 C 
HETATM   11  C10 UNL     1      19.914  -4.768  -2.985  1.00  0.00     0.002 C 
HETATM   12  C11 UNL     1      19.033  -5.383  -4.082  1.00  0.00     0.012 C 
HETATM   13  C12 UNL     1      17.288  -3.782  -3.401  1.00  0.00     0.191 C 
HETATM   14  C13 UNL     1      17.471  -2.756  -2.382  1.00  0.00     0.081 C 
HETATM   15  N2  UNL     1      17.615  -1.949  -1.566  1.00  0.00    -0.196 NA
HETATM   16  N3  UNL     1      16.231  -3.438  -4.327  1.00  0.00    -0.204 NA
HETATM   17 CL1  UNL     1      14.663  -3.825  -3.713  1.00  0.00    -0.020 Cl
HETATM   18  S1  UNL     1      14.618  -1.458  -6.358  1.00  0.00    -0.042 SA
HETATM   19  N4  UNL     1      14.083  -0.545  -7.805  1.00  0.00    -0.318 N 
ATOM     20  H4  UNL     1      13.370   0.182  -7.858  1.00  0.00     0.175 HD
HETATM   21  C14 UNL     1      14.885  -1.070  -8.868  1.00  0.00     0.100 C 
HETATM   22  N5  UNL     1      15.275  -0.373  -9.911  1.00  0.00    -0.387 N 
ATOM     23  H51 UNL     1      15.846  -0.747 -10.668  1.00  0.00     0.157 HD
ATOM     24  H52 UNL     1      15.060   0.608 -10.085  1.00  0.00     0.157 HD
HETATM   25  C15 UNL     1      15.199  -2.501  -8.614  1.00  0.00     0.180 C 
HETATM   26  C16 UNL     1      13.951  -3.294  -8.626  1.00  0.00     0.073 C 
HETATM   27  N6  UNL     1      12.965  -3.905  -8.623  1.00  0.00    -0.196 NA
ENDROOT
TORSDOF 0
ENDMDL
MODEL 2
REMARK VINA RESULT: -7.725183630      3.320      5.689
REMARK  0 active torsions:
REMARK  status: ('A' for Active; 'I' for Inactive)
ROOT
HETATM    1  N1  UNL     1      12.472   0.116  -7.599  1.00  0.00    -0.197 NA
HETATM    2  C1  UNL     1      13.080  -0.557  -6.867  1.00  0.00     0.064 C 
HETATM    3  C2  UNL     1      13.842  -1.402  -5.913  1.00  0.00     0.101 C 
HETATM    4  C3  UNL     1      13.051  -1.406  -4.650  1.00  0.00     0.043 C 
HETATM    5  C4  UNL     1      13.359  -2.448  -3.657  1.00  0.00     0.054 C 
HETATM    6  C5  UNL     1      13.691  -3.784  -4.250  1.00  0.00     0.045 C 
HETATM    7  C6  UNL     1      14.558  -3.721  -5.434  1.00  0.00     0.084 C 
HETATM    8  C7  UNL     1      14.063  -2.743  -6.512  1.00  0.00     0.033 C 
HETATM    9  C8  UNL     1      15.263  -2.843  -7.407  1.00  0.00    -0.004 C 
HETATM   10  C9  UNL     1      15.478  -1.910  -8.508  1.00  0.00     0.012 C 
HETATM   11  C10 UNL     1      15.987  -3.100  -9.345  1.00  0.00     0.002 C 
HETATM   12  C11 UNL     1      15.084  -3.959  -8.448  1.00  0.00     0.012 C 
HETATM   13  C12 UNL     1      16.430  -3.159  -6.545  1.00  0.00     0.191 C 
HETATM   14  C13 UNL     1      17.503  -2.179  -6.656  1.00  0.00     0.081 C 
HETATM   15  N2  UNL     1      18.362  -1.410  -6.747  1.00  0.00    -0.196 NA
HETATM   16  N3  UNL     1      15.877  -3.203  -5.208  1.00  0.00    -0.204 NA
HETATM   17 CL1  UNL     1      16.820  -4.174  -4.135  1.00  0.00    -0.020 Cl
HETATM   18  S1  UNL     1      14.658  -1.897  -2.477  1.00  0.00    -0.042 SA
HETATM   19  N4  UNL     1      13.555  -1.198  -1.250  1.00  0.00    -0.318 N 
ATOM     20  H4  UNL     1      13.800  -0.792  -0.347  1.00  0.00     0.175 HD
HETATM   21  C14 UNL     1      12.252  -1.342  -1.826  1.00  0.00     0.100 C 
HETATM   22  N5  UNL     1      11.258  -0.510  -1.616  1.00  0.00    -0.387 N 
ATOM     23  H51 UNL     1      10.331  -0.612  -2.027  1.00  0.00     0.157 HD
ATOM     24  H52 UNL     1      11.293   0.325  -1.031  1.00  0.00     0.157 HD
HETATM   25  C15 UNL     1      12.201  -2.559  -2.680  1.00  0.00     0.180 C 
HETATM   26  C16 UNL     1      12.404  -3.761  -1.843  1.00  0.00     0.073 C 
HETATM   27  N6  UNL     1      12.577  -4.698  -1.181  1.00  0.00    -0.196 NA
ENDROOT
TORSDOF 0
ENDMDL
MODEL 3
REMARK VINA RESULT: -7.533061374      4.013      5.825
REMARK  0 active torsions:
REMARK  status: ('A' for Active; 'I' for Inactive)
ROOT
HETATM    1  N1  UNL     1      10.068  -2.290  -6.185  1.00  0.00    -0.197 NA
HETATM    2  C1  UNL     1      11.091  -2.475  -5.659  1.00  0.00     0.064 C 
HETATM    3  C2  UNL     1      12.406  -2.722  -5.013  1.00  0.00     0.101 C 
HETATM    4  C3  UNL     1      13.393  -2.826  -6.124  1.00  0.00     0.043 C 
HETATM    5  C4  UNL     1      14.819  -2.696  -5.783  1.00  0.00     0.054 C 
HETATM    6  C5  UNL     1      15.106  -1.682  -4.717  1.00  0.00     0.045 C 
HETATM    7  C6  UNL     1      14.156  -1.698  -3.596  1.00  0.00     0.084 C 
HETATM    8  C7  UNL     1      12.684  -1.640  -4.033  1.00  0.00     0.033 C 
HETATM    9  C8  UNL     1      12.086  -1.854  -2.674  1.00  0.00    -0.004 C 
HETATM   10  C9  UNL     1      10.669  -2.152  -2.498  1.00  0.00     0.012 C 
HETATM   11  C10 UNL     1      10.685  -1.235  -1.260  1.00  0.00     0.002 C 
HETATM   12  C11 UNL     1      11.845  -0.514  -1.961  1.00  0.00     0.012 C 
HETATM   13  C12 UNL     1      13.055  -2.660  -1.890  1.00  0.00     0.191 C 
HETATM   14  C13 UNL     1      12.486  -3.904  -1.386  1.00  0.00     0.081 C 
HETATM   15  N2  UNL     1      12.037  -4.887  -0.976  1.00  0.00    -0.196 NA
HETATM   16  N3  UNL     1      14.142  -2.901  -2.814  1.00  0.00    -0.204 NA
HETATM   17 CL1  UNL     1      15.638  -3.213  -2.008  1.00  0.00    -0.020 Cl
HETATM   18  S1  UNL     1      15.570  -4.326  -5.379  1.00  0.00    -0.042 SA
HETATM   19  N4  UNL     1      16.111  -4.733  -7.038  1.00  0.00    -0.318 N 
ATOM     20  H4  UNL     1      16.642  -5.550  -7.341  1.00  0.00     0.175 HD
HETATM   21  C14 UNL     1      15.627  -3.651  -7.841  1.00  0.00     0.100 C 
HETATM   22  N5  UNL     1      15.262  -3.772  -9.097  1.00  0.00    -0.387 N 
ATOM     23  H51 UNL     1      14.918  -3.001  -9.668  1.00  0.00     0.157 HD
ATOM     24  H52 UNL     1      15.276  -4.633  -9.641  1.00  0.00     0.157 HD
HETATM   25  C15 UNL     1      15.606  -2.394  -7.047  1.00  0.00     0.180 C 
HETATM   26  C16 UNL     1      16.987  -2.024  -6.666  1.00  0.00     0.073 C 
HETATM   27  N6  UNL     1      18.071  -1.749  -6.360  1.00  0.00    -0.196 NA
ENDROOT
TORSDOF 0
ENDMDL
MODEL 4
REMARK VINA RESULT: -7.457053042      2.174      3.761
REMARK  0 active torsions:
REMARK  status: ('A' for Active; 'I' for Inactive)
ROOT
HETATM    1  N1  UNL     1      13.448  -4.162  -2.885  1.00  0.00    -0.197 NA
HETATM    2  C1  UNL     1      14.253  -3.799  -3.645  1.00  0.00     0.064 C 
HETATM    3  C2  UNL     1      15.262  -3.340  -4.634  1.00  0.00     0.101 C 
HETATM    4  C3  UNL     1      14.487  -2.857  -5.811  1.00  0.00     0.043 C 
HETATM    5  C4  UNL     1      15.190  -2.007  -6.787  1.00  0.00     0.054 C 
HETATM    6  C5  UNL     1      16.160  -1.043  -6.175  1.00  0.00     0.045 C 
HETATM    7  C6  UNL     1      16.969  -1.608  -5.086  1.00  0.00     0.084 C 
HETATM    8  C7  UNL     1      16.139  -2.319  -4.005  1.00  0.00     0.033 C 
HETATM    9  C8  UNL     1      17.297  -2.876  -3.230  1.00  0.00    -0.004 C 
HETATM   10  C9  UNL     1      17.111  -3.887  -2.195  1.00  0.00     0.012 C 
HETATM   11  C10 UNL     1      18.183  -3.155  -1.364  1.00  0.00     0.002 C 
HETATM   12  C11 UNL     1      17.745  -1.899  -2.132  1.00  0.00     0.012 C 
HETATM   13  C12 UNL     1      18.411  -3.080  -4.190  1.00  0.00     0.191 C 
HETATM   14  C13 UNL     1      18.887  -4.457  -4.226  1.00  0.00     0.081 C 
HETATM   15  N2  UNL     1      19.275  -5.546  -4.251  1.00  0.00    -0.196 NA
HETATM   16  N3  UNL     1      17.858  -2.668  -5.462  1.00  0.00    -0.204 NA
HETATM   17 CL1  UNL     1      19.078  -2.176  -6.583  1.00  0.00    -0.020 Cl
HETATM   18  S1  UNL     1      15.983  -3.008  -8.111  1.00  0.00    -0.042 SA
HETATM   19  N4  UNL     1      14.600  -2.995  -9.251  1.00  0.00    -0.318 N 
ATOM     20  H4  UNL     1      14.558  -3.392 -10.189  1.00  0.00     0.175 HD
HETATM   21  C14 UNL     1      13.568  -2.299  -8.544  1.00  0.00     0.100 C 
HETATM   22  N5  UNL     1      12.285  -2.540  -8.687  1.00  0.00    -0.387 N 
ATOM     23  H51 UNL     1      11.550  -2.044  -8.184  1.00  0.00     0.157 HD
ATOM     24  H52 UNL     1      11.876  -3.239  -9.307  1.00  0.00     0.157 HD
HETATM   25  C15 UNL     1      14.164  -1.279  -7.640  1.00  0.00     0.180 C 
HETATM   26  C16 UNL     1      14.862  -0.252  -8.442  1.00  0.00     0.073 C 
HETATM   27  N6  UNL     1      15.418   0.542  -9.079  1.00  0.00    -0.196 NA
ENDROOT
TORSDOF 0
ENDMDL
MODEL 5
REMARK VINA RESULT: -7.365318648      3.477      4.704
REMARK  0 active torsions:
REMARK  status: ('A' for Active; 'I' for Inactive)
ROOT
HETATM    1  N1  UNL     1      16.810  -2.697  -1.451  1.00  0.00    -0.197 NA
HETATM    2  C1  UNL     1      16.064  -2.621  -2.343  1.00  0.00     0.064 C 
HETATM    3  C2  UNL     1      15.133  -2.516  -3.497  1.00  0.00     0.101 C 
HETATM    4  C3  UNL     1      15.989  -2.559  -4.715  1.00  0.00     0.043 C 
HETATM    5  C4  UNL     1      15.330  -2.848  -6.000  1.00  0.00     0.054 C 
HETATM    6  C5  UNL     1      14.229  -3.861  -5.912  1.00  0.00     0.045 C 
HETATM    7  C6  UNL     1      13.356  -3.703  -4.741  1.00  0.00     0.084 C 
HETATM    8  C7  UNL     1      14.119  -3.597  -3.411  1.00  0.00     0.033 C 
HETATM    9  C8  UNL     1      12.932  -3.279  -2.550  1.00  0.00    -0.004 C 
HETATM   10  C9  UNL     1      13.084  -2.810  -1.178  1.00  0.00     0.012 C 
HETATM   11  C10 UNL     1      11.876  -3.691  -0.800  1.00  0.00     0.002 C 
HETATM   12  C11 UNL     1      12.295  -4.562  -1.993  1.00  0.00     0.012 C 
HETATM   13  C12 UNL     1      11.944  -2.574  -3.406  1.00  0.00     0.191 C 
HETATM   14  C13 UNL     1      11.582  -1.258  -2.892  1.00  0.00     0.081 C 
HETATM   15  N2  UNL     1      11.284  -0.219  -2.485  1.00  0.00    -0.196 NA
HETATM   16  N3  UNL     1      12.595  -2.488  -4.695  1.00  0.00    -0.204 NA
HETATM   17 CL1  UNL     1      11.468  -2.335  -5.995  1.00  0.00    -0.020 Cl
HETATM   18  S1  UNL     1      14.762  -1.309  -6.832  1.00  0.00    -0.042 SA
HETATM   19  N4  UNL     1      16.252  -1.011  -7.781  1.00  0.00    -0.318 N 
ATOM     20  H4  UNL     1      16.424  -0.272  -8.462  1.00  0.00     0.175 HD
HETATM   21  C14 UNL     1      17.147  -2.048  -7.365  1.00  0.00     0.100 C 
HETATM   22  N5  UNL     1      18.453  -1.918  -7.312  1.00  0.00    -0.387 N 
ATOM     23  H51 UNL     1      19.090  -2.657  -7.015  1.00  0.00     0.157 HD
ATOM     24  H52 UNL     1      18.978  -1.078  -7.554  1.00  0.00     0.157 HD
HETATM   25  C15 UNL     1      16.382  -3.274  -7.011  1.00  0.00     0.180 C 
HETATM   26  C16 UNL     1      15.696  -3.795  -8.213  1.00  0.00     0.073 C 
HETATM   27  N6  UNL     1      15.151  -4.189  -9.158  1.00  0.00    -0.196 NA
ENDROOT
TORSDOF 0
ENDMDL
