MODEL 1
REMARK VINA RESULT: -8.044583443      0.000      0.000
REMARK  0 active torsions:
REMARK  status: ('A' for Active; 'I' for Inactive)
ROOT
HETATM    1  C1  UNL     1      15.522  -2.427  -7.913  1.00  0.00     0.022 C 
HETATM    2  C2  UNL     1      16.307  -3.385  -7.091  1.00  0.00     0.094 C 
HETATM    3  C3  UNL     1      15.414  -4.412  -6.444  1.00  0.00     0.122 C 
HETATM    4  N1  UNL     1      15.246  -5.518  -7.076  1.00  0.00    -0.383 N 
ATOM      5  H11 UNL     1      14.642  -6.213  -6.638  1.00  0.00     0.158 HD
ATOM      6  H12 UNL     1      15.719  -5.641  -7.971  1.00  0.00     0.158 HD
HETATM    7  O1  UNL     1      14.770  -4.244  -5.225  1.00  0.00    -0.296 OA
HETATM    8  C4  UNL     1      14.366  -3.009  -4.659  1.00  0.00     0.229 C 
HETATM    9  C5  UNL     1      14.446  -3.136  -3.138  1.00  0.00     0.240 C 
HETATM   10  O2  UNL     1      13.721  -2.132  -2.604  1.00  0.00    -0.377 OA
HETATM   11  C6  UNL     1      12.475  -2.371  -2.149  1.00  0.00     0.159 C 
HETATM   12  C7  UNL     1      11.922  -0.992  -1.747  1.00  0.00     0.199 C 
HETATM   13  F1  UNL     1      10.894  -1.078  -0.871  1.00  0.00    -0.247 F 
HETATM   14  C8  UNL     1      11.648  -0.142  -2.961  1.00  0.00     0.044 C 
HETATM   15  C9  UNL     1      11.310  -1.006  -4.188  1.00  0.00    -0.011 C 
HETATM   16  C10 UNL     1      10.496  -2.154  -3.644  1.00  0.00     0.012 C 
HETATM   17  C11 UNL     1      11.528  -3.099  -3.009  1.00  0.00     0.018 C 
HETATM   18  C12 UNL     1      12.133  -3.768  -4.220  1.00  0.00     0.017 C 
HETATM   19  C13 UNL     1      12.898  -2.784  -5.055  1.00  0.00     0.054 C 
HETATM   20  C14 UNL     1      12.483  -1.383  -4.983  1.00  0.00     0.015 C 
HETATM   21  O3  UNL     1      15.183  -1.998  -5.138  1.00  0.00    -0.197 OA
HETATM   22  O4  UNL     1      16.411  -2.324  -4.920  1.00  0.00    -0.226 OA
HETATM   23  C15 UNL     1      17.124  -2.755  -6.006  1.00  0.00     0.110 C 
HETATM   24  C16 UNL     1      17.903  -1.609  -6.607  1.00  0.00     0.069 C 
HETATM   25  C17 UNL     1      19.309  -2.116  -6.949  1.00  0.00     0.235 C 
HETATM   26  N2  UNL     1      19.974  -2.302  -5.675  1.00  0.00    -0.075 N 
ATOM     27  H21 UNL     1      20.096  -1.414  -5.189  1.00  0.00     0.277 HD
ATOM     28  H22 UNL     1      20.955  -2.552  -5.803  1.00  0.00     0.277 HD
HETATM   29  C18 UNL     1      19.290  -3.267  -4.844  1.00  0.00     0.235 C 
HETATM   30  C19 UNL     1      18.072  -3.851  -5.507  1.00  0.00     0.069 C 
ENDROOT
TORSDOF 0
ENDMDL
MODEL 2
REMARK VINA RESULT: -7.955559234      1.872      3.053
REMARK  0 active torsions:
REMARK  status: ('A' for Active; 'I' for Inactive)
ROOT
HETATM    1  C1  UNL     1      15.516  -4.148  -7.334  1.00  0.00     0.022 C 
HETATM    2  C2  UNL     1      16.424  -2.977  -7.217  1.00  0.00     0.094 C 
HETATM    3  C3  UNL     1      17.019  -2.881  -5.836  1.00  0.00     0.122 C 
HETATM    4  N1  UNL     1      18.163  -3.437  -5.655  1.00  0.00    -0.383 N 
ATOM      5  H11 UNL     1      18.566  -3.373  -4.721  1.00  0.00     0.158 HD
ATOM      6  H12 UNL     1      18.602  -3.909  -6.446  1.00  0.00     0.158 HD
HETATM    7  O1  UNL     1      16.420  -2.239  -4.759  1.00  0.00    -0.296 OA
HETATM    8  C4  UNL     1      15.028  -2.064  -4.563  1.00  0.00     0.229 C 
HETATM    9  C5  UNL     1      14.818  -0.752  -3.807  1.00  0.00     0.240 C 
HETATM   10  O2  UNL     1      13.570  -0.768  -3.295  1.00  0.00    -0.377 OA
HETATM   11  C6  UNL     1      13.380  -1.073  -1.996  1.00  0.00     0.159 C 
HETATM   12  C7  UNL     1      11.853  -1.125  -1.813  1.00  0.00     0.199 C 
HETATM   13  F1  UNL     1      11.476  -0.967  -0.523  1.00  0.00    -0.247 F 
HETATM   14  C8  UNL     1      11.264  -2.330  -2.500  1.00  0.00     0.044 C 
HETATM   15  C9  UNL     1      12.275  -3.487  -2.570  1.00  0.00    -0.011 C 
HETATM   16  C10 UNL     1      13.028  -3.427  -1.263  1.00  0.00     0.012 C 
HETATM   17  C11 UNL     1      14.027  -2.273  -1.442  1.00  0.00     0.018 C 
HETATM   18  C12 UNL     1      15.085  -2.902  -2.316  1.00  0.00     0.017 C 
HETATM   19  C13 UNL     1      14.542  -3.223  -3.677  1.00  0.00     0.054 C 
HETATM   20  C14 UNL     1      13.104  -3.471  -3.779  1.00  0.00     0.015 C 
HETATM   21  O3  UNL     1      14.390  -2.062  -5.792  1.00  0.00    -0.197 OA
HETATM   22  O4  UNL     1      14.951  -1.178  -6.545  1.00  0.00    -0.226 OA
HETATM   23  C15 UNL     1      15.784  -1.657  -7.520  1.00  0.00     0.110 C 
HETATM   24  C16 UNL     1      15.038  -1.784  -8.827  1.00  0.00     0.069 C 
HETATM   25  C17 UNL     1      15.943  -1.256  -9.947  1.00  0.00     0.235 C 
HETATM   26  N2  UNL     1      15.990   0.180  -9.761  1.00  0.00    -0.075 N 
ATOM     27  H21 UNL     1      15.074   0.602  -9.905  1.00  0.00     0.277 HD
ATOM     28  H22 UNL     1      16.499   0.635 -10.519  1.00  0.00     0.277 HD
HETATM   29  C18 UNL     1      16.537   0.541  -8.472  1.00  0.00     0.235 C 
HETATM   30  C19 UNL     1      16.937  -0.655  -7.650  1.00  0.00     0.069 C 
ENDROOT
TORSDOF 0
ENDMDL
MODEL 3
REMARK VINA RESULT: -7.807618263      2.429      4.021
REMARK  0 active torsions:
REMARK  status: ('A' for Active; 'I' for Inactive)
ROOT
HETATM    1  C1  UNL     1      17.634  -4.657  -0.818  1.00  0.00     0.022 C 
HETATM    2  C2  UNL     1      18.374  -3.718  -1.701  1.00  0.00     0.094 C 
HETATM    3  C3  UNL     1      17.896  -2.301  -1.517  1.00  0.00     0.122 C 
HETATM    4  N1  UNL     1      18.536  -1.575  -0.673  1.00  0.00    -0.383 N 
ATOM      5  H11 UNL     1      18.212  -0.616  -0.548  1.00  0.00     0.158 HD
ATOM      6  H12 UNL     1      19.324  -1.991  -0.176  1.00  0.00     0.158 HD
HETATM    7  O1  UNL     1      16.822  -1.734  -2.194  1.00  0.00    -0.296 OA
HETATM    8  C4  UNL     1      15.698  -2.430  -2.703  1.00  0.00     0.229 C 
HETATM    9  C5  UNL     1      15.212  -1.695  -3.952  1.00  0.00     0.240 C 
HETATM   10  O2  UNL     1      13.957  -2.113  -4.212  1.00  0.00    -0.377 OA
HETATM   11  C6  UNL     1      12.907  -1.348  -3.852  1.00  0.00     0.159 C 
HETATM   12  C7  UNL     1      11.662  -2.193  -4.179  1.00  0.00     0.199 C 
HETATM   13  F1  UNL     1      10.543  -1.443  -4.313  1.00  0.00    -0.247 F 
HETATM   14  C8  UNL     1      11.532  -3.358  -3.231  1.00  0.00     0.044 C 
HETATM   15  C9  UNL     1      12.163  -3.043  -1.864  1.00  0.00    -0.011 C 
HETATM   16  C10 UNL     1      11.845  -1.589  -1.613  1.00  0.00     0.012 C 
HETATM   17  C11 UNL     1      12.847  -0.815  -2.482  1.00  0.00     0.018 C 
HETATM   18  C12 UNL     1      14.122  -0.937  -1.682  1.00  0.00     0.017 C 
HETATM   19  C13 UNL     1      14.595  -2.360  -1.634  1.00  0.00     0.054 C 
HETATM   20  C14 UNL     1      13.581  -3.405  -1.773  1.00  0.00     0.015 C 
HETATM   21  O3  UNL     1      16.056  -3.739  -2.978  1.00  0.00    -0.197 OA
HETATM   22  O4  UNL     1      17.089  -3.729  -3.751  1.00  0.00    -0.226 OA
HETATM   23  C15 UNL     1      18.287  -4.034  -3.163  1.00  0.00     0.110 C 
HETATM   24  C16 UNL     1      18.602  -5.499  -3.348  1.00  0.00     0.069 C 
HETATM   25  C17 UNL     1      20.083  -5.625  -3.723  1.00  0.00     0.235 C 
HETATM   26  N2  UNL     1      20.184  -5.118  -5.076  1.00  0.00    -0.075 N 
ATOM     27  H21 UNL     1      19.668  -5.705  -5.731  1.00  0.00     0.277 HD
ATOM     28  H22 UNL     1      21.125  -5.246  -5.451  1.00  0.00     0.277 HD
HETATM   29  C18 UNL     1      19.767  -3.737  -5.169  1.00  0.00     0.235 C 
HETATM   30  C19 UNL     1      19.349  -3.162  -3.842  1.00  0.00     0.069 C 
ENDROOT
TORSDOF 0
ENDMDL
MODEL 4
REMARK VINA RESULT: -7.760275743      2.765      3.869
REMARK  0 active torsions:
REMARK  status: ('A' for Active; 'I' for Inactive)
ROOT
HETATM    1  C1  UNL     1      15.990  -1.758  -2.672  1.00  0.00     0.022 C 
HETATM    2  C2  UNL     1      16.735  -2.004  -3.935  1.00  0.00     0.094 C 
HETATM    3  C3  UNL     1      15.873  -1.735  -5.141  1.00  0.00     0.122 C 
HETATM    4  N1  UNL     1      15.940  -0.559  -5.654  1.00  0.00    -0.383 N 
ATOM      5  H11 UNL     1      15.356  -0.377  -6.470  1.00  0.00     0.158 HD
ATOM      6  H12 UNL     1      16.564   0.123  -5.223  1.00  0.00     0.158 HD
HETATM    7  O1  UNL     1      15.022  -2.663  -5.728  1.00  0.00    -0.296 OA
HETATM    8  C4  UNL     1      14.391  -3.748  -5.069  1.00  0.00     0.229 C 
HETATM    9  C5  UNL     1      14.235  -4.887  -6.077  1.00  0.00     0.240 C 
HETATM   10  O2  UNL     1      13.321  -5.748  -5.584  1.00  0.00    -0.377 OA
HETATM   11  C6  UNL     1      12.053  -5.716  -6.040  1.00  0.00     0.159 C 
HETATM   12  C7  UNL     1      11.286  -6.726  -5.168  1.00  0.00     0.199 C 
HETATM   13  F1  UNL     1      10.145  -7.160  -5.753  1.00  0.00    -0.247 F 
HETATM   14  C8  UNL     1      11.119  -6.212  -3.762  1.00  0.00     0.044 C 
HETATM   15  C9  UNL     1      11.088  -4.674  -3.725  1.00  0.00    -0.011 C 
HETATM   16  C10 UNL     1      10.334  -4.269  -4.967  1.00  0.00     0.012 C 
HETATM   17  C11 UNL     1      11.351  -4.425  -6.109  1.00  0.00     0.018 C 
HETATM   18  C12 UNL     1      12.219  -3.203  -5.930  1.00  0.00     0.017 C 
HETATM   19  C13 UNL     1      12.992  -3.273  -4.646  1.00  0.00     0.054 C 
HETATM   20  C14 UNL     1      12.412  -4.064  -3.561  1.00  0.00     0.015 C 
HETATM   21  O3  UNL     1      15.153  -4.125  -3.976  1.00  0.00    -0.197 OA
HETATM   22  O4  UNL     1      16.358  -4.353  -4.374  1.00  0.00    -0.226 OA
HETATM   23  C15 UNL     1      17.285  -3.390  -4.078  1.00  0.00     0.110 C 
HETATM   24  C16 UNL     1      18.014  -3.741  -2.803  1.00  0.00     0.069 C 
HETATM   25  C17 UNL     1      19.507  -3.459  -3.014  1.00  0.00     0.235 C 
HETATM   26  N2  UNL     1      19.970  -4.486  -3.924  1.00  0.00    -0.075 N 
ATOM     27  H21 UNL     1      19.907  -5.411  -3.501  1.00  0.00     0.277 HD
ATOM     28  H22 UNL     1      20.981  -4.436  -4.055  1.00  0.00     0.277 HD
HETATM   29  C18 UNL     1      19.275  -4.440  -5.191  1.00  0.00     0.235 C 
HETATM   30  C19 UNL     1      18.258  -3.332  -5.261  1.00  0.00     0.069 C 
ENDROOT
TORSDOF 0
ENDMDL
MODEL 5
REMARK VINA RESULT: -7.620690011      2.931      4.207
REMARK  0 active torsions:
REMARK  status: ('A' for Active; 'I' for Inactive)
ROOT
HETATM    1  C1  UNL     1      14.487  -0.973  -2.598  1.00  0.00     0.022 C 
HETATM    2  C2  UNL     1      15.612  -1.441  -3.449  1.00  0.00     0.094 C 
HETATM    3  C3  UNL     1      15.217  -1.489  -4.903  1.00  0.00     0.122 C 
HETATM    4  N1  UNL     1      15.476  -0.450  -5.611  1.00  0.00    -0.383 N 
ATOM      5  H11 UNL     1      15.209  -0.483  -6.595  1.00  0.00     0.158 HD
ATOM      6  H12 UNL     1      15.930   0.344  -5.159  1.00  0.00     0.158 HD
HETATM    7  O1  UNL     1      14.599  -2.571  -5.518  1.00  0.00    -0.296 OA
HETATM    8  C4  UNL     1      13.762  -3.523  -4.886  1.00  0.00     0.229 C 
HETATM    9  C5  UNL     1      13.936  -4.859  -5.607  1.00  0.00     0.240 C 
HETATM   10  O2  UNL     1      12.893  -5.646  -5.271  1.00  0.00    -0.377 OA
HETATM   11  C6  UNL     1      11.857  -5.788  -6.121  1.00  0.00     0.159 C 
HETATM   12  C7  UNL     1      10.820  -6.628  -5.355  1.00  0.00     0.199 C 
HETATM   13  F1  UNL     1       9.938  -7.244  -6.177  1.00  0.00    -0.247 F 
HETATM   14  C8  UNL     1      10.194  -5.834  -4.239  1.00  0.00     0.044 C 
HETATM   15  C9  UNL     1      10.181  -4.329  -4.558  1.00  0.00    -0.011 C 
HETATM   16  C10 UNL     1       9.903  -4.246  -6.039  1.00  0.00     0.012 C 
HETATM   17  C11 UNL     1      11.244  -4.585  -6.708  1.00  0.00     0.018 C 
HETATM   18  C12 UNL     1      12.023  -3.305  -6.524  1.00  0.00     0.017 C 
HETATM   19  C13 UNL     1      12.310  -3.050  -5.074  1.00  0.00     0.054 C 
HETATM   20  C14 UNL     1      11.381  -3.621  -4.100  1.00  0.00     0.015 C 
HETATM   21  O3  UNL     1      14.098  -3.609  -3.546  1.00  0.00    -0.197 OA
HETATM   22  O4  UNL     1      15.362  -3.847  -3.454  1.00  0.00    -0.226 OA
HETATM   23  C15 UNL     1      16.151  -2.790  -3.086  1.00  0.00     0.110 C 
HETATM   24  C16 UNL     1      16.397  -2.815  -1.597  1.00  0.00     0.069 C 
HETATM   25  C17 UNL     1      17.877  -2.498  -1.351  1.00  0.00     0.235 C 
HETATM   26  N2  UNL     1      18.603  -3.668  -1.800  1.00  0.00    -0.075 N 
ATOM     27  H21 UNL     1      18.382  -4.482  -1.228  1.00  0.00     0.277 HD
ATOM     28  H22 UNL     1      19.599  -3.589  -1.591  1.00  0.00     0.277 HD
HETATM   29  C18 UNL     1      18.381  -3.937  -3.203  1.00  0.00     0.235 C 
HETATM   30  C19 UNL     1      17.470  -2.933  -3.855  1.00  0.00     0.069 C 
ENDROOT
TORSDOF 0
ENDMDL
