MODEL 1
REMARK VINA RESULT: -6.715841353      0.000      0.000
REMARK  7 active torsions:
REMARK  status: ('A' for Active; 'I' for Inactive)
REMARK       I    between atoms: N1_2  and  C2_4 
REMARK       I    between atoms: C2_4  and  N2_6 
REMARK    1  A    between atoms: N2_6  and  C3_8 
REMARK    2  A    between atoms: C3_8  and  C4_9 
REMARK    3  A    between atoms: C4_9  and  N3_10 
REMARK    4  A    between atoms: C4_9  and  C12_22 
REMARK    5  A    between atoms: N3_10  and  C5_12 
REMARK    6  A    between atoms: C5_12  and  N4_14 
REMARK    7  A    between atoms: N4_14  and  C6_16 
ROOT
HETATM    1  C4  UNL     1      -0.308  17.029  17.527  1.00  0.00     0.106 C 
ENDROOT
BRANCH   1   2
HETATM    2  C3  UNL     1      -0.045  17.706  18.830  1.00  0.00     0.149 C 
BRANCH   2   3
HETATM    3  N2  UNL     1       1.290  17.747  19.306  1.00  0.00    -0.341 N 
HETATM    4  C2  UNL     1       1.858  19.039  19.525  1.00  0.00     0.315 C 
HETATM    5  N1  UNL     1       3.189  19.170  19.999  1.00  0.00    -0.347 N 
HETATM    6  O1  UNL     1       1.193  20.078  19.301  1.00  0.00    -0.247 OA
HETATM    7  C1  UNL     1       3.772  20.476  20.224  1.00  0.00     0.151 C 
ATOM      8  H1  UNL     1       3.742  18.333  20.185  1.00  0.00     0.163 HD
ATOM      9  H2  UNL     1       1.820  16.894  19.484  1.00  0.00     0.164 HD
ENDBRANCH   2   3
ENDBRANCH   1   2
BRANCH   1  10
HETATM   10  N3  UNL     1      -1.038  18.021  16.715  1.00  0.00    -0.361 N 
ATOM     11  H3  UNL     1      -1.940  17.770  16.311  1.00  0.00     0.162 HD
BRANCH  10  12
HETATM   12  C5  UNL     1      -0.509  19.310  16.488  1.00  0.00     0.168 C 
HETATM   13  S1  UNL     1      -1.410  20.659  16.835  1.00  0.00    -0.041 SA
BRANCH  12  14
HETATM   14  N4  UNL     1       0.795  19.546  15.994  1.00  0.00    -0.363 N 
ATOM     15  H4  UNL     1       1.502  18.818  16.101  1.00  0.00     0.162 HD
BRANCH  14  16
HETATM   16  C6  UNL     1       1.156  20.769  15.351  1.00  0.00     0.083 C 
HETATM   17  C7  UNL     1       2.163  21.530  16.196  1.00  0.00     0.025 C 
HETATM   18  C8  UNL     1       3.378  20.679  16.492  1.00  0.00     0.002 C 
HETATM   19  C9  UNL     1       3.866  19.962  15.252  1.00  0.00     0.000 C 
HETATM   20  C10 UNL     1       3.257  20.596  13.995  1.00  0.00     0.002 C 
HETATM   21  C11 UNL     1       1.754  20.416  14.001  1.00  0.00     0.025 C 
ENDBRANCH  14  16
ENDBRANCH  12  14
ENDBRANCH  10  12
ENDBRANCH   1  10
BRANCH   1  22
HETATM   22  C12 UNL     1      -1.239  15.844  17.653  1.00  0.00     0.010 C 
HETATM   23  C13 UNL     1      -0.601  14.565  18.019  1.00  0.00     0.007 C 
HETATM   24  C14 UNL     1      -1.530  13.380  17.648  1.00  0.00     0.000 C 
HETATM   25  C15 UNL     1      -1.490  13.366  16.136  1.00  0.00     0.000 C 
HETATM   26  C16 UNL     1      -2.152  14.592  15.632  1.00  0.00     0.000 C 
HETATM   27  C17 UNL     1      -2.211  15.769  16.513  1.00  0.00     0.007 C 
ENDBRANCH   1  22
TORSDOF 7
ENDMDL
MODEL 2
REMARK VINA RESULT: -6.610425609      1.771      2.200
REMARK  7 active torsions:
REMARK  status: ('A' for Active; 'I' for Inactive)
REMARK       I    between atoms: N1_2  and  C2_4 
REMARK       I    between atoms: C2_4  and  N2_6 
REMARK    1  A    between atoms: N2_6  and  C3_8 
REMARK    2  A    between atoms: C3_8  and  C4_9 
REMARK    3  A    between atoms: C4_9  and  N3_10 
REMARK    4  A    between atoms: C4_9  and  C12_22 
REMARK    5  A    between atoms: N3_10  and  C5_12 
REMARK    6  A    between atoms: C5_12  and  N4_14 
REMARK    7  A    between atoms: N4_14  and  C6_16 
ROOT
HETATM    1  C4  UNL     1      -0.350  16.872  17.797  1.00  0.00     0.106 C 
ENDROOT
BRANCH   1   2
HETATM    2  C3  UNL     1      -0.292  17.540  19.129  1.00  0.00     0.149 C 
BRANCH   2   3
HETATM    3  N2  UNL     1      -1.009  16.956  20.204  1.00  0.00    -0.341 N 
HETATM    4  C2  UNL     1      -0.735  17.459  21.512  1.00  0.00     0.315 C 
HETATM    5  N1  UNL     1      -1.409  16.929  22.643  1.00  0.00    -0.347 N 
HETATM    6  O1  UNL     1       0.104  18.374  21.684  1.00  0.00    -0.247 OA
HETATM    7  C1  UNL     1      -1.137  17.433  23.973  1.00  0.00     0.151 C 
ATOM      8  H1  UNL     1      -2.093  16.183  22.517  1.00  0.00     0.163 HD
ATOM      9  H2  UNL     1      -1.689  16.211  20.049  1.00  0.00     0.164 HD
ENDBRANCH   2   3
ENDBRANCH   1   2
BRANCH   1  10
HETATM   10  N3  UNL     1      -0.966  17.861  16.894  1.00  0.00    -0.361 N 
ATOM     11  H3  UNL     1      -1.819  17.617  16.391  1.00  0.00     0.162 HD
BRANCH  10  12
HETATM   12  C5  UNL     1      -0.397  19.140  16.713  1.00  0.00     0.168 C 
HETATM   13  S1  UNL     1      -1.139  20.485  17.338  1.00  0.00    -0.041 SA
BRANCH  12  14
HETATM   14  N4  UNL     1       0.825  19.366  16.037  1.00  0.00    -0.363 N 
ATOM     15  H4  UNL     1       1.516  18.616  16.006  1.00  0.00     0.162 HD
BRANCH  14  16
HETATM   16  C6  UNL     1       1.123  20.607  15.395  1.00  0.00     0.083 C 
HETATM   17  C7  UNL     1       2.089  21.417  16.243  1.00  0.00     0.025 C 
HETATM   18  C8  UNL     1       3.346  20.629  16.540  1.00  0.00     0.002 C 
HETATM   19  C9  UNL     1       3.871  19.940  15.299  1.00  0.00     0.000 C 
HETATM   20  C10 UNL     1       3.232  20.544  14.043  1.00  0.00     0.002 C 
HETATM   21  C11 UNL     1       1.740  20.287  14.046  1.00  0.00     0.025 C 
ENDBRANCH  14  16
ENDBRANCH  12  14
ENDBRANCH  10  12
ENDBRANCH   1  10
BRANCH   1  22
HETATM   22  C12 UNL     1      -1.271  15.673  17.776  1.00  0.00     0.010 C 
HETATM   23  C13 UNL     1      -0.625  14.365  17.994  1.00  0.00     0.007 C 
HETATM   24  C14 UNL     1      -1.541  13.225  17.478  1.00  0.00     0.000 C 
HETATM   25  C15 UNL     1      -1.492  13.390  15.975  1.00  0.00     0.000 C 
HETATM   26  C16 UNL     1      -2.160  14.661  15.615  1.00  0.00     0.000 C 
HETATM   27  C17 UNL     1      -2.235  15.725  16.627  1.00  0.00     0.007 C 
ENDBRANCH   1  22
TORSDOF 7
ENDMDL
MODEL 3
REMARK VINA RESULT: -6.133626312      1.776      5.104
REMARK  7 active torsions:
REMARK  status: ('A' for Active; 'I' for Inactive)
REMARK       I    between atoms: N1_2  and  C2_4 
REMARK       I    between atoms: C2_4  and  N2_6 
REMARK    1  A    between atoms: N2_6  and  C3_8 
REMARK    2  A    between atoms: C3_8  and  C4_9 
REMARK    3  A    between atoms: C4_9  and  N3_10 
REMARK    4  A    between atoms: C4_9  and  C12_22 
REMARK    5  A    between atoms: N3_10  and  C5_12 
REMARK    6  A    between atoms: C5_12  and  N4_14 
REMARK    7  A    between atoms: N4_14  and  C6_16 
ROOT
HETATM    1  C4  UNL     1       0.364  18.720  19.420  1.00  0.00     0.106 C 
ENDROOT
BRANCH   1   2
HETATM    2  C3  UNL     1      -0.278  17.427  19.796  1.00  0.00     0.149 C 
BRANCH   2   3
HETATM    3  N2  UNL     1       0.175  16.244  19.159  1.00  0.00    -0.341 N 
HETATM    4  C2  UNL     1      -0.814  15.436  18.519  1.00  0.00     0.315 C 
HETATM    5  N1  UNL     1      -0.446  14.235  17.860  1.00  0.00    -0.347 N 
HETATM    6  O1  UNL     1      -2.021  15.772  18.530  1.00  0.00    -0.247 OA
HETATM    7  C1  UNL     1      -1.442  13.410  17.209  1.00  0.00     0.151 C 
ATOM      8  H1  UNL     1       0.533  13.948  17.844  1.00  0.00     0.163 HD
ATOM      9  H2  UNL     1       1.161  15.981  19.158  1.00  0.00     0.164 HD
ENDBRANCH   2   3
ENDBRANCH   1   2
BRANCH   1  10
HETATM   10  N3  UNL     1       1.025  18.463  18.127  1.00  0.00    -0.361 N 
ATOM     11  H3  UNL     1       1.794  17.794  18.082  1.00  0.00     0.162 HD
BRANCH  10  12
HETATM   12  C5  UNL     1       0.612  19.125  16.951  1.00  0.00     0.168 C 
HETATM   13  S1  UNL     1      -0.899  19.802  16.856  1.00  0.00    -0.041 SA
BRANCH  12  14
HETATM   14  N4  UNL     1       1.436  19.288  15.813  1.00  0.00    -0.363 N 
ATOM     15  H4  UNL     1       1.954  18.483  15.460  1.00  0.00     0.162 HD
BRANCH  14  16
HETATM   16  C6  UNL     1       1.567  20.541  15.140  1.00  0.00     0.083 C 
HETATM   17  C7  UNL     1       2.502  21.456  15.912  1.00  0.00     0.025 C 
HETATM   18  C8  UNL     1       3.848  20.800  16.131  1.00  0.00     0.002 C 
HETATM   19  C9  UNL     1       4.355  20.145  14.865  1.00  0.00     0.000 C 
HETATM   20  C10 UNL     1       3.578  20.663  13.649  1.00  0.00     0.002 C 
HETATM   21  C11 UNL     1       2.122  20.261  13.756  1.00  0.00     0.025 C 
ENDBRANCH  14  16
ENDBRANCH  12  14
ENDBRANCH  10  12
ENDBRANCH   1  10
BRANCH   1  22
HETATM   22  C12 UNL     1       1.470  19.129  20.367  1.00  0.00     0.010 C 
HETATM   23  C13 UNL     1       1.180  20.292  21.227  1.00  0.00     0.007 C 
HETATM   24  C14 UNL     1       2.500  20.897  21.769  1.00  0.00     0.000 C 
HETATM   25  C15 UNL     1       3.128  21.522  20.543  1.00  0.00     0.000 C 
HETATM   26  C16 UNL     1       3.515  20.442  19.607  1.00  0.00     0.000 C 
HETATM   27  C17 UNL     1       2.809  19.154  19.690  1.00  0.00     0.007 C 
ENDBRANCH   1  22
TORSDOF 7
ENDMDL
MODEL 4
REMARK VINA RESULT: -6.122079767      2.343      4.945
REMARK  7 active torsions:
REMARK  status: ('A' for Active; 'I' for Inactive)
REMARK       I    between atoms: N1_2  and  C2_4 
REMARK       I    between atoms: C2_4  and  N2_6 
REMARK    1  A    between atoms: N2_6  and  C3_8 
REMARK    2  A    between atoms: C3_8  and  C4_9 
REMARK    3  A    between atoms: C4_9  and  N3_10 
REMARK    4  A    between atoms: C4_9  and  C12_22 
REMARK    5  A    between atoms: N3_10  and  C5_12 
REMARK    6  A    between atoms: C5_12  and  N4_14 
REMARK    7  A    between atoms: N4_14  and  C6_16 
ROOT
HETATM    1  C4  UNL     1      -0.795  17.633  18.836  1.00  0.00     0.106 C 
ENDROOT
BRANCH   1   2
HETATM    2  C3  UNL     1      -1.215  16.254  18.452  1.00  0.00     0.149 C 
BRANCH   2   3
HETATM    3  N2  UNL     1      -1.906  16.082  17.225  1.00  0.00    -0.341 N 
HETATM    4  C2  UNL     1      -1.664  14.868  16.513  1.00  0.00     0.315 C 
HETATM    5  N1  UNL     1      -2.313  14.617  15.277  1.00  0.00    -0.347 N 
HETATM    6  O1  UNL     1      -0.874  14.006  16.965  1.00  0.00    -0.247 OA
HETATM    7  C1  UNL     1      -2.074  13.389  14.548  1.00  0.00     0.151 C 
ATOM      8  H1  UNL     1      -2.957  15.311  14.896  1.00  0.00     0.163 HD
ATOM      9  H2  UNL     1      -2.546  16.793  16.868  1.00  0.00     0.164 HD
ENDBRANCH   2   3
ENDBRANCH   1   2
BRANCH   1  10
HETATM   10  N3  UNL     1       0.332  17.958  17.943  1.00  0.00    -0.361 N 
ATOM     11  H3  UNL     1       1.207  17.441  18.032  1.00  0.00     0.162 HD
BRANCH  10  12
HETATM   12  C5  UNL     1       0.221  18.971  16.966  1.00  0.00     0.168 C 
HETATM   13  S1  UNL     1      -1.055  20.029  16.996  1.00  0.00    -0.041 SA
BRANCH  12  14
HETATM   14  N4  UNL     1       1.173  19.178  15.940  1.00  0.00    -0.363 N 
ATOM     15  H4  UNL     1       1.760  18.396  15.648  1.00  0.00     0.162 HD
BRANCH  14  16
HETATM   16  C6  UNL     1       1.339  20.443  15.300  1.00  0.00     0.083 C 
HETATM   17  C7  UNL     1       2.244  21.338  16.130  1.00  0.00     0.025 C 
HETATM   18  C8  UNL     1       3.576  20.669  16.394  1.00  0.00     0.002 C 
HETATM   19  C9  UNL     1       4.135  20.037  15.138  1.00  0.00     0.000 C 
HETATM   20  C10 UNL     1       3.414  20.583  13.900  1.00  0.00     0.002 C 
HETATM   21  C11 UNL     1       1.953  20.188  13.935  1.00  0.00     0.025 C 
ENDBRANCH  14  16
ENDBRANCH  12  14
ENDBRANCH  10  12
ENDBRANCH   1  10
BRANCH   1  22
HETATM   22  C12 UNL     1      -0.236  17.711  20.240  1.00  0.00     0.010 C 
HETATM   23  C13 UNL     1      -1.203  17.475  21.328  1.00  0.00     0.007 C 
HETATM   24  C14 UNL     1      -0.656  18.047  22.662  1.00  0.00     0.000 C 
HETATM   25  C15 UNL     1      -0.725  19.544  22.455  1.00  0.00     0.000 C 
HETATM   26  C16 UNL     1       0.247  19.923  21.405  1.00  0.00     0.000 C 
HETATM   27  C17 UNL     1       0.654  18.905  20.424  1.00  0.00     0.007 C 
ENDBRANCH   1  22
TORSDOF 7
ENDMDL
MODEL 5
REMARK VINA RESULT: -6.109938536      2.287      3.347
REMARK  7 active torsions:
REMARK  status: ('A' for Active; 'I' for Inactive)
REMARK       I    between atoms: N1_2  and  C2_4 
REMARK       I    between atoms: C2_4  and  N2_6 
REMARK    1  A    between atoms: N2_6  and  C3_8 
REMARK    2  A    between atoms: C3_8  and  C4_9 
REMARK    3  A    between atoms: C4_9  and  N3_10 
REMARK    4  A    between atoms: C4_9  and  C12_22 
REMARK    5  A    between atoms: N3_10  and  C5_12 
REMARK    6  A    between atoms: C5_12  and  N4_14 
REMARK    7  A    between atoms: N4_14  and  C6_16 
ROOT
HETATM    1  C4  UNL     1      -0.650  16.717  18.378  1.00  0.00     0.106 C 
ENDROOT
BRANCH   1   2
HETATM    2  C3  UNL     1      -1.042  17.435  19.625  1.00  0.00     0.149 C 
BRANCH   2   3
HETATM    3  N2  UNL     1      -1.026  16.714  20.847  1.00  0.00    -0.341 N 
HETATM    4  C2  UNL     1      -1.384  17.435  22.026  1.00  0.00     0.315 C 
HETATM    5  N1  UNL     1      -1.393  16.790  23.290  1.00  0.00    -0.347 N 
HETATM    6  O1  UNL     1      -1.695  18.649  21.967  1.00  0.00    -0.247 OA
HETATM    7  C1  UNL     1      -1.755  17.514  24.491  1.00  0.00     0.151 C 
ATOM      8  H1  UNL     1      -1.141  15.804  23.353  1.00  0.00     0.163 HD
ATOM      9  H2  UNL     1      -0.771  15.727  20.881  1.00  0.00     0.164 HD
ENDBRANCH   2   3
ENDBRANCH   1   2
BRANCH   1  10
HETATM   10  N3  UNL     1      -0.986  17.639  17.278  1.00  0.00    -0.361 N 
ATOM     11  H3  UNL     1      -1.681  17.359  16.585  1.00  0.00     0.162 HD
BRANCH  10  12
HETATM   12  C5  UNL     1      -0.365  18.901  17.166  1.00  0.00     0.168 C 
HETATM   13  S1  UNL     1      -1.128  20.146  16.379  1.00  0.00    -0.041 SA
BRANCH  12  14
HETATM   14  N4  UNL     1       0.899  19.205  17.726  1.00  0.00    -0.363 N 
ATOM     15  H4  UNL     1       1.586  18.457  17.825  1.00  0.00     0.162 HD
BRANCH  14  16
HETATM   16  C6  UNL     1       1.245  20.522  18.156  1.00  0.00     0.083 C 
HETATM   17  C7  UNL     1       0.942  20.687  19.636  1.00  0.00     0.025 C 
HETATM   18  C8  UNL     1       1.649  19.631  20.457  1.00  0.00     0.002 C 
HETATM   19  C9  UNL     1       3.089  19.468  20.025  1.00  0.00     0.000 C 
HETATM   20  C10 UNL     1       3.530  20.665  19.175  1.00  0.00     0.002 C 
HETATM   21  C11 UNL     1       2.727  20.714  17.892  1.00  0.00     0.025 C 
ENDBRANCH  14  16
ENDBRANCH  12  14
ENDBRANCH  10  12
ENDBRANCH   1  10
BRANCH   1  22
HETATM   22  C12 UNL     1      -1.470  15.471  18.129  1.00  0.00     0.010 C 
HETATM   23  C13 UNL     1      -0.729  14.196  18.176  1.00  0.00     0.007 C 
HETATM   24  C14 UNL     1      -1.530  13.086  17.449  1.00  0.00     0.000 C 
HETATM   25  C15 UNL     1      -1.440  13.486  15.993  1.00  0.00     0.000 C 
HETATM   26  C16 UNL     1      -2.195  14.745  15.799  1.00  0.00     0.000 C 
HETATM   27  C17 UNL     1      -2.393  15.630  16.957  1.00  0.00     0.007 C 
ENDBRANCH   1  22
TORSDOF 7
ENDMDL
