MODEL 1
REMARK VINA RESULT: -7.535404604      0.000      0.000
REMARK  4 active torsions:
REMARK  status: ('A' for Active; 'I' for Inactive)
REMARK    1  A    between atoms: C4_9  and  C5_10 
REMARK    2  A    between atoms: C15_26  and  C16_27 
REMARK    3  A    between atoms: C16_27  and  C17_28 
REMARK    4  A    between atoms: C17_28  and  C18_29 
ROOT
HETATM    1  C1  UNL     1       4.262  21.782  18.377  1.00  0.00     0.043 C 
HETATM    2  C2  UNL     1       3.106  21.184  18.452  1.00  0.00     0.031 A 
HETATM    3  N1  UNL     1       2.582  20.901  19.676  1.00  0.00    -0.342 N 
ATOM      4  H1  UNL     1       3.108  21.165  20.508  1.00  0.00     0.167 HD
HETATM    5  C3  UNL     1       1.396  20.287  19.829  1.00  0.00     0.110 A 
HETATM    6  N2  UNL     1       1.017  20.079  21.035  1.00  0.00    -0.385 N 
ATOM      7  H21 UNL     1       0.117  19.612  21.152  1.00  0.00     0.157 HD
ATOM      8  H22 UNL     1       1.549  20.345  21.863  1.00  0.00     0.157 HD
HETATM    9  C4  UNL     1       0.674  19.927  18.709  1.00  0.00     0.015 A 
HETATM   10  C13 UNL     1       1.199  20.211  17.437  1.00  0.00    -0.040 A 
HETATM   11  C14 UNL     1       0.395  19.835  16.280  1.00  0.00     0.050 C 
HETATM   12  C15 UNL     1       2.417  20.839  17.304  1.00  0.00    -0.025 A 
ENDROOT
BRANCH   9  13
HETATM   13  C5  UNL     1      -0.482  19.327  18.840  1.00  0.00     0.031 C 
HETATM   14  C6  UNL     1      -0.776  17.920  18.905  1.00  0.00     0.018 A 
HETATM   15  C7  UNL     1      -0.864  17.134  20.036  1.00  0.00     0.018 A 
HETATM   16  C12 UNL     1      -1.051  17.105  17.807  1.00  0.00     0.089 A 
HETATM   17  C8  UNL     1      -0.644  17.615  21.445  1.00  0.00     0.069 C 
HETATM   18  N3  UNL     1      -1.180  15.898  19.643  1.00  0.00    -0.356 N 
HETATM   19  C9  UNL     1      -1.299  15.850  18.309  1.00  0.00     0.085 A 
ATOM     20  H3  UNL     1      -1.311  15.104  20.269  1.00  0.00     0.166 HD
HETATM   21  C10 UNL     1      -1.574  15.025  17.240  1.00  0.00     0.051 A 
HETATM   22  C11 UNL     1      -1.906  13.555  17.291  1.00  0.00     0.072 C 
HETATM   23  N4  UNL     1      -1.488  15.790  16.140  1.00  0.00    -0.302 N 
HETATM   24  N5  UNL     1      -1.177  17.032  16.471  1.00  0.00    -0.297 N 
ATOM     25  H4  UNL     1      -1.640  15.461  15.186  1.00  0.00     0.186 HD
ATOM     26  H5  UNL     1      -1.053  17.807  15.819  1.00  0.00     0.187 HD
ENDBRANCH   9  13
BRANCH  12  27
HETATM   27  C16 UNL     1       2.946  21.125  15.971  1.00  0.00     0.042 C 
BRANCH  27  28
HETATM   28  C17 UNL     1       3.792  19.999  15.418  1.00  0.00     0.008 C 
BRANCH  28  29
HETATM   29  C18 UNL     1       4.830  20.535  14.441  1.00  0.00    -0.023 C 
HETATM   30  C19 UNL     1       6.116  19.741  14.526  1.00  0.00     0.009 C 
HETATM   31  C20 UNL     1       5.197  21.972  14.788  1.00  0.00     0.009 C 
ENDBRANCH  28  29
ENDBRANCH  27  28
ENDBRANCH  12  27
TORSDOF 4
ENDMDL
MODEL 2
REMARK VINA RESULT: -7.274108972      1.953      3.066
REMARK  4 active torsions:
REMARK  status: ('A' for Active; 'I' for Inactive)
REMARK    1  A    between atoms: C4_9  and  C5_10 
REMARK    2  A    between atoms: C15_26  and  C16_27 
REMARK    3  A    between atoms: C16_27  and  C17_28 
REMARK    4  A    between atoms: C17_28  and  C18_29 
ROOT
HETATM    1  C1  UNL     1       3.331  22.607  13.300  1.00  0.00     0.043 C 
HETATM    2  C2  UNL     1       2.697  22.059  14.300  1.00  0.00     0.031 A 
HETATM    3  N1  UNL     1       1.443  21.568  14.103  1.00  0.00    -0.342 N 
ATOM      4  H1  UNL     1       1.028  21.640  13.175  1.00  0.00     0.167 HD
HETATM    5  C3  UNL     1       0.731  20.990  15.086  1.00  0.00     0.110 A 
HETATM    6  N2  UNL     1      -0.436  20.570  14.770  1.00  0.00    -0.385 N 
ATOM      7  H21 UNL     1      -0.977  20.132  15.516  1.00  0.00     0.157 HD
ATOM      8  H22 UNL     1      -0.846  20.647  13.839  1.00  0.00     0.157 HD
HETATM    9  C4  UNL     1       1.286  20.886  16.346  1.00  0.00     0.015 A 
HETATM   10  C13 UNL     1       2.580  21.387  16.568  1.00  0.00    -0.040 A 
HETATM   11  C14 UNL     1       3.136  21.237  17.907  1.00  0.00     0.050 C 
HETATM   12  C15 UNL     1       3.288  21.977  15.546  1.00  0.00    -0.025 A 
ENDROOT
BRANCH   9  13
HETATM   13  C5  UNL     1       0.606  20.328  17.316  1.00  0.00     0.031 C 
HETATM   14  C6  UNL     1       0.504  18.938  17.675  1.00  0.00     0.018 A 
HETATM   15  C7  UNL     1       1.292  18.244  18.572  1.00  0.00     0.018 A 
HETATM   16  C12 UNL     1      -0.448  18.048  17.179  1.00  0.00     0.089 A 
HETATM   17  C8  UNL     1       2.444  18.827  19.345  1.00  0.00     0.069 C 
HETATM   18  N3  UNL     1       0.838  16.990  18.619  1.00  0.00    -0.356 N 
HETATM   19  C9  UNL     1      -0.207  16.842  17.793  1.00  0.00     0.085 A 
ATOM     20  H3  UNL     1       1.230  16.250  19.201  1.00  0.00     0.166 HD
HETATM   21  C10 UNL     1      -1.138  15.944  17.317  1.00  0.00     0.051 A 
HETATM   22  C11 UNL     1      -1.274  14.491  17.699  1.00  0.00     0.072 C 
HETATM   23  N4  UNL     1      -1.904  16.619  16.445  1.00  0.00    -0.302 N 
HETATM   24  N5  UNL     1      -1.498  17.875  16.358  1.00  0.00    -0.297 N 
ATOM     25  H4  UNL     1      -2.686  16.221  15.924  1.00  0.00     0.186 HD
ATOM     26  H5  UNL     1      -1.914  18.594  15.765  1.00  0.00     0.187 HD
ENDBRANCH   9  13
BRANCH  12  27
HETATM   27  C16 UNL     1       4.633  22.493  15.799  1.00  0.00     0.042 C 
BRANCH  27  28
HETATM   28  C17 UNL     1       5.685  21.406  15.839  1.00  0.00     0.008 C 
BRANCH  28  29
HETATM   29  C18 UNL     1       5.974  20.883  14.439  1.00  0.00    -0.023 C 
HETATM   30  C19 UNL     1       6.536  19.479  14.488  1.00  0.00     0.009 C 
HETATM   31  C20 UNL     1       7.036  21.739  13.759  1.00  0.00     0.009 C 
ENDBRANCH  28  29
ENDBRANCH  27  28
ENDBRANCH  12  27
TORSDOF 4
ENDMDL
MODEL 3
REMARK VINA RESULT: -7.145453511      2.222      3.636
REMARK  4 active torsions:
REMARK  status: ('A' for Active; 'I' for Inactive)
REMARK    1  A    between atoms: C4_9  and  C5_10 
REMARK    2  A    between atoms: C15_26  and  C16_27 
REMARK    3  A    between atoms: C16_27  and  C17_28 
REMARK    4  A    between atoms: C17_28  and  C18_29 
ROOT
HETATM    1  C1  UNL     1       5.333  21.274  14.023  1.00  0.00     0.043 C 
HETATM    2  C2  UNL     1       4.391  21.037  14.894  1.00  0.00     0.031 A 
HETATM    3  N1  UNL     1       3.279  20.358  14.501  1.00  0.00    -0.342 N 
ATOM      4  H1  UNL     1       3.209  20.049  13.532  1.00  0.00     0.167 HD
HETATM    5  C3  UNL     1       2.270  20.077  15.344  1.00  0.00     0.110 A 
HETATM    6  N2  UNL     1       1.280  19.433  14.849  1.00  0.00    -0.385 N 
ATOM      7  H21 UNL     1       0.514  19.220  15.488  1.00  0.00     0.157 HD
ATOM      8  H22 UNL     1       1.216  19.128  13.878  1.00  0.00     0.157 HD
HETATM    9  C4  UNL     1       2.356  20.490  16.658  1.00  0.00     0.015 A 
HETATM   10  C13 UNL     1       3.497  21.192  17.082  1.00  0.00    -0.040 A 
HETATM   11  C14 UNL     1       3.559  21.589  18.483  1.00  0.00     0.050 C 
HETATM   12  C15 UNL     1       4.517  21.469  16.200  1.00  0.00    -0.025 A 
ENDROOT
BRANCH   9  13
HETATM   13  C5  UNL     1       1.382  20.227  17.492  1.00  0.00     0.031 C 
HETATM   14  C6  UNL     1       0.981  18.965  18.058  1.00  0.00     0.018 A 
HETATM   15  C7  UNL     1       1.408  18.406  19.245  1.00  0.00     0.018 A 
HETATM   16  C12 UNL     1       0.054  18.090  17.492  1.00  0.00     0.089 A 
HETATM   17  C8  UNL     1       2.412  19.022  20.182  1.00  0.00     0.069 C 
HETATM   18  N3  UNL     1       0.768  17.244  19.395  1.00  0.00    -0.356 N 
HETATM   19  C9  UNL     1      -0.053  17.028  18.358  1.00  0.00     0.085 A 
ATOM     20  H3  UNL     1       0.886  16.612  20.186  1.00  0.00     0.166 HD
HETATM   21  C10 UNL     1      -0.966  16.147  17.819  1.00  0.00     0.051 A 
HETATM   22  C11 UNL     1      -1.414  14.833  18.408  1.00  0.00     0.072 C 
HETATM   23  N4  UNL     1      -1.381  16.692  16.664  1.00  0.00    -0.302 N 
HETATM   24  N5  UNL     1      -0.777  17.851  16.463  1.00  0.00    -0.297 N 
ATOM     25  H4  UNL     1      -2.063  16.272  16.032  1.00  0.00     0.186 HD
ATOM     26  H5  UNL     1      -0.918  18.463  15.659  1.00  0.00     0.187 HD
ENDBRANCH   9  13
BRANCH  12  27
HETATM   27  C16 UNL     1       5.696  22.203  16.661  1.00  0.00     0.042 C 
BRANCH  27  28
HETATM   28  C17 UNL     1       5.575  23.698  16.463  1.00  0.00     0.008 C 
BRANCH  28  29
HETATM   29  C18 UNL     1       6.115  24.447  17.673  1.00  0.00    -0.023 C 
HETATM   30  C19 UNL     1       4.989  24.914  18.570  1.00  0.00     0.009 C 
HETATM   31  C20 UNL     1       6.856  25.704  17.235  1.00  0.00     0.009 C 
ENDBRANCH  28  29
ENDBRANCH  27  28
ENDBRANCH  12  27
TORSDOF 4
ENDMDL
MODEL 4
REMARK VINA RESULT: -7.007293523      9.452     12.628
REMARK  4 active torsions:
REMARK  status: ('A' for Active; 'I' for Inactive)
REMARK    1  A    between atoms: C4_9  and  C5_10 
REMARK    2  A    between atoms: C15_26  and  C16_27 
REMARK    3  A    between atoms: C16_27  and  C17_28 
REMARK    4  A    between atoms: C17_28  and  C18_29 
ROOT
HETATM    1  C1  UNL     1      -2.968  17.703  25.399  1.00  0.00     0.043 C 
HETATM    2  C2  UNL     1      -2.186  18.190  26.322  1.00  0.00     0.031 A 
HETATM    3  N1  UNL     1      -0.843  17.991  26.228  1.00  0.00    -0.342 N 
ATOM      4  H1  UNL     1      -0.479  17.464  25.434  1.00  0.00     0.167 HD
HETATM    5  C3  UNL     1       0.023  18.463  27.142  1.00  0.00     0.110 A 
HETATM    6  N2  UNL     1       1.261  18.206  26.937  1.00  0.00    -0.385 N 
ATOM      7  H21 UNL     1       1.918  18.564  27.630  1.00  0.00     0.157 HD
ATOM      8  H22 UNL     1       1.617  17.678  26.141  1.00  0.00     0.157 HD
HETATM    9  C4  UNL     1      -0.460  19.178  28.219  1.00  0.00     0.015 A 
HETATM   10  C13 UNL     1      -1.844  19.394  28.333  1.00  0.00    -0.040 A 
HETATM   11  C14 UNL     1      -2.310  20.174  29.474  1.00  0.00     0.050 C 
HETATM   12  C15 UNL     1      -2.711  18.899  27.386  1.00  0.00    -0.025 A 
ENDROOT
BRANCH   9  13
HETATM   13  C5  UNL     1       0.369  19.644  29.120  1.00  0.00     0.031 C 
HETATM   14  C6  UNL     1       1.233  20.793  29.055  1.00  0.00     0.018 A 
HETATM   15  C7  UNL     1       0.945  22.082  29.454  1.00  0.00     0.018 A 
HETATM   16  C12 UNL     1       2.547  20.783  28.587  1.00  0.00     0.089 A 
HETATM   17  C8  UNL     1      -0.369  22.538  30.029  1.00  0.00     0.069 C 
HETATM   18  N3  UNL     1       2.035  22.822  29.240  1.00  0.00    -0.356 N 
HETATM   19  C9  UNL     1       3.014  22.069  28.719  1.00  0.00     0.085 A 
ATOM     20  H3  UNL     1       2.112  23.819  29.443  1.00  0.00     0.166 HD
HETATM   21  C10 UNL     1       4.314  22.085  28.262  1.00  0.00     0.051 A 
HETATM   22  C11 UNL     1       5.242  23.273  28.208  1.00  0.00     0.072 C 
HETATM   23  N4  UNL     1       4.594  20.830  27.874  1.00  0.00    -0.302 N 
HETATM   24  N5  UNL     1       3.544  20.049  28.065  1.00  0.00    -0.297 N 
ATOM     25  H4  UNL     1       5.487  20.524  27.487  1.00  0.00     0.186 HD
ATOM     26  H5  UNL     1       3.500  19.052  27.852  1.00  0.00     0.187 HD
ENDBRANCH   9  13
BRANCH  12  27
HETATM   27  C16 UNL     1      -4.148  19.133  27.523  1.00  0.00     0.042 C 
BRANCH  27  28
HETATM   28  C17 UNL     1      -4.820  18.151  28.458  1.00  0.00     0.008 C 
BRANCH  28  29
HETATM   29  C18 UNL     1      -6.030  17.513  27.790  1.00  0.00    -0.023 C 
HETATM   30  C19 UNL     1      -5.702  16.125  27.285  1.00  0.00     0.009 C 
HETATM   31  C20 UNL     1      -6.450  18.319  26.568  1.00  0.00     0.009 C 
ENDBRANCH  28  29
ENDBRANCH  27  28
ENDBRANCH  12  27
TORSDOF 4
ENDMDL
MODEL 5
REMARK VINA RESULT: -6.959787396      3.188      7.310
REMARK  4 active torsions:
REMARK  status: ('A' for Active; 'I' for Inactive)
REMARK    1  A    between atoms: C4_9  and  C5_10 
REMARK    2  A    between atoms: C15_26  and  C16_27 
REMARK    3  A    between atoms: C16_27  and  C17_28 
REMARK    4  A    between atoms: C17_28  and  C18_29 
ROOT
HETATM    1  C1  UNL     1      -3.569  21.080  23.152  1.00  0.00     0.043 C 
HETATM    2  C2  UNL     1      -2.779  20.342  22.423  1.00  0.00     0.031 A 
HETATM    3  N1  UNL     1      -2.166  20.894  21.340  1.00  0.00    -0.342 N 
ATOM      4  H1  UNL     1      -2.341  21.875  21.124  1.00  0.00     0.167 HD
HETATM    5  C3  UNL     1      -1.339  20.195  20.544  1.00  0.00     0.110 A 
HETATM    6  N2  UNL     1      -0.828  20.831  19.557  1.00  0.00    -0.385 N 
ATOM      7  H21 UNL     1      -0.200  20.301  18.952  1.00  0.00     0.157 HD
ATOM      8  H22 UNL     1      -1.008  21.812  19.346  1.00  0.00     0.157 HD
HETATM    9  C4  UNL     1      -1.095  18.866  20.828  1.00  0.00     0.015 A 
HETATM   10  C13 UNL     1      -1.718  18.280  21.943  1.00  0.00    -0.040 A 
HETATM   11  C14 UNL     1      -1.415  16.881  22.221  1.00  0.00     0.050 C 
HETATM   12  C15 UNL     1      -2.563  19.015  22.742  1.00  0.00    -0.025 A 
ENDROOT
BRANCH   9  13
HETATM   13  C5  UNL     1      -0.293  18.169  20.063  1.00  0.00     0.031 C 
HETATM   14  C6  UNL     1      -0.592  17.424  18.868  1.00  0.00     0.018 A 
HETATM   15  C7  UNL     1      -0.544  17.876  17.565  1.00  0.00     0.018 A 
HETATM   16  C12 UNL     1      -0.967  16.082  18.833  1.00  0.00     0.089 A 
HETATM   17  C8  UNL     1      -0.177  19.274  17.146  1.00  0.00     0.069 C 
HETATM   18  N3  UNL     1      -0.873  16.854  16.773  1.00  0.00    -0.356 N 
HETATM   19  C9  UNL     1      -1.133  15.762  17.506  1.00  0.00     0.085 A 
ATOM     20  H3  UNL     1      -0.920  16.897  15.755  1.00  0.00     0.166 HD
HETATM   21  C10 UNL     1      -1.504  14.436  17.444  1.00  0.00     0.051 A 
HETATM   22  C11 UNL     1      -1.799  13.634  16.202  1.00  0.00     0.072 C 
HETATM   23  N4  UNL     1      -1.551  13.997  18.713  1.00  0.00    -0.302 N 
HETATM   24  N5  UNL     1      -1.231  14.973  19.546  1.00  0.00    -0.297 N 
ATOM     25  H4  UNL     1      -1.798  13.048  18.993  1.00  0.00     0.186 HD
ATOM     26  H5  UNL     1      -1.192  14.897  20.562  1.00  0.00     0.187 HD
ENDBRANCH   9  13
BRANCH  12  27
HETATM   27  C16 UNL     1      -3.202  18.385  23.897  1.00  0.00     0.042 C 
BRANCH  27  28
HETATM   28  C17 UNL     1      -2.370  18.481  25.157  1.00  0.00     0.008 C 
BRANCH  28  29
HETATM   29  C18 UNL     1      -3.114  17.878  26.341  1.00  0.00    -0.023 C 
HETATM   30  C19 UNL     1      -4.561  17.605  25.991  1.00  0.00     0.009 C 
HETATM   31  C20 UNL     1      -3.139  18.856  27.509  1.00  0.00     0.009 C 
ENDBRANCH  28  29
ENDBRANCH  27  28
ENDBRANCH  12  27
TORSDOF 4
ENDMDL
