MODEL 1
REMARK VINA RESULT: -7.596430012      0.000      0.000
REMARK  12 active torsions:
REMARK  status: ('A' for Active; 'I' for Inactive)
REMARK    1  A    between atoms: N1_1  and  C1_5 
REMARK    2  A    between atoms: C3_7  and  O1_8 
REMARK    3  A    between atoms: C4_10  and  C5_11 
REMARK    4  A    between atoms: C5_11  and  O2_12 
REMARK    5  A    between atoms: C6_15  and  O4_16 
REMARK    6  A    between atoms: O4_16  and  C7_17 
REMARK    7  A    between atoms: C8_18  and  N2_19 
REMARK    8  A    between atoms: C11_25  and  N3_26 
REMARK    9  A    between atoms: C12_30  and  C13_31 
REMARK   10  A    between atoms: C14_35  and  C15_36 
REMARK   11  A    between atoms: C15_36  and  S1_37 
REMARK   12  A    between atoms: S1_37  and  C16_38 
ROOT
HETATM    1  C7  UNL     1      -5.788  -4.772  11.652  1.00  0.00     0.162 C 
HETATM    2  C8  UNL     1      -5.352  -6.274  11.520  1.00  0.00     0.213 C 
HETATM    3  C9  UNL     1      -4.458  -6.324  10.315  1.00  0.00     0.043 C 
HETATM    4  C10 UNL     1      -4.391  -4.966   9.763  1.00  0.00     0.030 C 
HETATM    5  C11 UNL     1      -4.523  -4.897   8.257  1.00  0.00     0.227 C 
HETATM    6  C12 UNL     1      -4.959  -3.575   7.754  1.00  0.00     0.253 C 
HETATM    7  O7  UNL     1      -5.722  -2.813   8.558  1.00  0.00    -0.366 OA
HETATM    8  C14 UNL     1      -5.489  -2.886   9.938  1.00  0.00     0.139 C 
HETATM    9  C20 UNL     1      -5.712  -4.345  10.261  1.00  0.00     0.053 C 
ENDROOT
BRANCH   1  10
HETATM   10  O4  UNL     1      -7.101  -4.775  12.093  1.00  0.00    -0.351 OA
BRANCH  10  11
HETATM   11  C6  UNL     1      -7.387  -4.294  13.313  1.00  0.00     0.291 C 
HETATM   12  C1  UNL     1      -6.244  -3.456  13.915  1.00  0.00     0.240 C 
HETATM   13  C2  UNL     1      -6.917  -2.523  14.895  1.00  0.00     0.072 C 
HETATM   14  C3  UNL     1      -8.019  -3.172  15.660  1.00  0.00     0.151 C 
HETATM   15  C4  UNL     1      -8.168  -4.642  15.462  1.00  0.00     0.177 C 
HETATM   16  O3  UNL     1      -7.750  -5.162  14.293  1.00  0.00    -0.349 OA
BRANCH  12  17
HETATM   17  N1  UNL     1      -5.356  -4.306  14.689  1.00  0.00    -0.070 N 
ATOM     18  H13 UNL     1      -4.369  -4.088  14.551  1.00  0.00     0.274 HD
ATOM     19  H12 UNL     1      -5.391  -4.117  15.691  1.00  0.00     0.274 HD
ATOM     20  H11 UNL     1      -5.592  -5.269  14.452  1.00  0.00     0.274 HD
ENDBRANCH  12  17
BRANCH  14  21
HETATM   21  O1  UNL     1      -9.245  -2.488  15.484  1.00  0.00    -0.393 OA
ATOM     22  H1  UNL     1      -9.955  -3.089  15.291  1.00  0.00     0.210 HD
ENDBRANCH  14  21
BRANCH  15  23
HETATM   23  C5  UNL     1      -9.662  -4.974  15.599  1.00  0.00     0.198 C 
BRANCH  23  24
HETATM   24  O2  UNL     1     -10.371  -4.735  14.447  1.00  0.00    -0.398 OA
ATOM     25  H2  UNL     1     -11.307  -4.674  14.595  1.00  0.00     0.209 HD
ENDBRANCH  23  24
ENDBRANCH  15  23
ENDBRANCH  10  11
ENDBRANCH   1  10
BRANCH   2  26
HETATM   26  N2  UNL     1      -6.568  -7.016  11.157  1.00  0.00    -0.073 N 
ATOM     27  H23 UNL     1      -7.383  -6.759  11.713  1.00  0.00     0.274 HD
ATOM     28  H22 UNL     1      -6.950  -6.752  10.249  1.00  0.00     0.274 HD
ATOM     29  H21 UNL     1      -6.323  -8.004  11.224  1.00  0.00     0.274 HD
ENDBRANCH   2  26
BRANCH   8  30
HETATM   30  C15 UNL     1      -6.456  -1.941  10.565  1.00  0.00     0.106 C 
BRANCH  30  31
HETATM   31  S1  UNL     1      -5.702  -0.657  11.526  1.00  0.00    -0.162 SA
BRANCH  31  32
HETATM   32  C16 UNL     1      -3.966  -0.418  11.454  1.00  0.00     0.047 C 
HETATM   33  C17 UNL     1      -3.550   0.054  10.039  1.00  0.00     0.015 C 
HETATM   34  C18 UNL     1      -2.401   0.767  10.740  1.00  0.00     0.002 C 
HETATM   35  C19 UNL     1      -3.299   0.786  12.011  1.00  0.00     0.015 C 
ENDBRANCH  31  32
ENDBRANCH  30  31
ENDBRANCH   8  30
BRANCH   5  36
HETATM   36  N3  UNL     1      -3.309  -5.380   7.662  1.00  0.00    -0.072 N 
ATOM     37  H33 UNL     1      -2.713  -4.625   7.325  1.00  0.00     0.274 HD
ATOM     38  H32 UNL     1      -2.666  -5.771   8.351  1.00  0.00     0.274 HD
ATOM     39  H31 UNL     1      -3.545  -6.047   6.928  1.00  0.00     0.274 HD
ENDBRANCH   5  36
BRANCH   6  40
HETATM   40  C13 UNL     1      -3.840  -2.755   7.192  1.00  0.00     0.205 C 
HETATM   41  O5  UNL     1      -2.783  -2.524   7.809  1.00  0.00    -0.646 OA
HETATM   42  O6  UNL     1      -3.967  -2.216   5.920  1.00  0.00    -0.646 OA
ENDBRANCH   6  40
TORSDOF 12
ENDMDL
MODEL 2
REMARK VINA RESULT: -7.135133101      2.438      7.884
REMARK  12 active torsions:
REMARK  status: ('A' for Active; 'I' for Inactive)
REMARK    1  A    between atoms: N1_1  and  C1_5 
REMARK    2  A    between atoms: C3_7  and  O1_8 
REMARK    3  A    between atoms: C4_10  and  C5_11 
REMARK    4  A    between atoms: C5_11  and  O2_12 
REMARK    5  A    between atoms: C6_15  and  O4_16 
REMARK    6  A    between atoms: O4_16  and  C7_17 
REMARK    7  A    between atoms: C8_18  and  N2_19 
REMARK    8  A    between atoms: C11_25  and  N3_26 
REMARK    9  A    between atoms: C12_30  and  C13_31 
REMARK   10  A    between atoms: C14_35  and  C15_36 
REMARK   11  A    between atoms: C15_36  and  S1_37 
REMARK   12  A    between atoms: S1_37  and  C16_38 
ROOT
HETATM    1  C7  UNL     1      -5.068  -3.334  10.578  1.00  0.00     0.162 C 
HETATM    2  C8  UNL     1      -5.681  -1.904  10.367  1.00  0.00     0.213 C 
HETATM    3  C9  UNL     1      -6.248  -1.514  11.700  1.00  0.00     0.043 C 
HETATM    4  C10 UNL     1      -6.013  -2.633  12.621  1.00  0.00     0.030 C 
HETATM    5  C11 UNL     1      -7.200  -2.987  13.489  1.00  0.00     0.227 C 
HETATM    6  C12 UNL     1      -7.162  -4.367  14.022  1.00  0.00     0.253 C 
HETATM    7  O7  UNL     1      -6.517  -5.304  13.305  1.00  0.00    -0.366 OA
HETATM    8  C14 UNL     1      -5.384  -4.905  12.582  1.00  0.00     0.139 C 
HETATM    9  C20 UNL     1      -5.911  -3.832  11.658  1.00  0.00     0.053 C 
ENDROOT
BRANCH   1  10
HETATM   10  O4  UNL     1      -5.296  -4.043   9.410  1.00  0.00    -0.351 OA
BRANCH  10  11
HETATM   11  C6  UNL     1      -4.428  -3.932   8.393  1.00  0.00     0.291 C 
HETATM   12  C1  UNL     1      -4.376  -5.188   7.504  1.00  0.00     0.240 C 
HETATM   13  C2  UNL     1      -3.902  -4.694   6.157  1.00  0.00     0.072 C 
HETATM   14  C3  UNL     1      -2.843  -3.650   6.254  1.00  0.00     0.151 C 
HETATM   15  C4  UNL     1      -2.316  -3.387   7.624  1.00  0.00     0.177 C 
HETATM   16  O3  UNL     1      -3.132  -3.633   8.666  1.00  0.00    -0.349 OA
BRANCH  12  17
HETATM   17  N1  UNL     1      -3.362  -6.105   7.994  1.00  0.00    -0.070 N 
ATOM     18  H13 UNL     1      -2.433  -5.916   7.618  1.00  0.00     0.274 HD
ATOM     19  H12 UNL     1      -3.133  -5.964   8.978  1.00  0.00     0.274 HD
ATOM     20  H11 UNL     1      -3.694  -7.047   7.789  1.00  0.00     0.274 HD
ENDBRANCH  12  17
BRANCH  14  21
HETATM   21  O1  UNL     1      -3.228  -2.457   5.598  1.00  0.00    -0.393 OA
ATOM     22  H1  UNL     1      -2.807  -1.698   5.980  1.00  0.00     0.210 HD
ENDBRANCH  14  21
BRANCH  15  23
HETATM   23  C5  UNL     1      -1.928  -1.902   7.689  1.00  0.00     0.198 C 
BRANCH  23  24
HETATM   24  O2  UNL     1      -2.988  -1.086   8.004  1.00  0.00    -0.398 OA
ATOM     25  H2  UNL     1      -2.879  -0.198   7.684  1.00  0.00     0.209 HD
ENDBRANCH  23  24
ENDBRANCH  15  23
ENDBRANCH  10  11
ENDBRANCH   1  10
BRANCH   2  26
HETATM   26  N2  UNL     1      -6.832  -2.088   9.472  1.00  0.00    -0.073 N 
ATOM     27  H23 UNL     1      -6.972  -3.056   9.183  1.00  0.00     0.274 HD
ATOM     28  H22 UNL     1      -7.732  -1.966   9.936  1.00  0.00     0.274 HD
ATOM     29  H21 UNL     1      -6.685  -1.446   8.692  1.00  0.00     0.274 HD
ENDBRANCH   2  26
BRANCH   8  30
HETATM   30  C15 UNL     1      -4.878  -6.134  11.907  1.00  0.00     0.106 C 
BRANCH  30  31
HETATM   31  S1  UNL     1      -6.128  -7.078  11.079  1.00  0.00    -0.162 SA
BRANCH  31  32
HETATM   32  C16 UNL     1      -5.725  -8.633  10.375  1.00  0.00     0.047 C 
HETATM   33  C17 UNL     1      -4.227  -8.952  10.608  1.00  0.00     0.015 C 
HETATM   34  C18 UNL     1      -4.655 -10.414  10.586  1.00  0.00     0.002 C 
HETATM   35  C19 UNL     1      -6.063  -9.921  11.028  1.00  0.00     0.015 C 
ENDBRANCH  31  32
ENDBRANCH  30  31
ENDBRANCH   8  30
BRANCH   5  36
HETATM   36  N3  UNL     1      -7.361  -1.974  14.493  1.00  0.00    -0.072 N 
ATOM     37  H33 UNL     1      -7.028  -1.061  14.182  1.00  0.00     0.274 HD
ATOM     38  H32 UNL     1      -8.339  -1.725  14.643  1.00  0.00     0.274 HD
ATOM     39  H31 UNL     1      -6.902  -2.283  15.350  1.00  0.00     0.274 HD
ENDBRANCH   5  36
BRANCH   6  40
HETATM   40  C13 UNL     1      -6.731  -4.439  15.454  1.00  0.00     0.205 C 
HETATM   41  O5  UNL     1      -7.374  -5.041  16.333  1.00  0.00    -0.646 OA
HETATM   42  O6  UNL     1      -5.557  -3.808  15.840  1.00  0.00    -0.646 OA
ENDBRANCH   6  40
TORSDOF 12
ENDMDL
MODEL 3
REMARK VINA RESULT: -7.127802950      2.023      2.890
REMARK  12 active torsions:
REMARK  status: ('A' for Active; 'I' for Inactive)
REMARK    1  A    between atoms: N1_1  and  C1_5 
REMARK    2  A    between atoms: C3_7  and  O1_8 
REMARK    3  A    between atoms: C4_10  and  C5_11 
REMARK    4  A    between atoms: C5_11  and  O2_12 
REMARK    5  A    between atoms: C6_15  and  O4_16 
REMARK    6  A    between atoms: O4_16  and  C7_17 
REMARK    7  A    between atoms: C8_18  and  N2_19 
REMARK    8  A    between atoms: C11_25  and  N3_26 
REMARK    9  A    between atoms: C12_30  and  C13_31 
REMARK   10  A    between atoms: C14_35  and  C15_36 
REMARK   11  A    between atoms: C15_36  and  S1_37 
REMARK   12  A    between atoms: S1_37  and  C16_38 
ROOT
HETATM    1  C7  UNL     1      -4.659  -4.974   9.771  1.00  0.00     0.162 C 
HETATM    2  C8  UNL     1      -5.129  -6.306   9.088  1.00  0.00     0.213 C 
HETATM    3  C9  UNL     1      -4.274  -6.447   7.862  1.00  0.00     0.043 C 
HETATM    4  C10 UNL     1      -3.386  -5.280   7.810  1.00  0.00     0.030 C 
HETATM    5  C11 UNL     1      -3.264  -4.648   6.441  1.00  0.00     0.227 C 
HETATM    6  C12 UNL     1      -2.816  -3.238   6.469  1.00  0.00     0.253 C 
HETATM    7  O7  UNL     1      -3.113  -2.502   7.554  1.00  0.00    -0.366 OA
HETATM    8  C14 UNL     1      -3.138  -3.151   8.796  1.00  0.00     0.139 C 
HETATM    9  C20 UNL     1      -4.181  -4.230   8.613  1.00  0.00     0.053 C 
ENDROOT
BRANCH   1  10
HETATM   10  O4  UNL     1      -5.790  -4.378  10.304  1.00  0.00    -0.351 OA
BRANCH  10  11
HETATM   11  C6  UNL     1      -5.973  -4.385  11.634  1.00  0.00     0.291 C 
HETATM   12  C1  UNL     1      -5.977  -5.802  12.236  1.00  0.00     0.240 C 
HETATM   13  C2  UNL     1      -5.558  -5.616  13.676  1.00  0.00     0.072 C 
HETATM   14  C3  UNL     1      -6.144  -4.400  14.306  1.00  0.00     0.151 C 
HETATM   15  C4  UNL     1      -7.155  -3.670  13.489  1.00  0.00     0.177 C 
HETATM   16  O3  UNL     1      -7.070  -3.773  12.149  1.00  0.00    -0.349 OA
BRANCH  12  17
HETATM   17  N1  UNL     1      -7.329  -6.330  12.259  1.00  0.00    -0.070 N 
ATOM     18  H13 UNL     1      -7.364  -7.347  12.333  1.00  0.00     0.274 HD
ATOM     19  H12 UNL     1      -7.828  -6.122  13.125  1.00  0.00     0.274 HD
ATOM     20  H11 UNL     1      -7.799  -5.972  11.428  1.00  0.00     0.274 HD
ENDBRANCH  12  17
BRANCH  14  21
HETATM   21  O1  UNL     1      -5.138  -3.535  14.798  1.00  0.00    -0.393 OA
ATOM     22  H1  UNL     1      -5.475  -2.957  15.472  1.00  0.00     0.210 HD
ENDBRANCH  14  21
BRANCH  15  23
HETATM   23  C5  UNL     1      -7.039  -2.179  13.839  1.00  0.00     0.198 C 
BRANCH  23  24
HETATM   24  O2  UNL     1      -7.734  -1.840  14.975  1.00  0.00    -0.398 OA
ATOM     25  H2  UNL     1      -7.374  -2.235  15.760  1.00  0.00     0.209 HD
ENDBRANCH  23  24
ENDBRANCH  15  23
ENDBRANCH  10  11
ENDBRANCH   1  10
BRANCH   2  26
HETATM   26  N2  UNL     1      -6.493  -6.051   8.606  1.00  0.00    -0.073 N 
ATOM     27  H23 UNL     1      -6.750  -5.064   8.611  1.00  0.00     0.274 HD
ATOM     28  H22 UNL     1      -6.606  -6.203   7.603  1.00  0.00     0.274 HD
ATOM     29  H21 UNL     1      -7.105  -6.635   9.178  1.00  0.00     0.274 HD
ENDBRANCH   2  26
BRANCH   8  30
HETATM   30  C15 UNL     1      -3.477  -2.102   9.798  1.00  0.00     0.106 C 
BRANCH  30  31
HETATM   31  S1  UNL     1      -3.482  -0.452   9.153  1.00  0.00    -0.162 SA
BRANCH  31  32
HETATM   32  C16 UNL     1      -2.201   0.662   9.595  1.00  0.00     0.047 C 
HETATM   33  C17 UNL     1      -2.220   1.896   8.659  1.00  0.00     0.015 C 
HETATM   34  C18 UNL     1      -1.640   2.659   9.843  1.00  0.00     0.002 C 
HETATM   35  C19 UNL     1      -2.305   1.585  10.753  1.00  0.00     0.015 C 
ENDBRANCH  31  32
ENDBRANCH  30  31
ENDBRANCH   8  30
BRANCH   5  36
HETATM   36  N3  UNL     1      -2.469  -5.501   5.605  1.00  0.00    -0.072 N 
ATOM     37  H33 UNL     1      -2.518  -6.480   5.888  1.00  0.00     0.274 HD
ATOM     38  H32 UNL     1      -2.861  -5.605   4.669  1.00  0.00     0.274 HD
ATOM     39  H31 UNL     1      -1.512  -5.149   5.589  1.00  0.00     0.274 HD
ENDBRANCH   5  36
BRANCH   6  40
HETATM   40  C13 UNL     1      -1.369  -3.069   6.124  1.00  0.00     0.205 C 
HETATM   41  O5  UNL     1      -0.972  -2.686   5.008  1.00  0.00    -0.646 OA
HETATM   42  O6  UNL     1      -0.406  -3.347   7.084  1.00  0.00    -0.646 OA
ENDBRANCH   6  40
TORSDOF 12
ENDMDL
MODEL 4
REMARK VINA RESULT: -7.104834556      3.238      6.472
REMARK  12 active torsions:
REMARK  status: ('A' for Active; 'I' for Inactive)
REMARK    1  A    between atoms: N1_1  and  C1_5 
REMARK    2  A    between atoms: C3_7  and  O1_8 
REMARK    3  A    between atoms: C4_10  and  C5_11 
REMARK    4  A    between atoms: C5_11  and  O2_12 
REMARK    5  A    between atoms: C6_15  and  O4_16 
REMARK    6  A    between atoms: O4_16  and  C7_17 
REMARK    7  A    between atoms: C8_18  and  N2_19 
REMARK    8  A    between atoms: C11_25  and  N3_26 
REMARK    9  A    between atoms: C12_30  and  C13_31 
REMARK   10  A    between atoms: C14_35  and  C15_36 
REMARK   11  A    between atoms: C15_36  and  S1_37 
REMARK   12  A    between atoms: S1_37  and  C16_38 
ROOT
HETATM    1  C7  UNL     1      -3.758  -2.092   8.085  1.00  0.00     0.162 C 
HETATM    2  C8  UNL     1      -2.712  -2.475   6.980  1.00  0.00     0.213 C 
HETATM    3  C9  UNL     1      -3.429  -3.423   6.064  1.00  0.00     0.043 C 
HETATM    4  C10 UNL     1      -4.784  -3.608   6.599  1.00  0.00     0.030 C 
HETATM    5  C11 UNL     1      -5.259  -5.045   6.611  1.00  0.00     0.227 C 
HETATM    6  C12 UNL     1      -6.352  -5.306   7.574  1.00  0.00     0.253 C 
HETATM    7  O7  UNL     1      -6.421  -4.538   8.676  1.00  0.00    -0.366 OA
HETATM    8  C14 UNL     1      -6.024  -3.198   8.563  1.00  0.00     0.139 C 
HETATM    9  C20 UNL     1      -4.590  -3.289   8.095  1.00  0.00     0.053 C 
ENDROOT
BRANCH   1  10
HETATM   10  O4  UNL     1      -3.057  -1.972   9.274  1.00  0.00    -0.351 OA
BRANCH  10  11
HETATM   11  C6  UNL     1      -2.851  -0.753   9.796  1.00  0.00     0.291 C 
HETATM   12  C1  UNL     1      -3.694  -0.484  11.055  1.00  0.00     0.240 C 
HETATM   13  C2  UNL     1      -2.923   0.562  11.826  1.00  0.00     0.072 C 
HETATM   14  C3  UNL     1      -2.305   1.598  10.953  1.00  0.00     0.151 C 
HETATM   15  C4  UNL     1      -2.676   1.535   9.510  1.00  0.00     0.177 C 
HETATM   16  O3  UNL     1      -3.027   0.338   9.006  1.00  0.00    -0.349 OA
BRANCH  12  17
HETATM   17  N1  UNL     1      -4.963   0.120  10.686  1.00  0.00    -0.070 N 
ATOM     18  H13 UNL     1      -4.884   1.109  10.452  1.00  0.00     0.274 HD
ATOM     19  H12 UNL     1      -5.313  -0.199   9.782  1.00  0.00     0.274 HD
ATOM     20  H11 UNL     1      -5.608  -0.061  11.454  1.00  0.00     0.274 HD
ENDBRANCH  12  17
BRANCH  14  21
HETATM   21  O1  UNL     1      -0.903   1.663  11.136  1.00  0.00    -0.393 OA
ATOM     22  H1  UNL     1      -0.633   2.516  11.455  1.00  0.00     0.210 HD
ENDBRANCH  14  21
BRANCH  15  23
HETATM   23  C5  UNL     1      -1.466   2.032   8.703  1.00  0.00     0.198 C 
BRANCH  23  24
HETATM   24  O2  UNL     1      -0.550   1.040   8.447  1.00  0.00    -0.398 OA
ATOM     25  H2  UNL     1       0.335   1.370   8.352  1.00  0.00     0.209 HD
ENDBRANCH  23  24
ENDBRANCH  15  23
ENDBRANCH  10  11
ENDBRANCH   1  10
BRANCH   2  26
HETATM   26  N2  UNL     1      -1.678  -3.267   7.660  1.00  0.00    -0.073 N 
ATOM     27  H23 UNL     1      -2.002  -3.701   8.525  1.00  0.00     0.274 HD
ATOM     28  H22 UNL     1      -1.438  -4.130   7.171  1.00  0.00     0.274 HD
ATOM     29  H21 UNL     1      -0.885  -2.638   7.792  1.00  0.00     0.274 HD
ENDBRANCH   2  26
BRANCH   8  30
HETATM   30  C15 UNL     1      -6.217  -2.600   9.914  1.00  0.00     0.106 C 
BRANCH  30  31
HETATM   31  S1  UNL     1      -5.712  -3.645  11.252  1.00  0.00    -0.162 SA
BRANCH  31  32
HETATM   32  C16 UNL     1      -6.604  -3.624  12.762  1.00  0.00     0.047 C 
HETATM   33  C17 UNL     1      -6.018  -4.670  13.743  1.00  0.00     0.015 C 
HETATM   34  C18 UNL     1      -6.503  -3.736  14.845  1.00  0.00     0.002 C 
HETATM   35  C19 UNL     1      -6.397  -2.586  13.802  1.00  0.00     0.015 C 
ENDBRANCH  31  32
ENDBRANCH  30  31
ENDBRANCH   8  30
BRANCH   5  36
HETATM   36  N3  UNL     1      -5.553  -5.448   5.265  1.00  0.00    -0.072 N 
ATOM     37  H33 UNL     1      -5.931  -4.685   4.704  1.00  0.00     0.274 HD
ATOM     38  H32 UNL     1      -4.710  -5.622   4.718  1.00  0.00     0.274 HD
ATOM     39  H31 UNL     1      -6.174  -6.256   5.292  1.00  0.00     0.274 HD
ENDBRANCH   5  36
BRANCH   6  40
HETATM   40  C13 UNL     1      -7.701  -5.390   6.932  1.00  0.00     0.205 C 
HETATM   41  O5  UNL     1      -8.280  -6.466   6.695  1.00  0.00    -0.646 OA
HETATM   42  O6  UNL     1      -8.357  -4.220   6.575  1.00  0.00    -0.646 OA
ENDBRANCH   6  40
TORSDOF 12
ENDMDL
MODEL 5
REMARK VINA RESULT: -7.078274246      2.446      7.834
REMARK  12 active torsions:
REMARK  status: ('A' for Active; 'I' for Inactive)
REMARK    1  A    between atoms: N1_1  and  C1_5 
REMARK    2  A    between atoms: C3_7  and  O1_8 
REMARK    3  A    between atoms: C4_10  and  C5_11 
REMARK    4  A    between atoms: C5_11  and  O2_12 
REMARK    5  A    between atoms: C6_15  and  O4_16 
REMARK    6  A    between atoms: O4_16  and  C7_17 
REMARK    7  A    between atoms: C8_18  and  N2_19 
REMARK    8  A    between atoms: C11_25  and  N3_26 
REMARK    9  A    between atoms: C12_30  and  C13_31 
REMARK   10  A    between atoms: C14_35  and  C15_36 
REMARK   11  A    between atoms: C15_36  and  S1_37 
REMARK   12  A    between atoms: S1_37  and  C16_38 
ROOT
HETATM    1  C7  UNL     1      -4.935  -3.520  10.507  1.00  0.00     0.162 C 
HETATM    2  C8  UNL     1      -5.452  -2.059  10.258  1.00  0.00     0.213 C 
HETATM    3  C9  UNL     1      -6.031  -1.614  11.570  1.00  0.00     0.043 C 
HETATM    4  C10 UNL     1      -5.892  -2.730  12.512  1.00  0.00     0.030 C 
HETATM    5  C11 UNL     1      -7.123  -2.997  13.350  1.00  0.00     0.227 C 
HETATM    6  C12 UNL     1      -7.186  -4.369  13.902  1.00  0.00     0.253 C 
HETATM    7  O7  UNL     1      -6.580  -5.355  13.217  1.00  0.00    -0.366 OA
HETATM    8  C14 UNL     1      -5.404  -5.038  12.521  1.00  0.00     0.139 C 
HETATM    9  C20 UNL     1      -5.837  -3.949  11.568  1.00  0.00     0.053 C 
ENDROOT
BRANCH   1  10
HETATM   10  O4  UNL     1      -5.174  -4.231   9.343  1.00  0.00    -0.351 OA
BRANCH  10  11
HETATM   11  C6  UNL     1      -4.354  -4.070   8.293  1.00  0.00     0.291 C 
HETATM   12  C1  UNL     1      -4.322  -5.293   7.358  1.00  0.00     0.240 C 
HETATM   13  C2  UNL     1      -3.916  -4.744   6.010  1.00  0.00     0.072 C 
HETATM   14  C3  UNL     1      -2.870  -3.686   6.098  1.00  0.00     0.151 C 
HETATM   15  C4  UNL     1      -2.287  -3.462   7.451  1.00  0.00     0.177 C 
HETATM   16  O3  UNL     1      -3.052  -3.757   8.519  1.00  0.00    -0.349 OA
BRANCH  12  17
HETATM   17  N1  UNL     1      -3.272  -6.208   7.770  1.00  0.00    -0.070 N 
ATOM     18  H13 UNL     1      -3.462  -6.662   8.663  1.00  0.00     0.274 HD
ATOM     19  H12 UNL     1      -3.232  -7.055   7.202  1.00  0.00     0.274 HD
ATOM     20  H11 UNL     1      -2.402  -5.678   7.765  1.00  0.00     0.274 HD
ENDBRANCH  12  17
BRANCH  14  21
HETATM   21  O1  UNL     1      -3.303  -2.478   5.502  1.00  0.00    -0.393 OA
ATOM     22  H1  UNL     1      -3.375  -1.780   6.142  1.00  0.00     0.210 HD
ENDBRANCH  14  21
BRANCH  15  23
HETATM   23  C5  UNL     1      -1.921  -1.973   7.552  1.00  0.00     0.198 C 
BRANCH  23  24
HETATM   24  O2  UNL     1      -2.997  -1.176   7.859  1.00  0.00    -0.398 OA
ATOM     25  H2  UNL     1      -3.783  -1.675   8.051  1.00  0.00     0.209 HD
ENDBRANCH  23  24
ENDBRANCH  15  23
ENDBRANCH  10  11
ENDBRANCH   1  10
BRANCH   2  26
HETATM   26  N2  UNL     1      -6.587  -2.185   9.333  1.00  0.00    -0.073 N 
ATOM     27  H23 UNL     1      -6.307  -2.342   8.365  1.00  0.00     0.274 HD
ATOM     28  H22 UNL     1      -7.115  -3.049   9.451  1.00  0.00     0.274 HD
ATOM     29  H21 UNL     1      -7.148  -1.342   9.463  1.00  0.00     0.274 HD
ENDBRANCH   2  26
BRANCH   8  30
HETATM   30  C15 UNL     1      -4.957  -6.306  11.879  1.00  0.00     0.106 C 
BRANCH  30  31
HETATM   31  S1  UNL     1      -6.254  -7.220  11.090  1.00  0.00    -0.162 SA
BRANCH  31  32
HETATM   32  C16 UNL     1      -6.102  -7.673   9.403  1.00  0.00     0.047 C 
HETATM   33  C17 UNL     1      -6.267  -9.205   9.245  1.00  0.00     0.015 C 
HETATM   34  C18 UNL     1      -6.808  -8.887   7.857  1.00  0.00     0.002 C 
HETATM   35  C19 UNL     1      -7.200  -7.491   8.421  1.00  0.00     0.015 C 
ENDBRANCH  31  32
ENDBRANCH  30  31
ENDBRANCH   8  30
BRANCH   5  36
HETATM   36  N3  UNL     1      -7.248  -1.961  14.335  1.00  0.00    -0.072 N 
ATOM     37  H33 UNL     1      -6.545  -2.036  15.071  1.00  0.00     0.274 HD
ATOM     38  H32 UNL     1      -6.978  -1.046  13.974  1.00  0.00     0.274 HD
ATOM     39  H31 UNL     1      -8.198  -1.969  14.703  1.00  0.00     0.274 HD
ENDBRANCH   5  36
BRANCH   6  40
HETATM   40  C13 UNL     1      -6.800  -4.445  15.347  1.00  0.00     0.205 C 
HETATM   41  O5  UNL     1      -7.468  -5.053  16.202  1.00  0.00    -0.646 OA
HETATM   42  O6  UNL     1      -5.641  -3.812  15.773  1.00  0.00    -0.646 OA
ENDBRANCH   6  40
TORSDOF 12
ENDMDL
