MODEL 1
REMARK VINA RESULT: -8.588145299      0.000      0.000
REMARK  11 active torsions:
REMARK  status: ('A' for Active; 'I' for Inactive)
REMARK    1  A    between atoms: C2_2  and  C3_3 
REMARK    2  A    between atoms: C3_3  and  N1_4 
REMARK       I    between atoms: N1_4  and  C4_6 
REMARK    3  A    between atoms: C4_6  and  O2_8 
REMARK    4  A    between atoms: O2_8  and  C5_9 
REMARK    5  A    between atoms: C7_11  and  N2_12 
REMARK    6  A    between atoms: C8_16  and  O3_17 
REMARK    7  A    between atoms: O3_17  and  C9_18 
REMARK    8  A    between atoms: C10_19  and  O4_20 
REMARK    9  A    between atoms: C12_23  and  O5_24 
REMARK   10  A    between atoms: C14_26  and  O6_27 
REMARK   11  A    between atoms: C15_29  and  N3_30 
REMARK       I    between atoms: N3_30  and  C16_32 
REMARK       I    between atoms: C16_32  and  N4_34 
ROOT
HETATM    1  N3  UNL     1      -4.075  -1.288   8.041  1.00  0.00    -0.333 N 
ATOM      2  H3  UNL     1      -5.009  -0.897   8.164  1.00  0.00     0.164 HD
HETATM    3  C16 UNL     1      -2.970  -0.577   8.522  1.00  0.00     0.329 C 
HETATM    4  O7  UNL     1      -1.774  -1.010   8.400  1.00  0.00    -0.246 OA
HETATM    5  N4  UNL     1      -3.146   0.669   9.173  1.00  0.00    -0.245 N 
ATOM      6  H4  UNL     1      -4.087   1.045   9.290  1.00  0.00     0.183 HD
HETATM    7  C17 UNL     1      -2.049   1.394   9.661  1.00  0.00     0.185 C 
HETATM    8  N5  UNL     1      -1.139   1.972  10.057  1.00  0.00    -0.172 NA
ENDROOT
BRANCH   1   9
HETATM    9  C15 UNL     1      -3.928  -2.558   7.375  1.00  0.00     0.149 C 
HETATM   10  C9  UNL     1      -3.986  -3.740   8.331  1.00  0.00     0.178 C 
HETATM   11  C10 UNL     1      -3.512  -4.920   7.494  1.00  0.00     0.151 C 
HETATM   12  C11 UNL     1      -4.564  -5.231   6.493  1.00  0.00     0.069 C 
HETATM   13  C12 UNL     1      -5.384  -4.097   6.006  1.00  0.00     0.154 C 
HETATM   14  C14 UNL     1      -4.838  -2.731   6.194  1.00  0.00     0.172 C 
BRANCH  10  15
HETATM   15  O3  UNL     1      -5.194  -3.924   8.928  1.00  0.00    -0.349 OA
BRANCH  15  16
HETATM   16  C8  UNL     1      -5.297  -3.459  10.236  1.00  0.00     0.291 C 
HETATM   17  C7  UNL     1      -5.831  -4.493  11.161  1.00  0.00     0.240 C 
HETATM   18  C6  UNL     1      -6.427  -3.873  12.397  1.00  0.00     0.073 C 
HETATM   19  C5  UNL     1      -5.857  -2.508  12.696  1.00  0.00     0.164 C 
HETATM   20  C18 UNL     1      -5.874  -1.597  11.506  1.00  0.00     0.150 C 
HETATM   21  O8  UNL     1      -5.915  -2.238  10.297  1.00  0.00    -0.352 OA
HETATM   22  C19 UNL     1      -6.979  -0.564  11.660  1.00  0.00     0.042 C 
BRANCH  17  23
HETATM   23  N2  UNL     1      -4.733  -5.335  11.619  1.00  0.00    -0.070 N 
ATOM     24  H23 UNL     1      -3.980  -4.812  12.067  1.00  0.00     0.274 HD
ATOM     25  H22 UNL     1      -4.975  -5.917  12.420  1.00  0.00     0.274 HD
ATOM     26  H21 UNL     1      -4.428  -5.869  10.806  1.00  0.00     0.274 HD
ENDBRANCH  17  23
BRANCH  19  27
HETATM   27  O2  UNL     1      -6.653  -1.922  13.703  1.00  0.00    -0.296 OA
BRANCH  27  28
HETATM   28  C4  UNL     1      -7.100  -2.536  14.837  1.00  0.00     0.360 C 
HETATM   29  N1  UNL     1      -8.468  -2.798  15.053  1.00  0.00    -0.337 N 
ATOM     30  H1  UNL     1      -9.159  -2.529  14.352  1.00  0.00     0.164 HD
HETATM   31  O1  UNL     1      -6.244  -2.865  15.699  1.00  0.00    -0.239 OA
BRANCH  29  32
HETATM   32  C3  UNL     1      -8.885  -3.446  16.264  1.00  0.00     0.124 C 
BRANCH  32  33
HETATM   33  C2  UNL     1      -9.963  -4.488  16.017  1.00  0.00     0.015 C 
HETATM   34  C1  UNL     1      -9.845  -4.908  14.567  1.00  0.00     0.006 C 
ENDBRANCH  32  33
ENDBRANCH  29  32
ENDBRANCH  27  28
ENDBRANCH  19  27
ENDBRANCH  15  16
ENDBRANCH  10  15
BRANCH  11  35
HETATM   35  O4  UNL     1      -2.296  -4.559   6.912  1.00  0.00    -0.393 OA
ATOM     36  H4  UNL     1      -2.089  -5.213   6.254  1.00  0.00     0.210 HD
ENDBRANCH  11  35
BRANCH  13  37
HETATM   37  O5  UNL     1      -6.706  -4.185   6.486  1.00  0.00    -0.388 OA
HETATM   38  C13 UNL     1      -7.172  -5.474   6.488  1.00  0.00     0.202 C 
ENDBRANCH  13  37
BRANCH  14  39
HETATM   39  O6  UNL     1      -4.237  -2.252   5.016  1.00  0.00    -0.391 OA
ATOM     40  H6  UNL     1      -4.878  -1.861   4.434  1.00  0.00     0.210 HD
ENDBRANCH  14  39
ENDBRANCH   1   9
TORSDOF 11
ENDMDL
MODEL 2
REMARK VINA RESULT: -8.558424074      1.578      2.093
REMARK  11 active torsions:
REMARK  status: ('A' for Active; 'I' for Inactive)
REMARK    1  A    between atoms: C2_2  and  C3_3 
REMARK    2  A    between atoms: C3_3  and  N1_4 
REMARK       I    between atoms: N1_4  and  C4_6 
REMARK    3  A    between atoms: C4_6  and  O2_8 
REMARK    4  A    between atoms: O2_8  and  C5_9 
REMARK    5  A    between atoms: C7_11  and  N2_12 
REMARK    6  A    between atoms: C8_16  and  O3_17 
REMARK    7  A    between atoms: O3_17  and  C9_18 
REMARK    8  A    between atoms: C10_19  and  O4_20 
REMARK    9  A    between atoms: C12_23  and  O5_24 
REMARK   10  A    between atoms: C14_26  and  O6_27 
REMARK   11  A    between atoms: C15_29  and  N3_30 
REMARK       I    between atoms: N3_30  and  C16_32 
REMARK       I    between atoms: C16_32  and  N4_34 
ROOT
HETATM    1  N3  UNL     1      -3.266  -0.926   8.758  1.00  0.00    -0.333 N 
ATOM      2  H3  UNL     1      -3.970  -0.412   9.287  1.00  0.00     0.164 HD
HETATM    3  C16 UNL     1      -2.009  -0.346   8.553  1.00  0.00     0.329 C 
HETATM    4  O7  UNL     1      -1.083  -0.936   7.900  1.00  0.00    -0.246 OA
HETATM    5  N4  UNL     1      -1.718   0.938   9.073  1.00  0.00    -0.245 N 
ATOM      6  H4  UNL     1      -2.433   1.439   9.601  1.00  0.00     0.183 HD
HETATM    7  C17 UNL     1      -0.463   1.535   8.876  1.00  0.00     0.185 C 
HETATM    8  N5  UNL     1       0.570   2.005   8.707  1.00  0.00    -0.172 NA
ENDROOT
BRANCH   1   9
HETATM    9  C15 UNL     1      -3.591  -2.232   8.241  1.00  0.00     0.149 C 
HETATM   10  C9  UNL     1      -4.386  -3.078   9.224  1.00  0.00     0.178 C 
HETATM   11  C10 UNL     1      -4.352  -4.478   8.623  1.00  0.00     0.151 C 
HETATM   12  C11 UNL     1      -5.198  -4.479   7.402  1.00  0.00     0.069 C 
HETATM   13  C12 UNL     1      -5.279  -3.210   6.641  1.00  0.00     0.154 C 
HETATM   14  C14 UNL     1      -4.213  -2.205   6.875  1.00  0.00     0.172 C 
BRANCH  10  15
HETATM   15  O3  UNL     1      -5.635  -2.611   9.490  1.00  0.00    -0.349 OA
BRANCH  15  16
HETATM   16  C8  UNL     1      -6.144  -2.933  10.745  1.00  0.00     0.291 C 
HETATM   17  C7  UNL     1      -6.015  -1.810  11.710  1.00  0.00     0.240 C 
HETATM   18  C6  UNL     1      -6.059  -2.298  13.134  1.00  0.00     0.073 C 
HETATM   19  C5  UNL     1      -6.776  -3.618  13.275  1.00  0.00     0.164 C 
HETATM   20  C18 UNL     1      -6.286  -4.652  12.307  1.00  0.00     0.150 C 
HETATM   21  O8  UNL     1      -5.683  -4.146  11.187  1.00  0.00    -0.352 OA
HETATM   22  C19 UNL     1      -5.419  -5.670  13.030  1.00  0.00     0.042 C 
BRANCH  17  23
HETATM   23  N2  UNL     1      -7.156  -0.915  11.553  1.00  0.00    -0.070 N 
ATOM     24  H23 UNL     1      -7.855  -1.016  12.289  1.00  0.00     0.274 HD
ATOM     25  H22 UNL     1      -6.931   0.063  11.728  1.00  0.00     0.274 HD
ATOM     26  H21 UNL     1      -7.524  -1.087  10.617  1.00  0.00     0.274 HD
ENDBRANCH  17  23
BRANCH  19  27
HETATM   27  O2  UNL     1      -6.537  -4.098  14.581  1.00  0.00    -0.296 OA
BRANCH  27  28
HETATM   28  C4  UNL     1      -7.481  -4.346  15.534  1.00  0.00     0.360 C 
HETATM   29  N1  UNL     1      -8.819  -3.929  15.386  1.00  0.00    -0.337 N 
ATOM     30  H1  UNL     1      -9.109  -3.426  14.548  1.00  0.00     0.164 HD
HETATM   31  O1  UNL     1      -7.118  -4.967  16.567  1.00  0.00    -0.239 OA
BRANCH  29  32
HETATM   32  C3  UNL     1      -9.771  -4.215  16.421  1.00  0.00     0.124 C 
BRANCH  32  33
HETATM   33  C2  UNL     1     -10.815  -5.227  15.977  1.00  0.00     0.015 C 
HETATM   34  C1  UNL     1     -10.803  -5.236  14.463  1.00  0.00     0.006 C 
ENDBRANCH  32  33
ENDBRANCH  29  32
ENDBRANCH  27  28
ENDBRANCH  19  27
ENDBRANCH  15  16
ENDBRANCH  10  15
BRANCH  11  35
HETATM   35  O4  UNL     1      -3.017  -4.789   8.362  1.00  0.00    -0.393 OA
ATOM     36  H4  UNL     1      -3.008  -5.567   7.817  1.00  0.00     0.210 HD
ENDBRANCH  11  35
BRANCH  13  37
HETATM   37  O5  UNL     1      -6.558  -2.629   6.758  1.00  0.00    -0.388 OA
HETATM   38  C13 UNL     1      -7.540  -3.569   6.929  1.00  0.00     0.202 C 
ENDBRANCH  13  37
BRANCH  14  39
HETATM   39  O6  UNL     1      -3.231  -2.254   5.870  1.00  0.00    -0.391 OA
ATOM     40  H6  UNL     1      -3.032  -1.387   5.537  1.00  0.00     0.210 HD
ENDBRANCH  14  39
ENDBRANCH   1   9
TORSDOF 11
ENDMDL
MODEL 3
REMARK VINA RESULT: -8.074840203      2.500      4.450
REMARK  11 active torsions:
REMARK  status: ('A' for Active; 'I' for Inactive)
REMARK    1  A    between atoms: C2_2  and  C3_3 
REMARK    2  A    between atoms: C3_3  and  N1_4 
REMARK       I    between atoms: N1_4  and  C4_6 
REMARK    3  A    between atoms: C4_6  and  O2_8 
REMARK    4  A    between atoms: O2_8  and  C5_9 
REMARK    5  A    between atoms: C7_11  and  N2_12 
REMARK    6  A    between atoms: C8_16  and  O3_17 
REMARK    7  A    between atoms: O3_17  and  C9_18 
REMARK    8  A    between atoms: C10_19  and  O4_20 
REMARK    9  A    between atoms: C12_23  and  O5_24 
REMARK   10  A    between atoms: C14_26  and  O6_27 
REMARK   11  A    between atoms: C15_29  and  N3_30 
REMARK       I    between atoms: N3_30  and  C16_32 
REMARK       I    between atoms: C16_32  and  N4_34 
ROOT
HETATM    1  N3  UNL     1      -5.149  -6.015   7.826  1.00  0.00    -0.333 N 
ATOM      2  H3  UNL     1      -4.136  -6.121   7.760  1.00  0.00     0.164 HD
HETATM    3  C16 UNL     1      -5.882  -6.935   8.583  1.00  0.00     0.329 C 
HETATM    4  O7  UNL     1      -7.152  -6.859   8.707  1.00  0.00    -0.246 OA
HETATM    5  N4  UNL     1      -5.229  -8.000   9.250  1.00  0.00    -0.245 N 
ATOM      6  H4  UNL     1      -4.216  -8.091   9.175  1.00  0.00     0.183 HD
HETATM    7  C17 UNL     1      -5.950  -8.931  10.012  1.00  0.00     0.185 C 
HETATM    8  N5  UNL     1      -6.556  -9.681  10.635  1.00  0.00    -0.172 NA
ENDROOT
BRANCH   1   9
HETATM    9  C15 UNL     1      -5.786  -4.920   7.137  1.00  0.00     0.149 C 
HETATM   10  C9  UNL     1      -6.185  -3.785   8.067  1.00  0.00     0.178 C 
HETATM   11  C10 UNL     1      -7.090  -2.905   7.214  1.00  0.00     0.151 C 
HETATM   12  C11 UNL     1      -6.251  -2.235   6.188  1.00  0.00     0.069 C 
HETATM   13  C12 UNL     1      -5.058  -2.971   5.710  1.00  0.00     0.154 C 
HETATM   14  C14 UNL     1      -5.026  -4.437   5.936  1.00  0.00     0.172 C 
BRANCH  10  15
HETATM   15  O3  UNL     1      -5.139  -3.129   8.638  1.00  0.00    -0.349 OA
BRANCH  15  16
HETATM   16  C8  UNL     1      -5.281  -2.831   9.990  1.00  0.00     0.291 C 
HETATM   17  C7  UNL     1      -5.760  -3.998  10.777  1.00  0.00     0.240 C 
HETATM   18  C6  UNL     1      -6.403  -3.566  12.068  1.00  0.00     0.073 C 
HETATM   19  C5  UNL     1      -5.918  -2.216  12.536  1.00  0.00     0.164 C 
HETATM   20  C18 UNL     1      -5.981  -1.171  11.463  1.00  0.00     0.150 C 
HETATM   21  O8  UNL     1      -5.972  -1.664  10.186  1.00  0.00    -0.352 OA
HETATM   22  C19 UNL     1      -7.148  -0.232  11.722  1.00  0.00     0.042 C 
BRANCH  17  23
HETATM   23  N2  UNL     1      -4.616  -4.822  11.149  1.00  0.00    -0.070 N 
ATOM     24  H23 UNL     1      -4.809  -5.459  11.922  1.00  0.00     0.274 HD
ATOM     25  H22 UNL     1      -4.386  -5.533  10.455  1.00  0.00     0.274 HD
ATOM     26  H21 UNL     1      -3.850  -4.175  11.337  1.00  0.00     0.274 HD
ENDBRANCH  17  23
BRANCH  19  27
HETATM   27  O2  UNL     1      -6.757  -1.803  13.594  1.00  0.00    -0.296 OA
BRANCH  27  28
HETATM   28  C4  UNL     1      -7.098  -2.542  14.689  1.00  0.00     0.360 C 
HETATM   29  N1  UNL     1      -8.433  -2.901  14.961  1.00  0.00    -0.337 N 
ATOM     30  H1  UNL     1      -9.181  -2.610  14.332  1.00  0.00     0.164 HD
HETATM   31  O1  UNL     1      -6.172  -2.899  15.463  1.00  0.00    -0.239 OA
BRANCH  29  32
HETATM   32  C3  UNL     1      -8.736  -3.679  16.129  1.00  0.00     0.124 C 
BRANCH  32  33
HETATM   33  C2  UNL     1      -9.962  -4.557  15.932  1.00  0.00     0.015 C 
HETATM   34  C1  UNL     1      -9.956  -5.003  14.486  1.00  0.00     0.006 C 
ENDBRANCH  32  33
ENDBRANCH  29  32
ENDBRANCH  27  28
ENDBRANCH  19  27
ENDBRANCH  15  16
ENDBRANCH  10  15
BRANCH  11  35
HETATM   35  O4  UNL     1      -8.073  -3.727   6.663  1.00  0.00    -0.393 OA
ATOM     36  H4  UNL     1      -7.997  -3.668   5.718  1.00  0.00     0.210 HD
ENDBRANCH  11  35
BRANCH  13  37
HETATM   37  O5  UNL     1      -3.871  -2.362   6.164  1.00  0.00    -0.388 OA
HETATM   38  C13 UNL     1      -2.770  -3.150   5.953  1.00  0.00     0.202 C 
ENDBRANCH  13  37
BRANCH  14  39
HETATM   39  O6  UNL     1      -5.402  -5.143   4.779  1.00  0.00    -0.391 OA
ATOM     40  H6  UNL     1      -4.947  -4.818   4.011  1.00  0.00     0.210 HD
ENDBRANCH  14  39
ENDBRANCH   1   9
TORSDOF 11
ENDMDL
MODEL 4
REMARK VINA RESULT: -7.757115681      2.139      4.889
REMARK  11 active torsions:
REMARK  status: ('A' for Active; 'I' for Inactive)
REMARK    1  A    between atoms: C2_2  and  C3_3 
REMARK    2  A    between atoms: C3_3  and  N1_4 
REMARK       I    between atoms: N1_4  and  C4_6 
REMARK    3  A    between atoms: C4_6  and  O2_8 
REMARK    4  A    between atoms: O2_8  and  C5_9 
REMARK    5  A    between atoms: C7_11  and  N2_12 
REMARK    6  A    between atoms: C8_16  and  O3_17 
REMARK    7  A    between atoms: O3_17  and  C9_18 
REMARK    8  A    between atoms: C10_19  and  O4_20 
REMARK    9  A    between atoms: C12_23  and  O5_24 
REMARK   10  A    between atoms: C14_26  and  O6_27 
REMARK   11  A    between atoms: C15_29  and  N3_30 
REMARK       I    between atoms: N3_30  and  C16_32 
REMARK       I    between atoms: C16_32  and  N4_34 
ROOT
HETATM    1  N3  UNL     1      -5.290  -6.318   8.591  1.00  0.00    -0.333 N 
ATOM      2  H3  UNL     1      -4.566  -6.674   9.215  1.00  0.00     0.164 HD
HETATM    3  C16 UNL     1      -6.596  -6.804   8.717  1.00  0.00     0.329 C 
HETATM    4  O7  UNL     1      -7.550  -6.400   7.968  1.00  0.00    -0.246 OA
HETATM    5  N4  UNL     1      -6.909  -7.777   9.697  1.00  0.00    -0.245 N 
ATOM      6  H4  UNL     1      -6.173  -8.122  10.314  1.00  0.00     0.183 HD
HETATM    7  C17 UNL     1      -8.213  -8.275   9.835  1.00  0.00     0.185 C 
HETATM    8  N5  UNL     1      -9.287  -8.669   9.936  1.00  0.00    -0.172 NA
ENDROOT
BRANCH   1   9
HETATM    9  C15 UNL     1      -4.941  -5.327   7.604  1.00  0.00     0.149 C 
HETATM   10  C9  UNL     1      -5.330  -3.915   8.017  1.00  0.00     0.178 C 
HETATM   11  C10 UNL     1      -5.164  -3.096   6.744  1.00  0.00     0.151 C 
HETATM   12  C11 UNL     1      -3.713  -2.984   6.450  1.00  0.00     0.069 C 
HETATM   13  C12 UNL     1      -2.853  -4.116   6.871  1.00  0.00     0.154 C 
HETATM   14  C14 UNL     1      -3.518  -5.415   7.134  1.00  0.00     0.172 C 
BRANCH  10  15
HETATM   15  O3  UNL     1      -4.646  -3.432   9.089  1.00  0.00    -0.349 OA
BRANCH  15  16
HETATM   16  C8  UNL     1      -5.378  -3.316  10.268  1.00  0.00     0.291 C 
HETATM   17  C7  UNL     1      -5.242  -1.971  10.885  1.00  0.00     0.240 C 
HETATM   18  C6  UNL     1      -5.566  -2.003  12.355  1.00  0.00     0.073 C 
HETATM   19  C5  UNL     1      -6.473  -3.151  12.725  1.00  0.00     0.164 C 
HETATM   20  C18 UNL     1      -5.991  -4.467  12.194  1.00  0.00     0.150 C 
HETATM   21  O8  UNL     1      -5.162  -4.375  11.109  1.00  0.00    -0.352 OA
HETATM   22  C19 UNL     1      -5.393  -5.293  13.321  1.00  0.00     0.042 C 
BRANCH  17  23
HETATM   23  N2  UNL     1      -6.211  -1.068  10.275  1.00  0.00    -0.070 N 
ATOM     24  H23 UNL     1      -6.515  -1.365   9.348  1.00  0.00     0.274 HD
ATOM     25  H22 UNL     1      -7.127  -1.094  10.722  1.00  0.00     0.274 HD
ATOM     26  H21 UNL     1      -5.781  -0.143  10.285  1.00  0.00     0.274 HD
ENDBRANCH  17  23
BRANCH  19  27
HETATM   27  O2  UNL     1      -6.502  -3.236  14.134  1.00  0.00    -0.296 OA
BRANCH  27  28
HETATM   28  C4  UNL     1      -7.581  -2.996  14.934  1.00  0.00     0.360 C 
HETATM   29  N1  UNL     1      -8.312  -4.041  15.535  1.00  0.00    -0.337 N 
ATOM     30  H1  UNL     1      -8.040  -5.011  15.379  1.00  0.00     0.164 HD
HETATM   31  O1  UNL     1      -7.913  -1.796  15.123  1.00  0.00    -0.239 OA
BRANCH  29  32
HETATM   32  C3  UNL     1      -9.440  -3.733  16.367  1.00  0.00     0.124 C 
BRANCH  32  33
HETATM   33  C2  UNL     1     -10.517  -4.802  16.293  1.00  0.00     0.015 C 
HETATM   34  C1  UNL     1     -10.689  -5.154  14.831  1.00  0.00     0.006 C 
ENDBRANCH  32  33
ENDBRANCH  29  32
ENDBRANCH  27  28
ENDBRANCH  19  27
ENDBRANCH  15  16
ENDBRANCH  10  15
BRANCH  11  35
HETATM   35  O4  UNL     1      -5.877  -3.743   5.733  1.00  0.00    -0.393 OA
ATOM     36  H4  UNL     1      -5.317  -3.776   4.966  1.00  0.00     0.210 HD
ENDBRANCH  11  35
BRANCH  13  37
HETATM   37  O5  UNL     1      -2.018  -3.746   7.944  1.00  0.00    -0.388 OA
HETATM   38  C13 UNL     1      -1.611  -2.441   7.859  1.00  0.00     0.202 C 
ENDBRANCH  13  37
BRANCH  14  39
HETATM   39  O6  UNL     1      -3.400  -6.285   6.036  1.00  0.00    -0.391 OA
ATOM     40  H6  UNL     1      -3.118  -7.151   6.307  1.00  0.00     0.210 HD
ENDBRANCH  14  39
ENDBRANCH   1   9
TORSDOF 11
ENDMDL
MODEL 5
REMARK VINA RESULT: -7.704995166      2.198      4.836
REMARK  11 active torsions:
REMARK  status: ('A' for Active; 'I' for Inactive)
REMARK    1  A    between atoms: C2_2  and  C3_3 
REMARK    2  A    between atoms: C3_3  and  N1_4 
REMARK       I    between atoms: N1_4  and  C4_6 
REMARK    3  A    between atoms: C4_6  and  O2_8 
REMARK    4  A    between atoms: O2_8  and  C5_9 
REMARK    5  A    between atoms: C7_11  and  N2_12 
REMARK    6  A    between atoms: C8_16  and  O3_17 
REMARK    7  A    between atoms: O3_17  and  C9_18 
REMARK    8  A    between atoms: C10_19  and  O4_20 
REMARK    9  A    between atoms: C12_23  and  O5_24 
REMARK   10  A    between atoms: C14_26  and  O6_27 
REMARK   11  A    between atoms: C15_29  and  N3_30 
REMARK       I    between atoms: N3_30  and  C16_32 
REMARK       I    between atoms: C16_32  and  N4_34 
ROOT
HETATM    1  N3  UNL     1      -4.637  -5.973   9.161  1.00  0.00    -0.333 N 
ATOM      2  H3  UNL     1      -3.786  -6.204   9.675  1.00  0.00     0.164 HD
HETATM    3  C16 UNL     1      -5.809  -6.688   9.427  1.00  0.00     0.329 C 
HETATM    4  O7  UNL     1      -6.908  -6.448   8.819  1.00  0.00    -0.246 OA
HETATM    5  N4  UNL     1      -5.817  -7.719  10.397  1.00  0.00    -0.245 N 
ATOM      6  H4  UNL     1      -4.959  -7.938  10.903  1.00  0.00     0.183 HD
HETATM    7  C17 UNL     1      -6.984  -8.446  10.675  1.00  0.00     0.185 C 
HETATM    8  N5  UNL     1      -7.950  -9.028  10.892  1.00  0.00    -0.172 NA
ENDROOT
BRANCH   1   9
HETATM    9  C15 UNL     1      -4.598  -4.917   8.180  1.00  0.00     0.149 C 
HETATM   10  C9  UNL     1      -5.436  -3.710   8.574  1.00  0.00     0.178 C 
HETATM   11  C10 UNL     1      -5.506  -2.875   7.302  1.00  0.00     0.151 C 
HETATM   12  C11 UNL     1      -4.161  -2.296   7.052  1.00  0.00     0.069 C 
HETATM   13  C12 UNL     1      -2.994  -3.090   7.505  1.00  0.00     0.154 C 
HETATM   14  C14 UNL     1      -3.210  -4.536   7.754  1.00  0.00     0.172 C 
BRANCH  10  15
HETATM   15  O3  UNL     1      -4.980  -3.037   9.663  1.00  0.00    -0.349 OA
BRANCH  15  16
HETATM   16  C8  UNL     1      -5.743  -3.175  10.820  1.00  0.00     0.291 C 
HETATM   17  C7  UNL     1      -5.805  -1.915  11.607  1.00  0.00     0.240 C 
HETATM   18  C6  UNL     1      -6.150  -2.182  13.048  1.00  0.00     0.073 C 
HETATM   19  C5  UNL     1      -6.897  -3.480  13.237  1.00  0.00     0.164 C 
HETATM   20  C18 UNL     1      -6.228  -4.639  12.561  1.00  0.00     0.150 C 
HETATM   21  O8  UNL     1      -5.399  -4.296  11.527  1.00  0.00    -0.352 OA
HETATM   22  C19 UNL     1      -5.544  -5.517  13.596  1.00  0.00     0.042 C 
BRANCH  17  23
HETATM   23  N2  UNL     1      -6.877  -1.079  11.081  1.00  0.00    -0.070 N 
ATOM     24  H23 UNL     1      -7.717  -1.602  10.835  1.00  0.00     0.274 HD
ATOM     25  H22 UNL     1      -7.306  -0.479  11.786  1.00  0.00     0.274 HD
ATOM     26  H21 UNL     1      -6.476  -0.563  10.298  1.00  0.00     0.274 HD
ENDBRANCH  17  23
BRANCH  19  27
HETATM   27  O2  UNL     1      -6.941  -3.751  14.621  1.00  0.00    -0.296 OA
BRANCH  27  28
HETATM   28  C4  UNL     1      -8.033  -3.634  15.432  1.00  0.00     0.360 C 
HETATM   29  N1  UNL     1      -9.006  -4.650  15.523  1.00  0.00    -0.337 N 
ATOM     30  H1  UNL     1      -8.908  -5.504  14.976  1.00  0.00     0.164 HD
HETATM   31  O1  UNL     1      -8.149  -2.577  16.105  1.00  0.00    -0.239 OA
BRANCH  29  32
HETATM   32  C3  UNL     1     -10.136  -4.475  16.391  1.00  0.00     0.124 C 
BRANCH  32  33
HETATM   33  C2  UNL     1     -11.208  -5.527  16.156  1.00  0.00     0.015 C 
HETATM   34  C1  UNL     1     -11.487  -5.548  14.669  1.00  0.00     0.006 C 
ENDBRANCH  32  33
ENDBRANCH  29  32
ENDBRANCH  27  28
ENDBRANCH  19  27
ENDBRANCH  15  16
ENDBRANCH  10  15
BRANCH  11  35
HETATM   35  O4  UNL     1      -5.939  -3.713   6.273  1.00  0.00    -0.393 OA
ATOM     36  H4  UNL     1      -6.819  -3.444   6.038  1.00  0.00     0.210 HD
ENDBRANCH  11  35
BRANCH  13  37
HETATM   37  O5  UNL     1      -2.358  -2.475   8.602  1.00  0.00    -0.388 OA
HETATM   38  C13 UNL     1      -2.158  -1.135   8.400  1.00  0.00     0.202 C 
ENDBRANCH  13  37
BRANCH  14  39
HETATM   39  O6  UNL     1      -2.782  -5.315   6.664  1.00  0.00    -0.391 OA
ATOM     40  H6  UNL     1      -3.067  -6.217   6.749  1.00  0.00     0.210 HD
ENDBRANCH  14  39
ENDBRANCH   1   9
TORSDOF 11
ENDMDL
