MODEL 1
REMARK VINA RESULT: -6.752768616      0.000      0.000
REMARK  7 active torsions:
REMARK  status: ('A' for Active; 'I' for Inactive)
REMARK    1  A    between atoms: C6_9  and  C7_10 
REMARK    2  A    between atoms: C7_10  and  N2_11 
REMARK    3  A    between atoms: C10_14  and  C11_15 
REMARK    4  A    between atoms: C11_15  and  O2_17 
REMARK    5  A    between atoms: O2_17  and  C12_18 
REMARK    6  A    between atoms: C12_18  and  C13_19 
REMARK       I    between atoms: C13_19  and  N3_21 
REMARK    7  A    between atoms: N3_21  and  C14_23 
ROOT
HETATM    1  N2  UNL     1      -4.773   4.752  14.962  1.00  0.00     0.088 N 
HETATM    2  C8  UNL     1      -5.566   3.885  14.088  1.00  0.00     0.273 C 
HETATM    3  C9  UNL     1      -5.938   2.731  15.004  1.00  0.00     0.045 C 
HETATM    4  C10 UNL     1      -4.735   2.118  15.657  1.00  0.00     0.089 C 
HETATM    5  C18 UNL     1      -3.480   2.867  15.627  1.00  0.00     0.045 C 
HETATM    6  C19 UNL     1      -3.447   4.168  14.890  1.00  0.00     0.273 C 
ENDROOT
BRANCH   4   7
HETATM    7  C11 UNL     1      -4.594   0.745  15.110  1.00  0.00     0.263 C 
HETATM    8  O1  UNL     1      -5.172  -0.193  15.698  1.00  0.00    -0.265 OA
BRANCH   7   9
HETATM    9  O2  UNL     1      -3.848   0.459  13.977  1.00  0.00    -0.312 OA
BRANCH   9  10
HETATM   10  C12 UNL     1      -4.485   0.199  12.717  1.00  0.00     0.281 C 
BRANCH  10  11
HETATM   11  C13 UNL     1      -3.831   1.105  11.743  1.00  0.00     0.242 C 
HETATM   12  O3  UNL     1      -4.154   1.203  10.545  1.00  0.00    -0.271 OA
HETATM   13  N3  UNL     1      -2.761   1.922  12.206  1.00  0.00    -0.351 N 
ATOM     14  H3  UNL     1      -2.482   1.859  13.185  1.00  0.00     0.163 HD
BRANCH  13  15
HETATM   15  C14 UNL     1      -2.054   2.837  11.337  1.00  0.00     0.022 C 
HETATM   16  C15 UNL     1      -3.000   3.818  10.671  1.00  0.00     0.037 C 
HETATM   17  C16 UNL     1      -1.269   2.036  10.338  1.00  0.00     0.037 C 
HETATM   18  C17 UNL     1      -1.133   3.684  12.219  1.00  0.00     0.037 C 
ENDBRANCH  13  15
ENDBRANCH  10  11
ENDBRANCH   9  10
ENDBRANCH   7   9
ENDBRANCH   4   7
BRANCH   1  19
HETATM   19  C7  UNL     1      -4.810   6.120  14.509  1.00  0.00     0.277 C 
BRANCH  19  20
HETATM   20  C6  UNL     1      -3.378   6.482  14.073  1.00  0.00     0.021 C 
HETATM   21  C2  UNL     1      -3.353   6.817  12.601  1.00  0.00     0.013 C 
HETATM   22  C1  UNL     1      -4.347   7.853  12.184  1.00  0.00     0.012 C 
HETATM   23  C3  UNL     1      -1.965   7.320  12.267  1.00  0.00     0.237 C 
HETATM   24  N1  UNL     1      -1.038   7.210  13.371  1.00  0.00    -0.075 N 
HETATM   25  C4  UNL     1      -1.475   7.950  14.527  1.00  0.00     0.232 C 
ATOM     26  H12 UNL     1      -0.859   6.234  13.605  1.00  0.00     0.277 HD
ATOM     27  H11 UNL     1      -0.097   7.485  13.091  1.00  0.00     0.277 HD
HETATM   28  C5  UNL     1      -2.897   7.656  14.934  1.00  0.00     0.034 C 
ENDBRANCH  19  20
ENDBRANCH   1  19
TORSDOF 7
ENDMDL
MODEL 2
REMARK VINA RESULT: -6.533327179      1.126      1.339
REMARK  7 active torsions:
REMARK  status: ('A' for Active; 'I' for Inactive)
REMARK    1  A    between atoms: C6_9  and  C7_10 
REMARK    2  A    between atoms: C7_10  and  N2_11 
REMARK    3  A    between atoms: C10_14  and  C11_15 
REMARK    4  A    between atoms: C11_15  and  O2_17 
REMARK    5  A    between atoms: O2_17  and  C12_18 
REMARK    6  A    between atoms: C12_18  and  C13_19 
REMARK       I    between atoms: C13_19  and  N3_21 
REMARK    7  A    between atoms: N3_21  and  C14_23 
ROOT
HETATM    1  N2  UNL     1      -5.024   5.009  14.826  1.00  0.00     0.088 N 
HETATM    2  C8  UNL     1      -5.929   3.970  14.329  1.00  0.00     0.273 C 
HETATM    3  C9  UNL     1      -5.935   2.956  15.461  1.00  0.00     0.045 C 
HETATM    4  C10 UNL     1      -4.550   2.524  15.839  1.00  0.00     0.089 C 
HETATM    5  C18 UNL     1      -3.425   3.329  15.366  1.00  0.00     0.045 C 
HETATM    6  C19 UNL     1      -3.712   4.497  14.476  1.00  0.00     0.273 C 
ENDROOT
BRANCH   4   7
HETATM    7  C11 UNL     1      -4.424   1.092  15.468  1.00  0.00     0.263 C 
HETATM    8  O1  UNL     1      -3.785   0.334  16.227  1.00  0.00    -0.265 OA
BRANCH   7   9
HETATM    9  O2  UNL     1      -4.982   0.562  14.316  1.00  0.00    -0.312 OA
BRANCH   9  10
HETATM   10  C12 UNL     1      -4.189  -0.201  13.393  1.00  0.00     0.281 C 
BRANCH  10  11
HETATM   11  C13 UNL     1      -3.866   0.725  12.282  1.00  0.00     0.242 C 
HETATM   12  O3  UNL     1      -4.528   0.825  11.233  1.00  0.00    -0.271 OA
HETATM   13  N3  UNL     1      -2.721   1.560  12.421  1.00  0.00    -0.351 N 
ATOM     14  H3  UNL     1      -2.166   1.495  13.274  1.00  0.00     0.163 HD
BRANCH  13  15
HETATM   15  C14 UNL     1      -2.316   2.496  11.395  1.00  0.00     0.022 C 
HETATM   16  C15 UNL     1      -3.486   3.327  10.904  1.00  0.00     0.037 C 
HETATM   17  C16 UNL     1      -1.657   1.729  10.284  1.00  0.00     0.037 C 
HETATM   18  C17 UNL     1      -1.345   3.488  12.040  1.00  0.00     0.037 C 
ENDBRANCH  13  15
ENDBRANCH  10  11
ENDBRANCH   9  10
ENDBRANCH   7   9
ENDBRANCH   4   7
BRANCH   1  19
HETATM   19  C7  UNL     1      -5.311   6.283  14.216  1.00  0.00     0.277 C 
BRANCH  19  20
HETATM   20  C6  UNL     1      -4.359   6.424  13.014  1.00  0.00     0.021 C 
HETATM   21  C2  UNL     1      -5.151   6.626  11.746  1.00  0.00     0.013 C 
HETATM   22  C1  UNL     1      -6.148   7.737  11.807  1.00  0.00     0.012 C 
HETATM   23  C3  UNL     1      -4.170   6.920  10.631  1.00  0.00     0.237 C 
HETATM   24  N1  UNL     1      -2.789   6.791  11.040  1.00  0.00    -0.075 N 
HETATM   25  C4  UNL     1      -2.455   7.677  12.125  1.00  0.00     0.232 C 
ATOM     26  H12 UNL     1      -2.562   5.824  11.271  1.00  0.00     0.277 HD
ATOM     27  H11 UNL     1      -2.158   6.922  10.249  1.00  0.00     0.277 HD
HETATM   28  C5  UNL     1      -3.411   7.599  13.288  1.00  0.00     0.034 C 
ENDBRANCH  19  20
ENDBRANCH   1  19
TORSDOF 7
ENDMDL
MODEL 3
REMARK VINA RESULT: -6.314401483      2.568      3.973
REMARK  7 active torsions:
REMARK  status: ('A' for Active; 'I' for Inactive)
REMARK    1  A    between atoms: C6_9  and  C7_10 
REMARK    2  A    between atoms: C7_10  and  N2_11 
REMARK    3  A    between atoms: C10_14  and  C11_15 
REMARK    4  A    between atoms: C11_15  and  O2_17 
REMARK    5  A    between atoms: O2_17  and  C12_18 
REMARK    6  A    between atoms: C12_18  and  C13_19 
REMARK       I    between atoms: C13_19  and  N3_21 
REMARK    7  A    between atoms: N3_21  and  C14_23 
ROOT
HETATM    1  N2  UNL     1      -4.204   7.231  12.753  1.00  0.00     0.088 N 
HETATM    2  C8  UNL     1      -4.865   5.958  12.458  1.00  0.00     0.273 C 
HETATM    3  C9  UNL     1      -5.283   5.466  13.834  1.00  0.00     0.045 C 
HETATM    4  C10 UNL     1      -4.131   5.425  14.793  1.00  0.00     0.089 C 
HETATM    5  C18 UNL     1      -2.911   6.147  14.434  1.00  0.00     0.045 C 
HETATM    6  C19 UNL     1      -2.854   6.828  13.103  1.00  0.00     0.273 C 
ENDROOT
BRANCH   4   7
HETATM    7  C11 UNL     1      -3.878   3.997  15.109  1.00  0.00     0.263 C 
HETATM    8  O1  UNL     1      -2.695   3.605  15.191  1.00  0.00    -0.265 OA
BRANCH   7   9
HETATM    9  O2  UNL     1      -4.897   3.080  15.312  1.00  0.00    -0.312 OA
BRANCH   9  10
HETATM   10  C12 UNL     1      -4.774   1.724  14.856  1.00  0.00     0.281 C 
BRANCH  10  11
HETATM   11  C13 UNL     1      -4.666   1.807  13.381  1.00  0.00     0.242 C 
HETATM   12  O3  UNL     1      -5.592   2.154  12.624  1.00  0.00    -0.271 OA
HETATM   13  N3  UNL     1      -3.419   1.468  12.783  1.00  0.00    -0.351 N 
ATOM     14  H3  UNL     1      -2.646   1.183  13.385  1.00  0.00     0.163 HD
BRANCH  13  15
HETATM   15  C14 UNL     1      -3.208   1.513  11.353  1.00  0.00     0.022 C 
HETATM   16  C15 UNL     1      -3.413   2.910  10.801  1.00  0.00     0.037 C 
HETATM   17  C16 UNL     1      -4.116   0.506  10.706  1.00  0.00     0.037 C 
HETATM   18  C17 UNL     1      -1.736   1.179  11.098  1.00  0.00     0.037 C 
ENDBRANCH  13  15
ENDBRANCH  10  11
ENDBRANCH   9  10
ENDBRANCH   7   9
ENDBRANCH   4   7
BRANCH   1  19
HETATM   19  C7  UNL     1      -4.249   8.116  11.616  1.00  0.00     0.277 C 
BRANCH  19  20
HETATM   20  C6  UNL     1      -5.436   7.661  10.746  1.00  0.00     0.021 C 
HETATM   21  C2  UNL     1      -6.627   8.556  10.987  1.00  0.00     0.013 C 
HETATM   22  C1  UNL     1      -6.347  10.016  10.836  1.00  0.00     0.012 C 
HETATM   23  C3  UNL     1      -7.702   8.168   9.994  1.00  0.00     0.237 C 
HETATM   24  N1  UNL     1      -7.362   6.999   9.215  1.00  0.00    -0.075 N 
HETATM   25  C4  UNL     1      -6.151   7.181   8.457  1.00  0.00     0.232 C 
ATOM     26  H12 UNL     1      -7.308   6.167   9.802  1.00  0.00     0.277 HD
ATOM     27  H11 UNL     1      -8.136   6.721   8.611  1.00  0.00     0.277 HD
HETATM   28  C5  UNL     1      -4.991   7.684   9.279  1.00  0.00     0.034 C 
ENDBRANCH  19  20
ENDBRANCH   1  19
TORSDOF 7
ENDMDL
MODEL 4
REMARK VINA RESULT: -6.241762941      2.557      4.301
REMARK  7 active torsions:
REMARK  status: ('A' for Active; 'I' for Inactive)
REMARK    1  A    between atoms: C6_9  and  C7_10 
REMARK    2  A    between atoms: C7_10  and  N2_11 
REMARK    3  A    between atoms: C10_14  and  C11_15 
REMARK    4  A    between atoms: C11_15  and  O2_17 
REMARK    5  A    between atoms: O2_17  and  C12_18 
REMARK    6  A    between atoms: C12_18  and  C13_19 
REMARK       I    between atoms: C13_19  and  N3_21 
REMARK    7  A    between atoms: N3_21  and  C14_23 
ROOT
HETATM    1  N2  UNL     1      -4.331   7.179  12.733  1.00  0.00     0.088 N 
HETATM    2  C8  UNL     1      -4.764   5.831  12.359  1.00  0.00     0.273 C 
HETATM    3  C9  UNL     1      -5.301   5.273  13.666  1.00  0.00     0.045 C 
HETATM    4  C10 UNL     1      -4.300   5.379  14.778  1.00  0.00     0.089 C 
HETATM    5  C18 UNL     1      -3.153   6.264  14.589  1.00  0.00     0.045 C 
HETATM    6  C19 UNL     1      -3.002   6.961  13.274  1.00  0.00     0.273 C 
ENDROOT
BRANCH   4   7
HETATM    7  C11 UNL     1      -3.902   3.995  15.139  1.00  0.00     0.263 C 
HETATM    8  O1  UNL     1      -2.685   3.735  15.249  1.00  0.00    -0.265 OA
BRANCH   7   9
HETATM    9  O2  UNL     1      -4.820   2.980  15.356  1.00  0.00    -0.312 OA
BRANCH   9  10
HETATM   10  C12 UNL     1      -4.398   1.683  15.803  1.00  0.00     0.281 C 
BRANCH  10  11
HETATM   11  C13 UNL     1      -4.403   0.822  14.596  1.00  0.00     0.242 C 
HETATM   12  O3  UNL     1      -4.828  -0.348  14.567  1.00  0.00    -0.271 OA
HETATM   13  N3  UNL     1      -3.891   1.367  13.385  1.00  0.00    -0.351 N 
ATOM     14  H3  UNL     1      -3.540   2.325  13.386  1.00  0.00     0.163 HD
BRANCH  13  15
HETATM   15  C14 UNL     1      -3.849   0.611  12.152  1.00  0.00     0.022 C 
HETATM   16  C15 UNL     1      -4.097  -0.865  12.394  1.00  0.00     0.037 C 
HETATM   17  C16 UNL     1      -2.528   0.864  11.483  1.00  0.00     0.037 C 
HETATM   18  C17 UNL     1      -5.014   1.091  11.283  1.00  0.00     0.037 C 
ENDBRANCH  13  15
ENDBRANCH  10  11
ENDBRANCH   9  10
ENDBRANCH   7   9
ENDBRANCH   4   7
BRANCH   1  19
HETATM   19  C7  UNL     1      -4.336   8.063  11.594  1.00  0.00     0.277 C 
BRANCH  19  20
HETATM   20  C6  UNL     1      -5.532   7.648  10.717  1.00  0.00     0.021 C 
HETATM   21  C2  UNL     1      -6.711   8.550  10.989  1.00  0.00     0.013 C 
HETATM   22  C1  UNL     1      -6.414  10.011  10.881  1.00  0.00     0.012 C 
HETATM   23  C3  UNL     1      -7.795   8.205   9.990  1.00  0.00     0.237 C 
HETATM   24  N1  UNL     1      -7.473   7.055   9.175  1.00  0.00    -0.075 N 
HETATM   25  C4  UNL     1      -6.263   7.245   8.417  1.00  0.00     0.232 C 
ATOM     26  H12 UNL     1      -7.426   6.206   9.737  1.00  0.00     0.277 HD
ATOM     27  H11 UNL     1      -8.253   6.805   8.567  1.00  0.00     0.277 HD
HETATM   28  C5  UNL     1      -5.093   7.709   9.248  1.00  0.00     0.034 C 
ENDBRANCH  19  20
ENDBRANCH   1  19
TORSDOF 7
ENDMDL
MODEL 5
REMARK VINA RESULT: -6.222643746      2.699      3.865
REMARK  7 active torsions:
REMARK  status: ('A' for Active; 'I' for Inactive)
REMARK    1  A    between atoms: C6_9  and  C7_10 
REMARK    2  A    between atoms: C7_10  and  N2_11 
REMARK    3  A    between atoms: C10_14  and  C11_15 
REMARK    4  A    between atoms: C11_15  and  O2_17 
REMARK    5  A    between atoms: O2_17  and  C12_18 
REMARK    6  A    between atoms: C12_18  and  C13_19 
REMARK       I    between atoms: C13_19  and  N3_21 
REMARK    7  A    between atoms: N3_21  and  C14_23 
ROOT
HETATM    1  N2  UNL     1      -5.812   6.848  12.900  1.00  0.00     0.088 N 
HETATM    2  C8  UNL     1      -6.441   5.865  13.784  1.00  0.00     0.273 C 
HETATM    3  C9  UNL     1      -5.468   5.784  14.947  1.00  0.00     0.045 C 
HETATM    4  C10 UNL     1      -4.069   5.490  14.493  1.00  0.00     0.089 C 
HETATM    5  C18 UNL     1      -3.756   5.661  13.076  1.00  0.00     0.045 C 
HETATM    6  C19 UNL     1      -4.861   6.052  12.146  1.00  0.00     0.273 C 
ENDROOT
BRANCH   4   7
HETATM    7  C11 UNL     1      -3.723   4.137  14.996  1.00  0.00     0.263 C 
HETATM    8  O1  UNL     1      -2.521   3.796  15.013  1.00  0.00    -0.265 OA
BRANCH   7   9
HETATM    9  O2  UNL     1      -4.676   3.234  15.443  1.00  0.00    -0.312 OA
BRANCH   9  10
HETATM   10  C12 UNL     1      -4.679   1.874  14.984  1.00  0.00     0.281 C 
BRANCH  10  11
HETATM   11  C13 UNL     1      -4.612   1.950  13.505  1.00  0.00     0.242 C 
HETATM   12  O3  UNL     1      -5.482   2.478  12.787  1.00  0.00    -0.271 OA
HETATM   13  N3  UNL     1      -3.478   1.384  12.857  1.00  0.00    -0.351 N 
ATOM     14  H3  UNL     1      -2.753   0.950  13.427  1.00  0.00     0.163 HD
BRANCH  13  15
HETATM   15  C14 UNL     1      -3.317   1.403  11.420  1.00  0.00     0.022 C 
HETATM   16  C15 UNL     1      -3.427   2.810  10.864  1.00  0.00     0.037 C 
HETATM   17  C16 UNL     1      -4.329   0.472  10.815  1.00  0.00     0.037 C 
HETATM   18  C17 UNL     1      -1.888   0.948  11.115  1.00  0.00     0.037 C 
ENDBRANCH  13  15
ENDBRANCH  10  11
ENDBRANCH   9  10
ENDBRANCH   7   9
ENDBRANCH   4   7
BRANCH   1  19
HETATM   19  C7  UNL     1      -6.791   7.495  12.062  1.00  0.00     0.277 C 
BRANCH  19  20
HETATM   20  C6  UNL     1      -6.030   8.065  10.850  1.00  0.00     0.021 C 
HETATM   21  C2  UNL     1      -6.727   7.674   9.569  1.00  0.00     0.013 C 
HETATM   22  C1  UNL     1      -8.183   8.010   9.528  1.00  0.00     0.012 C 
HETATM   23  C3  UNL     1      -6.035   8.392   8.431  1.00  0.00     0.237 C 
HETATM   24  N1  UNL     1      -4.853   9.113   8.847  1.00  0.00    -0.075 N 
HETATM   25  C4  UNL     1      -5.145  10.111   9.843  1.00  0.00     0.232 C 
ATOM     26  H12 UNL     1      -4.125   8.475   9.167  1.00  0.00     0.277 HD
ATOM     27  H11 UNL     1      -4.370   9.522   8.046  1.00  0.00     0.277 HD
HETATM   28  C5  UNL     1      -5.942   9.588  11.011  1.00  0.00     0.034 C 
ENDBRANCH  19  20
ENDBRANCH   1  19
TORSDOF 7
ENDMDL
