MODEL 1
REMARK VINA RESULT: -6.999203965      0.000      0.000
REMARK  6 active torsions:
REMARK  status: ('A' for Active; 'I' for Inactive)
REMARK    1  A    between atoms: O1_2  and  C2_3 
REMARK    2  A    between atoms: C8_10  and  N1_12 
REMARK    3  A    between atoms: N1_12  and  C11_14 
REMARK    4  A    between atoms: C11_14  and  O3_16 
REMARK    5  A    between atoms: C17_23  and  C18_24 
REMARK    6  A    between atoms: C18_24  and  O5_25 
ROOT
HETATM    1  C2  UNL     1      -4.418   1.084  12.377  1.00  0.00     0.190 C 
HETATM    2  C3  UNL     1      -3.028   1.385  11.885  1.00  0.00     0.072 C 
HETATM    3  C4  UNL     1      -2.752   2.860  12.171  1.00  0.00     0.018 C 
HETATM    4  C5  UNL     1      -4.157   3.448  12.113  1.00  0.00     0.001 C 
HETATM    5  C6  UNL     1      -4.568   3.408  10.682  1.00  0.00     0.093 C 
HETATM    6  C7  UNL     1      -3.711   4.497  10.053  1.00  0.00     0.155 C 
HETATM    7  O2  UNL     1      -2.780   4.285   9.333  1.00  0.00    -0.295 OA
HETATM    8  C8  UNL     1      -4.098   5.891  10.388  1.00  0.00     0.091 C 
HETATM    9  C9  UNL     1      -3.034   6.899  10.012  1.00  0.00     0.047 C 
HETATM   10  C13 UNL     1      -4.363   5.997  11.859  1.00  0.00     0.044 C 
HETATM   11  C14 UNL     1      -4.306   4.778  12.696  1.00  0.00    -0.004 C 
HETATM   12  C15 UNL     1      -5.544   4.854  13.615  1.00  0.00     0.011 C 
HETATM   13  C16 UNL     1      -4.805   2.386  13.006  1.00  0.00     0.193 C 
HETATM   14  O4  UNL     1      -4.171   2.573  14.240  1.00  0.00    -0.370 OA
HETATM   15  C17 UNL     1      -3.890   1.475  14.966  1.00  0.00     0.169 C 
HETATM   16  C19 UNL     1      -4.743   0.328  14.533  1.00  0.00     0.205 C 
HETATM   17  O6  UNL     1      -4.335   0.003  13.245  1.00  0.00    -0.350 OA
ENDROOT
BRANCH   1  18
HETATM   18  O1  UNL     1      -5.274   0.694  11.366  1.00  0.00    -0.358 OA
HETATM   19  C1  UNL     1      -4.838  -0.287  10.533  1.00  0.00     0.205 C 
ENDBRANCH   1  18
BRANCH   8  20
HETATM   20  N1  UNL     1      -5.277   6.207   9.577  1.00  0.00    -0.354 N 
HETATM   21  C10 UNL     1      -6.269   7.167  10.116  1.00  0.00     0.152 C 
BRANCH  20  22
HETATM   22  C11 UNL     1      -5.572   5.683   8.307  1.00  0.00     0.110 C 
HETATM   23  C12 UNL     1      -4.896   5.905   7.021  1.00  0.00     0.097 C 
BRANCH  22  24
HETATM   24  O3  UNL     1      -6.605   4.881   8.275  1.00  0.00    -0.350 OA
ATOM     25  H3  UNL     1      -7.406   5.278   7.953  1.00  0.00     0.219 HD
ENDBRANCH  22  24
ENDBRANCH  20  22
ENDBRANCH   8  20
BRANCH  15  26
HETATM   26  C18 UNL     1      -4.122   1.820  16.445  1.00  0.00     0.198 C 
BRANCH  26  27
HETATM   27  O5  UNL     1      -4.579   0.716  17.138  1.00  0.00    -0.398 OA
ATOM     28  H5  UNL     1      -5.072   0.982  17.905  1.00  0.00     0.209 HD
ENDBRANCH  26  27
ENDBRANCH  15  26
TORSDOF 6
ENDMDL
MODEL 2
REMARK VINA RESULT: -6.910144170      2.614      4.738
REMARK  6 active torsions:
REMARK  status: ('A' for Active; 'I' for Inactive)
REMARK    1  A    between atoms: O1_2  and  C2_3 
REMARK    2  A    between atoms: C8_10  and  N1_12 
REMARK    3  A    between atoms: N1_12  and  C11_14 
REMARK    4  A    between atoms: C11_14  and  O3_16 
REMARK    5  A    between atoms: C17_23  and  C18_24 
REMARK    6  A    between atoms: C18_24  and  O5_25 
ROOT
HETATM    1  C2  UNL     1      -4.244   1.786  14.069  1.00  0.00     0.190 C 
HETATM    2  C3  UNL     1      -5.515   2.582  13.941  1.00  0.00     0.072 C 
HETATM    3  C4  UNL     1      -5.334   3.543  12.766  1.00  0.00     0.018 C 
HETATM    4  C5  UNL     1      -3.826   3.757  12.779  1.00  0.00     0.001 C 
HETATM    5  C6  UNL     1      -3.531   4.575  13.988  1.00  0.00     0.093 C 
HETATM    6  C7  UNL     1      -4.073   5.946  13.611  1.00  0.00     0.155 C 
HETATM    7  O2  UNL     1      -5.066   6.424  14.072  1.00  0.00    -0.295 OA
HETATM    8  C8  UNL     1      -3.280   6.693  12.601  1.00  0.00     0.091 C 
HETATM    9  C9  UNL     1      -4.027   7.879  12.032  1.00  0.00     0.047 C 
HETATM   10  C13 UNL     1      -2.908   5.774  11.477  1.00  0.00     0.044 C 
HETATM   11  C14 UNL     1      -3.264   4.341  11.565  1.00  0.00    -0.004 C 
HETATM   12  C15 UNL     1      -2.004   3.577  11.104  1.00  0.00     0.011 C 
HETATM   13  C16 UNL     1      -3.460   2.275  12.891  1.00  0.00     0.193 C 
HETATM   14  O4  UNL     1      -3.938   1.734  11.692  1.00  0.00    -0.370 OA
HETATM   15  C17 UNL     1      -4.481   0.503  11.738  1.00  0.00     0.169 C 
HETATM   16  C19 UNL     1      -4.023  -0.225  12.960  1.00  0.00     0.205 C 
HETATM   17  O6  UNL     1      -4.584   0.440  14.043  1.00  0.00    -0.350 OA
ENDROOT
BRANCH   1  18
HETATM   18  O1  UNL     1      -3.599   1.991  15.273  1.00  0.00    -0.358 OA
HETATM   19  C1  UNL     1      -4.218   1.527  16.391  1.00  0.00     0.205 C 
ENDBRANCH   1  18
BRANCH   8  20
HETATM   20  N1  UNL     1      -2.111   7.234  13.299  1.00  0.00    -0.354 N 
HETATM   21  C10 UNL     1      -0.774   6.685  12.970  1.00  0.00     0.152 C 
BRANCH  20  22
HETATM   22  C11 UNL     1      -2.124   8.246  14.273  1.00  0.00     0.110 C 
HETATM   23  C12 UNL     1      -2.516   8.180  15.689  1.00  0.00     0.097 C 
BRANCH  22  24
HETATM   24  O3  UNL     1      -1.729   9.419  13.848  1.00  0.00    -0.350 OA
ATOM     25  H3  UNL     1      -1.370   9.984  14.521  1.00  0.00     0.219 HD
ENDBRANCH  22  24
ENDBRANCH  20  22
ENDBRANCH   8  20
BRANCH  15  26
HETATM   26  C18 UNL     1      -4.071  -0.238  10.456  1.00  0.00     0.198 C 
BRANCH  26  27
HETATM   27  O5  UNL     1      -4.853   0.160   9.390  1.00  0.00    -0.398 OA
ATOM     28  H5  UNL     1      -4.563  -0.256   8.587  1.00  0.00     0.209 HD
ENDBRANCH  26  27
ENDBRANCH  15  26
TORSDOF 6
ENDMDL
MODEL 3
REMARK VINA RESULT: -6.869910462      2.542      4.612
REMARK  6 active torsions:
REMARK  status: ('A' for Active; 'I' for Inactive)
REMARK    1  A    between atoms: O1_2  and  C2_3 
REMARK    2  A    between atoms: C8_10  and  N1_12 
REMARK    3  A    between atoms: N1_12  and  C11_14 
REMARK    4  A    between atoms: C11_14  and  O3_16 
REMARK    5  A    between atoms: C17_23  and  C18_24 
REMARK    6  A    between atoms: C18_24  and  O5_25 
ROOT
HETATM    1  C2  UNL     1      -4.064   2.083  13.664  1.00  0.00     0.190 C 
HETATM    2  C3  UNL     1      -5.089   3.130  13.320  1.00  0.00     0.072 C 
HETATM    3  C4  UNL     1      -4.658   3.776  12.004  1.00  0.00     0.018 C 
HETATM    4  C5  UNL     1      -3.145   3.609  12.066  1.00  0.00     0.001 C 
HETATM    5  C6  UNL     1      -2.664   4.541  13.123  1.00  0.00     0.093 C 
HETATM    6  C7  UNL     1      -2.835   5.907  12.474  1.00  0.00     0.155 C 
HETATM    7  O2  UNL     1      -3.679   6.694  12.783  1.00  0.00    -0.295 OA
HETATM    8  C8  UNL     1      -1.868   6.229  11.394  1.00  0.00     0.091 C 
HETATM    9  C9  UNL     1      -2.283   7.433  10.577  1.00  0.00     0.047 C 
HETATM   10  C13 UNL     1      -1.730   5.051  10.477  1.00  0.00     0.044 C 
HETATM   11  C14 UNL     1      -2.441   3.794  10.801  1.00  0.00    -0.004 C 
HETATM   12  C15 UNL     1      -1.412   2.669  10.560  1.00  0.00     0.011 C 
HETATM   13  C16 UNL     1      -3.169   2.131  12.464  1.00  0.00     0.193 C 
HETATM   14  O4  UNL     1      -3.757   1.509  11.356  1.00  0.00    -0.370 OA
HETATM   15  C17 UNL     1      -4.595   0.482  11.592  1.00  0.00     0.169 C 
HETATM   16  C19 UNL     1      -4.350  -0.093  12.950  1.00  0.00     0.205 C 
HETATM   17  O6  UNL     1      -4.735   0.883  13.861  1.00  0.00    -0.350 OA
ENDROOT
BRANCH   1  18
HETATM   18  O1  UNL     1      -3.401   2.346  14.846  1.00  0.00    -0.358 OA
HETATM   19  C1  UNL     1      -4.021   1.972  15.997  1.00  0.00     0.205 C 
ENDBRANCH   1  18
BRANCH   8  20
HETATM   20  N1  UNL     1      -0.607   6.585  12.050  1.00  0.00    -0.354 N 
HETATM   21  C10 UNL     1      -0.606   7.704  13.022  1.00  0.00     0.152 C 
BRANCH  20  22
HETATM   22  C11 UNL     1       0.634   5.959  11.850  1.00  0.00     0.110 C 
HETATM   23  C12 UNL     1       1.756   6.355  10.987  1.00  0.00     0.097 C 
BRANCH  22  24
HETATM   24  O3  UNL     1       0.809   4.859  12.538  1.00  0.00    -0.350 OA
ATOM     25  H3  UNL     1       1.717   4.616  12.673  1.00  0.00     0.219 HD
ENDBRANCH  22  24
ENDBRANCH  20  22
ENDBRANCH   8  20
BRANCH  15  26
HETATM   26  C18 UNL     1      -4.373  -0.566  10.491  1.00  0.00     0.198 C 
BRANCH  26  27
HETATM   27  O5  UNL     1      -4.600  -0.020   9.243  1.00  0.00    -0.398 OA
ATOM     28  H5  UNL     1      -5.515  -0.105   9.001  1.00  0.00     0.209 HD
ENDBRANCH  26  27
ENDBRANCH  15  26
TORSDOF 6
ENDMDL
MODEL 4
REMARK VINA RESULT: -6.801769718      1.200      1.392
REMARK  6 active torsions:
REMARK  status: ('A' for Active; 'I' for Inactive)
REMARK    1  A    between atoms: O1_2  and  C2_3 
REMARK    2  A    between atoms: C8_10  and  N1_12 
REMARK    3  A    between atoms: N1_12  and  C11_14 
REMARK    4  A    between atoms: C11_14  and  O3_16 
REMARK    5  A    between atoms: C17_23  and  C18_24 
REMARK    6  A    between atoms: C18_24  and  O5_25 
ROOT
HETATM    1  C2  UNL     1      -4.120   1.664  12.383  1.00  0.00     0.190 C 
HETATM    2  C3  UNL     1      -2.799   2.383  12.330  1.00  0.00     0.072 C 
HETATM    3  C4  UNL     1      -2.977   3.718  13.051  1.00  0.00     0.018 C 
HETATM    4  C5  UNL     1      -4.458   3.992  12.820  1.00  0.00     0.001 C 
HETATM    5  C6  UNL     1      -4.602   4.318  11.374  1.00  0.00     0.093 C 
HETATM    6  C7  UNL     1      -3.975   5.701  11.274  1.00  0.00     0.155 C 
HETATM    7  O2  UNL     1      -2.916   5.920  10.764  1.00  0.00    -0.295 OA
HETATM    8  C8  UNL     1      -4.768   6.809  11.863  1.00  0.00     0.091 C 
HETATM    9  C9  UNL     1      -3.965   8.080  12.027  1.00  0.00     0.047 C 
HETATM   10  C13 UNL     1      -5.290   6.393  13.205  1.00  0.00     0.044 C 
HETATM   11  C14 UNL     1      -5.049   5.013  13.680  1.00  0.00    -0.004 C 
HETATM   12  C15 UNL     1      -6.396   4.541  14.268  1.00  0.00     0.011 C 
HETATM   13  C16 UNL     1      -4.937   2.595  13.223  1.00  0.00     0.193 C 
HETATM   14  O4  UNL     1      -4.587   2.513  14.577  1.00  0.00    -0.370 OA
HETATM   15  C17 UNL     1      -4.147   1.326  15.033  1.00  0.00     0.169 C 
HETATM   16  C19 UNL     1      -4.581   0.222  14.125  1.00  0.00     0.205 C 
HETATM   17  O6  UNL     1      -3.896   0.407  12.930  1.00  0.00    -0.350 OA
ENDROOT
BRANCH   1  18
HETATM   18  O1  UNL     1      -4.663   1.442  11.133  1.00  0.00    -0.358 OA
HETATM   19  C1  UNL     1      -4.309   0.291  10.503  1.00  0.00     0.205 C 
ENDBRANCH   1  18
BRANCH   8  20
HETATM   20  N1  UNL     1      -5.839   7.113  10.910  1.00  0.00    -0.354 N 
HETATM   21  C10 UNL     1      -7.134   7.608  11.435  1.00  0.00     0.152 C 
BRANCH  20  22
HETATM   22  C11 UNL     1      -5.765   6.983   9.513  1.00  0.00     0.110 C 
HETATM   23  C12 UNL     1      -4.966   7.745   8.542  1.00  0.00     0.097 C 
BRANCH  22  24
HETATM   24  O3  UNL     1      -6.523   6.043   9.011  1.00  0.00    -0.350 OA
ATOM     25  H3  UNL     1      -6.982   6.286   8.215  1.00  0.00     0.219 HD
ENDBRANCH  22  24
ENDBRANCH  20  22
ENDBRANCH   8  20
BRANCH  15  26
HETATM   26  C18 UNL     1      -4.702   1.135  16.453  1.00  0.00     0.198 C 
BRANCH  26  27
HETATM   27  O5  UNL     1      -5.578   0.068  16.496  1.00  0.00    -0.398 OA
ATOM     28  H5  UNL     1      -5.201  -0.692  16.069  1.00  0.00     0.209 HD
ENDBRANCH  26  27
ENDBRANCH  15  26
TORSDOF 6
ENDMDL
MODEL 5
REMARK VINA RESULT: -6.716761094      1.585      1.974
REMARK  6 active torsions:
REMARK  status: ('A' for Active; 'I' for Inactive)
REMARK    1  A    between atoms: O1_2  and  C2_3 
REMARK    2  A    between atoms: C8_10  and  N1_12 
REMARK    3  A    between atoms: N1_12  and  C11_14 
REMARK    4  A    between atoms: C11_14  and  O3_16 
REMARK    5  A    between atoms: C17_23  and  C18_24 
REMARK    6  A    between atoms: C18_24  and  O5_25 
ROOT
HETATM    1  C2  UNL     1      -3.628   1.911  12.069  1.00  0.00     0.190 C 
HETATM    2  C3  UNL     1      -2.281   2.553  12.266  1.00  0.00     0.072 C 
HETATM    3  C4  UNL     1      -2.498   3.831  13.075  1.00  0.00     0.018 C 
HETATM    4  C5  UNL     1      -3.916   4.210  12.667  1.00  0.00     0.001 C 
HETATM    5  C6  UNL     1      -3.836   4.665  11.251  1.00  0.00     0.093 C 
HETATM    6  C7  UNL     1      -3.137   6.012  11.367  1.00  0.00     0.155 C 
HETATM    7  O2  UNL     1      -2.007   6.211  11.032  1.00  0.00    -0.295 OA
HETATM    8  C8  UNL     1      -3.954   7.112  11.939  1.00  0.00     0.091 C 
HETATM    9  C9  UNL     1      -3.124   8.314  12.330  1.00  0.00     0.047 C 
HETATM   10  C13 UNL     1      -4.682   6.615  13.152  1.00  0.00     0.044 C 
HETATM   11  C14 UNL     1      -4.576   5.188  13.526  1.00  0.00    -0.004 C 
HETATM   12  C15 UNL     1      -6.015   4.749  13.876  1.00  0.00     0.011 C 
HETATM   13  C16 UNL     1      -4.513   2.815  12.869  1.00  0.00     0.193 C 
HETATM   14  O4  UNL     1      -4.366   2.598  14.244  1.00  0.00    -0.370 OA
HETATM   15  C17 UNL     1      -4.052   1.353  14.646  1.00  0.00     0.169 C 
HETATM   16  C19 UNL     1      -4.402   0.357  13.589  1.00  0.00     0.205 C 
HETATM   17  O6  UNL     1      -3.544   0.602  12.524  1.00  0.00    -0.350 OA
ENDROOT
BRANCH   1  18
HETATM   18  O1  UNL     1      -3.996   1.829  10.740  1.00  0.00    -0.358 OA
HETATM   19  C1  UNL     1      -4.070   0.585  10.198  1.00  0.00     0.205 C 
ENDBRANCH   1  18
BRANCH   8  20
HETATM   20  N1  UNL     1      -4.861   7.558  10.879  1.00  0.00    -0.354 N 
HETATM   21  C10 UNL     1      -4.298   8.325   9.742  1.00  0.00     0.152 C 
BRANCH  20  22
HETATM   22  C11 UNL     1      -6.246   7.328  10.824  1.00  0.00     0.110 C 
HETATM   23  C12 UNL     1      -7.330   7.947  11.601  1.00  0.00     0.097 C 
BRANCH  22  24
HETATM   24  O3  UNL     1      -6.616   6.427   9.951  1.00  0.00    -0.350 OA
ATOM     25  H3  UNL     1      -5.906   6.051   9.444  1.00  0.00     0.219 HD
ENDBRANCH  22  24
ENDBRANCH  20  22
ENDBRANCH   8  20
BRANCH  15  26
HETATM   26  C18 UNL     1      -4.814   1.076  15.951  1.00  0.00     0.198 C 
BRANCH  26  27
HETATM   27  O5  UNL     1      -5.190  -0.251  16.025  1.00  0.00    -0.398 OA
ATOM     28  H5  UNL     1      -5.978  -0.405  15.518  1.00  0.00     0.209 HD
ENDBRANCH  26  27
ENDBRANCH  15  26
TORSDOF 6
ENDMDL
