MODEL 1
REMARK VINA RESULT: -7.597212176      0.000      0.000
REMARK  6 active torsions:
REMARK  status: ('A' for Active; 'I' for Inactive)
REMARK    1  A    between atoms: O1_2  and  C2_3 
REMARK    2  A    between atoms: N1_6  and  N2_7 
REMARK    3  A    between atoms: N1_6  and  O2_10 
REMARK    4  A    between atoms: C6_15  and  O5_17 
REMARK    5  A    between atoms: O5_17  and  C8_18 
REMARK       I    between atoms: C8_18  and  N3_20 
REMARK    6  A    between atoms: N3_20  and  C9_22 
ROOT
HETATM    1  C2  UNL     1      -5.886   3.192  14.077  1.00  0.00     0.189 C 
HETATM    2  C3  UNL     1      -6.067   3.190  15.572  1.00  0.00     0.105 C 
HETATM    3  C4  UNL     1      -5.721   1.827  16.069  1.00  0.00     0.136 C 
HETATM    4  N1  UNL     1      -6.045   1.546  17.284  1.00  0.00    -0.168 N 
HETATM    5  C5  UNL     1      -5.049   0.829  15.258  1.00  0.00     0.312 C 
HETATM    6  O3  UNL     1      -4.828  -0.350  15.690  1.00  0.00    -0.258 OA
HETATM    7  O4  UNL     1      -4.651   1.203  13.981  1.00  0.00    -0.275 OA
HETATM    8  C6  UNL     1      -4.515   2.626  13.781  1.00  0.00     0.206 C 
HETATM    9  C7  UNL     1      -4.173   2.812  12.320  1.00  0.00     0.083 C 
ENDROOT
BRANCH   8  10
HETATM   10  O5  UNL     1      -3.508   3.029  14.646  1.00  0.00    -0.263 OA
BRANCH  10  11
HETATM   11  C8  UNL     1      -2.716   4.135  14.603  1.00  0.00     0.363 C 
HETATM   12  O6  UNL     1      -1.623   4.071  15.221  1.00  0.00    -0.238 OA
HETATM   13  N3  UNL     1      -3.078   5.335  13.894  1.00  0.00    -0.329 N 
ATOM     14  H3  UNL     1      -3.972   5.350  13.404  1.00  0.00     0.165 HD
BRANCH  13  15
HETATM   15  C9  UNL     1      -2.269   6.500  13.837  1.00  0.00     0.119 C 
HETATM   16  C10 UNL     1      -3.047   7.797  13.815  1.00  0.00     0.146 C 
HETATM   17  C11 UNL     1      -1.897   8.709  13.336  1.00  0.00     0.042 C 
HETATM   18  O7  UNL     1      -3.915   7.780  12.757  1.00  0.00    -0.373 OA
HETATM   19  C12 UNL     1      -1.782   7.969  11.988  1.00  0.00     0.028 C 
HETATM   20  C13 UNL     1      -1.600   6.567  12.466  1.00  0.00     0.014 C 
HETATM   21  C15 UNL     1      -3.240   8.128  11.596  1.00  0.00     0.058 C 
HETATM   22  C14 UNL     1      -0.168   6.120  12.526  1.00  0.00     0.012 C 
HETATM   23  C16 UNL     1      -3.622   7.302  10.412  1.00  0.00     0.046 C 
HETATM   24  C17 UNL     1      -3.541   9.602  11.331  1.00  0.00     0.046 C 
ENDBRANCH  13  15
ENDBRANCH  10  11
ENDBRANCH   8  10
BRANCH   1  25
HETATM   25  O1  UNL     1      -6.160   4.383  13.463  1.00  0.00    -0.385 OA
HETATM   26  C1  UNL     1      -6.486   5.382  14.378  1.00  0.00     0.202 C 
ENDBRANCH   1  25
BRANCH   4  27
HETATM   27  N2  UNL     1      -5.752   0.293  17.812  1.00  0.00    -0.319 N 
ATOM     28  H22 UNL     1      -5.447  -0.427  17.156  1.00  0.00     0.179 HD
ATOM     29  H21 UNL     1      -5.846   0.125  18.814  1.00  0.00     0.179 HD
ENDBRANCH   4  27
BRANCH   4  30
HETATM   30  O2  UNL     1      -6.681   2.438  18.109  1.00  0.00    -0.268 OA
ATOM     31  H2  UNL     1      -7.327   2.172  18.753  1.00  0.00     0.247 HD
ENDBRANCH   4  30
TORSDOF 6
ENDMDL
MODEL 2
REMARK VINA RESULT: -7.285884337      0.902      1.056
REMARK  6 active torsions:
REMARK  status: ('A' for Active; 'I' for Inactive)
REMARK    1  A    between atoms: O1_2  and  C2_3 
REMARK    2  A    between atoms: N1_6  and  N2_7 
REMARK    3  A    between atoms: N1_6  and  O2_10 
REMARK    4  A    between atoms: C6_15  and  O5_17 
REMARK    5  A    between atoms: O5_17  and  C8_18 
REMARK       I    between atoms: C8_18  and  N3_20 
REMARK    6  A    between atoms: N3_20  and  C9_22 
ROOT
HETATM    1  C2  UNL     1      -5.783   3.144  14.092  1.00  0.00     0.189 C 
HETATM    2  C3  UNL     1      -6.239   3.180  15.527  1.00  0.00     0.105 C 
HETATM    3  C4  UNL     1      -5.642   2.004  16.222  1.00  0.00     0.136 C 
HETATM    4  N1  UNL     1      -6.105   1.715  17.389  1.00  0.00    -0.168 N 
HETATM    5  C5  UNL     1      -4.584   1.191  15.650  1.00  0.00     0.312 C 
HETATM    6  O3  UNL     1      -4.142   0.152  16.241  1.00  0.00    -0.258 OA
HETATM    7  O4  UNL     1      -4.064   1.587  14.424  1.00  0.00    -0.275 OA
HETATM    8  C6  UNL     1      -4.280   2.976  14.095  1.00  0.00     0.206 C 
HETATM    9  C7  UNL     1      -3.727   3.164  12.699  1.00  0.00     0.083 C 
ENDROOT
BRANCH   8  10
HETATM   10  O5  UNL     1      -3.603   3.698  15.066  1.00  0.00    -0.263 OA
BRANCH  10  11
HETATM   11  C8  UNL     1      -2.520   4.514  14.946  1.00  0.00     0.363 C 
HETATM   12  O6  UNL     1      -1.404   4.019  15.245  1.00  0.00    -0.238 OA
HETATM   13  N3  UNL     1      -2.610   5.881  14.500  1.00  0.00    -0.329 N 
ATOM     14  H3  UNL     1      -3.532   6.247  14.265  1.00  0.00     0.165 HD
BRANCH  13  15
HETATM   15  C9  UNL     1      -1.495   6.749  14.368  1.00  0.00     0.119 C 
HETATM   16  C10 UNL     1      -1.759   8.171  14.813  1.00  0.00     0.146 C 
HETATM   17  C11 UNL     1      -0.532   8.820  14.136  1.00  0.00     0.042 C 
HETATM   18  O7  UNL     1      -2.823   8.669  14.110  1.00  0.00    -0.373 OA
HETATM   19  C12 UNL     1      -1.032   8.451  12.725  1.00  0.00     0.028 C 
HETATM   20  C13 UNL     1      -1.224   6.979  12.884  1.00  0.00     0.014 C 
HETATM   21  C15 UNL     1      -2.395   9.103  12.864  1.00  0.00     0.058 C 
HETATM   22  C14 UNL     1      -0.068   6.154  12.398  1.00  0.00     0.012 C 
HETATM   23  C16 UNL     1      -3.330   8.750  11.755  1.00  0.00     0.046 C 
HETATM   24  C17 UNL     1      -2.231  10.619  12.953  1.00  0.00     0.046 C 
ENDBRANCH  13  15
ENDBRANCH  10  11
ENDBRANCH   8  10
BRANCH   1  25
HETATM   25  O1  UNL     1      -6.244   4.170  13.314  1.00  0.00    -0.385 OA
HETATM   26  C1  UNL     1      -6.463   5.331  14.050  1.00  0.00     0.202 C 
ENDBRANCH   1  25
BRANCH   4  27
HETATM   27  N2  UNL     1      -5.593   0.630  18.094  1.00  0.00    -0.319 N 
ATOM     28  H22 UNL     1      -5.503  -0.251  17.588  1.00  0.00     0.179 HD
ATOM     29  H21 UNL     1      -5.327   0.735  19.073  1.00  0.00     0.179 HD
ENDBRANCH   4  27
BRANCH   4  30
HETATM   30  O2  UNL     1      -7.103   2.436  17.993  1.00  0.00    -0.268 OA
ATOM     31  H2  UNL     1      -7.370   3.297  17.693  1.00  0.00     0.247 HD
ENDBRANCH   4  30
TORSDOF 6
ENDMDL
MODEL 3
REMARK VINA RESULT: -7.062351138      1.698      1.926
REMARK  6 active torsions:
REMARK  status: ('A' for Active; 'I' for Inactive)
REMARK    1  A    between atoms: O1_2  and  C2_3 
REMARK    2  A    between atoms: N1_6  and  N2_7 
REMARK    3  A    between atoms: N1_6  and  O2_10 
REMARK    4  A    between atoms: C6_15  and  O5_17 
REMARK    5  A    between atoms: O5_17  and  C8_18 
REMARK       I    between atoms: C8_18  and  N3_20 
REMARK    6  A    between atoms: N3_20  and  C9_22 
ROOT
HETATM    1  C2  UNL     1      -5.031   3.669  13.170  1.00  0.00     0.189 C 
HETATM    2  C3  UNL     1      -4.681   3.188  14.553  1.00  0.00     0.105 C 
HETATM    3  C4  UNL     1      -4.569   1.701  14.500  1.00  0.00     0.136 C 
HETATM    4  N1  UNL     1      -4.520   1.076  15.626  1.00  0.00    -0.168 N 
HETATM    5  C5  UNL     1      -4.515   0.948  13.260  1.00  0.00     0.312 C 
HETATM    6  O3  UNL     1      -4.489  -0.326  13.249  1.00  0.00    -0.258 OA
HETATM    7  O4  UNL     1      -4.494   1.670  12.074  1.00  0.00    -0.275 OA
HETATM    8  C6  UNL     1      -4.053   3.038  12.204  1.00  0.00     0.206 C 
HETATM    9  C7  UNL     1      -4.197   3.656  10.831  1.00  0.00     0.083 C 
ENDROOT
BRANCH   8  10
HETATM   10  O5  UNL     1      -2.742   2.966  12.650  1.00  0.00    -0.263 OA
BRANCH  10  11
HETATM   11  C8  UNL     1      -1.762   3.910  12.624  1.00  0.00     0.363 C 
HETATM   12  O6  UNL     1      -0.617   3.526  12.275  1.00  0.00    -0.238 OA
HETATM   13  N3  UNL     1      -1.989   5.290  12.971  1.00  0.00    -0.329 N 
ATOM     14  H3  UNL     1      -2.931   5.565  13.247  1.00  0.00     0.165 HD
BRANCH  13  15
HETATM   15  C9  UNL     1      -0.982   6.291  12.951  1.00  0.00     0.119 C 
HETATM   16  C10 UNL     1      -1.236   7.446  13.896  1.00  0.00     0.146 C 
HETATM   17  C11 UNL     1      -0.221   8.431  13.279  1.00  0.00     0.042 C 
HETATM   18  O7  UNL     1      -2.453   8.001  13.605  1.00  0.00    -0.373 OA
HETATM   19  C12 UNL     1      -0.980   8.479  11.937  1.00  0.00     0.028 C 
HETATM   20  C13 UNL     1      -1.042   7.023  11.613  1.00  0.00     0.014 C 
HETATM   21  C15 UNL     1      -2.322   8.868  12.529  1.00  0.00     0.058 C 
HETATM   22  C14 UNL     1       0.036   6.556  10.678  1.00  0.00     0.012 C 
HETATM   23  C16 UNL     1      -3.444   8.775  11.548  1.00  0.00     0.046 C 
HETATM   24  C17 UNL     1      -2.238  10.281  13.103  1.00  0.00     0.046 C 
ENDBRANCH  13  15
ENDBRANCH  10  11
ENDBRANCH   8  10
BRANCH   1  25
HETATM   25  O1  UNL     1      -5.165   5.025  13.048  1.00  0.00    -0.385 OA
HETATM   26  C1  UNL     1      -5.380   5.645  14.276  1.00  0.00     0.202 C 
ENDBRANCH   1  25
BRANCH   4  27
HETATM   27  N2  UNL     1      -4.417  -0.311  15.650  1.00  0.00    -0.319 N 
ATOM     28  H22 UNL     1      -3.982  -0.758  14.842  1.00  0.00     0.179 HD
ATOM     29  H21 UNL     1      -4.767  -0.836  16.451  1.00  0.00     0.179 HD
ENDBRANCH   4  27
BRANCH   4  30
HETATM   30  O2  UNL     1      -4.567   1.719  16.836  1.00  0.00    -0.268 OA
ATOM     31  H2  UNL     1      -5.382   1.975  17.252  1.00  0.00     0.247 HD
ENDBRANCH   4  30
TORSDOF 6
ENDMDL
MODEL 4
REMARK VINA RESULT: -6.893234000      1.973      3.567
REMARK  6 active torsions:
REMARK  status: ('A' for Active; 'I' for Inactive)
REMARK    1  A    between atoms: O1_2  and  C2_3 
REMARK    2  A    between atoms: N1_6  and  N2_7 
REMARK    3  A    between atoms: N1_6  and  O2_10 
REMARK    4  A    between atoms: C6_15  and  O5_17 
REMARK    5  A    between atoms: O5_17  and  C8_18 
REMARK       I    between atoms: C8_18  and  N3_20 
REMARK    6  A    between atoms: N3_20  and  C9_22 
ROOT
HETATM    1  C2  UNL     1      -4.296   4.633  15.187  1.00  0.00     0.189 C 
HETATM    2  C3  UNL     1      -3.862   3.204  15.382  1.00  0.00     0.105 C 
HETATM    3  C4  UNL     1      -5.012   2.457  15.968  1.00  0.00     0.136 C 
HETATM    4  N1  UNL     1      -4.770   1.282  16.439  1.00  0.00    -0.168 N 
HETATM    5  C5  UNL     1      -6.362   2.988  16.026  1.00  0.00     0.312 C 
HETATM    6  O3  UNL     1      -7.310   2.352  16.595  1.00  0.00    -0.258 OA
HETATM    7  O4  UNL     1      -6.589   4.225  15.437  1.00  0.00    -0.275 OA
HETATM    8  C6  UNL     1      -5.615   4.613  14.446  1.00  0.00     0.206 C 
HETATM    9  C7  UNL     1      -5.995   6.010  14.011  1.00  0.00     0.083 C 
ENDROOT
BRANCH   8  10
HETATM   10  O5  UNL     1      -5.714   3.667  13.437  1.00  0.00    -0.263 OA
BRANCH  10  11
HETATM   11  C8  UNL     1      -5.093   3.619  12.226  1.00  0.00     0.363 C 
HETATM   12  O6  UNL     1      -5.201   2.547  11.579  1.00  0.00    -0.238 OA
HETATM   13  N3  UNL     1      -4.342   4.721  11.683  1.00  0.00    -0.329 N 
ATOM     14  H3  UNL     1      -4.277   5.575  12.236  1.00  0.00     0.165 HD
BRANCH  13  15
HETATM   15  C9  UNL     1      -3.686   4.693  10.424  1.00  0.00     0.119 C 
HETATM   16  C10 UNL     1      -2.177   4.614  10.512  1.00  0.00     0.146 C 
HETATM   17  C11 UNL     1      -1.874   5.026   9.055  1.00  0.00     0.042 C 
HETATM   18  O7  UNL     1      -1.717   5.667  11.254  1.00  0.00    -0.373 OA
HETATM   19  C12 UNL     1      -2.488   6.426   9.252  1.00  0.00     0.028 C 
HETATM   20  C13 UNL     1      -3.843   6.057   9.757  1.00  0.00     0.014 C 
HETATM   21  C15 UNL     1      -1.643   6.800  10.457  1.00  0.00     0.058 C 
HETATM   22  C14 UNL     1      -4.907   6.035   8.698  1.00  0.00     0.012 C 
HETATM   23  C16 UNL     1      -2.114   8.042  11.140  1.00  0.00     0.046 C 
HETATM   24  C17 UNL     1      -0.184   6.952  10.032  1.00  0.00     0.046 C 
ENDBRANCH  13  15
ENDBRANCH  10  11
ENDBRANCH   8  10
BRANCH   1  25
HETATM   25  O1  UNL     1      -3.347   5.456  14.646  1.00  0.00    -0.385 OA
HETATM   26  C1  UNL     1      -2.103   4.836  14.559  1.00  0.00     0.202 C 
ENDBRANCH   1  25
BRANCH   4  27
HETATM   27  N2  UNL     1      -5.797   0.531  17.001  1.00  0.00    -0.319 N 
ATOM     28  H22 UNL     1      -6.743   0.907  16.925  1.00  0.00     0.179 HD
ATOM     29  H21 UNL     1      -5.590  -0.355  17.462  1.00  0.00     0.179 HD
ENDBRANCH   4  27
BRANCH   4  30
HETATM   30  O2  UNL     1      -3.522   0.716  16.419  1.00  0.00    -0.268 OA
ATOM     31  H2  UNL     1      -3.382  -0.224  16.412  1.00  0.00     0.247 HD
ENDBRANCH   4  30
TORSDOF 6
ENDMDL
MODEL 5
REMARK VINA RESULT: -6.843868177      1.739      2.578
REMARK  6 active torsions:
REMARK  status: ('A' for Active; 'I' for Inactive)
REMARK    1  A    between atoms: O1_2  and  C2_3 
REMARK    2  A    between atoms: N1_6  and  N2_7 
REMARK    3  A    between atoms: N1_6  and  O2_10 
REMARK    4  A    between atoms: C6_15  and  O5_17 
REMARK    5  A    between atoms: O5_17  and  C8_18 
REMARK       I    between atoms: C8_18  and  N3_20 
REMARK    6  A    between atoms: N3_20  and  C9_22 
ROOT
HETATM    1  C2  UNL     1      -5.480   3.486  13.082  1.00  0.00     0.189 C 
HETATM    2  C3  UNL     1      -5.050   3.168  14.490  1.00  0.00     0.105 C 
HETATM    3  C4  UNL     1      -4.688   1.722  14.537  1.00  0.00     0.136 C 
HETATM    4  N1  UNL     1      -4.531   1.195  15.703  1.00  0.00    -0.168 N 
HETATM    5  C5  UNL     1      -4.508   0.905  13.351  1.00  0.00     0.312 C 
HETATM    6  O3  UNL     1      -4.266  -0.344  13.427  1.00  0.00    -0.258 OA
HETATM    7  O4  UNL     1      -4.612   1.536  12.118  1.00  0.00    -0.275 OA
HETATM    8  C6  UNL     1      -4.411   2.964  12.149  1.00  0.00     0.206 C 
HETATM    9  C7  UNL     1      -4.660   3.452  10.739  1.00  0.00     0.083 C 
ENDROOT
BRANCH   8  10
HETATM   10  O5  UNL     1      -3.106   3.147  12.580  1.00  0.00    -0.263 OA
BRANCH  10  11
HETATM   11  C8  UNL     1      -2.321   4.258  12.531  1.00  0.00     0.363 C 
HETATM   12  O6  UNL     1      -1.087   4.072  12.382  1.00  0.00    -0.238 OA
HETATM   13  N3  UNL     1      -2.844   5.596  12.642  1.00  0.00    -0.329 N 
ATOM     14  H3  UNL     1      -3.850   5.707  12.761  1.00  0.00     0.165 HD
BRANCH  13  15
HETATM   15  C9  UNL     1      -2.046   6.768  12.594  1.00  0.00     0.119 C 
HETATM   16  C10 UNL     1      -1.054   6.891  13.731  1.00  0.00     0.146 C 
HETATM   17  C11 UNL     1      -0.738   8.392  13.555  1.00  0.00     0.042 C 
HETATM   18  O7  UNL     1      -1.728   6.833  14.920  1.00  0.00    -0.373 OA
HETATM   19  C12 UNL     1      -2.188   8.804  13.879  1.00  0.00     0.028 C 
HETATM   20  C13 UNL     1      -2.931   7.979  12.881  1.00  0.00     0.014 C 
HETATM   21  C15 UNL     1      -2.264   8.079  15.211  1.00  0.00     0.058 C 
HETATM   22  C14 UNL     1      -3.288   8.714  11.622  1.00  0.00     0.012 C 
HETATM   23  C16 UNL     1      -3.648   8.019  15.767  1.00  0.00     0.046 C 
HETATM   24  C17 UNL     1      -1.322   8.747  16.211  1.00  0.00     0.046 C 
ENDBRANCH  13  15
ENDBRANCH  10  11
ENDBRANCH   8  10
BRANCH   1  25
HETATM   25  O1  UNL     1      -5.842   4.788  12.870  1.00  0.00    -0.385 OA
HETATM   26  C1  UNL     1      -6.277   5.410  14.038  1.00  0.00     0.202 C 
ENDBRANCH   1  25
BRANCH   4  27
HETATM   27  N2  UNL     1      -4.193  -0.150  15.820  1.00  0.00    -0.319 N 
ATOM     28  H22 UNL     1      -4.690  -0.807  15.219  1.00  0.00     0.179 HD
ATOM     29  H21 UNL     1      -3.476  -0.441  16.484  1.00  0.00     0.179 HD
ENDBRANCH   4  27
BRANCH   4  30
HETATM   30  O2  UNL     1      -4.684   1.903  16.866  1.00  0.00    -0.268 OA
ATOM     31  H2  UNL     1      -4.643   1.499  17.725  1.00  0.00     0.247 HD
ENDBRANCH   4  30
TORSDOF 6
ENDMDL
