MODEL 1
REMARK VINA RESULT: -7.223549287      0.000      0.000
REMARK  3 active torsions:
REMARK  status: ('A' for Active; 'I' for Inactive)
REMARK    1  A    between atoms: C4_4  and  C5_5 
REMARK    2  A    between atoms: C11_15  and  C12_16 
REMARK       I    between atoms: C12_16  and  N1_18 
REMARK    3  A    between atoms: N1_18  and  C13_20 
ROOT
HETATM    1  C5  UNL     1      -0.902   4.970  11.644  1.00  0.00     0.210 C 
HETATM    2  O1  UNL     1      -1.646   3.812  11.844  1.00  0.00    -0.334 OA
HETATM    3  C6  UNL     1      -2.762   4.138  12.586  1.00  0.00     0.255 C 
HETATM    4  O2  UNL     1      -3.033   5.452  12.136  1.00  0.00    -0.309 OA
HETATM    5  C7  UNL     1      -1.754   6.040  12.266  1.00  0.00     0.193 C 
HETATM    6  C8  UNL     1      -1.684   7.351  11.520  1.00  0.00     0.082 C 
HETATM    7  O3  UNL     1      -1.498   6.264  13.591  1.00  0.00    -0.350 OA
HETATM    8  C9  UNL     1      -2.486   5.713  14.407  1.00  0.00     0.209 C 
HETATM    9  C10 UNL     1      -2.515   4.218  14.047  1.00  0.00     0.217 C 
HETATM   10  O4  UNL     1      -3.308   3.499  14.865  1.00  0.00    -0.332 OA
HETATM   11  C11 UNL     1      -4.415   2.912  14.346  1.00  0.00     0.333 C 
HETATM   12  C17 UNL     1      -3.997   1.625  13.660  1.00  0.00     0.250 C 
HETATM   13  O6  UNL     1      -3.695   1.989  12.346  1.00  0.00    -0.345 OA
HETATM   14  C18 UNL     1      -3.979   3.326  12.199  1.00  0.00     0.286 C 
HETATM   15  C19 UNL     1      -4.473   3.661  10.829  1.00  0.00     0.085 C 
HETATM   16  N2  UNL     1      -4.992   3.639  13.223  1.00  0.00     0.006 N 
ATOM     17  H21 UNL     1      -5.185   4.628  13.378  1.00  0.00     0.285 HD
ATOM     18  H22 UNL     1      -5.957   3.411  12.987  1.00  0.00     0.285 HD
ENDROOT
BRANCH  11  19
HETATM   19  C12 UNL     1      -5.404   2.689  15.418  1.00  0.00     0.284 C 
HETATM   20  O5  UNL     1      -6.336   3.528  15.541  1.00  0.00    -0.268 OA
HETATM   21  N1  UNL     1      -5.365   1.594  16.308  1.00  0.00    -0.349 N 
ATOM     22  H1  UNL     1      -4.607   0.918  16.203  1.00  0.00     0.163 HD
BRANCH  21  23
HETATM   23  C13 UNL     1      -6.327   1.371  17.354  1.00  0.00     0.022 C 
HETATM   24  C14 UNL     1      -6.100   0.002  17.954  1.00  0.00     0.037 C 
HETATM   25  C15 UNL     1      -7.752   1.385  16.830  1.00  0.00     0.037 C 
HETATM   26  C16 UNL     1      -6.250   2.444  18.419  1.00  0.00     0.037 C 
ENDBRANCH  21  23
ENDBRANCH  11  19
BRANCH   1  27
HETATM   27  C4  UNL     1       0.461   4.894  12.223  1.00  0.00     0.012 C 
HETATM   28  C2  UNL     1       1.527   5.097  11.495  1.00  0.00    -0.089 C 
HETATM   29  C1  UNL     1       1.382   5.410  10.057  1.00  0.00     0.042 C 
HETATM   30  C3  UNL     1       2.886   5.017  12.093  1.00  0.00     0.042 C 
ENDBRANCH   1  27
TORSDOF 3
ENDMDL
MODEL 2
REMARK VINA RESULT: -6.970978957      2.671      3.430
REMARK  3 active torsions:
REMARK  status: ('A' for Active; 'I' for Inactive)
REMARK    1  A    between atoms: C4_4  and  C5_5 
REMARK    2  A    between atoms: C11_15  and  C12_16 
REMARK       I    between atoms: C12_16  and  N1_18 
REMARK    3  A    between atoms: N1_18  and  C13_20 
ROOT
HETATM    1  C5  UNL     1      -3.809   6.987  11.412  1.00  0.00     0.210 C 
HETATM    2  O1  UNL     1      -3.344   6.041  12.319  1.00  0.00    -0.334 OA
HETATM    3  C6  UNL     1      -4.421   5.303  12.766  1.00  0.00     0.255 C 
HETATM    4  O2  UNL     1      -5.253   5.287  11.621  1.00  0.00    -0.309 OA
HETATM    5  C7  UNL     1      -5.272   6.662  11.294  1.00  0.00     0.193 C 
HETATM    6  C8  UNL     1      -5.808   6.879   9.899  1.00  0.00     0.082 C 
HETATM    7  O3  UNL     1      -6.068   7.323  12.188  1.00  0.00    -0.350 OA
HETATM    8  C9  UNL     1      -6.486   6.486  13.223  1.00  0.00     0.209 C 
HETATM    9  C10 UNL     1      -5.189   5.953  13.855  1.00  0.00     0.217 C 
HETATM   10  O4  UNL     1      -5.408   5.251  14.984  1.00  0.00    -0.332 OA
HETATM   11  C11 UNL     1      -5.110   3.928  14.994  1.00  0.00     0.333 C 
HETATM   12  C17 UNL     1      -3.618   3.776  15.218  1.00  0.00     0.250 C 
HETATM   13  O6  UNL     1      -3.050   3.793  13.942  1.00  0.00    -0.345 OA
HETATM   14  C18 UNL     1      -4.070   3.854  13.023  1.00  0.00     0.286 C 
HETATM   15  C19 UNL     1      -3.755   3.114  11.764  1.00  0.00     0.085 C 
HETATM   16  N2  UNL     1      -5.253   3.286  13.694  1.00  0.00     0.006 N 
ATOM     17  H21 UNL     1      -6.147   3.419  13.221  1.00  0.00     0.285 HD
ATOM     18  H22 UNL     1      -5.324   2.268  13.700  1.00  0.00     0.285 HD
ENDROOT
BRANCH  11  19
HETATM   19  C12 UNL     1      -5.913   3.249  16.029  1.00  0.00     0.284 C 
HETATM   20  O5  UNL     1      -6.927   3.849  16.473  1.00  0.00    -0.268 OA
HETATM   21  N1  UNL     1      -5.608   1.971  16.547  1.00  0.00    -0.349 N 
ATOM     22  H1  UNL     1      -4.784   1.491  16.184  1.00  0.00     0.163 HD
BRANCH  21  23
HETATM   23  C13 UNL     1      -6.387   1.305  17.556  1.00  0.00     0.022 C 
HETATM   24  C14 UNL     1      -6.219   2.031  18.872  1.00  0.00     0.037 C 
HETATM   25  C15 UNL     1      -5.923  -0.122  17.785  1.00  0.00     0.037 C 
HETATM   26  C16 UNL     1      -7.848   1.225  17.169  1.00  0.00     0.037 C 
ENDBRANCH  21  23
ENDBRANCH  11  19
BRANCH   1  27
HETATM   27  C4  UNL     1      -3.550   8.382  11.841  1.00  0.00     0.012 C 
HETATM   28  C2  UNL     1      -2.961   9.242  11.054  1.00  0.00    -0.089 C 
HETATM   29  C1  UNL     1      -2.538   8.825   9.700  1.00  0.00     0.042 C 
HETATM   30  C3  UNL     1      -2.709  10.638  11.502  1.00  0.00     0.042 C 
ENDBRANCH   1  27
TORSDOF 3
ENDMDL
MODEL 3
REMARK VINA RESULT: -6.802185626      1.092      1.389
REMARK  3 active torsions:
REMARK  status: ('A' for Active; 'I' for Inactive)
REMARK    1  A    between atoms: C4_4  and  C5_5 
REMARK    2  A    between atoms: C11_15  and  C12_16 
REMARK       I    between atoms: C12_16  and  N1_18 
REMARK    3  A    between atoms: N1_18  and  C13_20 
ROOT
HETATM    1  C5  UNL     1      -1.748   5.725  12.030  1.00  0.00     0.210 C 
HETATM    2  O1  UNL     1      -2.199   4.411  11.979  1.00  0.00    -0.334 OA
HETATM    3  C6  UNL     1      -3.251   4.279  12.861  1.00  0.00     0.255 C 
HETATM    4  O2  UNL     1      -3.849   5.560  12.789  1.00  0.00    -0.309 OA
HETATM    5  C7  UNL     1      -2.717   6.386  12.969  1.00  0.00     0.193 C 
HETATM    6  C8  UNL     1      -3.023   7.814  12.586  1.00  0.00     0.082 C 
HETATM    7  O3  UNL     1      -2.342   6.346  14.284  1.00  0.00    -0.350 OA
HETATM    8  C9  UNL     1      -3.075   5.401  15.002  1.00  0.00     0.209 C 
HETATM    9  C10 UNL     1      -2.836   4.070  14.270  1.00  0.00     0.217 C 
HETATM   10  O4  UNL     1      -3.345   3.012  14.931  1.00  0.00    -0.332 OA
HETATM   11  C11 UNL     1      -4.363   2.318  14.362  1.00  0.00     0.333 C 
HETATM   12  C17 UNL     1      -3.777   1.365  13.337  1.00  0.00     0.250 C 
HETATM   13  O6  UNL     1      -3.734   2.089  12.143  1.00  0.00    -0.345 OA
HETATM   14  C18 UNL     1      -4.310   3.317  12.369  1.00  0.00     0.286 C 
HETATM   15  C19 UNL     1      -5.039   3.838  11.173  1.00  0.00     0.085 C 
HETATM   16  N2  UNL     1      -5.222   3.131  13.512  1.00  0.00     0.006 N 
ATOM     17  H21 UNL     1      -5.597   3.982  13.932  1.00  0.00     0.285 HD
ATOM     18  H22 UNL     1      -6.141   2.744  13.298  1.00  0.00     0.285 HD
ENDROOT
BRANCH  11  19
HETATM   19  C12 UNL     1      -5.133   1.622  15.410  1.00  0.00     0.284 C 
HETATM   20  O5  UNL     1      -5.255   0.372  15.318  1.00  0.00    -0.268 OA
HETATM   21  N1  UNL     1      -5.737   2.277  16.506  1.00  0.00    -0.349 N 
ATOM     22  H1  UNL     1      -5.634   3.290  16.575  1.00  0.00     0.163 HD
BRANCH  21  23
HETATM   23  C13 UNL     1      -6.488   1.604  17.531  1.00  0.00     0.022 C 
HETATM   24  C14 UNL     1      -6.498   2.457  18.780  1.00  0.00     0.037 C 
HETATM   25  C15 UNL     1      -5.862   0.276  17.918  1.00  0.00     0.037 C 
HETATM   26  C16 UNL     1      -7.899   1.298  17.078  1.00  0.00     0.037 C 
ENDBRANCH  21  23
ENDBRANCH  11  19
BRANCH   1  27
HETATM   27  C4  UNL     1      -0.336   5.840  12.466  1.00  0.00     0.012 C 
HETATM   28  C2  UNL     1       0.617   6.146  11.627  1.00  0.00    -0.089 C 
HETATM   29  C1  UNL     1       0.291   6.385  10.204  1.00  0.00     0.042 C 
HETATM   30  C3  UNL     1       2.029   6.257  12.082  1.00  0.00     0.042 C 
ENDBRANCH   1  27
TORSDOF 3
ENDMDL
MODEL 4
REMARK VINA RESULT: -6.799972484      3.725      7.560
REMARK  3 active torsions:
REMARK  status: ('A' for Active; 'I' for Inactive)
REMARK    1  A    between atoms: C4_4  and  C5_5 
REMARK    2  A    between atoms: C11_15  and  C12_16 
REMARK       I    between atoms: C12_16  and  N1_18 
REMARK    3  A    between atoms: N1_18  and  C13_20 
ROOT
HETATM    1  C5  UNL     1      -4.637   3.977  13.740  1.00  0.00     0.210 C 
HETATM    2  O1  UNL     1      -5.167   4.390  12.522  1.00  0.00    -0.334 OA
HETATM    3  C6  UNL     1      -4.506   5.535  12.128  1.00  0.00     0.255 C 
HETATM    4  O2  UNL     1      -3.208   5.309  12.645  1.00  0.00    -0.309 OA
HETATM    5  C7  UNL     1      -3.517   4.950  13.976  1.00  0.00     0.193 C 
HETATM    6  C8  UNL     1      -2.326   4.317  14.656  1.00  0.00     0.082 C 
HETATM    7  O3  UNL     1      -3.883   6.072  14.667  1.00  0.00    -0.350 OA
HETATM    8  C9  UNL     1      -3.991   7.182  13.829  1.00  0.00     0.209 C 
HETATM    9  C10 UNL     1      -5.018   6.776  12.759  1.00  0.00     0.217 C 
HETATM   10  O4  UNL     1      -5.366   7.800  11.955  1.00  0.00    -0.332 OA
HETATM   11  C11 UNL     1      -5.038   7.734  10.640  1.00  0.00     0.333 C 
HETATM   12  C17 UNL     1      -6.061   6.863   9.935  1.00  0.00     0.250 C 
HETATM   13  O6  UNL     1      -5.562   5.562  10.023  1.00  0.00    -0.345 OA
HETATM   14  C18 UNL     1      -4.328   5.620  10.628  1.00  0.00     0.286 C 
HETATM   15  C19 UNL     1      -3.384   4.584  10.108  1.00  0.00     0.085 C 
HETATM   16  N2  UNL     1      -3.819   6.980  10.378  1.00  0.00     0.006 N 
ATOM     17  H21 UNL     1      -2.994   7.258  10.910  1.00  0.00     0.285 HD
ATOM     18  H22 UNL     1      -3.378   7.138   9.472  1.00  0.00     0.285 HD
ENDROOT
BRANCH  11  19
HETATM   19  C12 UNL     1      -4.969   9.097  10.080  1.00  0.00     0.284 C 
HETATM   20  O5  UNL     1      -4.102   9.325   9.195  1.00  0.00    -0.268 OA
HETATM   21  N1  UNL     1      -5.816  10.154  10.479  1.00  0.00    -0.349 N 
ATOM     22  H1  UNL     1      -6.516   9.963  11.196  1.00  0.00     0.163 HD
BRANCH  21  23
HETATM   23  C13 UNL     1      -5.753  11.484   9.935  1.00  0.00     0.022 C 
HETATM   24  C14 UNL     1      -4.462  12.138  10.373  1.00  0.00     0.037 C 
HETATM   25  C15 UNL     1      -6.880  12.363  10.446  1.00  0.00     0.037 C 
HETATM   26  C16 UNL     1      -5.865  11.475   8.426  1.00  0.00     0.037 C 
ENDBRANCH  21  23
ENDBRANCH  11  19
BRANCH   1  27
HETATM   27  C4  UNL     1      -5.638   3.956  14.834  1.00  0.00     0.012 C 
HETATM   28  C2  UNL     1      -5.765   2.926  15.626  1.00  0.00    -0.089 C 
HETATM   29  C1  UNL     1      -4.894   1.745  15.437  1.00  0.00     0.042 C 
HETATM   30  C3  UNL     1      -6.775   2.923  16.719  1.00  0.00     0.042 C 
ENDBRANCH   1  27
TORSDOF 3
ENDMDL
MODEL 5
REMARK VINA RESULT: -6.798290486      2.249      4.070
REMARK  3 active torsions:
REMARK  status: ('A' for Active; 'I' for Inactive)
REMARK    1  A    between atoms: C4_4  and  C5_5 
REMARK    2  A    between atoms: C11_15  and  C12_16 
REMARK       I    between atoms: C12_16  and  N1_18 
REMARK    3  A    between atoms: N1_18  and  C13_20 
ROOT
HETATM    1  C5  UNL     1      -3.770   6.146  10.331  1.00  0.00     0.210 C 
HETATM    2  O1  UNL     1      -4.003   6.340  11.688  1.00  0.00    -0.334 OA
HETATM    3  C6  UNL     1      -3.701   5.169  12.351  1.00  0.00     0.255 C 
HETATM    4  O2  UNL     1      -2.638   4.660  11.567  1.00  0.00    -0.309 OA
HETATM    5  C7  UNL     1      -3.200   4.757  10.274  1.00  0.00     0.193 C 
HETATM    6  C8  UNL     1      -2.139   4.603   9.211  1.00  0.00     0.082 C 
HETATM    7  O3  UNL     1      -4.135   3.770  10.120  1.00  0.00    -0.350 OA
HETATM    8  C9  UNL     1      -4.360   3.082  11.312  1.00  0.00     0.209 C 
HETATM    9  C10 UNL     1      -4.788   4.160  12.322  1.00  0.00     0.217 C 
HETATM   10  O4  UNL     1      -5.205   3.641  13.493  1.00  0.00    -0.332 OA
HETATM   11  C11 UNL     1      -4.482   3.898  14.611  1.00  0.00     0.333 C 
HETATM   12  C17 UNL     1      -4.856   5.279  15.117  1.00  0.00     0.250 C 
HETATM   13  O6  UNL     1      -3.983   6.157  14.470  1.00  0.00    -0.345 OA
HETATM   14  C18 UNL     1      -3.105   5.410  13.721  1.00  0.00     0.286 C 
HETATM   15  C19 UNL     1      -1.745   6.024  13.649  1.00  0.00     0.085 C 
HETATM   16  N2  UNL     1      -3.058   4.082  14.359  1.00  0.00     0.006 N 
ATOM     17  H21 UNL     1      -2.596   3.343  13.829  1.00  0.00     0.285 HD
ATOM     18  H22 UNL     1      -2.442   3.991  15.166  1.00  0.00     0.285 HD
ENDROOT
BRANCH  11  19
HETATM   19  C12 UNL     1      -4.726   2.841  15.611  1.00  0.00     0.284 C 
HETATM   20  O5  UNL     1      -3.736   2.182  16.024  1.00  0.00    -0.268 OA
HETATM   21  N1  UNL     1      -6.003   2.529  16.128  1.00  0.00    -0.349 N 
ATOM     22  H1  UNL     1      -6.801   3.066  15.789  1.00  0.00     0.163 HD
BRANCH  21  23
HETATM   23  C13 UNL     1      -6.247   1.501  17.103  1.00  0.00     0.022 C 
HETATM   24  C14 UNL     1      -7.707   1.108  17.055  1.00  0.00     0.037 C 
HETATM   25  C15 UNL     1      -5.972   1.979  18.517  1.00  0.00     0.037 C 
HETATM   26  C16 UNL     1      -5.359   0.296  16.876  1.00  0.00     0.037 C 
ENDBRANCH  21  23
ENDBRANCH  11  19
BRANCH   1  27
HETATM   27  C4  UNL     1      -4.987   6.315   9.501  1.00  0.00     0.012 C 
HETATM   28  C2  UNL     1      -4.991   7.074   8.438  1.00  0.00    -0.089 C 
HETATM   29  C1  UNL     1      -3.756   7.786   8.043  1.00  0.00     0.042 C 
HETATM   30  C3  UNL     1      -6.222   7.232   7.617  1.00  0.00     0.042 C 
ENDBRANCH   1  27
TORSDOF 3
ENDMDL
