MODEL 1
REMARK VINA RESULT: -6.697053083      0.000      0.000
REMARK  5 active torsions:
REMARK  status: ('A' for Active; 'I' for Inactive)
REMARK    1  A    between atoms: O1_2  and  C2_3 
REMARK    2  A    between atoms: C2_3  and  C3_5 
REMARK    3  A    between atoms: C3_5  and  C4_6 
REMARK    4  A    between atoms: C3_5  and  N5_25 
REMARK    5  A    between atoms: C8_12  and  N2_13 
ROOT
HETATM    1  C4  UNL     1      -3.974   5.212  13.777  1.00  0.00     0.129 A 
HETATM    2  N1  UNL     1      -4.798   4.936  14.797  1.00  0.00    -0.340 N 
ATOM      3  H1  UNL     1      -5.333   5.644  15.298  1.00  0.00     0.167 HD
HETATM    4  C5  UNL     1      -4.841   3.650  15.083  1.00  0.00     0.085 A 
HETATM    5  C6  UNL     1      -5.524   2.928  16.018  1.00  0.00    -0.018 A 
HETATM    6  C7  UNL     1      -5.341   1.567  16.049  1.00  0.00    -0.006 A 
HETATM    7  C8  UNL     1      -4.485   0.967  15.152  1.00  0.00     0.107 A 
HETATM    8  N3  UNL     1      -3.826   1.695  14.245  1.00  0.00    -0.327 N 
ATOM      9  H3  UNL     1      -3.197   1.228  13.591  1.00  0.00     0.169 HD
HETATM   10  C9  UNL     1      -3.973   3.028  14.175  1.00  0.00     0.138 A 
HETATM   11  N4  UNL     1      -3.477   4.013  13.411  1.00  0.00    -0.323 N 
HETATM   12  C10 UNL     1      -2.523   3.728  12.341  1.00  0.00     0.159 C 
HETATM   13  C11 UNL     1      -6.088   0.793  17.075  1.00  0.00     0.043 C 
HETATM   14  C12 UNL     1      -7.503   1.263  17.242  1.00  0.00     0.005 C 
HETATM   15  C13 UNL     1      -7.732   2.688  16.895  1.00  0.00     0.005 C 
HETATM   16  C14 UNL     1      -6.454   3.531  16.991  1.00  0.00     0.042 C 
ENDROOT
BRANCH   1  17
HETATM   17  C3  UNL     1      -3.624   6.482  13.136  1.00  0.00     0.388 C 
BRANCH  17  18
HETATM   18  C2  UNL     1      -2.864   7.378  14.079  1.00  0.00     0.300 C 
HETATM   19  O2  UNL     1      -3.423   7.753  15.134  1.00  0.00    -0.262 OA
BRANCH  18  20
HETATM   20  O1  UNL     1      -1.577   7.806  13.833  1.00  0.00    -0.324 OA
HETATM   21  C1  UNL     1      -0.770   7.075  12.897  1.00  0.00     0.213 C 
ENDBRANCH  18  20
ENDBRANCH  17  18
BRANCH  17  22
HETATM   22  N5  UNL     1      -4.686   7.254  12.616  1.00  0.00     0.111 N 
HETATM   23  C15 UNL     1      -4.136   8.345  11.847  1.00  0.00     0.275 C 
HETATM   24  C16 UNL     1      -4.292   8.071  10.361  1.00  0.00     0.050 C 
HETATM   25  C17 UNL     1      -5.550   8.732   9.894  1.00  0.00     0.118 C 
HETATM   26  N6  UNL     1      -6.731   7.995  10.196  1.00  0.00    -0.415 N 
HETATM   27  C18 UNL     1      -7.107   6.992   9.256  1.00  0.00     0.143 C 
HETATM   28  C19 UNL     1      -6.854   7.571  11.551  1.00  0.00     0.146 C 
HETATM   29  C20 UNL     1      -5.769   6.585  11.991  1.00  0.00     0.293 C 
ENDBRANCH  17  22
ENDBRANCH   1  17
BRANCH   7  30
HETATM   30  N2  UNL     1      -4.348  -0.316  15.224  1.00  0.00    -0.385 N 
ATOM     31  H22 UNL     1      -5.001  -0.952  14.766  1.00  0.00     0.157 HD
ATOM     32  H21 UNL     1      -3.556  -0.676  15.758  1.00  0.00     0.157 HD
ENDBRANCH   7  30
TORSDOF 5
ENDMDL
MODEL 2
REMARK VINA RESULT: -6.476507066      2.440      7.039
REMARK  5 active torsions:
REMARK  status: ('A' for Active; 'I' for Inactive)
REMARK    1  A    between atoms: O1_2  and  C2_3 
REMARK    2  A    between atoms: C2_3  and  C3_5 
REMARK    3  A    between atoms: C3_5  and  C4_6 
REMARK    4  A    between atoms: C3_5  and  N5_25 
REMARK    5  A    between atoms: C8_12  and  N2_13 
ROOT
HETATM    1  C4  UNL     1      -3.728   4.617  13.314  1.00  0.00     0.129 A 
HETATM    2  N1  UNL     1      -4.709   5.170  12.587  1.00  0.00    -0.340 N 
ATOM      3  H1  UNL     1      -5.579   4.691  12.357  1.00  0.00     0.167 HD
HETATM    4  C5  UNL     1      -4.427   6.398  12.201  1.00  0.00     0.085 A 
HETATM    5  C6  UNL     1      -5.111   7.321  11.465  1.00  0.00    -0.018 A 
HETATM    6  C7  UNL     1      -4.519   8.540  11.238  1.00  0.00    -0.006 A 
HETATM    7  C8  UNL     1      -3.268   8.803  11.750  1.00  0.00     0.107 A 
HETATM    8  N3  UNL     1      -2.617   7.883  12.469  1.00  0.00    -0.327 N 
ATOM      9  H3  UNL     1      -1.691   8.101  12.837  1.00  0.00     0.169 HD
HETATM   10  C9  UNL     1      -3.155   6.678  12.716  1.00  0.00     0.138 A 
HETATM   11  N4  UNL     1      -2.778   5.573  13.379  1.00  0.00    -0.323 N 
HETATM   12  C10 UNL     1      -1.484   5.505  14.054  1.00  0.00     0.159 C 
HETATM   13  C11 UNL     1      -5.274   9.535  10.431  1.00  0.00     0.043 C 
HETATM   14  C12 UNL     1      -6.735   9.573  10.773  1.00  0.00     0.005 C 
HETATM   15  C13 UNL     1      -7.282   8.306  11.317  1.00  0.00     0.005 C 
HETATM   16  C14 UNL     1      -6.454   7.081  10.905  1.00  0.00     0.042 C 
ENDROOT
BRANCH   1  17
HETATM   17  C3  UNL     1      -3.614   3.296  13.935  1.00  0.00     0.388 C 
BRANCH  17  18
HETATM   18  C2  UNL     1      -4.251   2.234  13.078  1.00  0.00     0.300 C 
HETATM   19  O2  UNL     1      -3.717   1.103  13.025  1.00  0.00    -0.262 OA
BRANCH  18  20
HETATM   20  O1  UNL     1      -5.398   2.451  12.344  1.00  0.00    -0.324 OA
HETATM   21  C1  UNL     1      -5.613   1.685  11.150  1.00  0.00     0.213 C 
ENDBRANCH  18  20
ENDBRANCH  17  18
BRANCH  17  22
HETATM   22  N5  UNL     1      -4.157   3.145  15.230  1.00  0.00     0.111 N 
HETATM   23  C15 UNL     1      -4.985   4.290  15.525  1.00  0.00     0.275 C 
HETATM   24  C16 UNL     1      -6.454   3.915  15.426  1.00  0.00     0.050 C 
HETATM   25  C17 UNL     1      -6.936   3.553  16.795  1.00  0.00     0.118 C 
HETATM   26  N6  UNL     1      -6.584   2.233  17.196  1.00  0.00    -0.415 N 
HETATM   27  C18 UNL     1      -7.469   1.191  16.790  1.00  0.00     0.143 C 
HETATM   28  C19 UNL     1      -5.209   1.895  17.038  1.00  0.00     0.146 C 
HETATM   29  C20 UNL     1      -4.735   1.899  15.582  1.00  0.00     0.293 C 
ENDBRANCH  17  22
ENDBRANCH   1  17
BRANCH   7  30
HETATM   30  N2  UNL     1      -2.756   9.964  11.509  1.00  0.00    -0.385 N 
ATOM     31  H22 UNL     1      -1.997  10.087  10.838  1.00  0.00     0.157 HD
ATOM     32  H21 UNL     1      -3.140  10.763  12.014  1.00  0.00     0.157 HD
ENDBRANCH   7  30
TORSDOF 5
ENDMDL
MODEL 3
REMARK VINA RESULT: -6.439241491      2.801      6.575
REMARK  5 active torsions:
REMARK  status: ('A' for Active; 'I' for Inactive)
REMARK    1  A    between atoms: O1_2  and  C2_3 
REMARK    2  A    between atoms: C2_3  and  C3_5 
REMARK    3  A    between atoms: C3_5  and  C4_6 
REMARK    4  A    between atoms: C3_5  and  N5_25 
REMARK    5  A    between atoms: C8_12  and  N2_13 
ROOT
HETATM    1  C4  UNL     1      -4.043   5.683  12.370  1.00  0.00     0.129 A 
HETATM    2  N1  UNL     1      -4.880   6.726  12.277  1.00  0.00    -0.340 N 
ATOM      3  H1  UNL     1      -5.063   7.373  13.043  1.00  0.00     0.167 HD
HETATM    4  C5  UNL     1      -5.441   6.824  11.088  1.00  0.00     0.085 A 
HETATM    5  C6  UNL     1      -6.334   7.705  10.552  1.00  0.00    -0.018 A 
HETATM    6  C7  UNL     1      -6.725   7.521   9.247  1.00  0.00    -0.006 A 
HETATM    7  C8  UNL     1      -6.216   6.468   8.519  1.00  0.00     0.107 A 
HETATM    8  N3  UNL     1      -5.342   5.618   9.066  1.00  0.00    -0.327 N 
ATOM      9  H3  UNL     1      -4.980   4.846   8.506  1.00  0.00     0.169 HD
HETATM   10  C9  UNL     1      -4.930   5.757  10.337  1.00  0.00     0.138 A 
HETATM   11  N4  UNL     1      -4.093   5.101  11.155  1.00  0.00    -0.323 N 
HETATM   12  C10 UNL     1      -3.371   3.916  10.699  1.00  0.00     0.159 C 
HETATM   13  C11 UNL     1      -7.702   8.486   8.677  1.00  0.00     0.043 C 
HETATM   14  C12 UNL     1      -7.421   9.904   9.079  1.00  0.00     0.005 C 
HETATM   15  C13 UNL     1      -6.707  10.057  10.371  1.00  0.00     0.005 C 
HETATM   16  C14 UNL     1      -6.896   8.847  11.296  1.00  0.00     0.042 C 
ENDROOT
BRANCH   1  17
HETATM   17  C3  UNL     1      -3.221   5.202  13.483  1.00  0.00     0.388 C 
BRANCH  17  18
HETATM   18  C2  UNL     1      -4.078   4.694  14.614  1.00  0.00     0.300 C 
HETATM   19  O2  UNL     1      -3.589   3.868  15.416  1.00  0.00    -0.262 OA
BRANCH  18  20
HETATM   20  O1  UNL     1      -5.382   5.099  14.806  1.00  0.00    -0.324 OA
HETATM   21  C1  UNL     1      -6.425   4.113  14.783  1.00  0.00     0.213 C 
ENDBRANCH  18  20
ENDBRANCH  17  18
BRANCH  17  22
HETATM   22  N5  UNL     1      -2.308   6.117  14.052  1.00  0.00     0.111 N 
HETATM   23  C15 UNL     1      -1.141   6.199  13.206  1.00  0.00     0.275 C 
HETATM   24  C16 UNL     1      -1.154   7.496  12.415  1.00  0.00     0.050 C 
HETATM   25  C17 UNL     1      -0.348   8.507  13.166  1.00  0.00     0.118 C 
HETATM   26  N6  UNL     1      -1.049   9.111  14.248  1.00  0.00    -0.415 N 
HETATM   27  C18 UNL     1      -1.857  10.241  13.926  1.00  0.00     0.143 C 
HETATM   28  C19 UNL     1      -1.684   8.203  15.145  1.00  0.00     0.146 C 
HETATM   29  C20 UNL     1      -2.795   7.372  14.499  1.00  0.00     0.293 C 
ENDBRANCH  17  22
ENDBRANCH   1  17
BRANCH   7  30
HETATM   30  N2  UNL     1      -6.616   6.340   7.297  1.00  0.00    -0.385 N 
ATOM     31  H22 UNL     1      -7.489   6.756   6.971  1.00  0.00     0.157 HD
ATOM     32  H21 UNL     1      -6.025   5.804   6.661  1.00  0.00     0.157 HD
ENDBRANCH   7  30
TORSDOF 5
ENDMDL
MODEL 4
REMARK VINA RESULT: -6.218599828      2.113      6.923
REMARK  5 active torsions:
REMARK  status: ('A' for Active; 'I' for Inactive)
REMARK    1  A    between atoms: O1_2  and  C2_3 
REMARK    2  A    between atoms: C2_3  and  C3_5 
REMARK    3  A    between atoms: C3_5  and  C4_6 
REMARK    4  A    between atoms: C3_5  and  N5_25 
REMARK    5  A    between atoms: C8_12  and  N2_13 
ROOT
HETATM    1  C4  UNL     1      -4.747   6.867  12.592  1.00  0.00     0.129 A 
HETATM    2  N1  UNL     1      -3.880   6.654  11.593  1.00  0.00    -0.340 N 
ATOM      3  H1  UNL     1      -2.879   6.519  11.734  1.00  0.00     0.167 HD
HETATM    4  C5  UNL     1      -4.459   6.638  10.410  1.00  0.00     0.085 A 
HETATM    5  C6  UNL     1      -3.983   6.460   9.144  1.00  0.00    -0.018 A 
HETATM    6  C7  UNL     1      -4.877   6.502   8.101  1.00  0.00    -0.006 A 
HETATM    7  C8  UNL     1      -6.214   6.720   8.350  1.00  0.00     0.107 A 
HETATM    8  N3  UNL     1      -6.658   6.893   9.599  1.00  0.00    -0.327 N 
ATOM      9  H3  UNL     1      -7.653   7.053   9.757  1.00  0.00     0.169 HD
HETATM   10  C9  UNL     1      -5.822   6.860  10.650  1.00  0.00     0.138 A 
HETATM   11  N4  UNL     1      -5.942   6.991  11.980  1.00  0.00    -0.323 N 
HETATM   12  C10 UNL     1      -7.244   7.235  12.597  1.00  0.00     0.159 C 
HETATM   13  C11 UNL     1      -4.344   6.309   6.726  1.00  0.00     0.043 C 
HETATM   14  C12 UNL     1      -3.306   5.228   6.651  1.00  0.00     0.005 C 
HETATM   15  C13 UNL     1      -2.558   4.993   7.911  1.00  0.00     0.005 C 
HETATM   16  C14 UNL     1      -2.562   6.217   8.836  1.00  0.00     0.042 C 
ENDROOT
BRANCH   1  17
HETATM   17  C3  UNL     1      -4.547   6.962  14.040  1.00  0.00     0.388 C 
BRANCH  17  18
HETATM   18  C2  UNL     1      -3.326   7.781  14.369  1.00  0.00     0.300 C 
HETATM   19  O2  UNL     1      -2.738   8.384  13.443  1.00  0.00    -0.262 OA
BRANCH  18  20
HETATM   20  O1  UNL     1      -2.822   7.896  15.647  1.00  0.00    -0.324 OA
HETATM   21  C1  UNL     1      -1.813   8.882  15.909  1.00  0.00     0.213 C 
ENDBRANCH  18  20
ENDBRANCH  17  18
BRANCH  17  22
HETATM   22  N5  UNL     1      -4.422   5.750  14.754  1.00  0.00     0.111 N 
HETATM   23  C15 UNL     1      -5.707   5.402  15.311  1.00  0.00     0.275 C 
HETATM   24  C16 UNL     1      -6.336   4.270  14.516  1.00  0.00     0.050 C 
HETATM   25  C17 UNL     1      -5.995   2.980  15.192  1.00  0.00     0.118 C 
HETATM   26  N6  UNL     1      -4.682   2.510  14.903  1.00  0.00    -0.415 N 
HETATM   27  C18 UNL     1      -4.536   1.733  13.715  1.00  0.00     0.143 C 
HETATM   28  C19 UNL     1      -3.640   3.466  15.081  1.00  0.00     0.146 C 
HETATM   29  C20 UNL     1      -3.738   4.670  14.140  1.00  0.00     0.293 C 
ENDBRANCH  17  22
ENDBRANCH   1  17
BRANCH   7  30
HETATM   30  N2  UNL     1      -7.013   6.750   7.334  1.00  0.00    -0.385 N 
ATOM     31  H22 UNL     1      -6.933   6.081   6.568  1.00  0.00     0.157 HD
ATOM     32  H21 UNL     1      -7.734   7.472   7.324  1.00  0.00     0.157 HD
ENDBRANCH   7  30
TORSDOF 5
ENDMDL
MODEL 5
REMARK VINA RESULT: -6.157872994      2.806      6.853
REMARK  5 active torsions:
REMARK  status: ('A' for Active; 'I' for Inactive)
REMARK    1  A    between atoms: O1_2  and  C2_3 
REMARK    2  A    between atoms: C2_3  and  C3_5 
REMARK    3  A    between atoms: C3_5  and  C4_6 
REMARK    4  A    between atoms: C3_5  and  N5_25 
REMARK    5  A    between atoms: C8_12  and  N2_13 
ROOT
HETATM    1  C4  UNL     1      -4.426   6.174  12.211  1.00  0.00     0.129 A 
HETATM    2  N1  UNL     1      -5.218   7.218  11.929  1.00  0.00    -0.340 N 
ATOM      3  H1  UNL     1      -5.395   7.983  12.580  1.00  0.00     0.167 HD
HETATM    4  C5  UNL     1      -5.743   7.149  10.723  1.00  0.00     0.085 A 
HETATM    5  C6  UNL     1      -6.586   7.966  10.028  1.00  0.00    -0.018 A 
HETATM    6  C7  UNL     1      -6.950   7.594   8.756  1.00  0.00    -0.006 A 
HETATM    7  C8  UNL     1      -6.464   6.423   8.216  1.00  0.00     0.107 A 
HETATM    8  N3  UNL     1      -5.639   5.638   8.916  1.00  0.00    -0.327 N 
ATOM      9  H3  UNL     1      -5.293   4.776   8.495  1.00  0.00     0.169 HD
HETATM   10  C9  UNL     1      -5.256   5.960  10.163  1.00  0.00     0.138 A 
HETATM   11  N4  UNL     1      -4.467   5.411  11.099  1.00  0.00    -0.323 N 
HETATM   12  C10 UNL     1      -3.781   4.144  10.857  1.00  0.00     0.159 C 
HETATM   13  C11 UNL     1      -7.872   8.491   8.011  1.00  0.00     0.043 C 
HETATM   14  C12 UNL     1      -7.546   9.944   8.197  1.00  0.00     0.005 C 
HETATM   15  C13 UNL     1      -6.860  10.272   9.471  1.00  0.00     0.005 C 
HETATM   16  C14 UNL     1      -7.122   9.229  10.566  1.00  0.00     0.042 C 
ENDROOT
BRANCH   1  17
HETATM   17  C3  UNL     1      -3.654   5.844  13.410  1.00  0.00     0.388 C 
BRANCH  17  18
HETATM   18  C2  UNL     1      -4.384   6.262  14.660  1.00  0.00     0.300 C 
HETATM   19  O2  UNL     1      -3.759   6.899  15.538  1.00  0.00    -0.262 OA
BRANCH  18  20
HETATM   20  O1  UNL     1      -5.714   5.975  14.883  1.00  0.00    -0.324 OA
HETATM   21  C1  UNL     1      -6.089   4.624  15.192  1.00  0.00     0.213 C 
ENDBRANCH  18  20
ENDBRANCH  17  18
BRANCH  17  22
HETATM   22  N5  UNL     1      -2.352   6.384  13.507  1.00  0.00     0.111 N 
HETATM   23  C15 UNL     1      -1.398   5.301  13.513  1.00  0.00     0.275 C 
HETATM   24  C16 UNL     1      -0.701   5.205  12.167  1.00  0.00     0.050 C 
HETATM   25  C17 UNL     1       0.579   5.975  12.248  1.00  0.00     0.118 C 
HETATM   26  N6  UNL     1       0.411   7.383  12.109  1.00  0.00    -0.415 N 
HETATM   27  C18 UNL     1       0.387   7.887  10.775  1.00  0.00     0.143 C 
HETATM   28  C19 UNL     1      -0.583   7.963  12.948  1.00  0.00     0.146 C 
HETATM   29  C20 UNL     1      -2.002   7.466  12.659  1.00  0.00     0.293 C 
ENDBRANCH  17  22
ENDBRANCH   1  17
BRANCH   7  30
HETATM   30  N2  UNL     1      -6.837   6.119   7.017  1.00  0.00    -0.385 N 
ATOM     31  H22 UNL     1      -6.662   6.741   6.226  1.00  0.00     0.157 HD
ATOM     32  H21 UNL     1      -7.316   5.229   6.884  1.00  0.00     0.157 HD
ENDBRANCH   7  30
TORSDOF 5
ENDMDL
