MODEL 1
REMARK VINA RESULT: -6.158434257      0.000      0.000
REMARK  10 active torsions:
REMARK  status: ('A' for Active; 'I' for Inactive)
REMARK    1  A    between atoms: C2_2  and  C4_4 
REMARK    2  A    between atoms: C4_4  and  O1_5 
REMARK    3  A    between atoms: C4_4  and  C6_13 
REMARK    4  A    between atoms: O1_5  and  C5_6 
REMARK    5  A    between atoms: C5_6  and  N1_7 
REMARK    6  A    between atoms: C5_6  and  O2_11 
REMARK    7  A    between atoms: C6_13  and  N2_14 
REMARK    8  A    between atoms: C6_13  and  C7_18 
REMARK       I    between atoms: C7_18  and  N3_20 
REMARK    9  A    between atoms: N3_20  and  C8_22 
REMARK   10  A    between atoms: C11_31  and  N7_32 
ROOT
HETATM    1  C8  UNL     1      14.355  49.520 -52.769  1.00  0.00     0.120 A 
HETATM    2  C9  UNL     1      15.607  49.237 -53.274  1.00  0.00     0.167 A 
HETATM    3  C10 UNL     1      16.814  49.732 -52.684  1.00  0.00     0.122 C 
HETATM    4  N4  UNL     1      17.800  50.117 -52.227  1.00  0.00    -0.190 NA
HETATM    5  N5  UNL     1      15.668  48.450 -54.387  1.00  0.00    -0.229 N 
ATOM      6  H5  UNL     1      16.583  48.227 -54.779  1.00  0.00     0.197 HD
HETATM    7  O4  UNL     1      14.612  47.973 -54.968  1.00  0.00    -0.154 OA
HETATM    8  N6  UNL     1      13.424  48.235 -54.495  1.00  0.00    -0.224 N 
ATOM      9  H6  UNL     1      12.613  47.844 -54.974  1.00  0.00     0.198 HD
HETATM   10  C11 UNL     1      13.222  48.991 -53.416  1.00  0.00     0.151 A 
ENDROOT
BRANCH   1  11
HETATM   11  N3  UNL     1      14.141  50.220 -51.767  1.00  0.00    -0.320 N 
HETATM   12  C7  UNL     1      13.876  50.059 -50.428  1.00  0.00     0.255 C 
HETATM   13  O3  UNL     1      12.687  49.876 -50.014  1.00  0.00    -0.271 OA
ATOM     14  H3  UNL     1      14.171  51.210 -52.009  1.00  0.00     0.169 HD
BRANCH  12  15
HETATM   15  C6  UNL     1      14.971  50.097 -49.430  1.00  0.00     0.304 C 
BRANCH  15  16
HETATM   16  C4  UNL     1      14.562  49.562 -48.086  1.00  0.00     0.169 C 
BRANCH  16  17
HETATM   17  C2  UNL     1      15.612  48.609 -47.590  1.00  0.00     0.009 C 
HETATM   18  C1  UNL     1      16.473  49.165 -46.510  1.00  0.00     0.012 C 
HETATM   19  C3  UNL     1      16.398  48.119 -48.783  1.00  0.00     0.012 C 
ENDBRANCH  16  17
BRANCH  16  20
HETATM   20  O1  UNL     1      14.239  50.542 -47.177  1.00  0.00    -0.331 OA
BRANCH  20  21
HETATM   21  C5  UNL     1      12.974  50.425 -46.650  1.00  0.00     0.464 C 
BRANCH  21  22
HETATM   22  N1  UNL     1      12.109  51.346 -47.366  1.00  0.00    -0.029 N 
ATOM     23  H13 UNL     1      11.927  52.204 -46.847  1.00  0.00     0.280 HD
ATOM     24  H12 UNL     1      12.565  51.771 -48.174  1.00  0.00     0.280 HD
ATOM     25  H11 UNL     1      11.256  50.843 -47.612  1.00  0.00     0.280 HD
ENDBRANCH  21  22
BRANCH  21  26
HETATM   26  O2  UNL     1      12.908  50.780 -45.298  1.00  0.00    -0.350 OA
ATOM     27  H2  UNL     1      12.266  50.277 -44.812  1.00  0.00     0.214 HD
ENDBRANCH  21  26
ENDBRANCH  20  21
ENDBRANCH  16  20
ENDBRANCH  15  16
BRANCH  15  28
HETATM   28  N2  UNL     1      15.507  51.416 -49.375  1.00  0.00    -0.064 N 
ATOM     29  H23 UNL     1      16.141  51.516 -48.582  1.00  0.00     0.275 HD
ATOM     30  H22 UNL     1      16.166  51.571 -50.138  1.00  0.00     0.275 HD
ATOM     31  H21 UNL     1      14.793  52.144 -49.360  1.00  0.00     0.275 HD
ENDBRANCH  15  28
ENDBRANCH  12  15
ENDBRANCH   1  11
BRANCH  10  32
HETATM   32  N7  UNL     1      12.022  49.203 -53.014  1.00  0.00    -0.382 N 
ATOM     33  H72 UNL     1      11.768  50.128 -52.668  1.00  0.00     0.157 HD
ATOM     34  H71 UNL     1      11.296  48.487 -53.022  1.00  0.00     0.157 HD
ENDBRANCH  10  32
TORSDOF 10
ENDMDL
MODEL 2
REMARK VINA RESULT: -6.138938857      3.476      5.572
REMARK  10 active torsions:
REMARK  status: ('A' for Active; 'I' for Inactive)
REMARK    1  A    between atoms: C2_2  and  C4_4 
REMARK    2  A    between atoms: C4_4  and  O1_5 
REMARK    3  A    between atoms: C4_4  and  C6_13 
REMARK    4  A    between atoms: O1_5  and  C5_6 
REMARK    5  A    between atoms: C5_6  and  N1_7 
REMARK    6  A    between atoms: C5_6  and  O2_11 
REMARK    7  A    between atoms: C6_13  and  N2_14 
REMARK    8  A    between atoms: C6_13  and  C7_18 
REMARK       I    between atoms: C7_18  and  N3_20 
REMARK    9  A    between atoms: N3_20  and  C8_22 
REMARK   10  A    between atoms: C11_31  and  N7_32 
ROOT
HETATM    1  C8  UNL     1      11.954  51.478 -49.196  1.00  0.00     0.120 A 
HETATM    2  C9  UNL     1      10.925  51.319 -48.291  1.00  0.00     0.167 A 
HETATM    3  C10 UNL     1      10.695  50.096 -47.582  1.00  0.00     0.122 C 
HETATM    4  N4  UNL     1      10.490  49.123 -46.999  1.00  0.00    -0.190 NA
HETATM    5  N5  UNL     1      10.105  52.390 -48.082  1.00  0.00    -0.229 N 
ATOM      6  H5  UNL     1       9.338  52.295 -47.416  1.00  0.00     0.197 HD
HETATM    7  O4  UNL     1      10.260  53.522 -48.693  1.00  0.00    -0.154 OA
HETATM    8  N6  UNL     1      11.232  53.681 -49.550  1.00  0.00    -0.224 N 
ATOM      9  H6  UNL     1      11.328  54.584 -50.014  1.00  0.00     0.198 HD
HETATM   10  C11 UNL     1      12.103  52.718 -49.848  1.00  0.00     0.151 A 
ENDROOT
BRANCH   1  11
HETATM   11  N3  UNL     1      12.777  50.598 -49.490  1.00  0.00    -0.320 N 
HETATM   12  C7  UNL     1      14.070  50.245 -49.185  1.00  0.00     0.255 C 
HETATM   13  O3  UNL     1      15.052  50.758 -49.811  1.00  0.00    -0.271 OA
ATOM     14  H3  UNL     1      12.374  49.939 -50.156  1.00  0.00     0.169 HD
BRANCH  12  15
HETATM   15  C6  UNL     1      14.353  49.254 -48.121  1.00  0.00     0.304 C 
BRANCH  15  16
HETATM   16  C4  UNL     1      15.753  49.352 -47.582  1.00  0.00     0.169 C 
BRANCH  16  17
HETATM   17  C2  UNL     1      15.714  49.942 -46.201  1.00  0.00     0.009 C 
HETATM   18  C1  UNL     1      16.696  49.341 -45.257  1.00  0.00     0.012 C 
HETATM   19  C3  UNL     1      14.290  49.868 -45.703  1.00  0.00     0.012 C 
ENDBRANCH  16  17
BRANCH  16  20
HETATM   20  O1  UNL     1      16.455  48.172 -47.652  1.00  0.00    -0.331 OA
BRANCH  20  21
HETATM   21  C5  UNL     1      17.409  48.144 -48.643  1.00  0.00     0.464 C 
BRANCH  21  22
HETATM   22  N1  UNL     1      17.798  49.515 -48.922  1.00  0.00    -0.029 N 
ATOM     23  H13 UNL     1      17.324  50.191 -48.322  1.00  0.00     0.280 HD
ATOM     24  H12 UNL     1      18.753  49.723 -48.630  1.00  0.00     0.280 HD
ATOM     25  H11 UNL     1      17.640  49.688 -49.915  1.00  0.00     0.280 HD
ENDBRANCH  21  22
BRANCH  21  26
HETATM   26  O2  UNL     1      16.936  47.608 -49.845  1.00  0.00    -0.350 OA
ATOM     27  H2  UNL     1      17.535  46.980 -50.234  1.00  0.00     0.214 HD
ENDBRANCH  21  26
ENDBRANCH  20  21
ENDBRANCH  16  20
ENDBRANCH  15  16
BRANCH  15  28
HETATM   28  N2  UNL     1      14.018  47.952 -48.592  1.00  0.00    -0.064 N 
ATOM     29  H23 UNL     1      14.487  47.756 -49.476  1.00  0.00     0.275 HD
ATOM     30  H22 UNL     1      14.449  47.234 -48.010  1.00  0.00     0.275 HD
ATOM     31  H21 UNL     1      13.014  47.796 -48.674  1.00  0.00     0.275 HD
ENDBRANCH  15  28
ENDBRANCH  12  15
ENDBRANCH   1  11
BRANCH  10  32
HETATM   32  N7  UNL     1      13.030  52.952 -50.703  1.00  0.00    -0.382 N 
ATOM     33  H72 UNL     1      13.537  52.170 -51.117  1.00  0.00     0.157 HD
ATOM     34  H71 UNL     1      13.293  53.893 -50.996  1.00  0.00     0.157 HD
ENDBRANCH  10  32
TORSDOF 10
ENDMDL
MODEL 3
REMARK VINA RESULT: -6.128068260      1.633      2.115
REMARK  10 active torsions:
REMARK  status: ('A' for Active; 'I' for Inactive)
REMARK    1  A    between atoms: C2_2  and  C4_4 
REMARK    2  A    between atoms: C4_4  and  O1_5 
REMARK    3  A    between atoms: C4_4  and  C6_13 
REMARK    4  A    between atoms: O1_5  and  C5_6 
REMARK    5  A    between atoms: C5_6  and  N1_7 
REMARK    6  A    between atoms: C5_6  and  O2_11 
REMARK    7  A    between atoms: C6_13  and  N2_14 
REMARK    8  A    between atoms: C6_13  and  C7_18 
REMARK       I    between atoms: C7_18  and  N3_20 
REMARK    9  A    between atoms: N3_20  and  C8_22 
REMARK   10  A    between atoms: C11_31  and  N7_32 
ROOT
HETATM    1  C8  UNL     1      14.309  49.975 -51.499  1.00  0.00     0.120 A 
HETATM    2  C9  UNL     1      15.668  49.784 -51.359  1.00  0.00     0.167 A 
HETATM    3  C10 UNL     1      16.479  50.576 -50.483  1.00  0.00     0.122 C 
HETATM    4  N4  UNL     1      17.152  51.199 -49.785  1.00  0.00    -0.190 NA
HETATM    5  N5  UNL     1      16.239  48.792 -52.101  1.00  0.00    -0.229 N 
ATOM      6  H5  UNL     1      17.243  48.632 -52.013  1.00  0.00     0.197 HD
HETATM    7  O4  UNL     1      15.561  48.042 -52.911  1.00  0.00    -0.154 OA
HETATM    8  N6  UNL     1      14.274  48.216 -53.049  1.00  0.00    -0.224 N 
ATOM      9  H6  UNL     1      13.768  47.610 -53.694  1.00  0.00     0.198 HD
HETATM   10  C11 UNL     1      13.592  49.149 -52.385  1.00  0.00     0.151 A 
ENDROOT
BRANCH   1  11
HETATM   11  N3  UNL     1      13.652  50.835 -50.893  1.00  0.00    -0.320 N 
HETATM   12  C7  UNL     1      12.836  50.931 -49.791  1.00  0.00     0.255 C 
HETATM   13  O3  UNL     1      11.593  50.669 -49.874  1.00  0.00    -0.271 OA
ATOM     14  H3  UNL     1      13.745  51.744 -51.349  1.00  0.00     0.169 HD
BRANCH  12  15
HETATM   15  C6  UNL     1      13.383  51.346 -48.478  1.00  0.00     0.304 C 
BRANCH  15  16
HETATM   16  C4  UNL     1      13.300  50.264 -47.437  1.00  0.00     0.169 C 
BRANCH  16  17
HETATM   17  C2  UNL     1      14.682  49.932 -46.954  1.00  0.00     0.009 C 
HETATM   18  C1  UNL     1      15.270  48.719 -47.585  1.00  0.00     0.012 C 
HETATM   19  C3  UNL     1      14.642  49.855 -45.445  1.00  0.00     0.012 C 
ENDBRANCH  16  17
BRANCH  16  20
HETATM   20  O1  UNL     1      12.417  50.545 -46.421  1.00  0.00    -0.331 OA
BRANCH  20  21
HETATM   21  C5  UNL     1      11.334  49.699 -46.367  1.00  0.00     0.464 C 
BRANCH  21  22
HETATM   22  N1  UNL     1      10.263  50.301 -47.142  1.00  0.00    -0.029 N 
ATOM     23  H13 UNL     1       9.360  50.259 -46.669  1.00  0.00     0.280 HD
ATOM     24  H12 UNL     1      10.338  51.317 -47.198  1.00  0.00     0.280 HD
ATOM     25  H11 UNL     1      10.251  49.853 -48.058  1.00  0.00     0.280 HD
ENDBRANCH  21  22
BRANCH  21  26
HETATM   26  O2  UNL     1      10.841  49.519 -45.071  1.00  0.00    -0.350 OA
ATOM     27  H2  UNL     1      11.262  48.804 -44.608  1.00  0.00     0.214 HD
ENDBRANCH  21  26
ENDBRANCH  20  21
ENDBRANCH  16  20
ENDBRANCH  15  16
BRANCH  15  28
HETATM   28  N2  UNL     1      12.765  52.566 -48.078  1.00  0.00    -0.064 N 
ATOM     29  H23 UNL     1      12.102  52.403 -47.321  1.00  0.00     0.275 HD
ATOM     30  H22 UNL     1      13.431  53.167 -47.593  1.00  0.00     0.275 HD
ATOM     31  H21 UNL     1      12.320  53.066 -48.847  1.00  0.00     0.275 HD
ENDBRANCH  15  28
ENDBRANCH  12  15
ENDBRANCH   1  11
BRANCH  10  32
HETATM   32  N7  UNL     1      12.328  49.257 -52.577  1.00  0.00    -0.382 N 
ATOM     33  H72 UNL     1      11.883  50.169 -52.471  1.00  0.00     0.157 HD
ATOM     34  H71 UNL     1      11.734  48.468 -52.832  1.00  0.00     0.157 HD
ENDBRANCH  10  32
TORSDOF 10
ENDMDL
MODEL 4
REMARK VINA RESULT: -6.074821194      2.763      3.746
REMARK  10 active torsions:
REMARK  status: ('A' for Active; 'I' for Inactive)
REMARK    1  A    between atoms: C2_2  and  C4_4 
REMARK    2  A    between atoms: C4_4  and  O1_5 
REMARK    3  A    between atoms: C4_4  and  C6_13 
REMARK    4  A    between atoms: O1_5  and  C5_6 
REMARK    5  A    between atoms: C5_6  and  N1_7 
REMARK    6  A    between atoms: C5_6  and  O2_11 
REMARK    7  A    between atoms: C6_13  and  N2_14 
REMARK    8  A    between atoms: C6_13  and  C7_18 
REMARK       I    between atoms: C7_18  and  N3_20 
REMARK    9  A    between atoms: N3_20  and  C8_22 
REMARK   10  A    between atoms: C11_31  and  N7_32 
ROOT
HETATM    1  C8  UNL     1      14.894  52.422 -51.325  1.00  0.00     0.120 A 
HETATM    2  C9  UNL     1      15.846  53.343 -50.940  1.00  0.00     0.167 A 
HETATM    3  C10 UNL     1      15.719  54.147 -49.761  1.00  0.00     0.122 C 
HETATM    4  N4  UNL     1      15.640  54.804 -48.818  1.00  0.00    -0.190 NA
HETATM    5  N5  UNL     1      16.946  53.474 -51.736  1.00  0.00    -0.229 N 
ATOM      6  H5  UNL     1      17.664  54.149 -51.471  1.00  0.00     0.197 HD
HETATM    7  O4  UNL     1      17.119  52.778 -52.815  1.00  0.00    -0.154 OA
HETATM    8  N6  UNL     1      16.223  51.904 -53.185  1.00  0.00    -0.224 N 
ATOM      9  H6  UNL     1      16.388  51.370 -54.039  1.00  0.00     0.198 HD
HETATM   10  C11 UNL     1      15.103  51.676 -52.500  1.00  0.00     0.151 A 
ENDROOT
BRANCH   1  11
HETATM   11  N3  UNL     1      13.844  52.192 -50.705  1.00  0.00    -0.320 N 
HETATM   12  C7  UNL     1      13.327  51.240 -49.860  1.00  0.00     0.255 C 
HETATM   13  O3  UNL     1      12.769  50.192 -50.320  1.00  0.00    -0.271 OA
ATOM     14  H3  UNL     1      13.161  52.931 -50.872  1.00  0.00     0.169 HD
BRANCH  12  15
HETATM   15  C6  UNL     1      13.402  51.410 -48.390  1.00  0.00     0.304 C 
BRANCH  15  16
HETATM   16  C4  UNL     1      12.571  50.409 -47.638  1.00  0.00     0.169 C 
BRANCH  16  17
HETATM   17  C2  UNL     1      13.402  49.788 -46.552  1.00  0.00     0.009 C 
HETATM   18  C1  UNL     1      13.134  50.337 -45.195  1.00  0.00     0.012 C 
HETATM   19  C3  UNL     1      14.853  49.892 -46.959  1.00  0.00     0.012 C 
ENDBRANCH  16  17
BRANCH  16  20
HETATM   20  O1  UNL     1      11.373  50.914 -47.188  1.00  0.00    -0.331 OA
BRANCH  20  21
HETATM   21  C5  UNL     1      10.267  50.279 -47.704  1.00  0.00     0.464 C 
BRANCH  21  22
HETATM   22  N1  UNL     1       9.098  51.060 -47.340  1.00  0.00    -0.029 N 
ATOM     23  H13 UNL     1       9.271  52.065 -47.361  1.00  0.00     0.280 HD
ATOM     24  H12 UNL     1       8.367  51.035 -48.051  1.00  0.00     0.280 HD
ATOM     25  H11 UNL     1       8.776  50.733 -46.429  1.00  0.00     0.280 HD
ENDBRANCH  21  22
BRANCH  21  26
HETATM   26  O2  UNL     1      10.075  48.998 -47.176  1.00  0.00    -0.350 OA
ATOM     27  H2  UNL     1       9.192  48.671 -47.304  1.00  0.00     0.214 HD
ENDBRANCH  21  26
ENDBRANCH  20  21
ENDBRANCH  16  20
ENDBRANCH  15  16
BRANCH  15  28
HETATM   28  N2  UNL     1      13.097  52.762 -48.060  1.00  0.00    -0.064 N 
ATOM     29  H23 UNL     1      12.230  52.817 -47.526  1.00  0.00     0.275 HD
ATOM     30  H22 UNL     1      13.749  53.119 -47.360  1.00  0.00     0.275 HD
ATOM     31  H21 UNL     1      13.063  53.380 -48.870  1.00  0.00     0.275 HD
ENDBRANCH  15  28
ENDBRANCH  12  15
ENDBRANCH   1  11
BRANCH  10  32
HETATM   32  N7  UNL     1      14.270  50.800 -52.932  1.00  0.00    -0.382 N 
ATOM     33  H72 UNL     1      13.556  51.079 -53.604  1.00  0.00     0.157 HD
ATOM     34  H71 UNL     1      14.284  49.825 -52.635  1.00  0.00     0.157 HD
ENDBRANCH  10  32
TORSDOF 10
ENDMDL
MODEL 5
REMARK VINA RESULT: -6.028600296      4.847      7.457
REMARK  10 active torsions:
REMARK  status: ('A' for Active; 'I' for Inactive)
REMARK    1  A    between atoms: C2_2  and  C4_4 
REMARK    2  A    between atoms: C4_4  and  O1_5 
REMARK    3  A    between atoms: C4_4  and  C6_13 
REMARK    4  A    between atoms: O1_5  and  C5_6 
REMARK    5  A    between atoms: C5_6  and  N1_7 
REMARK    6  A    between atoms: C5_6  and  O2_11 
REMARK    7  A    between atoms: C6_13  and  N2_14 
REMARK    8  A    between atoms: C6_13  and  C7_18 
REMARK       I    between atoms: C7_18  and  N3_20 
REMARK    9  A    between atoms: N3_20  and  C8_22 
REMARK   10  A    between atoms: C11_31  and  N7_32 
ROOT
HETATM    1  C8  UNL     1      18.172  51.159 -57.886  1.00  0.00     0.120 A 
HETATM    2  C9  UNL     1      17.463  52.208 -58.434  1.00  0.00     0.167 A 
HETATM    3  C10 UNL     1      16.072  52.117 -58.765  1.00  0.00     0.122 C 
HETATM    4  N4  UNL     1      14.954  52.070 -59.039  1.00  0.00    -0.190 NA
HETATM    5  N5  UNL     1      18.141  53.370 -58.661  1.00  0.00    -0.229 N 
ATOM      6  H5  UNL     1      17.637  54.159 -59.066  1.00  0.00     0.197 HD
HETATM    7  O4  UNL     1      19.399  53.514 -58.385  1.00  0.00    -0.154 OA
HETATM    8  N6  UNL     1      20.076  52.527 -57.865  1.00  0.00    -0.224 N 
ATOM      9  H6  UNL     1      21.064  52.672 -57.657  1.00  0.00     0.198 HD
HETATM   10  C11 UNL     1      19.537  51.339 -57.593  1.00  0.00     0.151 A 
ENDROOT
BRANCH   1  11
HETATM   11  N3  UNL     1      17.693  50.045 -57.623  1.00  0.00    -0.320 N 
HETATM   12  C7  UNL     1      17.351  49.298 -56.522  1.00  0.00     0.255 C 
HETATM   13  O3  UNL     1      18.217  48.581 -55.924  1.00  0.00    -0.271 OA
ATOM     14  H3  UNL     1      17.494  49.530 -58.481  1.00  0.00     0.169 HD
BRANCH  12  15
HETATM   15  C6  UNL     1      15.963  49.304 -56.004  1.00  0.00     0.304 C 
BRANCH  15  16
HETATM   16  C4  UNL     1      15.836  48.659 -54.652  1.00  0.00     0.169 C 
BRANCH  16  17
HETATM   17  C2  UNL     1      15.762  49.725 -53.597  1.00  0.00     0.009 C 
HETATM   18  C1  UNL     1      15.771  51.113 -54.136  1.00  0.00     0.012 C 
HETATM   19  C3  UNL     1      16.868  49.470 -52.599  1.00  0.00     0.012 C 
ENDBRANCH  16  17
BRANCH  16  20
HETATM   20  O1  UNL     1      14.815  47.741 -54.574  1.00  0.00    -0.331 OA
BRANCH  20  21
HETATM   21  C5  UNL     1      13.700  48.195 -53.907  1.00  0.00     0.464 C 
BRANCH  21  22
HETATM   22  N1  UNL     1      13.282  47.156 -52.984  1.00  0.00    -0.029 N 
ATOM     23  H13 UNL     1      12.820  47.526 -52.154  1.00  0.00     0.280 HD
ATOM     24  H12 UNL     1      12.501  46.602 -53.337  1.00  0.00     0.280 HD
ATOM     25  H11 UNL     1      14.101  46.589 -52.761  1.00  0.00     0.280 HD
ENDBRANCH  21  22
BRANCH  21  26
HETATM   26  O2  UNL     1      12.615  48.440 -54.756  1.00  0.00    -0.350 OA
ATOM     27  H2  UNL     1      12.840  48.987 -55.499  1.00  0.00     0.214 HD
ENDBRANCH  21  26
ENDBRANCH  20  21
ENDBRANCH  16  20
ENDBRANCH  15  16
BRANCH  15  28
HETATM   28  N2  UNL     1      15.095  48.742 -56.984  1.00  0.00    -0.064 N 
ATOM     29  H23 UNL     1      14.277  48.323 -56.544  1.00  0.00     0.275 HD
ATOM     30  H22 UNL     1      14.639  49.475 -57.526  1.00  0.00     0.275 HD
ATOM     31  H21 UNL     1      15.558  48.072 -57.599  1.00  0.00     0.275 HD
ENDBRANCH  15  28
ENDBRANCH  12  15
ENDBRANCH   1  11
BRANCH  10  32
HETATM   32  N7  UNL     1      20.272  50.419 -57.082  1.00  0.00    -0.382 N 
ATOM     33  H72 UNL     1      20.703  49.727 -57.695  1.00  0.00     0.157 HD
ATOM     34  H71 UNL     1      20.451  50.339 -56.081  1.00  0.00     0.157 HD
ENDBRANCH  10  32
TORSDOF 10
ENDMDL
