MODEL 1
REMARK VINA RESULT: -6.875136717      0.000      0.000
REMARK  7 active torsions:
REMARK  status: ('A' for Active; 'I' for Inactive)
REMARK    1  A    between atoms: N1_1  and  C1_4 
REMARK    2  A    between atoms: C3_8  and  C4_9 
REMARK    3  A    between atoms: C4_9  and  C5_10 
REMARK    4  A    between atoms: C5_10  and  C6_11 
REMARK    5  A    between atoms: C6_11  and  N3_12 
REMARK    6  A    between atoms: N3_12  and  C7_15 
REMARK    7  A    between atoms: C7_15  and  C8_16 
ROOT
HETATM    1  C7  UNL     1       7.663  -6.727  35.478  1.00  0.00     0.265 C 
ENDROOT
BRANCH   1   2
HETATM    2  N3  UNL     1       7.658  -6.778  34.038  1.00  0.00    -0.073 N 
ATOM      3  H32 UNL     1       8.456  -6.265  33.662  1.00  0.00     0.277 HD
ATOM      4  H31 UNL     1       6.894  -6.214  33.665  1.00  0.00     0.277 HD
BRANCH   2   5
HETATM    5  C6  UNL     1       7.614  -8.104  33.489  1.00  0.00     0.232 C 
BRANCH   5   6
HETATM    6  C5  UNL     1       6.171  -8.586  33.636  1.00  0.00     0.032 C 
BRANCH   6   7
HETATM    7  C4  UNL     1       6.110  -9.952  34.230  1.00  0.00     0.043 C 
BRANCH   7   8
HETATM    8  C3  UNL     1       4.747 -10.166  34.759  1.00  0.00    -0.026 A 
HETATM    9  C2  UNL     1       3.695  -9.372  34.340  1.00  0.00     0.114 A 
HETATM   10  N2  UNL     1       2.466  -9.585  34.839  1.00  0.00    -0.202 N 
HETATM   11  C1  UNL     1       2.271 -10.567  35.740  1.00  0.00     0.675 A 
ATOM     12  H2  UNL     1       1.684  -9.006  34.536  1.00  0.00     0.183 HD
HETATM   13  N7  UNL     1       3.264 -11.369  36.181  1.00  0.00    -0.202 N 
HETATM   14  C17 UNL     1       4.517 -11.153  35.674  1.00  0.00     0.114 A 
ATOM     15  H7  UNL     1       3.088 -12.106  36.865  1.00  0.00     0.183 HD
BRANCH  11  16
HETATM   16  N1  UNL     1       1.076 -10.737  36.190  1.00  0.00    -0.234 N 
ATOM     17  H12 UNL     1       0.752 -10.171  36.974  1.00  0.00     0.174 HD
ATOM     18  H11 UNL     1       0.495 -11.442  35.735  1.00  0.00     0.174 HD
ENDBRANCH  11  16
ENDBRANCH   7   8
ENDBRANCH   6   7
ENDBRANCH   5   6
ENDBRANCH   2   5
ENDBRANCH   1   2
BRANCH   1  19
HETATM   19  C8  UNL     1       7.097  -5.434  35.935  1.00  0.00     0.174 C 
HETATM   20  C9  UNL     1       6.432  -4.748  34.755  1.00  0.00     0.265 C 
HETATM   21  N4  UNL     1       5.037  -4.605  35.004  1.00  0.00    -0.070 N 
HETATM   22  C10 UNL     1       4.514  -5.893  35.426  1.00  0.00     0.276 C 
ATOM     23  H42 UNL     1       4.832  -3.860  35.670  1.00  0.00     0.277 HD
ATOM     24  H41 UNL     1       4.533  -4.219  34.205  1.00  0.00     0.277 HD
HETATM   25  C11 UNL     1       5.039  -6.086  36.857  1.00  0.00     0.130 C 
HETATM   26  C12 UNL     1       5.125  -7.529  37.197  1.00  0.00     0.047 C 
HETATM   27  C16 UNL     1       4.035  -5.351  37.710  1.00  0.00     0.086 A 
HETATM   28  O1  UNL     1       6.267  -5.517  37.034  1.00  0.00    -0.363 OA
HETATM   29  C13 UNL     1       4.350  -7.991  38.384  1.00  0.00     0.010 C 
HETATM   30  C14 UNL     1       4.327  -6.977  39.511  1.00  0.00     0.061 C 
HETATM   31  C15 UNL     1       3.690  -5.762  38.980  1.00  0.00     0.053 A 
HETATM   32  N5  UNL     1       2.846  -4.734  39.114  1.00  0.00    -0.302 N 
HETATM   33  N6  UNL     1       3.161  -4.327  37.909  1.00  0.00    -0.300 N 
ATOM     34  H5  UNL     1       2.219  -4.404  39.849  1.00  0.00     0.186 HD
ATOM     35  H6  UNL     1       2.862  -3.538  37.334  1.00  0.00     0.186 HD
ENDBRANCH   1  19
TORSDOF 7
ENDMDL
MODEL 2
REMARK VINA RESULT: -6.799624326      1.660      2.204
REMARK  7 active torsions:
REMARK  status: ('A' for Active; 'I' for Inactive)
REMARK    1  A    between atoms: N1_1  and  C1_4 
REMARK    2  A    between atoms: C3_8  and  C4_9 
REMARK    3  A    between atoms: C4_9  and  C5_10 
REMARK    4  A    between atoms: C5_10  and  C6_11 
REMARK    5  A    between atoms: C6_11  and  N3_12 
REMARK    6  A    between atoms: N3_12  and  C7_15 
REMARK    7  A    between atoms: C7_15  and  C8_16 
ROOT
HETATM    1  C7  UNL     1       7.405  -6.636  35.161  1.00  0.00     0.265 C 
ENDROOT
BRANCH   1   2
HETATM    2  N3  UNL     1       8.507  -7.070  35.982  1.00  0.00    -0.073 N 
ATOM      3  H32 UNL     1       8.163  -7.476  36.852  1.00  0.00     0.277 HD
ATOM      4  H31 UNL     1       9.013  -6.264  36.351  1.00  0.00     0.277 HD
BRANCH   2   5
HETATM    5  C6  UNL     1       9.414  -7.974  35.333  1.00  0.00     0.232 C 
BRANCH   5   6
HETATM    6  C5  UNL     1       8.949  -9.385  35.692  1.00  0.00     0.032 C 
BRANCH   6   7
HETATM    7  C4  UNL     1       8.565 -10.159  34.477  1.00  0.00     0.043 C 
BRANCH   7   8
HETATM    8  C3  UNL     1       7.359 -10.951  34.795  1.00  0.00    -0.026 A 
HETATM    9  C2  UNL     1       7.381 -12.332  34.713  1.00  0.00     0.114 A 
HETATM   10  N2  UNL     1       6.271 -13.029  35.004  1.00  0.00    -0.202 N 
HETATM   11  C1  UNL     1       5.149 -12.378  35.372  1.00  0.00     0.675 A 
ATOM     12  H2  UNL     1       6.276 -14.047  34.947  1.00  0.00     0.183 HD
HETATM   13  N7  UNL     1       5.077 -11.033  35.467  1.00  0.00    -0.202 N 
HETATM   14  C17 UNL     1       6.208 -10.321  35.170  1.00  0.00     0.114 A 
ATOM     15  H7  UNL     1       4.214 -10.566  35.748  1.00  0.00     0.183 HD
BRANCH  11  16
HETATM   16  N1  UNL     1       4.109 -13.087  35.644  1.00  0.00    -0.234 N 
ATOM     17  H12 UNL     1       3.963 -13.414  36.599  1.00  0.00     0.174 HD
ATOM     18  H11 UNL     1       3.466 -13.296  34.880  1.00  0.00     0.174 HD
ENDBRANCH  11  16
ENDBRANCH   7   8
ENDBRANCH   6   7
ENDBRANCH   5   6
ENDBRANCH   2   5
ENDBRANCH   1   2
BRANCH   1  19
HETATM   19  C8  UNL     1       6.863  -5.358  35.683  1.00  0.00     0.174 C 
HETATM   20  C9  UNL     1       6.093  -4.665  34.574  1.00  0.00     0.265 C 
HETATM   21  N4  UNL     1       4.723  -4.545  34.939  1.00  0.00    -0.070 N 
HETATM   22  C10 UNL     1       4.253  -5.846  35.384  1.00  0.00     0.276 C 
ATOM     23  H42 UNL     1       4.564  -3.813  35.632  1.00  0.00     0.277 HD
ATOM     24  H41 UNL     1       4.149  -4.155  34.191  1.00  0.00     0.277 HD
HETATM   25  C11 UNL     1       4.897  -6.052  36.762  1.00  0.00     0.130 C 
HETATM   26  C12 UNL     1       5.030  -7.499  37.071  1.00  0.00     0.047 C 
HETATM   27  C16 UNL     1       3.959  -5.344  37.707  1.00  0.00     0.086 A 
HETATM   28  O1  UNL     1       6.129  -5.469  36.846  1.00  0.00    -0.363 OA
HETATM   29  C13 UNL     1       4.362  -7.989  38.311  1.00  0.00     0.010 C 
HETATM   30  C14 UNL     1       4.420  -6.991  39.452  1.00  0.00     0.061 C 
HETATM   31  C15 UNL     1       3.725  -5.778  38.995  1.00  0.00     0.053 A 
HETATM   32  N5  UNL     1       2.882  -4.764  39.215  1.00  0.00    -0.302 N 
HETATM   33  N6  UNL     1       3.090  -4.335  37.993  1.00  0.00    -0.300 N 
ATOM     34  H5  UNL     1       2.314  -4.454  40.003  1.00  0.00     0.186 HD
ATOM     35  H6  UNL     1       2.735  -3.543  37.458  1.00  0.00     0.186 HD
ENDBRANCH   1  19
TORSDOF 7
ENDMDL
MODEL 3
REMARK VINA RESULT: -6.680500999      1.093      1.343
REMARK  7 active torsions:
REMARK  status: ('A' for Active; 'I' for Inactive)
REMARK    1  A    between atoms: N1_1  and  C1_4 
REMARK    2  A    between atoms: C3_8  and  C4_9 
REMARK    3  A    between atoms: C4_9  and  C5_10 
REMARK    4  A    between atoms: C5_10  and  C6_11 
REMARK    5  A    between atoms: C6_11  and  N3_12 
REMARK    6  A    between atoms: N3_12  and  C7_15 
REMARK    7  A    between atoms: C7_15  and  C8_16 
ROOT
HETATM    1  C7  UNL     1       7.650  -7.008  35.407  1.00  0.00     0.265 C 
ENDROOT
BRANCH   1   2
HETATM    2  N3  UNL     1       8.485  -7.627  36.405  1.00  0.00    -0.073 N 
ATOM      3  H32 UNL     1       8.242  -7.283  37.335  1.00  0.00     0.277 HD
ATOM      4  H31 UNL     1       9.441  -7.280  36.333  1.00  0.00     0.277 HD
BRANCH   2   5
HETATM    5  C6  UNL     1       8.471  -9.063  36.386  1.00  0.00     0.232 C 
BRANCH   5   6
HETATM    6  C5  UNL     1       8.226  -9.475  34.935  1.00  0.00     0.032 C 
BRANCH   6   7
HETATM    7  C4  UNL     1       7.555 -10.803  34.850  1.00  0.00     0.043 C 
BRANCH   7   8
HETATM    8  C3  UNL     1       6.095 -10.583  34.805  1.00  0.00    -0.026 A 
HETATM    9  C2  UNL     1       5.549  -9.644  33.949  1.00  0.00     0.114 A 
HETATM   10  N2  UNL     1       4.219  -9.461  33.930  1.00  0.00    -0.202 N 
HETATM   11  C1  UNL     1       3.431 -10.191  34.743  1.00  0.00     0.675 A 
ATOM     12  H2  UNL     1       3.807  -8.772  33.301  1.00  0.00     0.183 HD
HETATM   13  N7  UNL     1       3.915 -11.119  35.597  1.00  0.00    -0.202 N 
HETATM   14  C17 UNL     1       5.270 -11.307  35.617  1.00  0.00     0.114 A 
ATOM     15  H7  UNL     1       3.295 -11.659  36.201  1.00  0.00     0.183 HD
BRANCH  11  16
HETATM   16  N1  UNL     1       2.161  -9.984  34.689  1.00  0.00    -0.234 N 
ATOM     17  H12 UNL     1       1.722  -9.387  35.391  1.00  0.00     0.174 HD
ATOM     18  H11 UNL     1       1.640 -10.433  33.936  1.00  0.00     0.174 HD
ENDBRANCH  11  16
ENDBRANCH   7   8
ENDBRANCH   6   7
ENDBRANCH   5   6
ENDBRANCH   2   5
ENDBRANCH   1   2
BRANCH   1  19
HETATM   19  C8  UNL     1       7.159  -5.700  35.906  1.00  0.00     0.174 C 
HETATM   20  C9  UNL     1       6.545  -4.935  34.748  1.00  0.00     0.265 C 
HETATM   21  N4  UNL     1       5.159  -4.718  34.993  1.00  0.00    -0.070 N 
HETATM   22  C10 UNL     1       4.557  -5.987  35.367  1.00  0.00     0.276 C 
ATOM     23  H42 UNL     1       4.993  -3.987  35.684  1.00  0.00     0.277 HD
ATOM     24  H41 UNL     1       4.685  -4.276  34.205  1.00  0.00     0.277 HD
HETATM   25  C11 UNL     1       5.058  -6.260  36.792  1.00  0.00     0.130 C 
HETATM   26  C12 UNL     1       5.056  -7.717  37.082  1.00  0.00     0.047 C 
HETATM   27  C16 UNL     1       4.093  -5.497  37.665  1.00  0.00     0.086 A 
HETATM   28  O1  UNL     1       6.317  -5.772  36.997  1.00  0.00    -0.363 OA
HETATM   29  C13 UNL     1       4.245  -8.173  38.247  1.00  0.00     0.010 C 
HETATM   30  C14 UNL     1       4.273  -7.199  39.409  1.00  0.00     0.061 C 
HETATM   31  C15 UNL     1       3.713  -5.931  38.918  1.00  0.00     0.053 A 
HETATM   32  N5  UNL     1       2.931  -4.860  39.083  1.00  0.00    -0.302 N 
HETATM   33  N6  UNL     1       3.279  -4.430  37.894  1.00  0.00    -0.300 N 
ATOM     34  H5  UNL     1       2.319  -4.519  39.825  1.00  0.00     0.186 HD
ATOM     35  H6  UNL     1       3.032  -3.606  37.346  1.00  0.00     0.186 HD
ENDBRANCH   1  19
TORSDOF 7
ENDMDL
MODEL 4
REMARK VINA RESULT: -6.643306643      2.092      2.630
REMARK  7 active torsions:
REMARK  status: ('A' for Active; 'I' for Inactive)
REMARK    1  A    between atoms: N1_1  and  C1_4 
REMARK    2  A    between atoms: C3_8  and  C4_9 
REMARK    3  A    between atoms: C4_9  and  C5_10 
REMARK    4  A    between atoms: C5_10  and  C6_11 
REMARK    5  A    between atoms: C6_11  and  N3_12 
REMARK    6  A    between atoms: N3_12  and  C7_15 
REMARK    7  A    between atoms: C7_15  and  C8_16 
ROOT
HETATM    1  C7  UNL     1       7.579  -6.730  35.337  1.00  0.00     0.265 C 
ENDROOT
BRANCH   1   2
HETATM    2  N3  UNL     1       7.651  -6.698  33.899  1.00  0.00    -0.073 N 
ATOM      3  H32 UNL     1       8.622  -6.624  33.593  1.00  0.00     0.277 HD
ATOM      4  H31 UNL     1       7.287  -5.814  33.544  1.00  0.00     0.277 HD
BRANCH   2   5
HETATM    5  C6  UNL     1       7.005  -7.802  33.245  1.00  0.00     0.232 C 
BRANCH   5   6
HETATM    6  C5  UNL     1       6.813  -8.883  34.309  1.00  0.00     0.032 C 
BRANCH   6   7
HETATM    7  C4  UNL     1       5.572  -9.672  34.067  1.00  0.00     0.043 C 
BRANCH   7   8
HETATM    8  C3  UNL     1       5.943 -11.099  33.968  1.00  0.00    -0.026 A 
HETATM    9  C2  UNL     1       6.963 -11.618  34.744  1.00  0.00     0.114 A 
HETATM   10  N2  UNL     1       7.283 -12.917  34.633  1.00  0.00    -0.202 N 
HETATM   11  C1  UNL     1       6.608 -13.701  33.770  1.00  0.00     0.675 A 
ATOM     12  H2  UNL     1       8.034 -13.310  35.201  1.00  0.00     0.183 HD
HETATM   13  N7  UNL     1       5.604 -13.243  32.991  1.00  0.00    -0.202 N 
HETATM   14  C17 UNL     1       5.277 -11.919  33.103  1.00  0.00     0.114 A 
ATOM     15  H7  UNL     1       5.109 -13.860  32.346  1.00  0.00     0.183 HD
BRANCH  11  16
HETATM   16  N1  UNL     1       6.947 -14.942  33.699  1.00  0.00    -0.234 N 
ATOM     17  H12 UNL     1       6.421 -15.635  34.232  1.00  0.00     0.174 HD
ATOM     18  H11 UNL     1       7.740 -15.182  33.104  1.00  0.00     0.174 HD
ENDBRANCH  11  16
ENDBRANCH   7   8
ENDBRANCH   6   7
ENDBRANCH   5   6
ENDBRANCH   2   5
ENDBRANCH   1   2
BRANCH   1  19
HETATM   19  C8  UNL     1       7.041  -5.442  35.840  1.00  0.00     0.174 C 
HETATM   20  C9  UNL     1       6.352  -4.720  34.696  1.00  0.00     0.265 C 
HETATM   21  N4  UNL     1       4.967  -4.568  34.985  1.00  0.00    -0.070 N 
HETATM   22  C10 UNL     1       4.440  -5.860  35.391  1.00  0.00     0.276 C 
ATOM     23  H42 UNL     1       4.788  -3.838  35.675  1.00  0.00     0.277 HD
ATOM     24  H41 UNL     1       4.446  -4.158  34.210  1.00  0.00     0.277 HD
HETATM   25  C11 UNL     1       5.000  -6.094  36.801  1.00  0.00     0.130 C 
HETATM   26  C12 UNL     1       5.079  -7.545  37.104  1.00  0.00     0.047 C 
HETATM   27  C16 UNL     1       4.028  -5.369  37.699  1.00  0.00     0.086 A 
HETATM   28  O1  UNL     1       6.240  -5.543  36.959  1.00  0.00    -0.363 OA
HETATM   29  C13 UNL     1       4.330  -8.028  38.300  1.00  0.00     0.010 C 
HETATM   30  C14 UNL     1       4.349  -7.041  39.452  1.00  0.00     0.061 C 
HETATM   31  C15 UNL     1       3.712  -5.807  38.967  1.00  0.00     0.053 A 
HETATM   32  N5  UNL     1       2.884  -4.773  39.149  1.00  0.00    -0.302 N 
HETATM   33  N6  UNL     1       3.171  -4.340  37.945  1.00  0.00    -0.300 N 
ATOM     34  H5  UNL     1       2.281  -4.454  39.907  1.00  0.00     0.186 HD
ATOM     35  H6  UNL     1       2.866  -3.535  37.398  1.00  0.00     0.186 HD
ENDBRANCH   1  19
TORSDOF 7
ENDMDL
MODEL 5
REMARK VINA RESULT: -6.442226273      2.406      3.116
REMARK  7 active torsions:
REMARK  status: ('A' for Active; 'I' for Inactive)
REMARK    1  A    between atoms: N1_1  and  C1_4 
REMARK    2  A    between atoms: C3_8  and  C4_9 
REMARK    3  A    between atoms: C4_9  and  C5_10 
REMARK    4  A    between atoms: C5_10  and  C6_11 
REMARK    5  A    between atoms: C6_11  and  N3_12 
REMARK    6  A    between atoms: N3_12  and  C7_15 
REMARK    7  A    between atoms: C7_15  and  C8_16 
ROOT
HETATM    1  C7  UNL     1       7.419  -6.426  35.114  1.00  0.00     0.265 C 
ENDROOT
BRANCH   1   2
HETATM    2  N3  UNL     1       7.413  -6.420  33.674  1.00  0.00    -0.073 N 
ATOM      3  H32 UNL     1       8.308  -6.085  33.316  1.00  0.00     0.277 HD
ATOM      4  H31 UNL     1       6.797  -5.685  33.325  1.00  0.00     0.277 HD
BRANCH   2   5
HETATM    5  C6  UNL     1       7.076  -7.680  33.073  1.00  0.00     0.232 C 
BRANCH   5   6
HETATM    6  C5  UNL     1       6.412  -8.517  34.167  1.00  0.00     0.032 C 
BRANCH   6   7
HETATM    7  C4  UNL     1       6.600  -9.976  33.926  1.00  0.00     0.043 C 
BRANCH   7   8
HETATM    8  C3  UNL     1       7.384 -10.533  35.047  1.00  0.00    -0.026 A 
HETATM    9  C2  UNL     1       7.299 -11.875  35.370  1.00  0.00     0.114 A 
HETATM   10  N2  UNL     1       8.020 -12.356  36.396  1.00  0.00    -0.202 N 
HETATM   11  C1  UNL     1       8.818 -11.528  37.099  1.00  0.00     0.675 A 
ATOM     12  H2  UNL     1       7.964 -13.344  36.641  1.00  0.00     0.183 HD
HETATM   13  N7  UNL     1       8.936 -10.211  36.824  1.00  0.00    -0.202 N 
HETATM   14  C17 UNL     1       8.201  -9.720  35.778  1.00  0.00     0.114 A 
ATOM     15  H7  UNL     1       9.548  -9.607  37.373  1.00  0.00     0.183 HD
BRANCH  11  16
HETATM   16  N1  UNL     1       9.493 -12.033  38.072  1.00  0.00    -0.234 N 
ATOM     17  H12 UNL     1       9.671 -13.037  38.088  1.00  0.00     0.174 HD
ATOM     18  H11 UNL     1       9.824 -11.397  38.798  1.00  0.00     0.174 HD
ENDBRANCH  11  16
ENDBRANCH   7   8
ENDBRANCH   6   7
ENDBRANCH   5   6
ENDBRANCH   2   5
ENDBRANCH   1   2
BRANCH   1  19
HETATM   19  C8  UNL     1       6.806  -5.175  35.624  1.00  0.00     0.174 C 
HETATM   20  C9  UNL     1       5.965  -4.559  34.520  1.00  0.00     0.265 C 
HETATM   21  N4  UNL     1       4.599  -4.522  34.919  1.00  0.00    -0.070 N 
HETATM   22  C10 UNL     1       4.227  -5.841  35.403  1.00  0.00     0.276 C 
ATOM     23  H42 UNL     1       4.409  -3.787  35.600  1.00  0.00     0.277 HD
ATOM     24  H41 UNL     1       3.982  -4.188  34.179  1.00  0.00     0.277 HD
HETATM   25  C11 UNL     1       4.918  -5.972  36.768  1.00  0.00     0.130 C 
HETATM   26  C12 UNL     1       5.155  -7.400  37.104  1.00  0.00     0.047 C 
HETATM   27  C16 UNL     1       3.959  -5.306  37.723  1.00  0.00     0.086 A 
HETATM   28  O1  UNL     1       6.110  -5.307  36.807  1.00  0.00    -0.363 OA
HETATM   29  C13 UNL     1       4.552  -7.904  38.372  1.00  0.00     0.010 C 
HETATM   30  C14 UNL     1       4.572  -6.879  39.490  1.00  0.00     0.061 C 
HETATM   31  C15 UNL     1       3.786  -5.725  39.025  1.00  0.00     0.053 A 
HETATM   32  N5  UNL     1       2.884  -4.764  39.246  1.00  0.00    -0.302 N 
HETATM   33  N6  UNL     1       3.032  -4.351  38.010  1.00  0.00    -0.300 N 
ATOM     34  H5  UNL     1       2.316  -4.474  40.042  1.00  0.00     0.186 HD
ATOM     35  H6  UNL     1       2.612  -3.596  37.468  1.00  0.00     0.186 HD
ENDBRANCH   1  19
TORSDOF 7
ENDMDL
