MODEL 1
REMARK VINA RESULT: -6.479552828      0.000      0.000
REMARK  8 active torsions:
REMARK  status: ('A' for Active; 'I' for Inactive)
REMARK       I    between atoms: N1_1  and  C1_4 
REMARK       I    between atoms: C1_4  and  N2_5 
REMARK       I    between atoms: C1_4  and  N4_13 
REMARK    1  A    between atoms: N2_5  and  C2_7 
REMARK    2  A    between atoms: N4_13  and  C5_15 
REMARK    3  A    between atoms: C9_19  and  C10_20 
REMARK    4  A    between atoms: C10_20  and  N5_21 
REMARK    5  A    between atoms: N5_21  and  C11_24 
REMARK    6  A    between atoms: C11_24  and  C12_25 
REMARK    7  A    between atoms: C12_25  and  N6_26 
REMARK    8  A    between atoms: N6_26  and  C13_28 
ROOT
HETATM    1  C5  UNL     1       7.747  -8.255  34.734  1.00  0.00     0.049 A 
HETATM    2  C6  UNL     1       7.391  -7.682  33.504  1.00  0.00     0.030 A 
HETATM    3  C7  UNL     1       7.034  -6.358  33.353  1.00  0.00     0.003 A 
HETATM    4  C8  UNL     1       7.008  -5.528  34.414  1.00  0.00     0.009 A 
HETATM    5  C9  UNL     1       7.352  -6.046  35.680  1.00  0.00    -0.031 A 
HETATM    6  C16 UNL     1       7.703  -7.354  35.829  1.00  0.00     0.038 A 
ENDROOT
BRANCH   5   7
HETATM    7  C10 UNL     1       7.412  -5.122  36.837  1.00  0.00     0.270 C 
BRANCH   7   8
HETATM    8  N5  UNL     1       6.456  -5.572  37.861  1.00  0.00    -0.070 N 
ATOM      9  H52 UNL     1       6.401  -6.587  37.939  1.00  0.00     0.277 HD
ATOM     10  H51 UNL     1       6.770  -5.385  38.813  1.00  0.00     0.277 HD
BRANCH   8  11
HETATM   11  C11 UNL     1       5.169  -4.945  37.544  1.00  0.00     0.252 C 
BRANCH  11  12
HETATM   12  C12 UNL     1       4.018  -5.386  38.370  1.00  0.00     0.150 C 
BRANCH  12  13
HETATM   13  N6  UNL     1       4.380  -6.441  39.348  1.00  0.00    -0.361 N 
ATOM     14  H6  UNL     1       4.974  -6.233  40.150  1.00  0.00     0.162 HD
BRANCH  13  15
HETATM   15  C13 UNL     1       3.877  -7.742  39.135  1.00  0.00     0.171 C 
HETATM   16  N7  UNL     1       3.005  -8.396  39.784  1.00  0.00    -0.361 N 
HETATM   17  C14 UNL     1       2.797  -9.735  39.201  1.00  0.00     0.142 C 
ATOM     18  H7  UNL     1       2.512  -8.042  40.604  1.00  0.00     0.162 HD
HETATM   19  C15 UNL     1       3.176  -9.423  37.738  1.00  0.00     0.142 C 
HETATM   20  N8  UNL     1       4.344  -8.571  38.020  1.00  0.00    -0.361 N 
ATOM     21  H8  UNL     1       5.252  -8.560  37.555  1.00  0.00     0.162 HD
ENDBRANCH  13  15
ENDBRANCH  12  13
ENDBRANCH  11  12
ENDBRANCH   8  11
ENDBRANCH   7   8
ENDBRANCH   5   7
BRANCH   1  22
HETATM   22  N4  UNL     1       8.039  -9.625  34.903  1.00  0.00    -0.192 N 
HETATM   23  C1  UNL     1       7.049 -10.609  35.149  1.00  0.00     0.679 C 
HETATM   24  N1  UNL     1       5.794 -10.380  35.315  1.00  0.00    -0.234 N 
HETATM   25  N2  UNL     1       7.417 -11.989  35.275  1.00  0.00    -0.155 N 
ATOM     26  H12 UNL     1       5.083 -11.088  35.492  1.00  0.00     0.174 HD
ATOM     27  H11 UNL     1       5.532  -9.398  35.224  1.00  0.00     0.174 HD
ATOM     28  H2  UNL     1       7.782 -12.293  36.178  1.00  0.00     0.188 HD
ATOM     29  H4  UNL     1       9.012  -9.922  34.844  1.00  0.00     0.184 HD
BRANCH  25  30
HETATM   30  C2  UNL     1       7.328 -12.858  34.367  1.00  0.00     0.242 A 
HETATM   31  N3  UNL     1       6.451 -13.860  34.303  1.00  0.00    -0.330 N 
HETATM   32  C3  UNL     1       6.716 -14.572  33.164  1.00  0.00     0.116 A 
ATOM     33  H3  UNL     1       5.715 -14.059  34.981  1.00  0.00     0.168 HD
HETATM   34  C4  UNL     1       7.781 -13.947  32.571  1.00  0.00     0.162 A 
HETATM   35  O1  UNL     1       8.135 -12.927  33.300  1.00  0.00    -0.290 OA
ENDBRANCH  25  30
ENDBRANCH   1  22
TORSDOF 8
ENDMDL
MODEL 2
REMARK VINA RESULT: -6.341572992      2.719      6.206
REMARK  8 active torsions:
REMARK  status: ('A' for Active; 'I' for Inactive)
REMARK       I    between atoms: N1_1  and  C1_4 
REMARK       I    between atoms: C1_4  and  N2_5 
REMARK       I    between atoms: C1_4  and  N4_13 
REMARK    1  A    between atoms: N2_5  and  C2_7 
REMARK    2  A    between atoms: N4_13  and  C5_15 
REMARK    3  A    between atoms: C9_19  and  C10_20 
REMARK    4  A    between atoms: C10_20  and  N5_21 
REMARK    5  A    between atoms: N5_21  and  C11_24 
REMARK    6  A    between atoms: C11_24  and  C12_25 
REMARK    7  A    between atoms: C12_25  and  N6_26 
REMARK    8  A    between atoms: N6_26  and  C13_28 
ROOT
HETATM    1  C5  UNL     1       8.081  -7.980  35.857  1.00  0.00     0.049 A 
HETATM    2  C6  UNL     1       9.307  -7.892  35.182  1.00  0.00     0.030 A 
HETATM    3  C7  UNL     1       9.866  -8.938  34.475  1.00  0.00     0.003 A 
HETATM    4  C8  UNL     1       9.240 -10.128  34.400  1.00  0.00     0.009 A 
HETATM    5  C9  UNL     1       8.003 -10.280  35.061  1.00  0.00    -0.031 A 
HETATM    6  C16 UNL     1       7.452  -9.247  35.760  1.00  0.00     0.038 A 
ENDROOT
BRANCH   5   7
HETATM    7  C10 UNL     1       7.264 -11.556  34.911  1.00  0.00     0.270 C 
BRANCH   7   8
HETATM    8  N5  UNL     1       5.864 -11.263  34.569  1.00  0.00    -0.070 N 
ATOM      9  H52 UNL     1       5.664 -10.264  34.519  1.00  0.00     0.277 HD
ATOM     10  H51 UNL     1       5.631 -11.489  33.602  1.00  0.00     0.277 HD
BRANCH   8  11
HETATM   11  C11 UNL     1       5.031 -11.972  35.545  1.00  0.00     0.252 C 
BRANCH  11  12
HETATM   12  C12 UNL     1       3.774 -11.288  35.935  1.00  0.00     0.150 C 
BRANCH  12  13
HETATM   13  N6  UNL     1       3.955  -9.834  36.167  1.00  0.00    -0.361 N 
ATOM     14  H6  UNL     1       4.266  -9.217  35.418  1.00  0.00     0.162 HD
BRANCH  13  15
HETATM   15  C13 UNL     1       3.682  -9.331  37.457  1.00  0.00     0.171 C 
HETATM   16  N7  UNL     1       2.945  -9.801  38.377  1.00  0.00    -0.361 N 
HETATM   17  C14 UNL     1       2.952  -8.928  39.566  1.00  0.00     0.142 C 
ATOM     18  H7  UNL     1       2.416 -10.670  38.303  1.00  0.00     0.162 HD
HETATM   19  C15 UNL     1       4.349  -8.295  39.394  1.00  0.00     0.142 C 
HETATM   20  N8  UNL     1       4.286  -8.086  37.937  1.00  0.00    -0.361 N 
ATOM     21  H8  UNL     1       4.588  -7.275  37.396  1.00  0.00     0.162 HD
ENDBRANCH  13  15
ENDBRANCH  12  13
ENDBRANCH  11  12
ENDBRANCH   8  11
ENDBRANCH   7   8
ENDBRANCH   5   7
BRANCH   1  22
HETATM   22  N4  UNL     1       7.545  -6.936  36.642  1.00  0.00    -0.192 N 
HETATM   23  C1  UNL     1       6.843  -5.832  36.098  1.00  0.00     0.679 C 
HETATM   24  N1  UNL     1       6.665  -5.606  34.844  1.00  0.00    -0.234 N 
HETATM   25  N2  UNL     1       6.297  -4.826  36.960  1.00  0.00    -0.155 N 
ATOM     26  H12 UNL     1       6.160  -4.812  34.453  1.00  0.00     0.174 HD
ATOM     27  H11 UNL     1       7.054  -6.322  34.230  1.00  0.00     0.174 HD
ATOM     28  H2  UNL     1       6.935  -4.107  37.301  1.00  0.00     0.188 HD
ATOM     29  H4  UNL     1       7.670  -6.979  37.653  1.00  0.00     0.184 HD
BRANCH  25  30
HETATM   30  C2  UNL     1       5.095  -4.754  37.334  1.00  0.00     0.242 A 
HETATM   31  N3  UNL     1       4.031  -4.526  36.563  1.00  0.00    -0.330 N 
HETATM   32  C3  UNL     1       2.927  -4.512  37.373  1.00  0.00     0.116 A 
ATOM     33  H3  UNL     1       4.039  -4.387  35.553  1.00  0.00     0.168 HD
HETATM   34  C4  UNL     1       3.391  -4.740  38.642  1.00  0.00     0.162 A 
HETATM   35  O1  UNL     1       4.685  -4.881  38.603  1.00  0.00    -0.290 OA
ENDBRANCH  25  30
ENDBRANCH   1  22
TORSDOF 8
ENDMDL
MODEL 3
REMARK VINA RESULT: -6.199992687      1.570      2.892
REMARK  8 active torsions:
REMARK  status: ('A' for Active; 'I' for Inactive)
REMARK       I    between atoms: N1_1  and  C1_4 
REMARK       I    between atoms: C1_4  and  N2_5 
REMARK       I    between atoms: C1_4  and  N4_13 
REMARK    1  A    between atoms: N2_5  and  C2_7 
REMARK    2  A    between atoms: N4_13  and  C5_15 
REMARK    3  A    between atoms: C9_19  and  C10_20 
REMARK    4  A    between atoms: C10_20  and  N5_21 
REMARK    5  A    between atoms: N5_21  and  C11_24 
REMARK    6  A    between atoms: C11_24  and  C12_25 
REMARK    7  A    between atoms: C12_25  and  N6_26 
REMARK    8  A    between atoms: N6_26  and  C13_28 
ROOT
HETATM    1  C5  UNL     1       6.967  -7.003  36.049  1.00  0.00     0.049 A 
HETATM    2  C6  UNL     1       7.458  -5.693  35.952  1.00  0.00     0.030 A 
HETATM    3  C7  UNL     1       7.040  -4.659  36.765  1.00  0.00     0.003 A 
HETATM    4  C8  UNL     1       6.110  -4.866  37.717  1.00  0.00     0.009 A 
HETATM    5  C9  UNL     1       5.574  -6.163  37.862  1.00  0.00    -0.031 A 
HETATM    6  C16 UNL     1       5.987  -7.184  37.058  1.00  0.00     0.038 A 
ENDROOT
BRANCH   5   7
HETATM    7  C10 UNL     1       4.616  -6.422  38.962  1.00  0.00     0.270 C 
BRANCH   7   8
HETATM    8  N5  UNL     1       5.302  -7.166  40.030  1.00  0.00    -0.070 N 
ATOM      9  H52 UNL     1       6.277  -7.372  39.814  1.00  0.00     0.277 HD
ATOM     10  H51 UNL     1       5.470  -6.606  40.865  1.00  0.00     0.277 HD
BRANCH   8  11
HETATM   11  C11 UNL     1       4.502  -8.367  40.292  1.00  0.00     0.252 C 
BRANCH  11  12
HETATM   12  C12 UNL     1       3.154  -8.390  39.673  1.00  0.00     0.150 C 
BRANCH  12  13
HETATM   13  N6  UNL     1       2.706  -9.758  39.314  1.00  0.00    -0.361 N 
ATOM     14  H6  UNL     1       2.410 -10.419  40.032  1.00  0.00     0.162 HD
BRANCH  13  15
HETATM   15  C13 UNL     1       2.703 -10.117  37.949  1.00  0.00     0.171 C 
HETATM   16  N7  UNL     1       3.440  -9.714  36.998  1.00  0.00    -0.361 N 
HETATM   17  C14 UNL     1       3.071 -10.360  35.725  1.00  0.00     0.142 C 
ATOM     18  H7  UNL     1       4.191  -9.031  37.101  1.00  0.00     0.162 HD
HETATM   19  C15 UNL     1       2.495 -11.679  36.280  1.00  0.00     0.142 C 
HETATM   20  N8  UNL     1       1.758 -11.102  37.418  1.00  0.00    -0.361 N 
ATOM     21  H8  UNL     1       0.822 -11.331  37.753  1.00  0.00     0.162 HD
ENDBRANCH  13  15
ENDBRANCH  12  13
ENDBRANCH  11  12
ENDBRANCH   8  11
ENDBRANCH   7   8
ENDBRANCH   5   7
BRANCH   1  22
HETATM   22  N4  UNL     1       7.338  -8.043  35.171  1.00  0.00    -0.192 N 
HETATM   23  C1  UNL     1       8.027  -9.210  35.589  1.00  0.00     0.679 C 
HETATM   24  N1  UNL     1       8.452  -9.436  36.782  1.00  0.00    -0.234 N 
HETATM   25  N2  UNL     1       8.341 -10.241  34.646  1.00  0.00    -0.155 N 
ATOM     26  H12 UNL     1       8.947 -10.275  37.083  1.00  0.00     0.174 HD
ATOM     27  H11 UNL     1       8.228  -8.702  37.454  1.00  0.00     0.174 HD
ATOM     28  H2  UNL     1       9.165 -10.103  34.061  1.00  0.00     0.188 HD
ATOM     29  H4  UNL     1       7.099  -7.951  34.184  1.00  0.00     0.184 HD
BRANCH  25  30
HETATM   30  C2  UNL     1       7.686 -11.305  34.477  1.00  0.00     0.242 A 
HETATM   31  N3  UNL     1       6.477 -11.584  34.964  1.00  0.00    -0.330 N 
HETATM   32  C3  UNL     1       6.147 -12.849  34.554  1.00  0.00     0.116 A 
ATOM     33  H3  UNL     1       5.901 -10.967  35.537  1.00  0.00     0.168 HD
HETATM   34  C4  UNL     1       7.210 -13.293  33.813  1.00  0.00     0.162 A 
HETATM   35  O1  UNL     1       8.121 -12.361  33.777  1.00  0.00    -0.290 OA
ENDBRANCH  25  30
ENDBRANCH   1  22
TORSDOF 8
ENDMDL
MODEL 4
REMARK VINA RESULT: -6.161921300      2.706      5.168
REMARK  8 active torsions:
REMARK  status: ('A' for Active; 'I' for Inactive)
REMARK       I    between atoms: N1_1  and  C1_4 
REMARK       I    between atoms: C1_4  and  N2_5 
REMARK       I    between atoms: C1_4  and  N4_13 
REMARK    1  A    between atoms: N2_5  and  C2_7 
REMARK    2  A    between atoms: N4_13  and  C5_15 
REMARK    3  A    between atoms: C9_19  and  C10_20 
REMARK    4  A    between atoms: C10_20  and  N5_21 
REMARK    5  A    between atoms: N5_21  and  C11_24 
REMARK    6  A    between atoms: C11_24  and  C12_25 
REMARK    7  A    between atoms: C12_25  and  N6_26 
REMARK    8  A    between atoms: N6_26  and  C13_28 
ROOT
HETATM    1  C5  UNL     1       5.092  -6.622  37.134  1.00  0.00     0.049 A 
HETATM    2  C6  UNL     1       4.514  -5.391  37.481  1.00  0.00     0.030 A 
HETATM    3  C7  UNL     1       3.640  -5.229  38.537  1.00  0.00     0.003 A 
HETATM    4  C8  UNL     1       3.289  -6.277  39.305  1.00  0.00     0.009 A 
HETATM    5  C9  UNL     1       3.834  -7.544  39.005  1.00  0.00    -0.031 A 
HETATM    6  C16 UNL     1       4.696  -7.704  37.962  1.00  0.00     0.038 A 
ENDROOT
BRANCH   5   7
HETATM    7  C10 UNL     1       3.524  -8.685  39.897  1.00  0.00     0.270 C 
BRANCH   7   8
HETATM    8  N5  UNL     1       2.097  -8.645  40.250  1.00  0.00    -0.070 N 
ATOM      9  H52 UNL     1       1.917  -8.892  41.223  1.00  0.00     0.277 HD
ATOM     10  H51 UNL     1       1.719  -7.698  40.286  1.00  0.00     0.277 HD
BRANCH   8  11
HETATM   11  C11 UNL     1       1.398  -9.510  39.295  1.00  0.00     0.252 C 
BRANCH  11  12
HETATM   12  C12 UNL     1       2.252 -10.467  38.550  1.00  0.00     0.150 C 
BRANCH  12  13
HETATM   13  N6  UNL     1       1.924 -10.529  37.104  1.00  0.00    -0.361 N 
ATOM     14  H6  UNL     1       0.972 -10.712  36.788  1.00  0.00     0.162 HD
BRANCH  13  15
HETATM   15  C13 UNL     1       2.971 -10.328  36.179  1.00  0.00     0.171 C 
HETATM   16  N7  UNL     1       4.053 -10.971  36.020  1.00  0.00    -0.361 N 
HETATM   17  C14 UNL     1       4.860 -10.397  34.927  1.00  0.00     0.142 C 
ATOM     18  H7  UNL     1       4.330 -11.780  36.577  1.00  0.00     0.162 HD
HETATM   19  C15 UNL     1       3.722  -9.793  34.077  1.00  0.00     0.142 C 
HETATM   20  N8  UNL     1       2.921  -9.250  35.188  1.00  0.00    -0.361 N 
ATOM     21  H8  UNL     1       2.449  -8.348  35.252  1.00  0.00     0.162 HD
ENDBRANCH  13  15
ENDBRANCH  12  13
ENDBRANCH  11  12
ENDBRANCH   8  11
ENDBRANCH   7   8
ENDBRANCH   5   7
BRANCH   1  22
HETATM   22  N4  UNL     1       5.926  -6.804  36.011  1.00  0.00    -0.192 N 
HETATM   23  C1  UNL     1       7.307  -6.484  36.004  1.00  0.00     0.679 C 
HETATM   24  N1  UNL     1       7.950  -5.936  36.975  1.00  0.00    -0.234 N 
HETATM   25  N2  UNL     1       8.100  -6.728  34.836  1.00  0.00    -0.155 N 
ATOM     26  H12 UNL     1       8.943  -5.706  36.970  1.00  0.00     0.174 HD
ATOM     27  H11 UNL     1       7.385  -5.762  37.806  1.00  0.00     0.174 HD
ATOM     28  H2  UNL     1       8.053  -6.038  34.088  1.00  0.00     0.188 HD
ATOM     29  H4  UNL     1       5.515  -7.186  35.160  1.00  0.00     0.184 HD
BRANCH  25  30
HETATM   30  C2  UNL     1       8.852  -7.724  34.655  1.00  0.00     0.242 A 
HETATM   31  N3  UNL     1       9.215  -8.247  33.484  1.00  0.00    -0.330 N 
HETATM   32  C3  UNL     1      10.020  -9.325  33.743  1.00  0.00     0.116 A 
ATOM     33  H3  UNL     1       8.944  -7.906  32.562  1.00  0.00     0.168 HD
HETATM   34  C4  UNL     1      10.108  -9.408  35.107  1.00  0.00     0.162 A 
HETATM   35  O1  UNL     1       9.406  -8.447  35.638  1.00  0.00    -0.290 OA
ENDBRANCH  25  30
ENDBRANCH   1  22
TORSDOF 8
ENDMDL
MODEL 5
REMARK VINA RESULT: -6.153035211      2.095      2.764
REMARK  8 active torsions:
REMARK  status: ('A' for Active; 'I' for Inactive)
REMARK       I    between atoms: N1_1  and  C1_4 
REMARK       I    between atoms: C1_4  and  N2_5 
REMARK       I    between atoms: C1_4  and  N4_13 
REMARK    1  A    between atoms: N2_5  and  C2_7 
REMARK    2  A    between atoms: N4_13  and  C5_15 
REMARK    3  A    between atoms: C9_19  and  C10_20 
REMARK    4  A    between atoms: C10_20  and  N5_21 
REMARK    5  A    between atoms: N5_21  and  C11_24 
REMARK    6  A    between atoms: C11_24  and  C12_25 
REMARK    7  A    between atoms: C12_25  and  N6_26 
REMARK    8  A    between atoms: N6_26  and  C13_28 
ROOT
HETATM    1  C5  UNL     1       7.490  -9.732  34.678  1.00  0.00     0.049 A 
HETATM    2  C6  UNL     1       8.888  -9.775  34.789  1.00  0.00     0.030 A 
HETATM    3  C7  UNL     1       9.660  -8.685  35.135  1.00  0.00     0.003 A 
HETATM    4  C8  UNL     1       9.089  -7.491  35.388  1.00  0.00     0.009 A 
HETATM    5  C9  UNL     1       7.686  -7.383  35.289  1.00  0.00    -0.031 A 
HETATM    6  C16 UNL     1       6.924  -8.460  34.946  1.00  0.00     0.038 A 
ENDROOT
BRANCH   5   7
HETATM    7  C10 UNL     1       7.041  -6.099  35.651  1.00  0.00     0.270 C 
BRANCH   7   8
HETATM    8  N5  UNL     1       7.621  -5.608  36.910  1.00  0.00    -0.070 N 
ATOM      9  H52 UNL     1       7.882  -6.358  37.550  1.00  0.00     0.277 HD
ATOM     10  H51 UNL     1       8.551  -5.207  36.794  1.00  0.00     0.277 HD
BRANCH   8  11
HETATM   11  C11 UNL     1       6.654  -4.668  37.485  1.00  0.00     0.252 C 
BRANCH  11  12
HETATM   12  C12 UNL     1       5.251  -4.829  37.030  1.00  0.00     0.150 C 
BRANCH  12  13
HETATM   13  N6  UNL     1       4.327  -5.204  38.130  1.00  0.00    -0.361 N 
ATOM     14  H6  UNL     1       3.560  -4.590  38.402  1.00  0.00     0.162 HD
BRANCH  13  15
HETATM   15  C13 UNL     1       4.544  -6.434  38.786  1.00  0.00     0.171 C 
HETATM   16  N7  UNL     1       5.167  -6.686  39.862  1.00  0.00    -0.361 N 
HETATM   17  C14 UNL     1       5.145  -8.128  40.167  1.00  0.00     0.142 C 
ATOM     18  H7  UNL     1       5.625  -5.981  40.441  1.00  0.00     0.162 HD
HETATM   19  C15 UNL     1       3.824  -8.505  39.465  1.00  0.00     0.142 C 
HETATM   20  N8  UNL     1       4.013  -7.691  38.252  1.00  0.00    -0.361 N 
ATOM     21  H8  UNL     1       3.822  -7.940  37.281  1.00  0.00     0.162 HD
ENDBRANCH  13  15
ENDBRANCH  12  13
ENDBRANCH  11  12
ENDBRANCH   8  11
ENDBRANCH   7   8
ENDBRANCH   5   7
BRANCH   1  22
HETATM   22  N4  UNL     1       6.707 -10.826  34.252  1.00  0.00    -0.192 N 
HETATM   23  C1  UNL     1       6.661 -12.066  34.936  1.00  0.00     0.679 C 
HETATM   24  N1  UNL     1       7.361 -12.373  35.971  1.00  0.00    -0.234 N 
HETATM   25  N2  UNL     1       5.814 -13.122  34.463  1.00  0.00    -0.155 N 
ATOM     26  H12 UNL     1       7.327 -13.266  36.462  1.00  0.00     0.174 HD
ATOM     27  H11 UNL     1       7.963 -11.622  36.307  1.00  0.00     0.174 HD
ATOM     28  H2  UNL     1       6.164 -13.690  33.692  1.00  0.00     0.188 HD
ATOM     29  H4  UNL     1       6.145 -10.718  33.408  1.00  0.00     0.184 HD
BRANCH  25  30
HETATM   30  C2  UNL     1       4.675 -13.408  34.919  1.00  0.00     0.242 A 
HETATM   31  N3  UNL     1       3.667 -13.973  34.253  1.00  0.00    -0.330 N 
HETATM   32  C3  UNL     1       2.612 -14.090  35.118  1.00  0.00     0.116 A 
ATOM     33  H3  UNL     1       3.681 -14.265  33.276  1.00  0.00     0.168 HD
HETATM   34  C4  UNL     1       3.045 -13.571  36.310  1.00  0.00     0.162 A 
HETATM   35  O1  UNL     1       4.276 -13.168  36.175  1.00  0.00    -0.290 OA
ENDBRANCH  25  30
ENDBRANCH   1  22
TORSDOF 8
ENDMDL
