MODEL 1
REMARK VINA RESULT: -7.096421363      0.000      0.000
REMARK  8 active torsions:
REMARK  status: ('A' for Active; 'I' for Inactive)
REMARK    1  A    between atoms: C8_14  and  C9_15 
REMARK    2  A    between atoms: C9_15  and  S1_16 
REMARK    3  A    between atoms: S1_16  and  C10_17 
REMARK    4  A    between atoms: C10_17  and  C11_18 
REMARK    5  A    between atoms: C11_18  and  C12_19 
REMARK    6  A    between atoms: C12_19  and  N4_20 
REMARK    7  A    between atoms: C12_19  and  C13_24 
REMARK    8  A    between atoms: C14_27  and  N6_28 
ROOT
HETATM    1  N1  UNL     1       5.272 -12.913  34.682  1.00  0.00    -0.388 N 
ATOM      2  H11 UNL     1       4.379 -12.673  34.252  1.00  0.00     0.157 HD
ATOM      3  H12 UNL     1       5.288 -13.932  34.659  1.00  0.00     0.157 HD
HETATM    4  C1  UNL     1       6.193 -12.156  35.153  1.00  0.00     0.092 C 
HETATM    5  N2  UNL     1       7.440 -12.490  35.753  1.00  0.00    -0.293 N 
ATOM      6  H2  UNL     1       7.747 -13.434  35.990  1.00  0.00     0.183 HD
HETATM    7  N3  UNL     1       8.190 -11.303  35.971  1.00  0.00    -0.134 NA
HETATM    8  C2  UNL     1       7.644 -10.447  34.949  1.00  0.00     0.117 C 
HETATM    9  C3  UNL     1       6.170 -10.674  35.187  1.00  0.00     0.075 C 
HETATM   10  C4  UNL     1       5.430 -10.022  34.095  1.00  0.00     0.014 C 
HETATM   11  C5  UNL     1       5.778  -8.550  34.091  1.00  0.00     0.006 C 
HETATM   12  C6  UNL     1       7.214  -8.239  34.007  1.00  0.00    -0.006 C 
HETATM   13  C7  UNL     1       7.446  -6.800  34.505  1.00  0.00     0.012 C 
HETATM   14  C8  UNL     1       8.464  -6.865  35.578  1.00  0.00     0.026 C 
HETATM   15  C14 UNL     1       8.198  -8.296  36.155  1.00  0.00     0.194 C 
HETATM   16  C15 UNL     1       8.098  -9.061  34.900  1.00  0.00     0.042 C 
ENDROOT
BRANCH  14  17
HETATM   17  C9  UNL     1       8.463  -5.888  36.658  1.00  0.00     0.080 C 
BRANCH  17  18
HETATM   18  S1  UNL     1       7.217  -4.678  36.741  1.00  0.00    -0.169 SA
BRANCH  18  19
HETATM   19  C10 UNL     1       6.181  -4.563  38.151  1.00  0.00     0.076 C 
BRANCH  19  20
HETATM   20  C11 UNL     1       4.989  -5.491  38.163  1.00  0.00     0.052 C 
BRANCH  20  21
HETATM   21  C12 UNL     1       3.689  -4.675  38.118  1.00  0.00     0.272 C 
BRANCH  21  22
HETATM   22  N4  UNL     1       2.861  -5.219  39.183  1.00  0.00    -0.067 N 
ATOM     23  H43 UNL     1       2.304  -4.518  39.671  1.00  0.00     0.275 HD
ATOM     24  H42 UNL     1       2.077  -5.780  38.849  1.00  0.00     0.275 HD
ATOM     25  H41 UNL     1       3.504  -5.730  39.788  1.00  0.00     0.275 HD
ENDBRANCH  21  22
BRANCH  21  26
HETATM   26  C13 UNL     1       3.102  -4.726  36.785  1.00  0.00     0.261 C 
HETATM   27  N5  UNL     1       3.386  -5.736  35.846  1.00  0.00    -0.060 NA
HETATM   28  O1  UNL     1       2.286  -3.822  36.413  1.00  0.00    -0.275 OA
ENDBRANCH  21  26
ENDBRANCH  20  21
ENDBRANCH  19  20
ENDBRANCH  18  19
ENDBRANCH  17  18
ENDBRANCH  14  17
BRANCH  15  29
HETATM   29  N6  UNL     1       7.086  -8.258  37.019  1.00  0.00    -0.074 N 
ATOM     30  H63 UNL     1       7.361  -8.137  37.994  1.00  0.00     0.274 HD
ATOM     31  H62 UNL     1       6.544  -7.400  36.912  1.00  0.00     0.274 HD
ATOM     32  H61 UNL     1       6.516  -9.092  36.882  1.00  0.00     0.274 HD
ENDBRANCH  15  29
TORSDOF 8
ENDMDL
MODEL 2
REMARK VINA RESULT: -6.973309928      1.187      1.375
REMARK  8 active torsions:
REMARK  status: ('A' for Active; 'I' for Inactive)
REMARK    1  A    between atoms: C8_14  and  C9_15 
REMARK    2  A    between atoms: C9_15  and  S1_16 
REMARK    3  A    between atoms: S1_16  and  C10_17 
REMARK    4  A    between atoms: C10_17  and  C11_18 
REMARK    5  A    between atoms: C11_18  and  C12_19 
REMARK    6  A    between atoms: C12_19  and  N4_20 
REMARK    7  A    between atoms: C12_19  and  C13_24 
REMARK    8  A    between atoms: C14_27  and  N6_28 
ROOT
HETATM    1  N1  UNL     1       5.845 -13.151  34.611  1.00  0.00    -0.388 N 
ATOM      2  H11 UNL     1       4.995 -13.029  34.061  1.00  0.00     0.157 HD
ATOM      3  H12 UNL     1       5.977 -14.162  34.636  1.00  0.00     0.157 HD
HETATM    4  C1  UNL     1       6.608 -12.278  35.159  1.00  0.00     0.092 C 
HETATM    5  N2  UNL     1       7.795 -12.447  35.927  1.00  0.00    -0.293 N 
ATOM      6  H2  UNL     1       8.171 -13.342  36.243  1.00  0.00     0.183 HD
HETATM    7  N3  UNL     1       8.373 -11.176  36.183  1.00  0.00    -0.134 NA
HETATM    8  C2  UNL     1       7.875 -10.420  35.063  1.00  0.00     0.117 C 
HETATM    9  C3  UNL     1       6.416 -10.809  35.123  1.00  0.00     0.075 C 
HETATM   10  C4  UNL     1       5.758 -10.280  33.918  1.00  0.00     0.014 C 
HETATM   11  C5  UNL     1       5.938  -8.779  33.890  1.00  0.00     0.006 C 
HETATM   12  C6  UNL     1       7.330  -8.307  33.975  1.00  0.00    -0.006 C 
HETATM   13  C7  UNL     1       7.334  -6.836  34.432  1.00  0.00     0.012 C 
HETATM   14  C8  UNL     1       8.204  -6.750  35.627  1.00  0.00     0.026 C 
HETATM   15  C14 UNL     1       8.025  -8.184  36.230  1.00  0.00     0.194 C 
HETATM   16  C15 UNL     1       8.175  -8.993  35.009  1.00  0.00     0.042 C 
ENDROOT
BRANCH  14  17
HETATM   17  C9  UNL     1       7.954  -5.747  36.653  1.00  0.00     0.080 C 
BRANCH  17  18
HETATM   18  S1  UNL     1       6.700  -4.564  36.430  1.00  0.00    -0.169 SA
BRANCH  18  19
HETATM   19  C10 UNL     1       5.044  -5.064  36.142  1.00  0.00     0.076 C 
BRANCH  19  20
HETATM   20  C11 UNL     1       4.501  -6.102  37.096  1.00  0.00     0.052 C 
BRANCH  20  21
HETATM   21  C12 UNL     1       4.588  -5.584  38.539  1.00  0.00     0.272 C 
BRANCH  21  22
HETATM   22  N4  UNL     1       4.961  -6.741  39.338  1.00  0.00    -0.067 N 
ATOM     23  H43 UNL     1       5.863  -7.143  39.084  1.00  0.00     0.275 HD
ATOM     24  H42 UNL     1       5.200  -6.515  40.303  1.00  0.00     0.275 HD
ATOM     25  H41 UNL     1       4.180  -7.390  39.248  1.00  0.00     0.275 HD
ENDBRANCH  21  22
BRANCH  21  26
HETATM   26  C13 UNL     1       3.339  -4.939  38.924  1.00  0.00     0.261 C 
HETATM   27  N5  UNL     1       2.187  -5.644  39.322  1.00  0.00    -0.060 NA
HETATM   28  O1  UNL     1       3.245  -3.668  38.908  1.00  0.00    -0.275 OA
ENDBRANCH  21  26
ENDBRANCH  20  21
ENDBRANCH  19  20
ENDBRANCH  18  19
ENDBRANCH  17  18
ENDBRANCH  14  17
BRANCH  15  29
HETATM   29  N6  UNL     1       6.812  -8.248  36.945  1.00  0.00    -0.074 N 
ATOM     30  H63 UNL     1       6.855  -7.731  37.823  1.00  0.00     0.274 HD
ATOM     31  H62 UNL     1       6.071  -7.710  36.495  1.00  0.00     0.274 HD
ATOM     32  H61 UNL     1       6.548  -9.223  37.085  1.00  0.00     0.274 HD
ENDBRANCH  15  29
TORSDOF 8
ENDMDL
MODEL 3
REMARK VINA RESULT: -6.863140876      1.922      2.083
REMARK  8 active torsions:
REMARK  status: ('A' for Active; 'I' for Inactive)
REMARK    1  A    between atoms: C8_14  and  C9_15 
REMARK    2  A    between atoms: C9_15  and  S1_16 
REMARK    3  A    between atoms: S1_16  and  C10_17 
REMARK    4  A    between atoms: C10_17  and  C11_18 
REMARK    5  A    between atoms: C11_18  and  C12_19 
REMARK    6  A    between atoms: C12_19  and  N4_20 
REMARK    7  A    between atoms: C12_19  and  C13_24 
REMARK    8  A    between atoms: C14_27  and  N6_28 
ROOT
HETATM    1  N1  UNL     1       5.904 -13.232  34.579  1.00  0.00    -0.388 N 
ATOM      2  H11 UNL     1       5.041 -13.160  34.041  1.00  0.00     0.157 HD
ATOM      3  H12 UNL     1       6.095 -14.233  34.601  1.00  0.00     0.157 HD
HETATM    4  C1  UNL     1       6.621 -12.316  35.119  1.00  0.00     0.092 C 
HETATM    5  N2  UNL     1       7.826 -12.416  35.870  1.00  0.00    -0.293 N 
ATOM      6  H2  UNL     1       8.258 -13.287  36.180  1.00  0.00     0.183 HD
HETATM    7  N3  UNL     1       8.333 -11.113  36.121  1.00  0.00    -0.134 NA
HETATM    8  C2  UNL     1       7.776 -10.387  35.009  1.00  0.00     0.117 C 
HETATM    9  C3  UNL     1       6.344 -10.861  35.087  1.00  0.00     0.075 C 
HETATM   10  C4  UNL     1       5.640 -10.371  33.891  1.00  0.00     0.014 C 
HETATM   11  C5  UNL     1       5.732  -8.862  33.864  1.00  0.00     0.006 C 
HETATM   12  C6  UNL     1       7.094  -8.309  33.931  1.00  0.00    -0.006 C 
HETATM   13  C7  UNL     1       7.018  -6.840  34.390  1.00  0.00     0.012 C 
HETATM   14  C8  UNL     1       7.897  -6.705  35.574  1.00  0.00     0.026 C 
HETATM   15  C14 UNL     1       7.810  -8.146  36.177  1.00  0.00     0.194 C 
HETATM   16  C15 UNL     1       7.991  -8.945  34.953  1.00  0.00     0.042 C 
ENDROOT
BRANCH  14  17
HETATM   17  C9  UNL     1       7.602  -5.719  36.604  1.00  0.00     0.080 C 
BRANCH  17  18
HETATM   18  S1  UNL     1       6.110  -4.827  36.559  1.00  0.00    -0.169 SA
BRANCH  18  19
HETATM   19  C10 UNL     1       4.935  -4.993  37.851  1.00  0.00     0.076 C 
BRANCH  19  20
HETATM   20  C11 UNL     1       4.113  -6.260  37.827  1.00  0.00     0.052 C 
BRANCH  20  21
HETATM   21  C12 UNL     1       4.111  -6.909  39.218  1.00  0.00     0.272 C 
BRANCH  21  22
HETATM   22  N4  UNL     1       5.410  -6.590  39.790  1.00  0.00    -0.067 N 
ATOM     23  H43 UNL     1       6.190  -7.059  39.329  1.00  0.00     0.275 HD
ATOM     24  H42 UNL     1       5.719  -5.636  39.603  1.00  0.00     0.275 HD
ATOM     25  H41 UNL     1       5.326  -6.808  40.782  1.00  0.00     0.275 HD
ENDBRANCH  21  22
BRANCH  21  26
HETATM   26  C13 UNL     1       3.810  -8.332  39.115  1.00  0.00     0.261 C 
HETATM   27  N5  UNL     1       3.710  -9.021  37.892  1.00  0.00    -0.060 NA
HETATM   28  O1  UNL     1       3.615  -9.020  40.169  1.00  0.00    -0.275 OA
ENDBRANCH  21  26
ENDBRANCH  20  21
ENDBRANCH  19  20
ENDBRANCH  18  19
ENDBRANCH  17  18
ENDBRANCH  14  17
BRANCH  15  29
HETATM   29  N6  UNL     1       6.613  -8.282  36.907  1.00  0.00    -0.074 N 
ATOM     30  H63 UNL     1       6.360  -7.423  37.394  1.00  0.00     0.274 HD
ATOM     31  H62 UNL     1       5.797  -8.351  36.299  1.00  0.00     0.274 HD
ATOM     32  H61 UNL     1       6.687  -9.077  37.542  1.00  0.00     0.274 HD
ENDBRANCH  15  29
TORSDOF 8
ENDMDL
MODEL 4
REMARK VINA RESULT: -6.597465214      2.948      6.944
REMARK  8 active torsions:
REMARK  status: ('A' for Active; 'I' for Inactive)
REMARK    1  A    between atoms: C8_14  and  C9_15 
REMARK    2  A    between atoms: C9_15  and  S1_16 
REMARK    3  A    between atoms: S1_16  and  C10_17 
REMARK    4  A    between atoms: C10_17  and  C11_18 
REMARK    5  A    between atoms: C11_18  and  C12_19 
REMARK    6  A    between atoms: C12_19  and  N4_20 
REMARK    7  A    between atoms: C12_19  and  C13_24 
REMARK    8  A    between atoms: C14_27  and  N6_28 
ROOT
HETATM    1  N1  UNL     1       3.240  -3.744  38.921  1.00  0.00    -0.388 N 
ATOM      2  H11 UNL     1       3.844  -3.702  39.742  1.00  0.00     0.157 HD
ATOM      3  H12 UNL     1       2.427  -3.189  39.188  1.00  0.00     0.157 HD
HETATM    4  C1  UNL     1       3.413  -4.334  37.797  1.00  0.00     0.092 C 
HETATM    5  N2  UNL     1       2.571  -4.393  36.651  1.00  0.00    -0.293 N 
ATOM      6  H2  UNL     1       1.618  -4.032  36.599  1.00  0.00     0.183 HD
HETATM    7  N3  UNL     1       3.265  -5.035  35.590  1.00  0.00    -0.134 NA
HETATM    8  C2  UNL     1       4.631  -4.751  35.949  1.00  0.00     0.117 C 
HETATM    9  C3  UNL     1       4.595  -5.140  37.409  1.00  0.00     0.075 C 
HETATM   10  C4  UNL     1       5.873  -4.733  38.016  1.00  0.00     0.014 C 
HETATM   11  C5  UNL     1       6.997  -5.423  37.278  1.00  0.00     0.006 C 
HETATM   12  C6  UNL     1       7.021  -5.214  35.821  1.00  0.00    -0.006 C 
HETATM   13  C7  UNL     1       7.862  -6.327  35.168  1.00  0.00     0.012 C 
HETATM   14  C8  UNL     1       7.016  -6.966  34.134  1.00  0.00     0.026 C 
HETATM   15  C14 UNL     1       5.590  -6.753  34.742  1.00  0.00     0.194 C 
HETATM   16  C15 UNL     1       5.691  -5.338  35.137  1.00  0.00     0.042 C 
ENDROOT
BRANCH  14  17
HETATM   17  C9  UNL     1       7.203  -8.369  33.790  1.00  0.00     0.080 C 
BRANCH  17  18
HETATM   18  S1  UNL     1       8.462  -9.295  34.551  1.00  0.00    -0.169 SA
BRANCH  18  19
HETATM   19  C10 UNL     1       8.111 -10.292  35.951  1.00  0.00     0.076 C 
BRANCH  19  20
HETATM   20  C11 UNL     1       7.904 -11.762  35.671  1.00  0.00     0.052 C 
BRANCH  20  21
HETATM   21  C12 UNL     1       6.672 -11.956  34.776  1.00  0.00     0.272 C 
BRANCH  21  22
HETATM   22  N4  UNL     1       5.743 -12.742  35.573  1.00  0.00    -0.067 N 
ATOM     23  H43 UNL     1       6.015 -13.719  35.681  1.00  0.00     0.275 HD
ATOM     24  H42 UNL     1       5.751 -12.507  36.565  1.00  0.00     0.275 HD
ATOM     25  H41 UNL     1       4.835 -12.614  35.127  1.00  0.00     0.275 HD
ENDBRANCH  21  22
BRANCH  21  26
HETATM   26  C13 UNL     1       7.057 -12.552  33.503  1.00  0.00     0.261 C 
HETATM   27  N5  UNL     1       6.142 -12.866  32.480  1.00  0.00    -0.060 NA
HETATM   28  O1  UNL     1       8.280 -12.823  33.269  1.00  0.00    -0.275 OA
ENDBRANCH  21  26
ENDBRANCH  20  21
ENDBRANCH  19  20
ENDBRANCH  18  19
ENDBRANCH  17  18
ENDBRANCH  14  17
BRANCH  15  29
HETATM   29  N6  UNL     1       5.350  -7.722  35.736  1.00  0.00    -0.074 N 
ATOM     30  H63 UNL     1       6.209  -8.175  36.047  1.00  0.00     0.274 HD
ATOM     31  H62 UNL     1       5.076  -7.302  36.625  1.00  0.00     0.274 HD
ATOM     32  H61 UNL     1       4.660  -8.394  35.401  1.00  0.00     0.274 HD
ENDBRANCH  15  29
TORSDOF 8
ENDMDL
MODEL 5
REMARK VINA RESULT: -6.537954768      2.426      6.504
REMARK  8 active torsions:
REMARK  status: ('A' for Active; 'I' for Inactive)
REMARK    1  A    between atoms: C8_14  and  C9_15 
REMARK    2  A    between atoms: C9_15  and  S1_16 
REMARK    3  A    between atoms: S1_16  and  C10_17 
REMARK    4  A    between atoms: C10_17  and  C11_18 
REMARK    5  A    between atoms: C11_18  and  C12_19 
REMARK    6  A    between atoms: C12_19  and  N4_20 
REMARK    7  A    between atoms: C12_19  and  C13_24 
REMARK    8  A    between atoms: C14_27  and  N6_28 
ROOT
HETATM    1  N1  UNL     1       3.285  -3.754  38.923  1.00  0.00    -0.388 N 
ATOM      2  H11 UNL     1       3.922  -3.664  39.715  1.00  0.00     0.157 HD
ATOM      3  H12 UNL     1       2.473  -3.203  39.200  1.00  0.00     0.157 HD
HETATM    4  C1  UNL     1       3.423  -4.390  37.818  1.00  0.00     0.092 C 
HETATM    5  N2  UNL     1       2.534  -4.515  36.713  1.00  0.00    -0.293 N 
ATOM      6  H2  UNL     1       1.573  -4.174  36.687  1.00  0.00     0.183 HD
HETATM    7  N3  UNL     1       3.196  -5.190  35.653  1.00  0.00    -0.134 NA
HETATM    8  C2  UNL     1       4.569  -4.867  35.941  1.00  0.00     0.117 C 
HETATM    9  C3  UNL     1       4.603  -5.191  37.416  1.00  0.00     0.075 C 
HETATM   10  C4  UNL     1       5.896  -4.734  37.949  1.00  0.00     0.014 C 
HETATM   11  C5  UNL     1       7.003  -5.437  37.195  1.00  0.00     0.006 C 
HETATM   12  C6  UNL     1       6.961  -5.291  35.730  1.00  0.00    -0.006 C 
HETATM   13  C7  UNL     1       7.796  -6.418  35.090  1.00  0.00     0.012 C 
HETATM   14  C8  UNL     1       6.920  -7.117  34.123  1.00  0.00     0.026 C 
HETATM   15  C14 UNL     1       5.517  -6.903  34.781  1.00  0.00     0.194 C 
HETATM   16  C15 UNL     1       5.606  -5.470  35.110  1.00  0.00     0.042 C 
ENDROOT
BRANCH  14  17
HETATM   17  C9  UNL     1       7.120  -8.530  33.833  1.00  0.00     0.080 C 
BRANCH  17  18
HETATM   18  S1  UNL     1       8.281  -9.453  34.740  1.00  0.00    -0.169 SA
BRANCH  18  19
HETATM   19  C10 UNL     1       7.829 -10.984  35.467  1.00  0.00     0.076 C 
BRANCH  19  20
HETATM   20  C11 UNL     1       6.970 -11.884  34.611  1.00  0.00     0.052 C 
BRANCH  20  21
HETATM   21  C12 UNL     1       5.716 -12.307  35.389  1.00  0.00     0.272 C 
BRANCH  21  22
HETATM   22  N4  UNL     1       5.273 -13.540  34.758  1.00  0.00    -0.067 N 
ATOM     23  H43 UNL     1       4.552 -13.405  34.049  1.00  0.00     0.275 HD
ATOM     24  H42 UNL     1       5.968 -13.959  34.140  1.00  0.00     0.275 HD
ATOM     25  H41 UNL     1       4.987 -14.147  35.526  1.00  0.00     0.275 HD
ENDBRANCH  21  22
BRANCH  21  26
HETATM   26  C13 UNL     1       4.736 -11.228  35.402  1.00  0.00     0.261 C 
HETATM   27  N5  UNL     1       4.061 -10.802  36.562  1.00  0.00    -0.060 NA
HETATM   28  O1  UNL     1       4.446 -10.617  34.323  1.00  0.00    -0.275 OA
ENDBRANCH  21  26
ENDBRANCH  20  21
ENDBRANCH  19  20
ENDBRANCH  18  19
ENDBRANCH  17  18
ENDBRANCH  14  17
BRANCH  15  29
HETATM   29  N6  UNL     1       5.338  -7.831  35.827  1.00  0.00    -0.074 N 
ATOM     30  H63 UNL     1       6.217  -8.262  36.113  1.00  0.00     0.274 HD
ATOM     31  H62 UNL     1       5.104  -7.376  36.709  1.00  0.00     0.274 HD
ATOM     32  H61 UNL     1       4.640  -8.523  35.555  1.00  0.00     0.274 HD
ENDBRANCH  15  29
TORSDOF 8
ENDMDL
