MODEL 1
REMARK VINA RESULT: -6.307510446      0.000      0.000
REMARK  9 active torsions:
REMARK  status: ('A' for Active; 'I' for Inactive)
REMARK    1  A    between atoms: C2_2  and  S1_3 
REMARK    2  A    between atoms: C2_2  and  C9_20 
REMARK    3  A    between atoms: S1_3  and  S2_4 
REMARK    4  A    between atoms: S2_4  and  C3_5 
REMARK    5  A    between atoms: C4_7  and  C5_8 
REMARK    6  A    between atoms: C5_8  and  O2_9 
REMARK    7  A    between atoms: C6_11  and  O3_12 
REMARK    8  A    between atoms: C7_14  and  O4_15 
REMARK    9  A    between atoms: C8_17  and  O5_18 
ROOT
HETATM    1  C3  UNL     1       0.568   2.695   8.285  1.00  0.00     0.225 C 
HETATM    2  O1  UNL     1      -0.081   1.684   9.017  1.00  0.00    -0.362 OA
HETATM    3  C4  UNL     1       0.698   1.299  10.116  1.00  0.00     0.178 C 
HETATM    4  C6  UNL     1       1.934   0.643   9.576  1.00  0.00     0.180 C 
HETATM    5  C7  UNL     1       2.048   0.695   8.084  1.00  0.00     0.181 C 
HETATM    6  C8  UNL     1       1.678   2.048   7.508  1.00  0.00     0.189 C 
ENDROOT
BRANCH   1   7
HETATM    7  S2  UNL     1      -0.687   3.449   7.232  1.00  0.00    -0.062 SA
BRANCH   7   8
HETATM    8  S1  UNL     1      -2.019   4.694   8.264  1.00  0.00    -0.090 SA
BRANCH   8   9
HETATM    9  C2  UNL     1      -1.431   6.386   8.452  1.00  0.00     0.062 C 
HETATM   10  C1  UNL     1      -2.371   7.288   7.683  1.00  0.00     0.023 C 
BRANCH   9  11
HETATM   11  C9  UNL     1      -1.333   6.814   9.891  1.00  0.00    -0.038 C 
HETATM   12  C10 UNL     1      -1.538   5.617  10.794  1.00  0.00     0.015 C 
HETATM   13  C11 UNL     1      -2.302   7.883  10.259  1.00  0.00     0.015 C 
HETATM   14  C12 UNL     1       0.087   7.321  10.160  1.00  0.00     0.015 C 
ENDBRANCH   9  11
ENDBRANCH   8   9
ENDBRANCH   7   8
ENDBRANCH   1   7
BRANCH   6  15
HETATM   15  O5  UNL     1       2.816   2.847   7.535  1.00  0.00    -0.389 OA
ATOM     16  H5  UNL     1       3.473   2.507   6.940  1.00  0.00     0.210 HD
ENDBRANCH   6  15
BRANCH   3  17
HETATM   17  C5  UNL     1      -0.161   0.309  10.906  1.00  0.00     0.198 C 
BRANCH  17  18
HETATM   18  O2  UNL     1       0.632  -0.451  11.764  1.00  0.00    -0.398 OA
ATOM     19  H2  UNL     1       0.131  -1.170  12.131  1.00  0.00     0.209 HD
ENDBRANCH  17  18
ENDBRANCH   3  17
BRANCH   5  20
HETATM   20  O4  UNL     1       3.406   0.486   7.766  1.00  0.00    -0.390 OA
ATOM     21  H4  UNL     1       3.673   1.204   7.203  1.00  0.00     0.210 HD
ENDBRANCH   5  20
BRANCH   4  22
HETATM   22  O3  UNL     1       3.044   1.169  10.228  1.00  0.00    -0.390 OA
ATOM     23  H3  UNL     1       2.803   1.999  10.622  1.00  0.00     0.210 HD
ENDBRANCH   4  22
TORSDOF 9
ENDMDL
MODEL 2
REMARK VINA RESULT: -6.276801499      0.714      1.536
REMARK  9 active torsions:
REMARK  status: ('A' for Active; 'I' for Inactive)
REMARK    1  A    between atoms: C2_2  and  S1_3 
REMARK    2  A    between atoms: C2_2  and  C9_20 
REMARK    3  A    between atoms: S1_3  and  S2_4 
REMARK    4  A    between atoms: S2_4  and  C3_5 
REMARK    5  A    between atoms: C4_7  and  C5_8 
REMARK    6  A    between atoms: C5_8  and  O2_9 
REMARK    7  A    between atoms: C6_11  and  O3_12 
REMARK    8  A    between atoms: C7_14  and  O4_15 
REMARK    9  A    between atoms: C8_17  and  O5_18 
ROOT
HETATM    1  C3  UNL     1       0.479   2.816   8.519  1.00  0.00     0.225 C 
HETATM    2  O1  UNL     1      -0.138   1.752   9.202  1.00  0.00    -0.362 OA
HETATM    3  C4  UNL     1       0.694   1.279  10.225  1.00  0.00     0.178 C 
HETATM    4  C6  UNL     1       1.895   0.663   9.570  1.00  0.00     0.180 C 
HETATM    5  C7  UNL     1       1.931   0.833   8.083  1.00  0.00     0.181 C 
HETATM    6  C8  UNL     1       1.542   2.229   7.636  1.00  0.00     0.189 C 
ENDROOT
BRANCH   1   7
HETATM    7  S2  UNL     1      -0.823   3.656   7.596  1.00  0.00    -0.062 SA
BRANCH   7   8
HETATM    8  S1  UNL     1      -0.837   5.735   7.857  1.00  0.00    -0.090 SA
BRANCH   8   9
HETATM    9  C2  UNL     1      -1.860   6.285   9.233  1.00  0.00     0.062 C 
HETATM   10  C1  UNL     1      -1.313   5.654  10.495  1.00  0.00     0.023 C 
BRANCH   9  11
HETATM   11  C9  UNL     1      -1.910   7.784   9.361  1.00  0.00    -0.038 C 
HETATM   12  C10 UNL     1      -2.825   8.356   8.300  1.00  0.00     0.015 C 
HETATM   13  C11 UNL     1      -0.574   8.432   9.264  1.00  0.00     0.015 C 
HETATM   14  C12 UNL     1      -2.537   8.143  10.711  1.00  0.00     0.015 C 
ENDBRANCH   9  11
ENDBRANCH   8   9
ENDBRANCH   7   8
ENDBRANCH   1   7
BRANCH   6  15
HETATM   15  O5  UNL     1       2.686   3.020   7.666  1.00  0.00    -0.389 OA
ATOM     16  H5  UNL     1       3.351   2.618   8.212  1.00  0.00     0.210 HD
ENDBRANCH   6  15
BRANCH   3  17
HETATM   17  C5  UNL     1      -0.130   0.232  10.977  1.00  0.00     0.198 C 
BRANCH  17  18
HETATM   18  O2  UNL     1       0.694  -0.557  11.779  1.00  0.00    -0.398 OA
ATOM     19  H2  UNL     1       0.908  -1.370  11.338  1.00  0.00     0.209 HD
ENDBRANCH  17  18
ENDBRANCH   3  17
BRANCH   5  20
HETATM   20  O4  UNL     1       3.269   0.645   7.678  1.00  0.00    -0.390 OA
ATOM     21  H4  UNL     1       3.323   0.908   6.766  1.00  0.00     0.210 HD
ENDBRANCH   5  20
BRANCH   4  22
HETATM   22  O3  UNL     1       3.041   1.132  10.202  1.00  0.00    -0.390 OA
ATOM     23  H3  UNL     1       2.787   1.732  10.893  1.00  0.00     0.210 HD
ENDBRANCH   4  22
TORSDOF 9
ENDMDL
MODEL 3
REMARK VINA RESULT: -6.184506413      3.168      4.930
REMARK  9 active torsions:
REMARK  status: ('A' for Active; 'I' for Inactive)
REMARK    1  A    between atoms: C2_2  and  S1_3 
REMARK    2  A    between atoms: C2_2  and  C9_20 
REMARK    3  A    between atoms: S1_3  and  S2_4 
REMARK    4  A    between atoms: S2_4  and  C3_5 
REMARK    5  A    between atoms: C4_7  and  C5_8 
REMARK    6  A    between atoms: C5_8  and  O2_9 
REMARK    7  A    between atoms: C6_11  and  O3_12 
REMARK    8  A    between atoms: C7_14  and  O4_15 
REMARK    9  A    between atoms: C8_17  and  O5_18 
ROOT
HETATM    1  C3  UNL     1      -0.312   5.451   8.425  1.00  0.00     0.225 C 
HETATM    2  O1  UNL     1      -0.478   5.844   7.085  1.00  0.00    -0.362 OA
HETATM    3  C4  UNL     1      -1.729   5.434   6.606  1.00  0.00     0.178 C 
HETATM    4  C6  UNL     1      -1.718   3.934   6.563  1.00  0.00     0.180 C 
HETATM    5  C7  UNL     1      -0.480   3.319   7.139  1.00  0.00     0.181 C 
HETATM    6  C8  UNL     1      -0.038   3.975   8.433  1.00  0.00     0.189 C 
ENDROOT
BRANCH   1   7
HETATM    7  S2  UNL     1       1.056   6.428   9.080  1.00  0.00    -0.062 SA
BRANCH   7   8
HETATM    8  S1  UNL     1       0.454   7.975  10.357  1.00  0.00    -0.090 SA
BRANCH   8   9
HETATM    9  C2  UNL     1      -0.715   9.121   9.605  1.00  0.00     0.062 C 
HETATM   10  C1  UNL     1      -0.406   9.189   8.125  1.00  0.00     0.023 C 
BRANCH   9  11
HETATM   11  C9  UNL     1      -2.149   8.728   9.836  1.00  0.00    -0.038 C 
HETATM   12  C10 UNL     1      -2.208   7.542  10.774  1.00  0.00     0.015 C 
HETATM   13  C11 UNL     1      -2.885   8.405   8.583  1.00  0.00     0.015 C 
HETATM   14  C12 UNL     1      -2.867   9.878  10.548  1.00  0.00     0.015 C 
ENDBRANCH   9  11
ENDBRANCH   8   9
ENDBRANCH   7   8
ENDBRANCH   1   7
BRANCH   6  15
HETATM   15  O5  UNL     1      -0.722   3.362   9.476  1.00  0.00    -0.389 OA
ATOM     16  H5  UNL     1      -0.675   2.417   9.392  1.00  0.00     0.210 HD
ENDBRANCH   6  15
BRANCH   3  17
HETATM   17  C5  UNL     1      -1.851   6.032   5.204  1.00  0.00     0.198 C 
BRANCH  17  18
HETATM   18  O2  UNL     1      -3.191   6.204   4.859  1.00  0.00    -0.398 OA
ATOM     19  H2  UNL     1      -3.310   6.103   3.922  1.00  0.00     0.209 HD
ENDBRANCH  17  18
ENDBRANCH   3  17
BRANCH   5  20
HETATM   20  O4  UNL     1      -0.794   1.981   7.459  1.00  0.00    -0.390 OA
ATOM     21  H4  UNL     1      -1.195   1.989   8.320  1.00  0.00     0.210 HD
ENDBRANCH   5  20
BRANCH   4  22
HETATM   22  O3  UNL     1      -2.886   3.459   7.147  1.00  0.00    -0.390 OA
ATOM     23  H3  UNL     1      -3.380   2.976   6.495  1.00  0.00     0.210 HD
ENDBRANCH   4  22
TORSDOF 9
ENDMDL
MODEL 4
REMARK VINA RESULT: -6.182374217      2.927      4.525
REMARK  9 active torsions:
REMARK  status: ('A' for Active; 'I' for Inactive)
REMARK    1  A    between atoms: C2_2  and  S1_3 
REMARK    2  A    between atoms: C2_2  and  C9_20 
REMARK    3  A    between atoms: S1_3  and  S2_4 
REMARK    4  A    between atoms: S2_4  and  C3_5 
REMARK    5  A    between atoms: C4_7  and  C5_8 
REMARK    6  A    between atoms: C5_8  and  O2_9 
REMARK    7  A    between atoms: C6_11  and  O3_12 
REMARK    8  A    between atoms: C7_14  and  O4_15 
REMARK    9  A    between atoms: C8_17  and  O5_18 
ROOT
HETATM    1  C3  UNL     1       0.217   5.173   7.833  1.00  0.00     0.225 C 
HETATM    2  O1  UNL     1       0.606   5.127   6.482  1.00  0.00    -0.362 OA
HETATM    3  C4  UNL     1      -0.445   4.656   5.685  1.00  0.00     0.178 C 
HETATM    4  C6  UNL     1      -0.678   3.222   6.061  1.00  0.00     0.180 C 
HETATM    5  C7  UNL     1       0.150   2.755   7.218  1.00  0.00     0.181 C 
HETATM    6  C8  UNL     1       0.212   3.763   8.349  1.00  0.00     0.189 C 
ENDROOT
BRANCH   1   7
HETATM    7  S2  UNL     1       1.412   6.230   8.675  1.00  0.00    -0.062 SA
BRANCH   7   8
HETATM    8  S1  UNL     1       0.607   7.293  10.291  1.00  0.00    -0.090 SA
BRANCH   8   9
HETATM    9  C2  UNL     1      -0.617   8.524   9.809  1.00  0.00     0.062 C 
HETATM   10  C1  UNL     1      -0.304   8.956   8.394  1.00  0.00     0.023 C 
BRANCH   9  11
HETATM   11  C9  UNL     1      -2.030   8.016   9.916  1.00  0.00    -0.038 C 
HETATM   12  C10 UNL     1      -2.022   6.590  10.423  1.00  0.00     0.015 C 
HETATM   13  C11 UNL     1      -2.781   8.080   8.632  1.00  0.00     0.015 C 
HETATM   14  C12 UNL     1      -2.774   8.844  10.967  1.00  0.00     0.015 C 
ENDBRANCH   9  11
ENDBRANCH   8   9
ENDBRANCH   7   8
ENDBRANCH   1   7
BRANCH   6  15
HETATM   15  O5  UNL     1      -0.892   3.552   9.168  1.00  0.00    -0.389 OA
ATOM     16  H5  UNL     1      -1.689   3.532   8.650  1.00  0.00     0.210 HD
ENDBRANCH   6  15
BRANCH   3  17
HETATM   17  C5  UNL     1       0.041   4.782   4.240  1.00  0.00     0.198 C 
BRANCH  17  18
HETATM   18  O2  UNL     1      -0.171   3.593   3.545  1.00  0.00    -0.398 OA
ATOM     19  H2  UNL     1      -0.096   3.735   2.609  1.00  0.00     0.209 HD
ENDBRANCH  17  18
ENDBRANCH   3  17
BRANCH   5  20
HETATM   20  O4  UNL     1      -0.483   1.608   7.742  1.00  0.00    -0.390 OA
ATOM     21  H4  UNL     1      -0.836   1.849   8.591  1.00  0.00     0.210 HD
ENDBRANCH   5  20
BRANCH   4  22
HETATM   22  O3  UNL     1      -2.041   3.022   6.249  1.00  0.00    -0.390 OA
ATOM     23  H3  UNL     1      -2.168   2.229   6.756  1.00  0.00     0.210 HD
ENDBRANCH   4  22
TORSDOF 9
ENDMDL
MODEL 5
REMARK VINA RESULT: -6.031405584      2.933      4.677
REMARK  9 active torsions:
REMARK  status: ('A' for Active; 'I' for Inactive)
REMARK    1  A    between atoms: C2_2  and  S1_3 
REMARK    2  A    between atoms: C2_2  and  C9_20 
REMARK    3  A    between atoms: S1_3  and  S2_4 
REMARK    4  A    between atoms: S2_4  and  C3_5 
REMARK    5  A    between atoms: C4_7  and  C5_8 
REMARK    6  A    between atoms: C5_8  and  O2_9 
REMARK    7  A    between atoms: C6_11  and  O3_12 
REMARK    8  A    between atoms: C7_14  and  O4_15 
REMARK    9  A    between atoms: C8_17  and  O5_18 
ROOT
HETATM    1  C3  UNL     1       0.157   5.140   7.720  1.00  0.00     0.225 C 
HETATM    2  O1  UNL     1       0.636   5.012   6.404  1.00  0.00    -0.362 OA
HETATM    3  C4  UNL     1      -0.360   4.489   5.569  1.00  0.00     0.178 C 
HETATM    4  C6  UNL     1      -0.619   3.080   6.017  1.00  0.00     0.180 C 
HETATM    5  C7  UNL     1       0.129   2.688   7.253  1.00  0.00     0.181 C 
HETATM    6  C8  UNL     1       0.116   3.765   8.322  1.00  0.00     0.189 C 
ENDROOT
BRANCH   1   7
HETATM    7  S2  UNL     1       1.293   6.251   8.574  1.00  0.00    -0.062 SA
BRANCH   7   8
HETATM    8  S1  UNL     1       0.341   7.827   9.573  1.00  0.00    -0.090 SA
BRANCH   8   9
HETATM    9  C2  UNL     1      -1.453   7.668   9.633  1.00  0.00     0.062 C 
HETATM   10  C1  UNL     1      -1.787   6.604  10.656  1.00  0.00     0.023 C 
BRANCH   9  11
HETATM   11  C9  UNL     1      -2.143   8.964   9.962  1.00  0.00    -0.038 C 
HETATM   12  C10 UNL     1      -1.275  10.127   9.534  1.00  0.00     0.015 C 
HETATM   13  C11 UNL     1      -2.485   9.105  11.404  1.00  0.00     0.015 C 
HETATM   14  C12 UNL     1      -3.430   9.060   9.138  1.00  0.00     0.015 C 
ENDBRANCH   9  11
ENDBRANCH   8   9
ENDBRANCH   7   8
ENDBRANCH   1   7
BRANCH   6  15
HETATM   15  O5  UNL     1      -1.042   3.601   9.076  1.00  0.00    -0.389 OA
ATOM     16  H5  UNL     1      -1.276   4.417   9.502  1.00  0.00     0.210 HD
ENDBRANCH   6  15
BRANCH   3  17
HETATM   17  C5  UNL     1       0.223   4.527   4.156  1.00  0.00     0.198 C 
BRANCH  17  18
HETATM   18  O2  UNL     1      -0.265   3.466   3.395  1.00  0.00    -0.398 OA
ATOM     19  H2  UNL     1      -1.038   3.093   3.801  1.00  0.00     0.209 HD
ENDBRANCH  17  18
ENDBRANCH   3  17
BRANCH   5  20
HETATM   20  O4  UNL     1      -0.538   1.574   7.804  1.00  0.00    -0.390 OA
ATOM     21  H4  UNL     1      -0.562   1.701   8.746  1.00  0.00     0.210 HD
ENDBRANCH   5  20
BRANCH   4  22
HETATM   22  O3  UNL     1      -1.991   2.888   6.124  1.00  0.00    -0.390 OA
ATOM     23  H3  UNL     1      -2.431   3.477   5.522  1.00  0.00     0.210 HD
ENDBRANCH   4  22
TORSDOF 9
ENDMDL
