MODEL 1
REMARK VINA RESULT: -5.808574145      0.000      0.000
REMARK  10 active torsions:
REMARK  status: ('A' for Active; 'I' for Inactive)
REMARK    1  A    between atoms: C4_4  and  C5_5 
REMARK    2  A    between atoms: C5_5  and  N1_6 
REMARK    3  A    between atoms: C5_5  and  C6_10 
REMARK    4  A    between atoms: C9_15  and  N3_16 
REMARK    5  A    between atoms: N3_16  and  C10_18 
REMARK    6  A    between atoms: C10_18  and  C11_19 
REMARK    7  A    between atoms: C10_18  and  C12_24 
REMARK    8  A    between atoms: C11_19  and  N4_20 
REMARK    9  A    between atoms: C13_27  and  N6_28 
REMARK       I    between atoms: N6_28  and  C14_30 
REMARK       I    between atoms: C14_30  and  N7_31 
REMARK       I    between atoms: C14_30  and  N8_35 
REMARK   10  A    between atoms: C15_41  and  N10_42 
REMARK       I    between atoms: N10_42  and  C16_44 
ROOT
HETATM    1  C12 UNL     1      -4.828  49.985  24.879  1.00  0.00     0.137 A 
HETATM    2  N5  UNL     1      -4.308  49.944  23.644  1.00  0.00    -0.177 N 
ATOM      3  H5  UNL     1      -3.423  49.459  23.506  1.00  0.00     0.185 HD
HETATM    4  C13 UNL     1      -4.900  50.513  22.580  1.00  0.00     0.697 A 
HETATM    5  N9  UNL     1      -6.072  51.150  22.788  1.00  0.00    -0.022 N 
ATOM      6  H9  UNL     1      -6.543  51.591  21.997  1.00  0.00     0.203 HD
HETATM    7  C15 UNL     1      -6.639  51.220  24.005  1.00  0.00     0.702 A 
HETATM    8  N12 UNL     1      -5.998  50.632  25.026  1.00  0.00    -0.177 N 
ATOM      9  H12 UNL     1      -6.417  50.677  25.956  1.00  0.00     0.185 HD
ENDROOT
BRANCH   1  10
HETATM   10  C10 UNL     1      -4.097  49.328  25.981  1.00  0.00     0.176 C 
BRANCH  10  11
HETATM   11  N3  UNL     1      -4.185  50.039  27.222  1.00  0.00    -0.376 N 
ATOM     12  H3  UNL     1      -4.873  49.688  27.887  1.00  0.00     0.160 HD
BRANCH  11  13
HETATM   13  C9  UNL     1      -3.448  51.157  27.639  1.00  0.00     0.034 A 
HETATM   14  C2  UNL     1      -2.687  51.066  28.781  1.00  0.00    -0.035 A 
HETATM   15  C1  UNL     1      -2.619  49.788  29.580  1.00  0.00     0.050 C 
HETATM   16  C3  UNL     1      -1.967  52.155  29.218  1.00  0.00     0.018 A 
HETATM   17  C4  UNL     1      -1.974  53.380  28.536  1.00  0.00    -0.019 A 
HETATM   18  C7  UNL     1      -2.741  53.422  27.412  1.00  0.00     0.012 A 
HETATM   19  C8  UNL     1      -3.472  52.342  26.957  1.00  0.00     0.030 A 
BRANCH  17  20
HETATM   20  C5  UNL     1      -1.151  54.473  29.092  1.00  0.00     0.304 C 
BRANCH  20  21
HETATM   21  N1  UNL     1      -0.565  54.047  30.360  1.00  0.00    -0.063 N 
ATOM     22  H13 UNL     1      -0.686  54.744  31.094  1.00  0.00     0.275 HD
ATOM     23  H12 UNL     1      -1.092  53.287  30.792  1.00  0.00     0.275 HD
ATOM     24  H11 UNL     1       0.415  53.803  30.217  1.00  0.00     0.275 HD
ENDBRANCH  20  21
BRANCH  20  25
HETATM   25  C6  UNL     1      -0.129  54.919  28.164  1.00  0.00     0.266 C 
HETATM   26  N2  UNL     1       0.768  53.972  27.581  1.00  0.00    -0.060 NA
HETATM   27  O1  UNL     1      -0.013  56.139  27.852  1.00  0.00    -0.274 OA
ENDBRANCH  20  25
ENDBRANCH  17  20
ENDBRANCH  11  13
ENDBRANCH  10  11
BRANCH  10  28
HETATM   28  C11 UNL     1      -4.504  47.897  26.010  1.00  0.00     0.262 C 
BRANCH  28  29
HETATM   29  N4  UNL     1      -4.865  47.437  27.341  1.00  0.00    -0.077 N 
ATOM     30  H43 UNL     1      -4.040  47.130  27.857  1.00  0.00     0.274 HD
ATOM     31  H42 UNL     1      -5.148  48.219  27.932  1.00  0.00     0.274 HD
ATOM     32  H41 UNL     1      -5.579  46.710  27.331  1.00  0.00     0.274 HD
ENDBRANCH  28  29
ENDBRANCH  10  28
ENDBRANCH   1  10
BRANCH   4  33
HETATM   33  N6  UNL     1      -4.419  50.486  21.386  1.00  0.00    -0.173 N 
HETATM   34  C14 UNL     1      -5.174  49.843  20.335  1.00  0.00     0.494 C 
HETATM   35  N7  UNL     1      -4.326  48.806  19.745  1.00  0.00    -0.032 N 
HETATM   36  N8  UNL     1      -5.463  50.791  19.269  1.00  0.00    -0.032 N 
ATOM     37  H73 UNL     1      -3.427  49.165  19.422  1.00  0.00     0.278 HD
ATOM     38  H72 UNL     1      -3.968  48.146  20.435  1.00  0.00     0.278 HD
ATOM     39  H71 UNL     1      -4.860  48.352  19.003  1.00  0.00     0.278 HD
ATOM     40  H83 UNL     1      -5.932  51.626  19.620  1.00  0.00     0.278 HD
ATOM     41  H82 UNL     1      -4.615  51.234  18.913  1.00  0.00     0.278 HD
ATOM     42  H81 UNL     1      -5.996  50.337  18.528  1.00  0.00     0.278 HD
ATOM     43  H6  UNL     1      -3.515  50.914  21.183  1.00  0.00     0.181 HD
ENDBRANCH   4  33
BRANCH   7  44
HETATM   44  N10 UNL     1      -7.757  51.822  24.227  1.00  0.00    -0.143 N 
HETATM   45  C16 UNL     1      -7.909  52.918  25.089  1.00  0.00     0.346 C 
HETATM   46  N11 UNL     1      -8.079  54.236  24.594  1.00  0.00    -0.039 NA
HETATM   47  O2  UNL     1      -7.899  52.746  26.336  1.00  0.00    -0.250 OA
ATOM     48  H10 UNL     1      -8.586  51.479  23.744  1.00  0.00     0.188 HD
ENDBRANCH   7  44
TORSDOF 10
ENDMDL
MODEL 2
REMARK VINA RESULT: -5.646654278      7.783     11.257
REMARK  10 active torsions:
REMARK  status: ('A' for Active; 'I' for Inactive)
REMARK    1  A    between atoms: C4_4  and  C5_5 
REMARK    2  A    between atoms: C5_5  and  N1_6 
REMARK    3  A    between atoms: C5_5  and  C6_10 
REMARK    4  A    between atoms: C9_15  and  N3_16 
REMARK    5  A    between atoms: N3_16  and  C10_18 
REMARK    6  A    between atoms: C10_18  and  C11_19 
REMARK    7  A    between atoms: C10_18  and  C12_24 
REMARK    8  A    between atoms: C11_19  and  N4_20 
REMARK    9  A    between atoms: C13_27  and  N6_28 
REMARK       I    between atoms: N6_28  and  C14_30 
REMARK       I    between atoms: C14_30  and  N7_31 
REMARK       I    between atoms: C14_30  and  N8_35 
REMARK   10  A    between atoms: C15_41  and  N10_42 
REMARK       I    between atoms: N10_42  and  C16_44 
ROOT
HETATM    1  C12 UNL     1       3.498  54.786  29.043  1.00  0.00     0.137 A 
HETATM    2  N5  UNL     1       3.865  53.525  29.312  1.00  0.00    -0.177 N 
ATOM      3  H5  UNL     1       3.136  52.841  29.516  1.00  0.00     0.185 HD
HETATM    4  C13 UNL     1       5.146  53.119  29.326  1.00  0.00     0.697 A 
HETATM    5  N9  UNL     1       6.092  54.042  29.053  1.00  0.00    -0.022 N 
ATOM      6  H9  UNL     1       7.073  53.762  29.057  1.00  0.00     0.203 HD
HETATM    7  C15 UNL     1       5.782  55.321  28.775  1.00  0.00     0.702 A 
HETATM    8  N12 UNL     1       4.484  55.662  28.777  1.00  0.00    -0.177 N 
ATOM      9  H12 UNL     1       4.234  56.629  28.568  1.00  0.00     0.185 HD
ENDROOT
BRANCH   1  10
HETATM   10  C10 UNL     1       2.062  55.128  29.054  1.00  0.00     0.176 C 
BRANCH  10  11
HETATM   11  N3  UNL     1       1.612  55.717  27.827  1.00  0.00    -0.376 N 
ATOM     12  H3  UNL     1       2.102  55.418  26.985  1.00  0.00     0.160 HD
BRANCH  11  13
HETATM   13  C9  UNL     1       0.584  56.652  27.636  1.00  0.00     0.034 A 
HETATM   14  C2  UNL     1       0.905  57.985  27.530  1.00  0.00    -0.035 A 
HETATM   15  C1  UNL     1       2.337  58.456  27.600  1.00  0.00     0.050 C 
HETATM   16  C3  UNL     1      -0.089  58.922  27.357  1.00  0.00     0.018 A 
HETATM   17  C4  UNL     1      -1.444  58.569  27.282  1.00  0.00    -0.019 A 
HETATM   18  C7  UNL     1      -1.713  57.240  27.391  1.00  0.00     0.012 A 
HETATM   19  C8  UNL     1      -0.732  56.284  27.567  1.00  0.00     0.030 A 
BRANCH  17  20
HETATM   20  C5  UNL     1      -2.421  59.660  27.081  1.00  0.00     0.304 C 
BRANCH  20  21
HETATM   21  N1  UNL     1      -2.142  60.743  28.020  1.00  0.00    -0.063 N 
ATOM     22  H13 UNL     1      -2.339  61.660  27.619  1.00  0.00     0.275 HD
ATOM     23  H12 UNL     1      -2.815  60.771  28.787  1.00  0.00     0.275 HD
ATOM     24  H11 UNL     1      -1.181  60.666  28.354  1.00  0.00     0.275 HD
ENDBRANCH  20  21
BRANCH  20  25
HETATM   25  C6  UNL     1      -2.434  60.141  25.713  1.00  0.00     0.266 C 
HETATM   26  N2  UNL     1      -2.122  61.507  25.434  1.00  0.00    -0.060 NA
HETATM   27  O1  UNL     1      -2.714  59.372  24.749  1.00  0.00    -0.274 OA
ENDBRANCH  20  25
ENDBRANCH  17  20
ENDBRANCH  11  13
ENDBRANCH  10  11
BRANCH  10  28
HETATM   28  C11 UNL     1       1.311  53.933  29.526  1.00  0.00     0.262 C 
BRANCH  28  29
HETATM   29  N4  UNL     1       0.472  54.210  30.680  1.00  0.00    -0.077 N 
ATOM     30  H43 UNL     1      -0.138  55.009  30.504  1.00  0.00     0.274 HD
ATOM     31  H42 UNL     1      -0.236  53.485  30.798  1.00  0.00     0.274 HD
ATOM     32  H41 UNL     1       1.006  54.342  31.538  1.00  0.00     0.274 HD
ENDBRANCH  28  29
ENDBRANCH  10  28
ENDBRANCH   1  10
BRANCH   4  33
HETATM   33  N6  UNL     1       5.519  51.914  29.582  1.00  0.00    -0.173 N 
HETATM   34  C14 UNL     1       5.971  51.583  30.914  1.00  0.00     0.494 C 
HETATM   35  N7  UNL     1       7.322  51.031  30.805  1.00  0.00    -0.032 N 
HETATM   36  N8  UNL     1       5.143  50.527  31.479  1.00  0.00    -0.032 N 
ATOM     37  H73 UNL     1       7.377  50.242  30.162  1.00  0.00     0.278 HD
ATOM     38  H72 UNL     1       7.965  51.652  30.312  1.00  0.00     0.278 HD
ATOM     39  H71 UNL     1       7.641  50.798  31.745  1.00  0.00     0.278 HD
ATOM     40  H83 UNL     1       4.152  50.770  31.461  1.00  0.00     0.278 HD
ATOM     41  H82 UNL     1       5.107  49.706  30.874  1.00  0.00     0.278 HD
ATOM     42  H81 UNL     1       5.461  50.294  32.419  1.00  0.00     0.278 HD
ATOM     43  H6  UNL     1       5.496  51.200  28.853  1.00  0.00     0.181 HD
ENDBRANCH   4  33
BRANCH   7  44
HETATM   44  N10 UNL     1       6.668  56.219  28.511  1.00  0.00    -0.143 N 
HETATM   45  C16 UNL     1       7.966  55.942  28.059  1.00  0.00     0.346 C 
HETATM   46  N11 UNL     1       8.342  56.146  26.706  1.00  0.00    -0.039 NA
HETATM   47  O2  UNL     1       8.832  55.503  28.858  1.00  0.00    -0.250 OA
ATOM     48  H10 UNL     1       6.408  57.196  28.640  1.00  0.00     0.188 HD
ENDBRANCH   7  44
TORSDOF 10
ENDMDL
MODEL 3
REMARK VINA RESULT: -5.645800469      7.696     12.079
REMARK  10 active torsions:
REMARK  status: ('A' for Active; 'I' for Inactive)
REMARK    1  A    between atoms: C4_4  and  C5_5 
REMARK    2  A    between atoms: C5_5  and  N1_6 
REMARK    3  A    between atoms: C5_5  and  C6_10 
REMARK    4  A    between atoms: C9_15  and  N3_16 
REMARK    5  A    between atoms: N3_16  and  C10_18 
REMARK    6  A    between atoms: C10_18  and  C11_19 
REMARK    7  A    between atoms: C10_18  and  C12_24 
REMARK    8  A    between atoms: C11_19  and  N4_20 
REMARK    9  A    between atoms: C13_27  and  N6_28 
REMARK       I    between atoms: N6_28  and  C14_30 
REMARK       I    between atoms: C14_30  and  N7_31 
REMARK       I    between atoms: C14_30  and  N8_35 
REMARK   10  A    between atoms: C15_41  and  N10_42 
REMARK       I    between atoms: N10_42  and  C16_44 
ROOT
HETATM    1  C12 UNL     1       5.518  56.289  28.816  1.00  0.00     0.137 A 
HETATM    2  N5  UNL     1       6.699  56.528  28.228  1.00  0.00    -0.177 N 
ATOM      3  H5  UNL     1       6.814  57.397  27.706  1.00  0.00     0.185 HD
HETATM    4  C13 UNL     1       7.737  55.678  28.294  1.00  0.00     0.697 A 
HETATM    5  N9  UNL     1       7.561  54.535  28.991  1.00  0.00    -0.022 N 
ATOM      6  H9  UNL     1       8.332  53.871  29.056  1.00  0.00     0.203 HD
HETATM    7  C15 UNL     1       6.398  54.245  29.600  1.00  0.00     0.702 A 
HETATM    8  N12 UNL     1       5.400  55.135  29.497  1.00  0.00    -0.177 N 
ATOM      9  H12 UNL     1       4.512  54.928  29.955  1.00  0.00     0.185 HD
ENDROOT
BRANCH   1  10
HETATM   10  C10 UNL     1       4.440  57.290  28.681  1.00  0.00     0.176 C 
BRANCH  10  11
HETATM   11  N3  UNL     1       3.194  56.857  29.241  1.00  0.00    -0.376 N 
ATOM     12  H3  UNL     1       3.258  56.305  30.095  1.00  0.00     0.160 HD
BRANCH  11  13
HETATM   13  C9  UNL     1       1.896  57.095  28.764  1.00  0.00     0.034 A 
HETATM   14  C2  UNL     1       1.137  56.030  28.337  1.00  0.00    -0.035 A 
HETATM   15  C1  UNL     1       1.666  54.618  28.385  1.00  0.00     0.050 C 
HETATM   16  C3  UNL     1      -0.134  56.241  27.851  1.00  0.00     0.018 A 
HETATM   17  C4  UNL     1      -0.701  57.521  27.771  1.00  0.00    -0.019 A 
HETATM   18  C7  UNL     1       0.086  58.542  28.206  1.00  0.00     0.012 A 
HETATM   19  C8  UNL     1       1.364  58.353  28.695  1.00  0.00     0.030 A 
BRANCH  17  20
HETATM   20  C5  UNL     1      -2.078  57.623  27.246  1.00  0.00     0.304 C 
BRANCH  20  21
HETATM   21  N1  UNL     1      -2.797  58.674  27.962  1.00  0.00    -0.063 N 
ATOM     22  H13 UNL     1      -2.165  59.356  28.382  1.00  0.00     0.275 HD
ATOM     23  H12 UNL     1      -3.291  59.304  27.328  1.00  0.00     0.275 HD
ATOM     24  H11 UNL     1      -3.422  58.252  28.650  1.00  0.00     0.275 HD
ENDBRANCH  20  21
BRANCH  20  25
HETATM   25  C6  UNL     1      -2.105  57.850  25.814  1.00  0.00     0.266 C 
HETATM   26  N2  UNL     1      -2.408  59.150  25.303  1.00  0.00    -0.060 NA
HETATM   27  O1  UNL     1      -1.862  56.917  24.996  1.00  0.00    -0.274 OA
ENDBRANCH  20  25
ENDBRANCH  17  20
ENDBRANCH  11  13
ENDBRANCH  10  11
BRANCH  10  28
HETATM   28  C11 UNL     1       4.964  58.595  29.169  1.00  0.00     0.262 C 
BRANCH  28  29
HETATM   29  N4  UNL     1       4.780  58.781  30.599  1.00  0.00    -0.077 N 
ATOM     30  H43 UNL     1       3.817  58.586  30.871  1.00  0.00     0.274 HD
ATOM     31  H42 UNL     1       5.253  58.047  31.126  1.00  0.00     0.274 HD
ATOM     32  H41 UNL     1       5.069  59.705  30.920  1.00  0.00     0.274 HD
ENDBRANCH  28  29
ENDBRANCH  10  28
ENDBRANCH   1  10
BRANCH   4  33
HETATM   33  N6  UNL     1       8.879  55.888  27.737  1.00  0.00    -0.173 N 
HETATM   34  C14 UNL     1       9.566  57.135  27.985  1.00  0.00     0.494 C 
HETATM   35  N7  UNL     1       9.818  57.773  26.692  1.00  0.00    -0.032 N 
HETATM   36  N8  UNL     1      10.872  56.881  28.577  1.00  0.00    -0.032 N 
ATOM     37  H73 UNL     1      10.320  57.167  26.043  1.00  0.00     0.278 HD
ATOM     38  H72 UNL     1       8.971  57.892  26.137  1.00  0.00     0.278 HD
ATOM     39  H71 UNL     1      10.303  58.652  26.868  1.00  0.00     0.278 HD
ATOM     40  H83 UNL     1      10.803  56.309  29.419  1.00  0.00     0.278 HD
ATOM     41  H82 UNL     1      11.431  56.244  28.008  1.00  0.00     0.278 HD
ATOM     42  H81 UNL     1      11.357  57.760  28.753  1.00  0.00     0.278 HD
ATOM     43  H6  UNL     1       9.294  55.183  27.128  1.00  0.00     0.181 HD
ENDBRANCH   4  33
BRANCH   7  44
HETATM   44  N10 UNL     1       6.206  53.161  30.270  1.00  0.00    -0.143 N 
HETATM   45  C16 UNL     1       5.129  52.286  30.070  1.00  0.00     0.346 C 
HETATM   46  N11 UNL     1       5.294  51.042  29.409  1.00  0.00    -0.039 NA
HETATM   47  O2  UNL     1       3.981  52.594  30.483  1.00  0.00    -0.250 OA
ATOM     48  H10 UNL     1       6.883  52.923  30.995  1.00  0.00     0.188 HD
ENDBRANCH   7  44
TORSDOF 10
ENDMDL
MODEL 4
REMARK VINA RESULT: -5.639040291      7.928     11.291
REMARK  10 active torsions:
REMARK  status: ('A' for Active; 'I' for Inactive)
REMARK    1  A    between atoms: C4_4  and  C5_5 
REMARK    2  A    between atoms: C5_5  and  N1_6 
REMARK    3  A    between atoms: C5_5  and  C6_10 
REMARK    4  A    between atoms: C9_15  and  N3_16 
REMARK    5  A    between atoms: N3_16  and  C10_18 
REMARK    6  A    between atoms: C10_18  and  C11_19 
REMARK    7  A    between atoms: C10_18  and  C12_24 
REMARK    8  A    between atoms: C11_19  and  N4_20 
REMARK    9  A    between atoms: C13_27  and  N6_28 
REMARK       I    between atoms: N6_28  and  C14_30 
REMARK       I    between atoms: C14_30  and  N7_31 
REMARK       I    between atoms: C14_30  and  N8_35 
REMARK   10  A    between atoms: C15_41  and  N10_42 
REMARK       I    between atoms: N10_42  and  C16_44 
ROOT
HETATM    1  C12 UNL     1       3.824  54.934  29.135  1.00  0.00     0.137 A 
HETATM    2  N5  UNL     1       4.698  55.841  28.678  1.00  0.00    -0.177 N 
ATOM      3  H5  UNL     1       4.336  56.715  28.296  1.00  0.00     0.185 HD
HETATM    4  C13 UNL     1       6.029  55.655  28.699  1.00  0.00     0.697 A 
HETATM    5  N9  UNL     1       6.485  54.491  29.210  1.00  0.00    -0.022 N 
ATOM      6  H9  UNL     1       7.490  54.323  29.238  1.00  0.00     0.203 HD
HETATM    7  C15 UNL     1       5.653  53.546  29.683  1.00  0.00     0.702 A 
HETATM    8  N12 UNL     1       4.335  53.794  29.633  1.00  0.00    -0.177 N 
ATOM      9  H12 UNL     1       3.692  53.086  29.989  1.00  0.00     0.185 HD
ENDROOT
BRANCH   1  10
HETATM   10  C10 UNL     1       2.381  55.238  29.065  1.00  0.00     0.176 C 
BRANCH  10  11
HETATM   11  N3  UNL     1       2.001  55.898  27.851  1.00  0.00    -0.376 N 
ATOM     12  H3  UNL     1       2.574  55.690  27.034  1.00  0.00     0.160 HD
BRANCH  11  13
HETATM   13  C9  UNL     1       0.942  56.794  27.641  1.00  0.00     0.034 A 
HETATM   14  C2  UNL     1       1.198  58.145  27.655  1.00  0.00    -0.035 A 
HETATM   15  C1  UNL     1       2.593  58.678  27.875  1.00  0.00     0.050 C 
HETATM   16  C3  UNL     1       0.172  59.043  27.466  1.00  0.00     0.018 A 
HETATM   17  C4  UNL     1      -1.152  58.632  27.255  1.00  0.00    -0.019 A 
HETATM   18  C7  UNL     1      -1.357  57.287  27.249  1.00  0.00     0.012 A 
HETATM   19  C8  UNL     1      -0.343  56.369  27.438  1.00  0.00     0.030 A 
BRANCH  17  20
HETATM   20  C5  UNL     1      -2.167  59.687  27.051  1.00  0.00     0.304 C 
BRANCH  20  21
HETATM   21  N1  UNL     1      -1.905  60.799  27.961  1.00  0.00    -0.063 N 
ATOM     22  H13 UNL     1      -2.571  60.829  28.734  1.00  0.00     0.275 HD
ATOM     23  H12 UNL     1      -1.054  60.658  28.507  1.00  0.00     0.275 HD
ATOM     24  H11 UNL     1      -1.886  61.673  27.435  1.00  0.00     0.275 HD
ENDBRANCH  20  21
BRANCH  20  25
HETATM   25  C6  UNL     1      -2.222  60.138  25.674  1.00  0.00     0.266 C 
HETATM   26  N2  UNL     1      -1.680  61.411  25.317  1.00  0.00    -0.060 NA
HETATM   27  O1  UNL     1      -2.741  59.423  24.769  1.00  0.00    -0.274 OA
ENDBRANCH  20  25
ENDBRANCH  17  20
ENDBRANCH  11  13
ENDBRANCH  10  11
BRANCH  10  28
HETATM   28  C11 UNL     1       1.634  53.995  29.401  1.00  0.00     0.262 C 
BRANCH  28  29
HETATM   29  N4  UNL     1       0.533  54.226  30.321  1.00  0.00    -0.077 N 
ATOM     30  H43 UNL     1      -0.050  55.002  30.004  1.00  0.00     0.274 HD
ATOM     31  H42 UNL     1      -0.151  53.471  30.267  1.00  0.00     0.274 HD
ATOM     32  H41 UNL     1       0.841  54.371  31.282  1.00  0.00     0.274 HD
ENDBRANCH  28  29
ENDBRANCH  10  28
ENDBRANCH   1  10
BRANCH   4  33
HETATM   33  N6  UNL     1       6.886  56.513  28.265  1.00  0.00    -0.173 N 
HETATM   34  C14 UNL     1       8.275  56.130  28.159  1.00  0.00     0.494 C 
HETATM   35  N7  UNL     1       9.062  57.076  28.953  1.00  0.00    -0.032 N 
HETATM   36  N8  UNL     1       8.732  56.270  26.784  1.00  0.00    -0.032 N 
ATOM     37  H73 UNL     1       8.898  58.047  28.689  1.00  0.00     0.278 HD
ATOM     38  H72 UNL     1       8.743  57.143  29.919  1.00  0.00     0.278 HD
ATOM     39  H71 UNL     1      10.043  56.805  28.878  1.00  0.00     0.278 HD
ATOM     40  H83 UNL     1       8.143  55.752  26.133  1.00  0.00     0.278 HD
ATOM     41  H82 UNL     1       8.567  57.210  26.422  1.00  0.00     0.278 HD
ATOM     42  H81 UNL     1       9.713  56.000  26.709  1.00  0.00     0.278 HD
ATOM     43  H6  UNL     1       6.588  57.451  28.000  1.00  0.00     0.181 HD
ENDBRANCH   4  33
BRANCH   7  44
HETATM   44  N10 UNL     1       6.064  52.429  30.175  1.00  0.00    -0.143 N 
HETATM   45  C16 UNL     1       5.247  51.310  30.392  1.00  0.00     0.346 C 
HETATM   46  N11 UNL     1       5.300  50.174  29.543  1.00  0.00    -0.039 NA
HETATM   47  O2  UNL     1       4.443  51.294  31.359  1.00  0.00    -0.250 OA
ATOM     48  H10 UNL     1       7.051  52.352  30.424  1.00  0.00     0.188 HD
ENDBRANCH   7  44
TORSDOF 10
ENDMDL
MODEL 5
REMARK VINA RESULT: -5.531057535      7.584     12.200
REMARK  10 active torsions:
REMARK  status: ('A' for Active; 'I' for Inactive)
REMARK    1  A    between atoms: C4_4  and  C5_5 
REMARK    2  A    between atoms: C5_5  and  N1_6 
REMARK    3  A    between atoms: C5_5  and  C6_10 
REMARK    4  A    between atoms: C9_15  and  N3_16 
REMARK    5  A    between atoms: N3_16  and  C10_18 
REMARK    6  A    between atoms: C10_18  and  C11_19 
REMARK    7  A    between atoms: C10_18  and  C12_24 
REMARK    8  A    between atoms: C11_19  and  N4_20 
REMARK    9  A    between atoms: C13_27  and  N6_28 
REMARK       I    between atoms: N6_28  and  C14_30 
REMARK       I    between atoms: C14_30  and  N7_31 
REMARK       I    between atoms: C14_30  and  N8_35 
REMARK   10  A    between atoms: C15_41  and  N10_42 
REMARK       I    between atoms: N10_42  and  C16_44 
ROOT
HETATM    1  C12 UNL     1       5.513  56.313  28.763  1.00  0.00     0.137 A 
HETATM    2  N5  UNL     1       6.708  56.557  28.206  1.00  0.00    -0.177 N 
ATOM      3  H5  UNL     1       6.831  57.421  27.679  1.00  0.00     0.185 HD
HETATM    4  C13 UNL     1       7.752  55.717  28.310  1.00  0.00     0.697 A 
HETATM    5  N9  UNL     1       7.566  54.580  29.014  1.00  0.00    -0.022 N 
ATOM      6  H9  UNL     1       8.342  53.924  29.108  1.00  0.00     0.203 HD
HETATM    7  C15 UNL     1       6.390  54.285  29.594  1.00  0.00     0.702 A 
HETATM    8  N12 UNL     1       5.387  55.165  29.453  1.00  0.00    -0.177 N 
ATOM      9  H12 UNL     1       4.488  54.955  29.888  1.00  0.00     0.185 HD
ENDROOT
BRANCH   1  10
HETATM   10  C10 UNL     1       4.432  57.302  28.588  1.00  0.00     0.176 C 
BRANCH  10  11
HETATM   11  N3  UNL     1       3.154  56.704  28.334  1.00  0.00    -0.376 N 
ATOM     12  H3  UNL     1       3.117  55.688  28.409  1.00  0.00     0.160 HD
BRANCH  11  13
HETATM   13  C9  UNL     1       1.949  57.335  27.995  1.00  0.00     0.034 A 
HETATM   14  C2  UNL     1       0.785  56.921  28.600  1.00  0.00    -0.035 A 
HETATM   15  C1  UNL     1       0.784  55.815  29.627  1.00  0.00     0.050 C 
HETATM   16  C3  UNL     1      -0.413  57.516  28.272  1.00  0.00     0.018 A 
HETATM   17  C4  UNL     1      -0.500  58.549  27.328  1.00  0.00    -0.019 A 
HETATM   18  C7  UNL     1       0.676  58.926  26.757  1.00  0.00     0.012 A 
HETATM   19  C8  UNL     1       1.888  58.342  27.070  1.00  0.00     0.030 A 
BRANCH  17  20
HETATM   20  C5  UNL     1      -1.837  59.121  27.068  1.00  0.00     0.304 C 
BRANCH  20  21
HETATM   21  N1  UNL     1      -1.807  60.562  27.306  1.00  0.00    -0.063 N 
ATOM     22  H13 UNL     1      -2.473  60.847  28.024  1.00  0.00     0.275 HD
ATOM     23  H12 UNL     1      -0.950  60.857  27.776  1.00  0.00     0.275 HD
ATOM     24  H11 UNL     1      -1.954  61.056  26.426  1.00  0.00     0.275 HD
ENDBRANCH  20  21
BRANCH  20  25
HETATM   25  C6  UNL     1      -2.314  58.820  25.731  1.00  0.00     0.266 C 
HETATM   26  N2  UNL     1      -2.348  57.467  25.274  1.00  0.00    -0.060 NA
HETATM   27  O1  UNL     1      -2.707  59.735  24.953  1.00  0.00    -0.274 OA
ENDBRANCH  20  25
ENDBRANCH  17  20
ENDBRANCH  11  13
ENDBRANCH  10  11
BRANCH  10  28
HETATM   28  C11 UNL     1       4.497  58.258  29.727  1.00  0.00     0.262 C 
BRANCH  28  29
HETATM   29  N4  UNL     1       4.664  59.638  29.300  1.00  0.00    -0.077 N 
ATOM     30  H43 UNL     1       5.385  59.713  28.583  1.00  0.00     0.274 HD
ATOM     31  H42 UNL     1       3.858  59.952  28.759  1.00  0.00     0.274 HD
ATOM     32  H41 UNL     1       4.853  60.274  30.074  1.00  0.00     0.274 HD
ENDBRANCH  28  29
ENDBRANCH  10  28
ENDBRANCH   1  10
BRANCH   4  33
HETATM   33  N6  UNL     1       8.908  55.932  27.784  1.00  0.00    -0.173 N 
HETATM   34  C14 UNL     1       9.569  57.194  28.025  1.00  0.00     0.494 C 
HETATM   35  N7  UNL     1       9.851  57.807  26.725  1.00  0.00    -0.032 N 
HETATM   36  N8  UNL     1      10.859  56.973  28.661  1.00  0.00    -0.032 N 
ATOM     37  H73 UNL     1      10.381  57.195  26.105  1.00  0.00     0.278 HD
ATOM     38  H72 UNL     1       9.019  57.901  26.143  1.00  0.00     0.278 HD
ATOM     39  H71 UNL     1      10.318  58.698  26.896  1.00  0.00     0.278 HD
ATOM     40  H83 UNL     1      10.773  56.419  29.513  1.00  0.00     0.278 HD
ATOM     41  H82 UNL     1      11.444  56.332  28.124  1.00  0.00     0.278 HD
ATOM     42  H81 UNL     1      11.326  57.863  28.832  1.00  0.00     0.278 HD
ATOM     43  H6  UNL     1       9.351  55.220  27.204  1.00  0.00     0.181 HD
ENDBRANCH   4  33
BRANCH   7  44
HETATM   44  N10 UNL     1       6.189  53.206  30.270  1.00  0.00    -0.143 N 
HETATM   45  C16 UNL     1       5.116  52.328  30.060  1.00  0.00     0.346 C 
HETATM   46  N11 UNL     1       5.292  51.079  29.411  1.00  0.00    -0.039 NA
HETATM   47  O2  UNL     1       3.961  52.638  30.452  1.00  0.00    -0.250 OA
ATOM     48  H10 UNL     1       6.855  52.975  31.007  1.00  0.00     0.188 HD
ENDBRANCH   7  44
TORSDOF 10
ENDMDL
