MODEL 1
REMARK VINA RESULT: -3.789340489      0.000      0.000
REMARK  1 active torsions:
REMARK  status: ('A' for Active; 'I' for Inactive)
REMARK    1  A    between atoms: C3_3  and  N1_4 
ROOT
HETATM    1  C1  UNL     1      29.218  15.750  14.929  1.00  0.00     0.013 C 
HETATM    2  C2  UNL     1      29.515  15.040  15.859  1.00  0.00    -0.089 C 
HETATM    3  C3  UNL     1      29.898  14.181  16.977  1.00  0.00     0.332 C 
ENDROOT
BRANCH   3   4
HETATM    4  N1  UNL     1      28.918  14.066  17.946  1.00  0.00    -0.029 N 
HETATM    5  C4  UNL     1      28.132  15.217  18.330  1.00  0.00     0.469 C 
HETATM    6  N2  UNL     1      27.268  14.600  19.359  1.00  0.00    -0.043 N 
HETATM    7  C5  UNL     1      27.824  13.300  19.415  1.00  0.00     0.239 C 
ATOM      8  H22 UNL     1      27.215  15.097  20.247  1.00  0.00     0.279 HD
ATOM      9  H21 UNL     1      26.265  14.644  19.177  1.00  0.00     0.279 HD
HETATM   10  C6  UNL     1      27.991  12.957  17.926  1.00  0.00     0.275 C 
HETATM   11  C7  UNL     1      29.308  13.555  19.273  1.00  0.00     0.275 C 
ENDBRANCH   3   4
TORSDOF 1
ENDMDL
MODEL 2
REMARK VINA RESULT: -3.781744516      0.772      1.538
REMARK  1 active torsions:
REMARK  status: ('A' for Active; 'I' for Inactive)
REMARK    1  A    between atoms: C3_3  and  N1_4 
ROOT
HETATM    1  C1  UNL     1      29.371  15.691  15.004  1.00  0.00     0.013 C 
HETATM    2  C2  UNL     1      29.351  14.730  15.734  1.00  0.00    -0.089 C 
HETATM    3  C3  UNL     1      29.343  13.556  16.603  1.00  0.00     0.332 C 
ENDROOT
BRANCH   3   4
HETATM    4  N1  UNL     1      28.660  13.751  17.789  1.00  0.00    -0.029 N 
HETATM    5  C4  UNL     1      27.737  12.750  18.276  1.00  0.00     0.469 C 
HETATM    6  N2  UNL     1      27.282  13.408  19.518  1.00  0.00    -0.043 N 
HETATM    7  C5  UNL     1      27.938  14.657  19.401  1.00  0.00     0.239 C 
ATOM      8  H22 UNL     1      26.272  13.450  19.651  1.00  0.00     0.279 HD
ATOM      9  H21 UNL     1      27.461  12.894  20.381  1.00  0.00     0.279 HD
HETATM   10  C6  UNL     1      29.350  14.240  18.962  1.00  0.00     0.275 C 
HETATM   11  C7  UNL     1      27.832  14.964  17.924  1.00  0.00     0.275 C 
ENDBRANCH   3   4
TORSDOF 1
ENDMDL
MODEL 3
REMARK VINA RESULT: -3.477205999      1.278      3.442
REMARK  1 active torsions:
REMARK  status: ('A' for Active; 'I' for Inactive)
REMARK    1  A    between atoms: C3_3  and  N1_4 
ROOT
HETATM    1  C1  UNL     1      27.167  11.811  20.077  1.00  0.00     0.013 C 
HETATM    2  C2  UNL     1      27.570  12.152  18.992  1.00  0.00    -0.089 C 
HETATM    3  C3  UNL     1      28.049  12.544  17.668  1.00  0.00     0.332 C 
ENDROOT
BRANCH   3   4
HETATM    4  N1  UNL     1      28.507  13.848  17.611  1.00  0.00    -0.029 N 
HETATM    5  C4  UNL     1      29.231  14.318  16.451  1.00  0.00     0.469 C 
HETATM    6  N2  UNL     1      29.494  15.712  16.866  1.00  0.00    -0.043 N 
HETATM    7  C5  UNL     1      28.981  15.688  18.185  1.00  0.00     0.239 C 
ATOM      8  H22 UNL     1      30.460  16.026  16.773  1.00  0.00     0.279 HD
ATOM      9  H21 UNL     1      29.111  16.434  16.256  1.00  0.00     0.279 HD
HETATM   10  C6  UNL     1      27.649  14.945  17.998  1.00  0.00     0.275 C 
HETATM   11  C7  UNL     1      29.393  14.323  18.689  1.00  0.00     0.275 C 
ENDBRANCH   3   4
TORSDOF 1
ENDMDL
MODEL 4
REMARK VINA RESULT: -3.311475800      1.254      3.507
REMARK  1 active torsions:
REMARK  status: ('A' for Active; 'I' for Inactive)
REMARK    1  A    between atoms: C3_3  and  N1_4 
ROOT
HETATM    1  C1  UNL     1      27.188  11.697  19.174  1.00  0.00     0.013 C 
HETATM    2  C2  UNL     1      27.873  12.690  19.130  1.00  0.00    -0.089 C 
HETATM    3  C3  UNL     1      28.708  13.888  19.102  1.00  0.00     0.332 C 
ENDROOT
BRANCH   3   4
HETATM    4  N1  UNL     1      28.910  14.390  17.829  1.00  0.00    -0.029 N 
HETATM    5  C4  UNL     1      28.179  15.554  17.378  1.00  0.00     0.469 C 
HETATM    6  N2  UNL     1      28.725  15.679  16.009  1.00  0.00    -0.043 N 
HETATM    7  C5  UNL     1      29.531  14.517  15.948  1.00  0.00     0.239 C 
ATOM      8  H22 UNL     1      28.034  15.777  15.266  1.00  0.00     0.279 HD
ATOM      9  H21 UNL     1      29.199  16.558  15.802  1.00  0.00     0.279 HD
HETATM   10  C6  UNL     1      30.248  14.551  17.306  1.00  0.00     0.275 C 
HETATM   11  C7  UNL     1      28.705  13.486  16.683  1.00  0.00     0.275 C 
ENDBRANCH   3   4
TORSDOF 1
ENDMDL
MODEL 5
REMARK VINA RESULT: -3.219997956      3.408      4.702
REMARK  1 active torsions:
REMARK  status: ('A' for Active; 'I' for Inactive)
REMARK    1  A    between atoms: C3_3  and  N1_4 
ROOT
HETATM    1  C1  UNL     1      25.062   8.881  16.428  1.00  0.00     0.013 C 
HETATM    2  C2  UNL     1      26.013   9.506  16.834  1.00  0.00    -0.089 C 
HETATM    3  C3  UNL     1      27.173  10.260  17.302  1.00  0.00     0.332 C 
ENDROOT
BRANCH   3   4
HETATM    4  N1  UNL     1      26.995  10.827  18.551  1.00  0.00    -0.029 N 
HETATM    5  C4  UNL     1      27.448  12.175  18.813  1.00  0.00     0.469 C 
HETATM    6  N2  UNL     1      27.048  12.305  20.230  1.00  0.00    -0.043 N 
HETATM    7  C5  UNL     1      26.581  10.994  20.485  1.00  0.00     0.239 C 
ATOM      8  H22 UNL     1      27.771  12.648  20.863  1.00  0.00     0.279 HD
ATOM      9  H21 UNL     1      26.391  13.057  20.436  1.00  0.00     0.279 HD
HETATM   10  C6  UNL     1      25.729  10.707  19.239  1.00  0.00     0.275 C 
HETATM   11  C7  UNL     1      27.556  10.127  19.721  1.00  0.00     0.275 C 
ENDBRANCH   3   4
TORSDOF 1
ENDMDL
