MODEL 1
REMARK VINA RESULT: -3.852662748      0.000      0.000
REMARK  1 active torsions:
REMARK  status: ('A' for Active; 'I' for Inactive)
REMARK    1  A    between atoms: C2_2  and  N1_3 
ROOT
HETATM    1  N1  UNL     1      28.638  13.513  17.863  1.00  0.00     0.016 N 
HETATM    2  C3  UNL     1      29.333  13.861  16.647  1.00  0.00     0.263 C 
HETATM    3  C4  UNL     1      29.076  15.308  16.914  1.00  0.00     0.066 C 
HETATM    4  C5  UNL     1      28.074  14.769  17.928  1.00  0.00     0.229 C 
HETATM    5  C6  UNL     1      28.586  14.977  19.313  1.00  0.00     0.178 C 
HETATM    6  N2  UNL     1      29.338  13.742  19.045  1.00  0.00    -0.044 NA
ENDROOT
BRANCH   1   7
HETATM    7  C2  UNL     1      27.938  12.310  17.778  1.00  0.00     0.256 C 
HETATM    8  C1  UNL     1      27.288  11.781  18.999  1.00  0.00     0.036 C 
ENDBRANCH   1   7
TORSDOF 1
ENDMDL
MODEL 2
REMARK VINA RESULT: -3.704969932      1.092      2.015
REMARK  1 active torsions:
REMARK  status: ('A' for Active; 'I' for Inactive)
REMARK    1  A    between atoms: C2_2  and  N1_3 
ROOT
HETATM    1  N1  UNL     1      28.623  14.016  17.998  1.00  0.00     0.016 N 
HETATM    2  C3  UNL     1      27.968  15.291  17.834  1.00  0.00     0.263 C 
HETATM    3  C4  UNL     1      28.947  15.656  16.765  1.00  0.00     0.066 C 
HETATM    4  C5  UNL     1      29.729  14.469  17.314  1.00  0.00     0.229 C 
HETATM    5  C6  UNL     1      29.663  13.327  16.358  1.00  0.00     0.178 C 
HETATM    6  N2  UNL     1      28.367  13.074  17.005  1.00  0.00    -0.044 NA
ENDROOT
BRANCH   1   7
HETATM    7  C2  UNL     1      28.612  13.551  19.313  1.00  0.00     0.256 C 
HETATM    8  C1  UNL     1      27.720  12.421  19.657  1.00  0.00     0.036 C 
ENDBRANCH   1   7
TORSDOF 1
ENDMDL
MODEL 3
REMARK VINA RESULT: -3.636887303      1.154      2.612
REMARK  1 active torsions:
REMARK  status: ('A' for Active; 'I' for Inactive)
REMARK    1  A    between atoms: C2_2  and  N1_3 
ROOT
HETATM    1  N1  UNL     1      29.067  14.455  17.498  1.00  0.00     0.016 N 
HETATM    2  C3  UNL     1      28.890  15.873  17.698  1.00  0.00     0.263 C 
HETATM    3  C4  UNL     1      27.738  15.601  18.610  1.00  0.00     0.066 C 
HETATM    4  C5  UNL     1      27.812  14.203  18.009  1.00  0.00     0.229 C 
HETATM    5  C6  UNL     1      28.362  13.244  19.009  1.00  0.00     0.178 C 
HETATM    6  N2  UNL     1      29.659  13.765  18.553  1.00  0.00    -0.044 NA
ENDROOT
BRANCH   1   7
HETATM    7  C2  UNL     1      29.506  14.126  16.216  1.00  0.00     0.256 C 
HETATM    8  C1  UNL     1      29.532  15.185  15.182  1.00  0.00     0.036 C 
ENDBRANCH   1   7
TORSDOF 1
ENDMDL
MODEL 4
REMARK VINA RESULT: -3.632124308      1.889      2.821
REMARK  1 active torsions:
REMARK  status: ('A' for Active; 'I' for Inactive)
REMARK    1  A    between atoms: C2_2  and  N1_3 
ROOT
HETATM    1  N1  UNL     1      29.026  15.084  16.911  1.00  0.00     0.016 N 
HETATM    2  C3  UNL     1      28.700  15.997  15.843  1.00  0.00     0.263 C 
HETATM    3  C4  UNL     1      29.620  15.256  14.928  1.00  0.00     0.066 C 
HETATM    4  C5  UNL     1      30.132  14.636  16.222  1.00  0.00     0.229 C 
HETATM    5  C6  UNL     1      29.680  13.220  16.324  1.00  0.00     0.178 C 
HETATM    6  N2  UNL     1      28.438  13.824  16.828  1.00  0.00    -0.044 NA
ENDROOT
BRANCH   1   7
HETATM    7  C2  UNL     1      29.038  15.683  18.170  1.00  0.00     0.256 C 
HETATM    8  C1  UNL     1      28.483  14.930  19.318  1.00  0.00     0.036 C 
ENDBRANCH   1   7
TORSDOF 1
ENDMDL
MODEL 5
REMARK VINA RESULT: -3.506127889      1.049      2.726
REMARK  1 active torsions:
REMARK  status: ('A' for Active; 'I' for Inactive)
REMARK    1  A    between atoms: C2_2  and  N1_3 
ROOT
HETATM    1  N1  UNL     1      28.775  13.996  17.778  1.00  0.00     0.016 N 
HETATM    2  C3  UNL     1      28.089  12.727  17.762  1.00  0.00     0.263 C 
HETATM    3  C4  UNL     1      27.880  12.821  19.238  1.00  0.00     0.066 C 
HETATM    4  C5  UNL     1      28.929  13.922  19.145  1.00  0.00     0.229 C 
HETATM    5  C6  UNL     1      28.289  15.255  19.335  1.00  0.00     0.178 C 
HETATM    6  N2  UNL     1      27.962  15.120  17.908  1.00  0.00    -0.044 NA
ENDROOT
BRANCH   1   7
HETATM    7  C2  UNL     1      29.808  14.081  16.845  1.00  0.00     0.256 C 
HETATM    8  C1  UNL     1      29.601  14.904  15.632  1.00  0.00     0.036 C 
ENDBRANCH   1   7
TORSDOF 1
ENDMDL
