MODEL 1
REMARK VINA RESULT: -4.631598109      0.000      0.000
REMARK  4 active torsions:
REMARK  status: ('A' for Active; 'I' for Inactive)
REMARK    1  A    between atoms: C4_4  and  C5_5 
REMARK    2  A    between atoms: C5_5  and  C6_6 
REMARK    3  A    between atoms: C6_6  and  C7_7 
REMARK    4  A    between atoms: C7_7  and  N1_8 
ROOT
HETATM    1  C1  UNL     1      26.766  10.908  19.591  1.00  0.00     0.027 C 
HETATM    2  C2  UNL     1      27.312  11.899  19.174  1.00  0.00    -0.026 C 
HETATM    3  C3  UNL     1      27.918  13.069  18.685  1.00  0.00    -0.015 C 
HETATM    4  C4  UNL     1      28.413  14.078  18.281  1.00  0.00    -0.081 C 
ENDROOT
BRANCH   4   5
HETATM    5  C5  UNL     1      29.025  15.367  17.799  1.00  0.00     0.176 C 
BRANCH   5   6
HETATM    6  C6  UNL     1      29.043  15.646  16.610  1.00  0.00    -0.150 C 
BRANCH   6   7
HETATM    7  C7  UNL     1      29.064  15.969  15.238  1.00  0.00     0.219 C 
BRANCH   7   8
HETATM    8  N1  UNL     1      29.963  15.063  14.529  1.00  0.00    -0.333 N 
HETATM    9  N2  UNL     1      29.890  14.813  13.332  1.00  0.00    -0.349 N 
ATOM     10  H22 UNL     1      29.147  15.277  12.810  1.00  0.00     0.176 HD
ATOM     11  H21 UNL     1      30.518  14.180  12.837  1.00  0.00     0.176 HD
ATOM     12  H1  UNL     1      30.701  14.608  15.066  1.00  0.00     0.180 HD
ENDBRANCH   7   8
ENDBRANCH   6   7
ENDBRANCH   5   6
ENDBRANCH   4   5
TORSDOF 4
ENDMDL
MODEL 2
REMARK VINA RESULT: -4.458409655      1.879      2.161
REMARK  4 active torsions:
REMARK  status: ('A' for Active; 'I' for Inactive)
REMARK    1  A    between atoms: C4_4  and  C5_5 
REMARK    2  A    between atoms: C5_5  and  C6_6 
REMARK    3  A    between atoms: C6_6  and  C7_7 
REMARK    4  A    between atoms: C7_7  and  N1_8 
ROOT
HETATM    1  C1  UNL     1      26.741   9.911  18.989  1.00  0.00     0.027 C 
HETATM    2  C2  UNL     1      27.123  11.054  18.948  1.00  0.00    -0.026 C 
HETATM    3  C3  UNL     1      27.587  12.378  18.871  1.00  0.00    -0.015 C 
HETATM    4  C4  UNL     1      27.983  13.501  18.780  1.00  0.00    -0.081 C 
ENDROOT
BRANCH   4   5
HETATM    5  C5  UNL     1      28.467  14.920  18.633  1.00  0.00     0.176 C 
BRANCH   5   6
HETATM    6  C6  UNL     1      28.673  15.400  17.529  1.00  0.00    -0.150 C 
BRANCH   6   7
HETATM    7  C7  UNL     1      28.910  15.956  16.255  1.00  0.00     0.219 C 
BRANCH   7   8
HETATM    8  N1  UNL     1      27.826  16.869  15.902  1.00  0.00    -0.333 N 
HETATM    9  N2  UNL     1      26.903  17.169  16.649  1.00  0.00    -0.349 N 
ATOM     10  H22 UNL     1      26.907  16.744  17.576  1.00  0.00     0.176 HD
ATOM     11  H21 UNL     1      26.147  17.807  16.402  1.00  0.00     0.176 HD
ATOM     12  H1  UNL     1      27.839  17.284  14.970  1.00  0.00     0.180 HD
ENDBRANCH   7   8
ENDBRANCH   6   7
ENDBRANCH   5   6
ENDBRANCH   4   5
TORSDOF 4
ENDMDL
MODEL 3
REMARK VINA RESULT: -4.457211264      1.186      1.449
REMARK  4 active torsions:
REMARK  status: ('A' for Active; 'I' for Inactive)
REMARK    1  A    between atoms: C4_4  and  C5_5 
REMARK    2  A    between atoms: C5_5  and  C6_6 
REMARK    3  A    between atoms: C6_6  and  C7_7 
REMARK    4  A    between atoms: C7_7  and  N1_8 
ROOT
HETATM    1  C1  UNL     1      26.714  10.548  20.761  1.00  0.00     0.027 C 
HETATM    2  C2  UNL     1      27.148  11.483  20.135  1.00  0.00    -0.026 C 
HETATM    3  C3  UNL     1      27.629  12.592  19.419  1.00  0.00    -0.015 C 
HETATM    4  C4  UNL     1      28.029  13.552  18.830  1.00  0.00    -0.081 C 
ENDROOT
BRANCH   4   5
HETATM    5  C5  UNL     1      28.540  14.777  18.119  1.00  0.00     0.176 C 
BRANCH   5   6
HETATM    6  C6  UNL     1      29.186  14.678  17.087  1.00  0.00    -0.150 C 
BRANCH   6   7
HETATM    7  C7  UNL     1      29.932  14.564  15.896  1.00  0.00     0.219 C 
BRANCH   7   8
HETATM    8  N1  UNL     1      29.906  15.831  15.171  1.00  0.00    -0.333 N 
HETATM    9  N2  UNL     1      29.137  16.753  15.415  1.00  0.00    -0.349 N 
ATOM     10  H22 UNL     1      28.477  16.610  16.180  1.00  0.00     0.176 HD
ATOM     11  H21 UNL     1      29.119  17.638  14.909  1.00  0.00     0.176 HD
ATOM     12  H1  UNL     1      30.573  15.958  14.410  1.00  0.00     0.180 HD
ENDBRANCH   7   8
ENDBRANCH   6   7
ENDBRANCH   5   6
ENDBRANCH   4   5
TORSDOF 4
ENDMDL
MODEL 4
REMARK VINA RESULT: -4.394252861      1.639      2.166
REMARK  4 active torsions:
REMARK  status: ('A' for Active; 'I' for Inactive)
REMARK    1  A    between atoms: C4_4  and  C5_5 
REMARK    2  A    between atoms: C5_5  and  C6_6 
REMARK    3  A    between atoms: C6_6  and  C7_7 
REMARK    4  A    between atoms: C7_7  and  N1_8 
ROOT
HETATM    1  C1  UNL     1      26.573   9.200  17.233  1.00  0.00     0.027 C 
HETATM    2  C2  UNL     1      26.965  10.270  17.627  1.00  0.00    -0.026 C 
HETATM    3  C3  UNL     1      27.405  11.532  18.062  1.00  0.00    -0.015 C 
HETATM    4  C4  UNL     1      27.757  12.615  18.422  1.00  0.00    -0.081 C 
ENDROOT
BRANCH   4   5
HETATM    5  C5  UNL     1      28.166  13.990  18.881  1.00  0.00     0.176 C 
BRANCH   5   6
HETATM    6  C6  UNL     1      28.171  14.934  18.105  1.00  0.00    -0.150 C 
BRANCH   6   7
HETATM    7  C7  UNL     1      28.176  16.024  17.211  1.00  0.00     0.219 C 
BRANCH   7   8
HETATM    8  N1  UNL     1      29.394  15.999  16.405  1.00  0.00    -0.333 N 
HETATM    9  N2  UNL     1      29.459  16.364  15.238  1.00  0.00    -0.349 N 
ATOM     10  H22 UNL     1      28.596  16.706  14.815  1.00  0.00     0.176 HD
ATOM     11  H21 UNL     1      30.310  16.347  14.676  1.00  0.00     0.176 HD
ATOM     12  H1  UNL     1      30.248  15.655  16.844  1.00  0.00     0.180 HD
ENDBRANCH   7   8
ENDBRANCH   6   7
ENDBRANCH   5   6
ENDBRANCH   4   5
TORSDOF 4
ENDMDL
MODEL 5
REMARK VINA RESULT: -4.385749724      1.372      1.928
REMARK  4 active torsions:
REMARK  status: ('A' for Active; 'I' for Inactive)
REMARK    1  A    between atoms: C4_4  and  C5_5 
REMARK    2  A    between atoms: C5_5  and  C6_6 
REMARK    3  A    between atoms: C6_6  and  C7_7 
REMARK    4  A    between atoms: C7_7  and  N1_8 
ROOT
HETATM    1  C1  UNL     1      25.664   9.660  19.107  1.00  0.00     0.027 C 
HETATM    2  C2  UNL     1      26.350  10.652  19.138  1.00  0.00    -0.026 C 
HETATM    3  C3  UNL     1      27.158  11.801  19.142  1.00  0.00    -0.015 C 
HETATM    4  C4  UNL     1      27.841  12.781  19.119  1.00  0.00    -0.081 C 
ENDROOT
BRANCH   4   5
HETATM    5  C5  UNL     1      28.683  14.029  19.064  1.00  0.00     0.176 C 
BRANCH   5   6
HETATM    6  C6  UNL     1      28.479  14.885  18.217  1.00  0.00    -0.150 C 
BRANCH   6   7
HETATM    7  C7  UNL     1      28.245  15.873  17.239  1.00  0.00     0.219 C 
BRANCH   7   8
HETATM    8  N1  UNL     1      29.433  16.041  16.408  1.00  0.00    -0.333 N 
HETATM    9  N2  UNL     1      29.414  16.411  15.240  1.00  0.00    -0.349 N 
ATOM     10  H22 UNL     1      28.499  16.612  14.837  1.00  0.00     0.176 HD
ATOM     11  H21 UNL     1      30.244  16.528  14.659  1.00  0.00     0.176 HD
ATOM     12  H1  UNL     1      30.340  15.836  16.827  1.00  0.00     0.180 HD
ENDBRANCH   7   8
ENDBRANCH   6   7
ENDBRANCH   5   6
ENDBRANCH   4   5
TORSDOF 4
ENDMDL
