MODEL 1
REMARK VINA RESULT: -11.160980727      0.000      0.000
REMARK  11 active torsions:
REMARK  status: ('A' for Active; 'I' for Inactive)
REMARK    1  A    between atoms: N1_1  and  C1_4 
REMARK    2  A    between atoms: C3_8  and  C4_9 
REMARK       I    between atoms: C4_9  and  N3_11 
REMARK    3  A    between atoms: N3_11  and  C5_13 
REMARK    4  A    between atoms: C5_13  and  C6_14 
REMARK    5  A    between atoms: C6_14  and  C7_15 
REMARK    6  A    between atoms: C12_22  and  C13_23 
REMARK    7  A    between atoms: N5_25  and  C15_26 
REMARK    8  A    between atoms: C15_26  and  C16_27 
REMARK    9  A    between atoms: C19_30  and  C20_31 
REMARK   10  A    between atoms: C23_34  and  S1_35 
REMARK   11  A    between atoms: S1_35  and  N6_36 
ROOT
HETATM    1  C7  UNL     1      17.340   7.410  26.328  1.00  0.00     0.026 A 
HETATM    2  C8  UNL     1      16.177   7.968  26.794  1.00  0.00     0.113 A 
HETATM    3  N4  UNL     1      16.112   9.289  27.041  1.00  0.00    -0.362 N 
ATOM      4  H4  UNL     1      15.245   9.701  27.386  1.00  0.00     0.165 HD
HETATM    5  C9  UNL     1      17.205  10.080  26.829  1.00  0.00     0.059 A 
HETATM    6  C10 UNL     1      17.155  11.438  27.077  1.00  0.00     0.033 A 
HETATM    7  C11 UNL     1      18.266  12.247  26.861  1.00  0.00     0.015 A 
HETATM    8  C12 UNL     1      19.443  11.701  26.393  1.00  0.00    -0.017 A 
HETATM    9  C29 UNL     1      19.477  10.346  26.150  1.00  0.00     0.044 A 
HETATM   10  C30 UNL     1      18.383   9.527  26.358  1.00  0.00     0.060 A 
HETATM   11  N8  UNL     1      18.400   8.203  26.126  1.00  0.00    -0.357 N 
ATOM     12  H8  UNL     1      19.261   7.782  25.780  1.00  0.00     0.166 HD
ENDROOT
BRANCH   8  13
HETATM   13  C13 UNL     1      20.608  12.543  26.165  1.00  0.00     0.061 A 
HETATM   14  C14 UNL     1      21.386  12.599  25.017  1.00  0.00     0.128 A 
HETATM   15  N5  UNL     1      22.370  13.490  25.181  1.00  0.00    -0.295 N 
HETATM   16  N7  UNL     1      22.249  14.000  26.383  1.00  0.00    -0.264 N 
HETATM   17  C28 UNL     1      21.186  13.456  27.029  1.00  0.00     0.272 A 
ATOM     18  H7  UNL     1      22.868  14.708  26.778  1.00  0.00     0.190 HD
HETATM   19  O4  UNL     1      20.787  13.720  28.198  1.00  0.00    -0.266 OA
BRANCH  15  20
HETATM   20  C15 UNL     1      23.372  13.819  24.210  1.00  0.00     0.186 C 
BRANCH  20  21
HETATM   21  C16 UNL     1      23.488  12.691  23.253  1.00  0.00    -0.038 A 
HETATM   22  C17 UNL     1      23.567  11.376  23.656  1.00  0.00     0.010 A 
HETATM   23  C18 UNL     1      23.675  10.352  22.737  1.00  0.00     0.013 A 
HETATM   24  C19 UNL     1      23.710  10.597  21.371  1.00  0.00    -0.026 A 
HETATM   25  C26 UNL     1      23.630  11.921  20.990  1.00  0.00     0.013 A 
HETATM   26  C27 UNL     1      23.522  12.951  21.900  1.00  0.00     0.010 A 
BRANCH  24  27
HETATM   27  C20 UNL     1      23.825   9.505  20.410  1.00  0.00    -0.026 A 
HETATM   28  C21 UNL     1      24.506   9.619  19.219  1.00  0.00     0.014 A 
HETATM   29  C22 UNL     1      24.603   8.564  18.319  1.00  0.00     0.026 A 
HETATM   30  C23 UNL     1      24.009   7.349  18.594  1.00  0.00     0.079 A 
HETATM   31  C24 UNL     1      23.328   7.239  19.788  1.00  0.00     0.026 A 
HETATM   32  C25 UNL     1      23.231   8.285  20.683  1.00  0.00     0.014 A 
BRANCH  30  33
HETATM   33  S1  UNL     1      24.124   6.008  17.465  1.00  0.00     0.256 S 
HETATM   34  O2  UNL     1      24.312   4.705  18.145  1.00  0.00    -0.201 OA
HETATM   35  O3  UNL     1      25.208   6.328  16.480  1.00  0.00    -0.201 OA
BRANCH  33  36
HETATM   36  N6  UNL     1      22.635   5.944  16.568  1.00  0.00    -0.324 N 
ATOM     37  H62 UNL     1      22.401   6.535  15.770  1.00  0.00     0.169 HD
ATOM     38  H61 UNL     1      22.054   5.216  16.983  1.00  0.00     0.169 HD
ENDBRANCH  33  36
ENDBRANCH  30  33
ENDBRANCH  24  27
ENDBRANCH  20  21
ENDBRANCH  15  20
ENDBRANCH   8  13
BRANCH   1  39
HETATM   39  C6  UNL     1      17.449   5.947  26.042  1.00  0.00     0.078 C 
BRANCH  39  40
HETATM   40  C5  UNL     1      16.703   5.698  24.778  1.00  0.00     0.129 C 
BRANCH  40  41
HETATM   41  N3  UNL     1      17.484   5.798  23.568  1.00  0.00    -0.356 N 
HETATM   42  C4  UNL     1      17.320   6.840  22.654  1.00  0.00     0.258 C 
HETATM   43  O1  UNL     1      16.430   7.714  22.960  1.00  0.00    -0.267 OA
ATOM     44  H3  UNL     1      18.181   5.079  23.373  1.00  0.00     0.162 HD
BRANCH  42  45
HETATM   45  C3  UNL     1      18.026   7.066  21.401  1.00  0.00     0.116 A 
HETATM   46  C2  UNL     1      17.723   6.259  20.292  1.00  0.00     0.129 A 
HETATM   47  N2  UNL     1      18.346   6.436  19.136  1.00  0.00    -0.201 N 
HETATM   48  C1  UNL     1      19.290   7.373  18.946  1.00  0.00     0.678 A 
ATOM     49  H2  UNL     1      18.098   5.831  18.353  1.00  0.00     0.183 HD
HETATM   50  N9  UNL     1      19.608   8.163  19.981  1.00  0.00    -0.155 N 
HETATM   51  C31 UNL     1      18.989   8.016  21.192  1.00  0.00     0.276 A 
ATOM     52  H9  UNL     1      20.322   8.882  19.864  1.00  0.00     0.187 HD
HETATM   53  O5  UNL     1      19.325   8.782  22.123  1.00  0.00    -0.267 OA
BRANCH  48  54
HETATM   54  N1  UNL     1      19.900   7.549  17.826  1.00  0.00    -0.234 N 
ATOM     55  H12 UNL     1      20.639   6.895  17.565  1.00  0.00     0.174 HD
ATOM     56  H11 UNL     1      19.685   8.310  17.181  1.00  0.00     0.174 HD
ENDBRANCH  48  54
ENDBRANCH  42  45
ENDBRANCH  40  41
ENDBRANCH  39  40
ENDBRANCH   1  39
TORSDOF 11
ENDMDL
MODEL 2
REMARK VINA RESULT: -10.787864550      1.109      1.453
REMARK  11 active torsions:
REMARK  status: ('A' for Active; 'I' for Inactive)
REMARK    1  A    between atoms: N1_1  and  C1_4 
REMARK    2  A    between atoms: C3_8  and  C4_9 
REMARK       I    between atoms: C4_9  and  N3_11 
REMARK    3  A    between atoms: N3_11  and  C5_13 
REMARK    4  A    between atoms: C5_13  and  C6_14 
REMARK    5  A    between atoms: C6_14  and  C7_15 
REMARK    6  A    between atoms: C12_22  and  C13_23 
REMARK    7  A    between atoms: N5_25  and  C15_26 
REMARK    8  A    between atoms: C15_26  and  C16_27 
REMARK    9  A    between atoms: C19_30  and  C20_31 
REMARK   10  A    between atoms: C23_34  and  S1_35 
REMARK   11  A    between atoms: S1_35  and  N6_36 
ROOT
HETATM    1  C7  UNL     1      16.358   7.799  25.430  1.00  0.00     0.026 A 
HETATM    2  C8  UNL     1      15.504   8.190  26.430  1.00  0.00     0.113 A 
HETATM    3  N4  UNL     1      15.821   9.232  27.220  1.00  0.00    -0.362 N 
ATOM      4  H4  UNL     1      15.184   9.521  27.961  1.00  0.00     0.165 HD
HETATM    5  C9  UNL     1      16.995   9.903  27.030  1.00  0.00     0.059 A 
HETATM    6  C10 UNL     1      17.334  10.976  27.833  1.00  0.00     0.033 A 
HETATM    7  C11 UNL     1      18.529  11.663  27.641  1.00  0.00     0.015 A 
HETATM    8  C12 UNL     1      19.398  11.282  26.641  1.00  0.00    -0.017 A 
HETATM    9  C29 UNL     1      19.045  10.211  25.849  1.00  0.00     0.044 A 
HETATM   10  C30 UNL     1      17.863   9.517  26.024  1.00  0.00     0.060 A 
HETATM   11  N8  UNL     1      17.503   8.471  25.260  1.00  0.00    -0.357 N 
ATOM     12  H8  UNL     1      18.134   8.175  24.516  1.00  0.00     0.166 HD
ENDROOT
BRANCH   8  13
HETATM   13  C13 UNL     1      20.649  11.997  26.437  1.00  0.00     0.061 A 
HETATM   14  C14 UNL     1      21.244  12.309  25.222  1.00  0.00     0.128 A 
HETATM   15  N5  UNL     1      22.386  12.973  25.436  1.00  0.00    -0.295 N 
HETATM   16  N7  UNL     1      22.539  13.094  26.732  1.00  0.00    -0.264 N 
HETATM   17  C28 UNL     1      21.504  12.515  27.393  1.00  0.00     0.272 A 
ATOM     18  H7  UNL     1      23.328  13.559  27.182  1.00  0.00     0.190 HD
HETATM   19  O4  UNL     1      21.338  12.451  28.643  1.00  0.00    -0.266 OA
BRANCH  15  20
HETATM   20  C15 UNL     1      23.274  13.458  24.420  1.00  0.00     0.186 C 
BRANCH  20  21
HETATM   21  C16 UNL     1      23.415  12.411  23.379  1.00  0.00    -0.038 A 
HETATM   22  C17 UNL     1      23.514  11.070  23.678  1.00  0.00     0.010 A 
HETATM   23  C18 UNL     1      23.645  10.123  22.682  1.00  0.00     0.013 A 
HETATM   24  C19 UNL     1      23.684  10.475  21.340  1.00  0.00    -0.026 A 
HETATM   25  C26 UNL     1      23.583  11.823  21.063  1.00  0.00     0.013 A 
HETATM   26  C27 UNL     1      23.451  12.776  22.051  1.00  0.00     0.010 A 
BRANCH  24  27
HETATM   27  C20 UNL     1      23.823   9.464  20.297  1.00  0.00    -0.026 A 
HETATM   28  C21 UNL     1      24.448   9.704  19.094  1.00  0.00     0.014 A 
HETATM   29  C22 UNL     1      24.569   8.724  18.116  1.00  0.00     0.026 A 
HETATM   30  C23 UNL     1      24.058   7.460  18.320  1.00  0.00     0.079 A 
HETATM   31  C24 UNL     1      23.433   7.222  19.526  1.00  0.00     0.026 A 
HETATM   32  C25 UNL     1      23.312   8.194  20.500  1.00  0.00     0.014 A 
BRANCH  30  33
HETATM   33  S1  UNL     1      24.205   6.212  17.092  1.00  0.00     0.256 S 
HETATM   34  O2  UNL     1      25.496   6.273  16.367  1.00  0.00    -0.201 OA
HETATM   35  O3  UNL     1      23.010   6.313  16.190  1.00  0.00    -0.201 OA
BRANCH  33  36
HETATM   36  N6  UNL     1      24.100   4.670  17.889  1.00  0.00    -0.324 N 
ATOM     37  H62 UNL     1      24.616   3.831  17.623  1.00  0.00     0.169 HD
ATOM     38  H61 UNL     1      23.437   4.764  18.659  1.00  0.00     0.169 HD
ENDBRANCH  33  36
ENDBRANCH  30  33
ENDBRANCH  24  27
ENDBRANCH  20  21
ENDBRANCH  15  20
ENDBRANCH   8  13
BRANCH   1  39
HETATM   39  C6  UNL     1      16.040   6.647  24.532  1.00  0.00     0.078 C 
BRANCH  39  40
HETATM   40  C5  UNL     1      17.332   5.977  24.217  1.00  0.00     0.129 C 
BRANCH  40  41
HETATM   41  N3  UNL     1      17.629   5.834  22.812  1.00  0.00    -0.356 N 
HETATM   42  C4  UNL     1      18.459   6.723  22.127  1.00  0.00     0.258 C 
HETATM   43  O1  UNL     1      18.950   7.680  22.829  1.00  0.00    -0.267 OA
ATOM     44  H3  UNL     1      17.216   5.054  22.300  1.00  0.00     0.162 HD
BRANCH  42  45
HETATM   45  C3  UNL     1      18.841   6.708  20.722  1.00  0.00     0.116 A 
HETATM   46  C2  UNL     1      19.618   7.761  20.213  1.00  0.00     0.129 A 
HETATM   47  N2  UNL     1      19.982   7.780  18.940  1.00  0.00    -0.201 N 
HETATM   48  C1  UNL     1      19.643   6.819  18.065  1.00  0.00     0.678 A 
ATOM     49  H2  UNL     1      20.547   8.562  18.608  1.00  0.00     0.183 HD
HETATM   50  N9  UNL     1      18.901   5.796  18.511  1.00  0.00    -0.155 N 
HETATM   51  C31 UNL     1      18.504   5.736  19.819  1.00  0.00     0.276 A 
ATOM     52  H9  UNL     1      18.629   5.053  17.867  1.00  0.00     0.187 HD
HETATM   53  O5  UNL     1      17.812   4.757  20.181  1.00  0.00    -0.267 OA
BRANCH  48  54
HETATM   54  N1  UNL     1      19.993   6.832  16.825  1.00  0.00    -0.234 N 
ATOM     55  H12 UNL     1      20.698   6.165  16.511  1.00  0.00     0.174 HD
ATOM     56  H11 UNL     1      19.603   7.476  16.137  1.00  0.00     0.174 HD
ENDBRANCH  48  54
ENDBRANCH  42  45
ENDBRANCH  40  41
ENDBRANCH  39  40
ENDBRANCH   1  39
TORSDOF 11
ENDMDL
MODEL 3
REMARK VINA RESULT: -10.670858977      3.170      7.690
REMARK  11 active torsions:
REMARK  status: ('A' for Active; 'I' for Inactive)
REMARK    1  A    between atoms: N1_1  and  C1_4 
REMARK    2  A    between atoms: C3_8  and  C4_9 
REMARK       I    between atoms: C4_9  and  N3_11 
REMARK    3  A    between atoms: N3_11  and  C5_13 
REMARK    4  A    between atoms: C5_13  and  C6_14 
REMARK    5  A    between atoms: C6_14  and  C7_15 
REMARK    6  A    between atoms: C12_22  and  C13_23 
REMARK    7  A    between atoms: N5_25  and  C15_26 
REMARK    8  A    between atoms: C15_26  and  C16_27 
REMARK    9  A    between atoms: C19_30  and  C20_31 
REMARK   10  A    between atoms: C23_34  and  S1_35 
REMARK   11  A    between atoms: S1_35  and  N6_36 
ROOT
HETATM    1  C7  UNL     1      22.909  13.167  23.158  1.00  0.00     0.026 A 
HETATM    2  C8  UNL     1      23.221  14.188  24.020  1.00  0.00     0.113 A 
HETATM    3  N4  UNL     1      22.543  14.330  25.173  1.00  0.00    -0.362 N 
ATOM      4  H4  UNL     1      22.779  15.089  25.812  1.00  0.00     0.165 HD
HETATM    5  C9  UNL     1      21.540  13.459  25.490  1.00  0.00     0.059 A 
HETATM    6  C10 UNL     1      20.835  13.592  26.671  1.00  0.00     0.033 A 
HETATM    7  C11 UNL     1      19.813  12.705  26.997  1.00  0.00     0.015 A 
HETATM    8  C12 UNL     1      19.486  11.675  26.142  1.00  0.00    -0.017 A 
HETATM    9  C29 UNL     1      20.199  11.556  24.969  1.00  0.00     0.044 A 
HETATM   10  C30 UNL     1      21.217  12.427  24.628  1.00  0.00     0.060 A 
HETATM   11  N8  UNL     1      21.922  12.324  23.488  1.00  0.00    -0.357 N 
ATOM     12  H8  UNL     1      21.694  11.569  22.843  1.00  0.00     0.166 HD
ENDROOT
BRANCH   8  13
HETATM   13  C13 UNL     1      18.419  10.745  26.479  1.00  0.00     0.061 A 
HETATM   14  C14 UNL     1      18.482   9.358  26.460  1.00  0.00     0.128 A 
HETATM   15  N5  UNL     1      17.302   8.848  26.832  1.00  0.00    -0.295 N 
HETATM   16  N7  UNL     1      16.496   9.850  27.084  1.00  0.00    -0.264 N 
HETATM   17  C28 UNL     1      17.128  11.035  26.884  1.00  0.00     0.272 A 
ATOM     18  H7  UNL     1      15.527   9.754  27.387  1.00  0.00     0.190 HD
HETATM   19  O4  UNL     1      16.645  12.193  27.034  1.00  0.00    -0.266 OA
BRANCH  15  20
HETATM   20  C15 UNL     1      16.989   7.453  26.931  1.00  0.00     0.186 C 
BRANCH  20  21
HETATM   21  C16 UNL     1      16.508   6.982  25.609  1.00  0.00    -0.038 A 
HETATM   22  C17 UNL     1      15.244   7.257  25.134  1.00  0.00     0.010 A 
HETATM   23  C18 UNL     1      14.830   6.803  23.899  1.00  0.00     0.013 A 
HETATM   24  C19 UNL     1      15.662   6.051  23.080  1.00  0.00    -0.026 A 
HETATM   25  C26 UNL     1      16.923   5.788  23.575  1.00  0.00     0.013 A 
HETATM   26  C27 UNL     1      17.346   6.237  24.808  1.00  0.00     0.010 A 
BRANCH  24  27
HETATM   27  C20 UNL     1      15.212   5.576  21.776  1.00  0.00    -0.026 A 
HETATM   28  C21 UNL     1      14.341   4.521  21.618  1.00  0.00     0.014 A 
HETATM   29  C22 UNL     1      13.925   4.088  20.365  1.00  0.00     0.026 A 
HETATM   30  C23 UNL     1      14.379   4.709  19.220  1.00  0.00     0.079 A 
HETATM   31  C24 UNL     1      15.251   5.764  19.381  1.00  0.00     0.026 A 
HETATM   32  C25 UNL     1      15.665   6.198  20.625  1.00  0.00     0.014 A 
BRANCH  30  33
HETATM   33  S1  UNL     1      13.862   4.170  17.630  1.00  0.00     0.256 S 
HETATM   34  O2  UNL     1      14.968   4.155  16.645  1.00  0.00    -0.201 OA
HETATM   35  O3  UNL     1      12.703   5.025  17.210  1.00  0.00    -0.201 OA
BRANCH  33  36
HETATM   36  N6  UNL     1      13.254   2.549  17.792  1.00  0.00    -0.324 N 
ATOM     37  H62 UNL     1      13.533   1.883  18.514  1.00  0.00     0.169 HD
ATOM     38  H61 UNL     1      12.580   2.394  17.043  1.00  0.00     0.169 HD
ENDBRANCH  33  36
ENDBRANCH  30  33
ENDBRANCH  24  27
ENDBRANCH  20  21
ENDBRANCH  15  20
ENDBRANCH   8  13
BRANCH   1  39
HETATM   39  C6  UNL     1      23.640  12.977  21.868  1.00  0.00     0.078 C 
BRANCH  39  40
HETATM   40  C5  UNL     1      24.430  11.722  22.002  1.00  0.00     0.129 C 
BRANCH  40  41
HETATM   41  N3  UNL     1      24.067  10.663  21.092  1.00  0.00    -0.356 N 
HETATM   42  C4  UNL     1      23.300   9.565  21.486  1.00  0.00     0.258 C 
HETATM   43  O1  UNL     1      22.929   9.558  22.716  1.00  0.00    -0.267 OA
ATOM     44  H3  UNL     1      24.384  10.718  20.123  1.00  0.00     0.162 HD
BRANCH  42  45
HETATM   45  C3  UNL     1      22.866   8.429  20.686  1.00  0.00     0.116 A 
HETATM   46  C2  UNL     1      21.491   8.181  20.542  1.00  0.00     0.129 A 
HETATM   47  N2  UNL     1      21.060   7.156  19.823  1.00  0.00    -0.201 N 
HETATM   48  C1  UNL     1      21.884   6.300  19.196  1.00  0.00     0.678 A 
ATOM     49  H2  UNL     1      20.054   7.008  19.740  1.00  0.00     0.183 HD
HETATM   50  N9  UNL     1      23.205   6.502  19.309  1.00  0.00    -0.155 N 
HETATM   51  C31 UNL     1      23.693   7.549  20.042  1.00  0.00     0.276 A 
ATOM     52  H9  UNL     1      23.853   5.867  18.844  1.00  0.00     0.187 HD
HETATM   53  O5  UNL     1      24.935   7.691  20.113  1.00  0.00    -0.267 OA
BRANCH  48  54
HETATM   54  N1  UNL     1      21.472   5.300  18.496  1.00  0.00    -0.234 N 
ATOM     55  H12 UNL     1      20.611   5.403  17.959  1.00  0.00     0.174 HD
ATOM     56  H11 UNL     1      21.962   4.407  18.448  1.00  0.00     0.174 HD
ENDBRANCH  48  54
ENDBRANCH  42  45
ENDBRANCH  40  41
ENDBRANCH  39  40
ENDBRANCH   1  39
TORSDOF 11
ENDMDL
MODEL 4
REMARK VINA RESULT: -10.667349541      3.737      7.706
REMARK  11 active torsions:
REMARK  status: ('A' for Active; 'I' for Inactive)
REMARK    1  A    between atoms: N1_1  and  C1_4 
REMARK    2  A    between atoms: C3_8  and  C4_9 
REMARK       I    between atoms: C4_9  and  N3_11 
REMARK    3  A    between atoms: N3_11  and  C5_13 
REMARK    4  A    between atoms: C5_13  and  C6_14 
REMARK    5  A    between atoms: C6_14  and  C7_15 
REMARK    6  A    between atoms: C12_22  and  C13_23 
REMARK    7  A    between atoms: N5_25  and  C15_26 
REMARK    8  A    between atoms: C15_26  and  C16_27 
REMARK    9  A    between atoms: C19_30  and  C20_31 
REMARK   10  A    between atoms: C23_34  and  S1_35 
REMARK   11  A    between atoms: S1_35  and  N6_36 
ROOT
HETATM    1  C7  UNL     1      20.792   6.745  18.944  1.00  0.00     0.026 A 
HETATM    2  C8  UNL     1      19.574   6.378  18.430  1.00  0.00     0.113 A 
HETATM    3  N4  UNL     1      18.444   6.658  19.103  1.00  0.00    -0.362 N 
ATOM      4  H4  UNL     1      17.540   6.384  18.717  1.00  0.00     0.165 HD
HETATM    5  C9  UNL     1      18.504   7.307  20.303  1.00  0.00     0.059 A 
HETATM    6  C10 UNL     1      17.352   7.602  21.007  1.00  0.00     0.033 A 
HETATM    7  C11 UNL     1      17.410   8.265  22.229  1.00  0.00     0.015 A 
HETATM    8  C12 UNL     1      18.626   8.640  22.760  1.00  0.00    -0.017 A 
HETATM    9  C29 UNL     1      19.765   8.340  22.045  1.00  0.00     0.044 A 
HETATM   10  C30 UNL     1      19.727   7.682  20.831  1.00  0.00     0.060 A 
HETATM   11  N8  UNL     1      20.829   7.382  20.121  1.00  0.00    -0.357 N 
ATOM     12  H8  UNL     1      21.737   7.651  20.499  1.00  0.00     0.166 HD
ENDROOT
BRANCH   8  13
HETATM   13  C13 UNL     1      18.691   9.334  24.037  1.00  0.00     0.061 A 
HETATM   14  C14 UNL     1      18.914  10.689  24.241  1.00  0.00     0.128 A 
HETATM   15  N5  UNL     1      18.906  10.955  25.552  1.00  0.00    -0.295 N 
HETATM   16  N7  UNL     1      18.689   9.829  26.186  1.00  0.00    -0.264 N 
HETATM   17  C28 UNL     1      18.549   8.804  25.307  1.00  0.00     0.272 A 
ATOM     18  H7  UNL     1      18.632   9.735  27.200  1.00  0.00     0.190 HD
HETATM   19  O4  UNL     1      18.332   7.589  25.579  1.00  0.00    -0.266 OA
BRANCH  15  20
HETATM   20  C15 UNL     1      19.102  12.246  26.145  1.00  0.00     0.186 C 
BRANCH  20  21
HETATM   21  C16 UNL     1      20.557  12.532  26.179  1.00  0.00    -0.038 A 
HETATM   22  C17 UNL     1      21.481  11.642  26.680  1.00  0.00     0.010 A 
HETATM   23  C18 UNL     1      22.828  11.942  26.696  1.00  0.00     0.013 A 
HETATM   24  C19 UNL     1      23.314  13.150  26.211  1.00  0.00    -0.026 A 
HETATM   25  C26 UNL     1      22.370  14.026  25.714  1.00  0.00     0.013 A 
HETATM   26  C27 UNL     1      21.023  13.735  25.693  1.00  0.00     0.010 A 
BRANCH  24  27
HETATM   27  C20 UNL     1      24.740  13.455  26.234  1.00  0.00    -0.026 A 
HETATM   28  C21 UNL     1      25.390  13.934  27.350  1.00  0.00     0.014 A 
HETATM   29  C22 UNL     1      26.750  14.217  27.348  1.00  0.00     0.026 A 
HETATM   30  C23 UNL     1      27.506  14.027  26.210  1.00  0.00     0.079 A 
HETATM   31  C24 UNL     1      26.853  13.548  25.094  1.00  0.00     0.026 A 
HETATM   32  C25 UNL     1      25.501  13.265  25.094  1.00  0.00     0.014 A 
BRANCH  30  33
HETATM   33  S1  UNL     1      29.227  14.381  26.194  1.00  0.00     0.256 S 
HETATM   34  O2  UNL     1      29.599  15.447  27.153  1.00  0.00    -0.201 OA
HETATM   35  O3  UNL     1      29.619  14.689  24.779  1.00  0.00    -0.201 OA
BRANCH  33  36
HETATM   36  N6  UNL     1      30.070  12.927  26.641  1.00  0.00    -0.324 N 
ATOM     37  H62 UNL     1      29.678  11.985  26.616  1.00  0.00     0.169 HD
ATOM     38  H61 UNL     1      31.013  13.191  26.928  1.00  0.00     0.169 HD
ENDBRANCH  33  36
ENDBRANCH  30  33
ENDBRANCH  24  27
ENDBRANCH  20  21
ENDBRANCH  15  20
ENDBRANCH   8  13
BRANCH   1  39
HETATM   39  C6  UNL     1      22.069   6.452  18.225  1.00  0.00     0.078 C 
BRANCH  39  40
HETATM   40  C5  UNL     1      23.176   6.905  19.111  1.00  0.00     0.129 C 
BRANCH  40  41
HETATM   41  N3  UNL     1      23.162   8.308  19.451  1.00  0.00    -0.356 N 
HETATM   42  C4  UNL     1      23.265   8.761  20.767  1.00  0.00     0.258 C 
HETATM   43  O1  UNL     1      23.379   7.848  21.663  1.00  0.00    -0.267 OA
ATOM     44  H3  UNL     1      23.074   8.994  18.701  1.00  0.00     0.162 HD
BRANCH  42  45
HETATM   45  C3  UNL     1      23.261  10.132  21.256  1.00  0.00     0.116 A 
HETATM   46  C2  UNL     1      23.685  11.163  20.402  1.00  0.00     0.129 A 
HETATM   47  N2  UNL     1      23.695  12.422  20.814  1.00  0.00    -0.201 N 
HETATM   48  C1  UNL     1      23.312  12.795  22.046  1.00  0.00     0.678 A 
ATOM     49  H2  UNL     1      24.010  13.143  20.164  1.00  0.00     0.183 HD
HETATM   50  N9  UNL     1      22.900  11.840  22.893  1.00  0.00    -0.155 N 
HETATM   51  C31 UNL     1      22.873  10.527  22.508  1.00  0.00     0.276 A 
ATOM     52  H9  UNL     1      22.604  12.096  23.834  1.00  0.00     0.187 HD
HETATM   53  O5  UNL     1      22.478   9.678  23.339  1.00  0.00    -0.267 OA
BRANCH  48  54
HETATM   54  N1  UNL     1      23.321  14.017  22.454  1.00  0.00    -0.234 N 
ATOM     55  H12 UNL     1      22.589  14.646  22.123  1.00  0.00     0.174 HD
ATOM     56  H11 UNL     1      24.022  14.392  23.092  1.00  0.00     0.174 HD
ENDBRANCH  48  54
ENDBRANCH  42  45
ENDBRANCH  40  41
ENDBRANCH  39  40
ENDBRANCH   1  39
TORSDOF 11
ENDMDL
MODEL 5
REMARK VINA RESULT: -10.646761434      5.913     11.183
REMARK  11 active torsions:
REMARK  status: ('A' for Active; 'I' for Inactive)
REMARK    1  A    between atoms: N1_1  and  C1_4 
REMARK    2  A    between atoms: C3_8  and  C4_9 
REMARK       I    between atoms: C4_9  and  N3_11 
REMARK    3  A    between atoms: N3_11  and  C5_13 
REMARK    4  A    between atoms: C5_13  and  C6_14 
REMARK    5  A    between atoms: C6_14  and  C7_15 
REMARK    6  A    between atoms: C12_22  and  C13_23 
REMARK    7  A    between atoms: N5_25  and  C15_26 
REMARK    8  A    between atoms: C15_26  and  C16_27 
REMARK    9  A    between atoms: C19_30  and  C20_31 
REMARK   10  A    between atoms: C23_34  and  S1_35 
REMARK   11  A    between atoms: S1_35  and  N6_36 
ROOT
HETATM    1  C7  UNL     1      23.358   7.167  17.893  1.00  0.00     0.026 A 
HETATM    2  C8  UNL     1      23.551   5.977  17.237  1.00  0.00     0.113 A 
HETATM    3  N4  UNL     1      22.592   5.035  17.250  1.00  0.00    -0.362 N 
ATOM      4  H4  UNL     1      22.739   4.152  16.760  1.00  0.00     0.165 HD
HETATM    5  C9  UNL     1      21.421   5.257  17.916  1.00  0.00     0.059 A 
HETATM    6  C10 UNL     1      20.425   4.299  17.938  1.00  0.00     0.033 A 
HETATM    7  C11 UNL     1      19.231   4.523  18.615  1.00  0.00     0.015 A 
HETATM    8  C12 UNL     1      19.021   5.713  19.280  1.00  0.00    -0.017 A 
HETATM    9  C29 UNL     1      20.023   6.658  19.248  1.00  0.00     0.044 A 
HETATM   10  C30 UNL     1      21.215   6.453  18.580  1.00  0.00     0.060 A 
HETATM   11  N8  UNL     1      22.202   7.365  18.540  1.00  0.00    -0.357 N 
ATOM     12  H8  UNL     1      22.065   8.250  19.027  1.00  0.00     0.166 HD
ENDROOT
BRANCH   8  13
HETATM   13  C13 UNL     1      17.773   5.953  19.989  1.00  0.00     0.061 A 
HETATM   14  C14 UNL     1      16.595   5.227  19.876  1.00  0.00     0.128 A 
HETATM   15  N5  UNL     1      15.665   5.747  20.685  1.00  0.00    -0.295 N 
HETATM   16  N7  UNL     1      16.203   6.770  21.304  1.00  0.00    -0.264 N 
HETATM   17  C28 UNL     1      17.492   6.941  20.915  1.00  0.00     0.272 A 
ATOM     18  H7  UNL     1      15.718   7.357  21.983  1.00  0.00     0.190 HD
HETATM   19  O4  UNL     1      18.298   7.829  21.313  1.00  0.00    -0.266 OA
BRANCH  15  20
HETATM   20  C15 UNL     1      14.324   5.264  20.837  1.00  0.00     0.186 C 
BRANCH  20  21
HETATM   21  C16 UNL     1      14.024   4.344  19.713  1.00  0.00    -0.038 A 
HETATM   22  C17 UNL     1      14.019   4.751  18.397  1.00  0.00     0.010 A 
HETATM   23  C18 UNL     1      13.736   3.867  17.376  1.00  0.00     0.013 A 
HETATM   24  C19 UNL     1      13.443   2.532  17.625  1.00  0.00    -0.026 A 
HETATM   25  C26 UNL     1      13.454   2.147  18.950  1.00  0.00     0.013 A 
HETATM   26  C27 UNL     1      13.736   3.022  19.977  1.00  0.00     0.010 A 
BRANCH  24  27
HETATM   27  C20 UNL     1      13.144   1.608  16.537  1.00  0.00    -0.026 A 
HETATM   28  C21 UNL     1      11.991   0.857  16.481  1.00  0.00     0.014 A 
HETATM   29  C22 UNL     1      11.728  -0.017  15.433  1.00  0.00     0.026 A 
HETATM   30  C23 UNL     1      12.628  -0.164  14.398  1.00  0.00     0.079 A 
HETATM   31  C24 UNL     1      13.782   0.589  14.456  1.00  0.00     0.026 A 
HETATM   32  C25 UNL     1      14.045   1.458  15.496  1.00  0.00     0.014 A 
BRANCH  30  33
HETATM   33  S1  UNL     1      12.308  -1.265  13.067  1.00  0.00     0.256 S 
HETATM   34  O2  UNL     1      12.075  -2.656  13.521  1.00  0.00    -0.201 OA
HETATM   35  O3  UNL     1      13.436  -1.139  12.085  1.00  0.00    -0.201 OA
BRANCH  33  36
HETATM   36  N6  UNL     1      10.874  -0.709  12.254  1.00  0.00    -0.324 N 
ATOM     37  H62 UNL     1      10.142  -0.136  12.674  1.00  0.00     0.169 HD
ATOM     38  H61 UNL     1      10.905  -1.060  11.297  1.00  0.00     0.169 HD
ENDBRANCH  33  36
ENDBRANCH  30  33
ENDBRANCH  24  27
ENDBRANCH  20  21
ENDBRANCH  15  20
ENDBRANCH   8  13
BRANCH   1  39
HETATM   39  C6  UNL     1      24.400   8.238  17.902  1.00  0.00     0.078 C 
BRANCH  39  40
HETATM   40  C5  UNL     1      24.845   8.394  19.314  1.00  0.00     0.129 C 
BRANCH  40  41
HETATM   41  N3  UNL     1      24.253   9.498  20.031  1.00  0.00    -0.356 N 
HETATM   42  C4  UNL     1      23.385   9.313  21.108  1.00  0.00     0.258 C 
HETATM   43  O1  UNL     1      23.148   8.092  21.428  1.00  0.00    -0.267 OA
ATOM     44  H3  UNL     1      24.478  10.450  19.739  1.00  0.00     0.162 HD
BRANCH  42  45
HETATM   45  C3  UNL     1      22.714  10.322  21.916  1.00  0.00     0.116 A 
HETATM   46  C2  UNL     1      21.730   9.919  22.833  1.00  0.00     0.129 A 
HETATM   47  N2  UNL     1      21.099  10.809  23.583  1.00  0.00    -0.201 N 
HETATM   48  C1  UNL     1      21.347  12.128  23.522  1.00  0.00     0.678 A 
ATOM     49  H2  UNL     1      20.391  10.478  24.239  1.00  0.00     0.183 HD
HETATM   50  N9  UNL     1      22.280  12.554  22.659  1.00  0.00    -0.155 N 
HETATM   51  C31 UNL     1      22.956  11.668  21.865  1.00  0.00     0.276 A 
ATOM     52  H9  UNL     1      22.487  13.550  22.592  1.00  0.00     0.187 HD
HETATM   53  O5  UNL     1      23.818  12.121  21.078  1.00  0.00    -0.267 OA
BRANCH  48  54
HETATM   54  N1  UNL     1      20.736  13.000  24.248  1.00  0.00    -0.234 N 
ATOM     55  H12 UNL     1      19.805  12.776  24.600  1.00  0.00     0.174 HD
ATOM     56  H11 UNL     1      21.134  13.907  24.492  1.00  0.00     0.174 HD
ENDBRANCH  48  54
ENDBRANCH  42  45
ENDBRANCH  40  41
ENDBRANCH  39  40
ENDBRANCH   1  39
TORSDOF 11
ENDMDL
