MODEL 1
REMARK VINA RESULT: -7.392424987      0.000      0.000
REMARK  8 active torsions:
REMARK  status: ('A' for Active; 'I' for Inactive)
REMARK    1  A    between atoms: C2_2  and  O1_3 
REMARK    2  A    between atoms: C2_2  and  C3_5 
REMARK    3  A    between atoms: C3_5  and  N2_17 
REMARK    4  A    between atoms: C4_6  and  C5_7 
REMARK    5  A    between atoms: C5_7  and  N1_8 
REMARK    6  A    between atoms: C5_7  and  C6_12 
REMARK    7  A    between atoms: C6_12  and  O2_13 
REMARK    8  A    between atoms: C6_12  and  O3_15 
ROOT
HETATM    1  N2  UNL     1       6.670  83.498  43.954  1.00  0.00    -0.344 N 
ATOM      2  H2  UNL     1       6.210  82.599  44.097  1.00  0.00     0.167 HD
HETATM    3  C7  UNL     1       6.023  84.340  43.253  1.00  0.00     0.079 C 
HETATM    4  C8  UNL     1       6.503  85.687  42.928  1.00  0.00     0.103 C 
HETATM    5  C9  UNL     1       6.156  86.133  41.512  1.00  0.00     0.239 C 
HETATM    6  N3  UNL     1       5.847  87.532  41.500  1.00  0.00    -0.075 N 
ATOM      7  H31 UNL     1       6.492  88.046  42.100  1.00  0.00     0.277 HD
ATOM      8  H32 UNL     1       4.973  87.709  41.994  1.00  0.00     0.277 HD
HETATM    9  C10 UNL     1       5.811  88.109  40.192  1.00  0.00     0.234 C 
HETATM   10  C11 UNL     1       4.712  87.624  39.308  1.00  0.00     0.046 C 
HETATM   11  C12 UNL     1       3.477  88.480  39.358  1.00  0.00     0.115 C 
HETATM   12  N4  UNL     1       2.503  88.064  40.307  1.00  0.00    -0.420 N 
ATOM     13  H4  UNL     1       2.562  88.323  41.292  1.00  0.00     0.153 HD
HETATM   14  C13 UNL     1       1.444  87.267  39.804  1.00  0.00     0.141 C 
HETATM   15  C14 UNL     1       1.594  85.787  40.072  1.00  0.00     0.251 C 
HETATM   16  N5  UNL     1       1.712  85.470  41.462  1.00  0.00    -0.072 N 
ATOM     17  H51 UNL     1       0.789  85.338  41.878  1.00  0.00     0.277 HD
ATOM     18  H52 UNL     1       2.025  86.284  41.990  1.00  0.00     0.277 HD
HETATM   19  C15 UNL     1       2.555  84.337  41.734  1.00  0.00     0.251 C 
HETATM   20  C16 UNL     1       3.540  84.700  42.823  1.00  0.00     0.148 C 
HETATM   21  N6  UNL     1       4.725  83.881  42.773  1.00  0.00    -0.378 N 
ATOM     22  H6  UNL     1       4.653  82.940  42.385  1.00  0.00     0.160 HD
ENDROOT
BRANCH   1  23
HETATM   23  C3  UNL     1       7.972  83.638  44.580  1.00  0.00     0.060 C 
HETATM   24  C4  UNL     1       9.112  83.706  43.712  1.00  0.00     0.042 C 
BRANCH  23  25
HETATM   25  C2  UNL     1       7.894  83.086  45.934  1.00  0.00     0.066 C 
HETATM   26  C1  UNL     1       6.702  82.996  46.750  1.00  0.00     0.078 C 
BRANCH  25  27
HETATM   27  O1  UNL     1       8.718  81.964  46.093  1.00  0.00    -0.363 OA
ATOM     28  H1  UNL     1       8.539  81.300  45.438  1.00  0.00     0.217 HD
ENDBRANCH  25  27
ENDBRANCH  23  25
BRANCH  24  29
HETATM   29  C5  UNL     1      10.310  84.530  43.813  1.00  0.00     0.263 C 
BRANCH  29  30
HETATM   30  N1  UNL     1       9.819  85.966  44.032  1.00  0.00    -0.067 N 
ATOM     31  H13 UNL     1      10.509  86.675  43.781  1.00  0.00     0.275 HD
ATOM     32  H12 UNL     1       9.099  86.256  43.369  1.00  0.00     0.275 HD
ATOM     33  H11 UNL     1       9.520  86.016  45.006  1.00  0.00     0.275 HD
ENDBRANCH  29  30
BRANCH  29  34
HETATM   34  C6  UNL     1      11.387  84.662  42.842  1.00  0.00     0.287 C 
BRANCH  34  35
HETATM   35  O2  UNL     1      12.527  83.931  43.155  1.00  0.00    -0.369 OA
ATOM     36  H2  UNL     1      12.859  83.404  42.437  1.00  0.00     0.212 HD
ENDBRANCH  34  35
BRANCH  34  37
HETATM   37  O3  UNL     1      11.733  86.007  42.586  1.00  0.00    -0.369 OA
ATOM     38  H3  UNL     1      12.670  86.161  42.625  1.00  0.00     0.212 HD
ENDBRANCH  34  37
ENDBRANCH  29  34
ENDBRANCH  24  29
ENDBRANCH   1  23
TORSDOF 8
ENDMDL
MODEL 2
REMARK VINA RESULT: -7.315336815      4.166      8.470
REMARK  8 active torsions:
REMARK  status: ('A' for Active; 'I' for Inactive)
REMARK    1  A    between atoms: C2_2  and  O1_3 
REMARK    2  A    between atoms: C2_2  and  C3_5 
REMARK    3  A    between atoms: C3_5  and  N2_17 
REMARK    4  A    between atoms: C4_6  and  C5_7 
REMARK    5  A    between atoms: C5_7  and  N1_8 
REMARK    6  A    between atoms: C5_7  and  C6_12 
REMARK    7  A    between atoms: C6_12  and  O2_13 
REMARK    8  A    between atoms: C6_12  and  O3_15 
ROOT
HETATM    1  N2  UNL     1       5.264  87.267  39.642  1.00  0.00    -0.344 N 
ATOM      2  H2  UNL     1       5.692  87.432  38.731  1.00  0.00     0.167 HD
HETATM    3  C7  UNL     1       6.017  86.720  40.510  1.00  0.00     0.079 C 
HETATM    4  C8  UNL     1       5.601  86.394  41.878  1.00  0.00     0.103 C 
HETATM    5  C9  UNL     1       6.167  85.075  42.391  1.00  0.00     0.239 C 
HETATM    6  N3  UNL     1       6.482  85.184  43.784  1.00  0.00    -0.075 N 
ATOM      7  H31 UNL     1       5.755  85.702  44.276  1.00  0.00     0.277 HD
ATOM      8  H32 UNL     1       7.270  85.817  43.924  1.00  0.00     0.277 HD
HETATM    9  C10 UNL     1       6.725  83.929  44.426  1.00  0.00     0.234 C 
HETATM   10  C11 UNL     1       7.946  83.204  43.972  1.00  0.00     0.046 C 
HETATM   11  C12 UNL     1       9.162  83.489  44.807  1.00  0.00     0.115 C 
HETATM   12  N4  UNL     1       9.974  84.555  44.330  1.00  0.00    -0.420 N 
ATOM     13  H4  UNL     1       9.764  85.531  44.540  1.00  0.00     0.153 HD
HETATM   14  C13 UNL     1      11.094  84.182  43.545  1.00  0.00     0.141 C 
HETATM   15  C14 UNL     1      10.896  84.345  42.056  1.00  0.00     0.251 C 
HETATM   16  N5  UNL     1      10.561  85.682  41.670  1.00  0.00    -0.072 N 
ATOM     17  H51 UNL     1      11.407  86.229  41.505  1.00  0.00     0.277 HD
ATOM     18  H52 UNL     1      10.174  86.196  42.461  1.00  0.00     0.277 HD
HETATM   19  C15 UNL     1       9.680  85.760  40.536  1.00  0.00     0.251 C 
HETATM   20  C16 UNL     1       8.539  86.701  40.857  1.00  0.00     0.148 C 
HETATM   21  N6  UNL     1       7.372  86.424  40.058  1.00  0.00    -0.378 N 
ATOM     22  H6  UNL     1       7.498  86.004  39.137  1.00  0.00     0.160 HD
ENDROOT
BRANCH   1  23
HETATM   23  C3  UNL     1       3.882  87.689  39.768  1.00  0.00     0.060 C 
HETATM   24  C4  UNL     1       2.878  86.814  39.235  1.00  0.00     0.042 C 
BRANCH  23  25
HETATM   25  C2  UNL     1       3.853  89.149  39.865  1.00  0.00     0.066 C 
HETATM   26  C1  UNL     1       4.956  90.044  39.589  1.00  0.00     0.078 C 
BRANCH  25  27
HETATM   27  O1  UNL     1       2.631  89.682  39.430  1.00  0.00    -0.363 OA
ATOM     28  H1  UNL     1       2.154  89.067  38.886  1.00  0.00     0.217 HD
ENDBRANCH  25  27
ENDBRANCH  23  25
BRANCH  24  29
HETATM   29  C5  UNL     1       1.564  86.471  39.765  1.00  0.00     0.263 C 
BRANCH  29  30
HETATM   30  N1  UNL     1       1.821  85.645  41.031  1.00  0.00    -0.067 N 
ATOM     31  H13 UNL     1       1.991  86.213  41.861  1.00  0.00     0.275 HD
ATOM     32  H12 UNL     1       0.991  85.163  41.379  1.00  0.00     0.275 HD
ATOM     33  H11 UNL     1       2.592  85.015  40.805  1.00  0.00     0.275 HD
ENDBRANCH  29  30
BRANCH  29  34
HETATM   34  C6  UNL     1       0.485  85.765  39.089  1.00  0.00     0.287 C 
BRANCH  34  35
HETATM   35  O2  UNL     1       0.473  84.394  39.318  1.00  0.00    -0.369 OA
ATOM     36  H2  UNL     1      -0.267  83.942  38.930  1.00  0.00     0.212 HD
ENDBRANCH  34  35
BRANCH  34  37
HETATM   37  O3  UNL     1       0.446  86.022  37.702  1.00  0.00    -0.369 OA
ATOM     38  H3  UNL     1       0.196  86.916  37.498  1.00  0.00     0.212 HD
ENDBRANCH  34  37
ENDBRANCH  29  34
ENDBRANCH  24  29
ENDBRANCH   1  23
TORSDOF 8
ENDMDL
MODEL 3
REMARK VINA RESULT: -7.209548231      3.644      8.268
REMARK  8 active torsions:
REMARK  status: ('A' for Active; 'I' for Inactive)
REMARK    1  A    between atoms: C2_2  and  O1_3 
REMARK    2  A    between atoms: C2_2  and  C3_5 
REMARK    3  A    between atoms: C3_5  and  N2_17 
REMARK    4  A    between atoms: C4_6  and  C5_7 
REMARK    5  A    between atoms: C5_7  and  N1_8 
REMARK    6  A    between atoms: C5_7  and  C6_12 
REMARK    7  A    between atoms: C6_12  and  O2_13 
REMARK    8  A    between atoms: C6_12  and  O3_15 
ROOT
HETATM    1  N2  UNL     1       5.277  87.111  39.656  1.00  0.00    -0.344 N 
ATOM      2  H2  UNL     1       5.711  87.293  38.750  1.00  0.00     0.167 HD
HETATM    3  C7  UNL     1       6.038  86.589  40.532  1.00  0.00     0.079 C 
HETATM    4  C8  UNL     1       5.616  86.245  41.894  1.00  0.00     0.103 C 
HETATM    5  C9  UNL     1       6.223  84.947  42.412  1.00  0.00     0.239 C 
HETATM    6  N3  UNL     1       6.515  85.063  43.809  1.00  0.00    -0.075 N 
ATOM      7  H31 UNL     1       5.763  85.554  44.292  1.00  0.00     0.277 HD
ATOM      8  H32 UNL     1       7.278  85.723  43.961  1.00  0.00     0.277 HD
HETATM    9  C10 UNL     1       6.795  83.816  44.452  1.00  0.00     0.234 C 
HETATM   10  C11 UNL     1       8.047  83.136  44.012  1.00  0.00     0.046 C 
HETATM   11  C12 UNL     1       9.241  83.462  44.864  1.00  0.00     0.115 C 
HETATM   12  N4  UNL     1      10.020  84.558  44.400  1.00  0.00    -0.420 N 
ATOM     13  H4  UNL     1       9.772  85.525  44.609  1.00  0.00     0.153 HD
HETATM   14  C13 UNL     1      11.163  84.227  43.629  1.00  0.00     0.141 C 
HETATM   15  C14 UNL     1      10.978  84.387  42.138  1.00  0.00     0.251 C 
HETATM   16  N5  UNL     1      10.601  85.712  41.750  1.00  0.00    -0.072 N 
ATOM     17  H51 UNL     1      11.428  86.290  41.597  1.00  0.00     0.277 HD
ATOM     18  H52 UNL     1      10.186  86.210  42.537  1.00  0.00     0.277 HD
HETATM   19  C15 UNL     1       9.732  85.761  40.605  1.00  0.00     0.251 C 
HETATM   20  C16 UNL     1       8.555  86.659  40.913  1.00  0.00     0.148 C 
HETATM   21  N6  UNL     1       7.408  86.343  40.098  1.00  0.00    -0.378 N 
ATOM     22  H6  UNL     1       7.562  85.930  39.178  1.00  0.00     0.160 HD
ENDROOT
BRANCH   1  23
HETATM   23  C3  UNL     1       3.879  87.483  39.764  1.00  0.00     0.060 C 
HETATM   24  C4  UNL     1       2.924  86.639  39.106  1.00  0.00     0.042 C 
BRANCH  23  25
HETATM   25  C2  UNL     1       3.803  88.925  40.003  1.00  0.00     0.066 C 
HETATM   26  C1  UNL     1       4.925  89.836  40.081  1.00  0.00     0.078 C 
BRANCH  25  27
HETATM   27  O1  UNL     1       2.704  89.509  39.358  1.00  0.00    -0.363 OA
ATOM     28  H1  UNL     1       2.346  88.938  38.689  1.00  0.00     0.217 HD
ENDBRANCH  25  27
ENDBRANCH  23  25
BRANCH  24  29
HETATM   29  C5  UNL     1       1.601  86.212  39.544  1.00  0.00     0.263 C 
BRANCH  29  30
HETATM   30  N1  UNL     1       0.833  87.495  39.885  1.00  0.00    -0.067 N 
ATOM     31  H13 UNL     1      -0.062  87.325  40.343  1.00  0.00     0.275 HD
ATOM     32  H12 UNL     1       1.257  88.034  40.642  1.00  0.00     0.275 HD
ATOM     33  H11 UNL     1       0.751  88.015  39.012  1.00  0.00     0.275 HD
ENDBRANCH  29  30
BRANCH  29  34
HETATM   34  C6  UNL     1       1.272  85.298  40.629  1.00  0.00     0.287 C 
BRANCH  34  35
HETATM   35  O2  UNL     1       2.228  85.249  41.638  1.00  0.00    -0.369 OA
ATOM     36  H2  UNL     1       2.502  84.369  41.870  1.00  0.00     0.212 HD
ENDBRANCH  34  35
BRANCH  34  37
HETATM   37  O3  UNL     1       0.982  83.992  40.177  1.00  0.00    -0.369 OA
ATOM     38  H3  UNL     1       1.144  83.328  40.838  1.00  0.00     0.212 HD
ENDBRANCH  34  37
ENDBRANCH  29  34
ENDBRANCH  24  29
ENDBRANCH   1  23
TORSDOF 8
ENDMDL
MODEL 4
REMARK VINA RESULT: -7.106464451      3.581      7.344
REMARK  8 active torsions:
REMARK  status: ('A' for Active; 'I' for Inactive)
REMARK    1  A    between atoms: C2_2  and  O1_3 
REMARK    2  A    between atoms: C2_2  and  C3_5 
REMARK    3  A    between atoms: C3_5  and  N2_17 
REMARK    4  A    between atoms: C4_6  and  C5_7 
REMARK    5  A    between atoms: C5_7  and  N1_8 
REMARK    6  A    between atoms: C5_7  and  C6_12 
REMARK    7  A    between atoms: C6_12  and  O2_13 
REMARK    8  A    between atoms: C6_12  and  O3_15 
ROOT
HETATM    1  N2  UNL     1       8.078  86.369  40.991  1.00  0.00    -0.344 N 
ATOM      2  H2  UNL     1       8.673  85.752  40.438  1.00  0.00     0.167 HD
HETATM    3  C7  UNL     1       7.748  85.928  42.138  1.00  0.00     0.079 C 
HETATM    4  C8  UNL     1       6.900  86.653  43.090  1.00  0.00     0.103 C 
HETATM    5  C9  UNL     1       5.936  85.754  43.856  1.00  0.00     0.239 C 
HETATM    6  N3  UNL     1       5.794  86.220  45.203  1.00  0.00    -0.075 N 
ATOM      7  H31 UNL     1       5.738  87.238  45.225  1.00  0.00     0.277 HD
ATOM      8  H32 UNL     1       6.662  86.084  45.722  1.00  0.00     0.277 HD
HETATM    9  C10 UNL     1       4.692  85.642  45.908  1.00  0.00     0.234 C 
HETATM   10  C11 UNL     1       4.804  84.180  46.182  1.00  0.00     0.046 C 
HETATM   11  C12 UNL     1       5.398  83.863  47.525  1.00  0.00     0.115 C 
HETATM   12  N4  UNL     1       6.808  83.672  47.521  1.00  0.00    -0.420 N 
ATOM     13  H4  UNL     1       7.460  84.456  47.565  1.00  0.00     0.153 HD
HETATM   14  C13 UNL     1       7.255  82.329  47.452  1.00  0.00     0.141 C 
HETATM   15  C14 UNL     1       7.705  81.890  46.078  1.00  0.00     0.251 C 
HETATM   16  N5  UNL     1       8.761  82.693  45.542  1.00  0.00    -0.072 N 
ATOM     17  H51 UNL     1       9.670  82.332  45.833  1.00  0.00     0.277 HD
ATOM     18  H52 UNL     1       8.784  83.605  45.998  1.00  0.00     0.277 HD
HETATM   19  C15 UNL     1       8.713  82.844  44.112  1.00  0.00     0.251 C 
HETATM   20  C16 UNL     1       8.855  84.309  43.762  1.00  0.00     0.148 C 
HETATM   21  N6  UNL     1       8.281  84.613  42.475  1.00  0.00    -0.378 N 
ATOM     22  H6  UNL     1       8.246  83.877  41.769  1.00  0.00     0.160 HD
ENDROOT
BRANCH   1  23
HETATM   23  C3  UNL     1       7.726  87.627  40.360  1.00  0.00     0.060 C 
HETATM   24  C4  UNL     1       6.343  87.839  40.047  1.00  0.00     0.042 C 
BRANCH  23  25
HETATM   25  C2  UNL     1       8.904  88.133  39.654  1.00  0.00     0.066 C 
HETATM   26  C1  UNL     1      10.017  88.841  40.249  1.00  0.00     0.078 C 
BRANCH  25  27
HETATM   27  O1  UNL     1       9.327  87.260  38.642  1.00  0.00    -0.363 OA
ATOM     28  H1  UNL     1       9.686  86.456  38.999  1.00  0.00     0.217 HD
ENDBRANCH  25  27
ENDBRANCH  23  25
BRANCH  24  29
HETATM   29  C5  UNL     1       5.538  89.050  40.155  1.00  0.00     0.263 C 
BRANCH  29  30
HETATM   30  N1  UNL     1       6.505  90.164  40.575  1.00  0.00    -0.067 N 
ATOM     31  H13 UNL     1       6.630  90.237  41.584  1.00  0.00     0.275 HD
ATOM     32  H12 UNL     1       7.480  89.966  40.344  1.00  0.00     0.275 HD
ATOM     33  H11 UNL     1       6.152  91.020  40.146  1.00  0.00     0.275 HD
ENDBRANCH  29  30
BRANCH  29  34
HETATM   34  C6  UNL     1       4.360  89.268  40.982  1.00  0.00     0.287 C 
BRANCH  34  35
HETATM   35  O2  UNL     1       4.620  89.287  42.347  1.00  0.00    -0.369 OA
ATOM     36  H2  UNL     1       3.893  89.594  42.877  1.00  0.00     0.212 HD
ENDBRANCH  34  35
BRANCH  34  37
HETATM   37  O3  UNL     1       3.318  88.357  40.704  1.00  0.00    -0.369 OA
ATOM     38  H3  UNL     1       3.171  88.236  39.772  1.00  0.00     0.212 HD
ENDBRANCH  34  37
ENDBRANCH  29  34
ENDBRANCH  24  29
ENDBRANCH   1  23
TORSDOF 8
ENDMDL
MODEL 5
REMARK VINA RESULT: -5.748153871      2.059      2.449
REMARK  8 active torsions:
REMARK  status: ('A' for Active; 'I' for Inactive)
REMARK    1  A    between atoms: C2_2  and  O1_3 
REMARK    2  A    between atoms: C2_2  and  C3_5 
REMARK    3  A    between atoms: C3_5  and  N2_17 
REMARK    4  A    between atoms: C4_6  and  C5_7 
REMARK    5  A    between atoms: C5_7  and  N1_8 
REMARK    6  A    between atoms: C5_7  and  C6_12 
REMARK    7  A    between atoms: C6_12  and  O2_13 
REMARK    8  A    between atoms: C6_12  and  O3_15 
ROOT
HETATM    1  N2  UNL     1       8.121  84.386  43.235  1.00  0.00    -0.344 N 
ATOM      2  H2  UNL     1       7.931  83.510  43.723  1.00  0.00     0.167 HD
HETATM    3  C7  UNL     1       7.120  84.917  42.655  1.00  0.00     0.079 C 
HETATM    4  C8  UNL     1       7.173  86.172  41.898  1.00  0.00     0.103 C 
HETATM    5  C9  UNL     1       6.305  86.167  40.646  1.00  0.00     0.239 C 
HETATM    6  N3  UNL     1       5.720  87.459  40.448  1.00  0.00    -0.075 N 
ATOM      7  H31 UNL     1       6.398  88.194  40.649  1.00  0.00     0.277 HD
ATOM      8  H32 UNL     1       5.033  87.656  41.176  1.00  0.00     0.277 HD
HETATM    9  C10 UNL     1       5.145  87.647  39.152  1.00  0.00     0.234 C 
HETATM   10  C11 UNL     1       3.950  86.806  38.853  1.00  0.00     0.046 C 
HETATM   11  C12 UNL     1       2.645  87.483  39.164  1.00  0.00     0.115 C 
HETATM   12  N4  UNL     1       2.137  87.224  40.468  1.00  0.00    -0.420 N 
ATOM     13  H4  UNL     1       2.452  87.749  41.284  1.00  0.00     0.153 HD
HETATM   14  C13 UNL     1       1.168  86.195  40.566  1.00  0.00     0.141 C 
HETATM   15  C14 UNL     1       1.706  84.876  41.070  1.00  0.00     0.251 C 
HETATM   16  N5  UNL     1       2.326  84.969  42.356  1.00  0.00    -0.072 N 
ATOM     17  H51 UNL     1       1.636  84.843  43.097  1.00  0.00     0.277 HD
ATOM     18  H52 UNL     1       2.611  85.929  42.547  1.00  0.00     0.277 HD
HETATM   19  C15 UNL     1       3.432  84.067  42.538  1.00  0.00     0.251 C 
HETATM   20  C16 UNL     1       4.613  84.834  43.090  1.00  0.00     0.148 C 
HETATM   21  N6  UNL     1       5.865  84.187  42.789  1.00  0.00    -0.378 N 
ATOM     22  H6  UNL     1       5.874  83.174  42.664  1.00  0.00     0.160 HD
ENDROOT
BRANCH   1  23
HETATM   23  C3  UNL     1       9.493  84.852  43.300  1.00  0.00     0.060 C 
HETATM   24  C4  UNL     1      10.517  83.858  43.438  1.00  0.00     0.042 C 
BRANCH  23  25
HETATM   25  C2  UNL     1       9.489  86.227  43.804  1.00  0.00     0.066 C 
HETATM   26  C1  UNL     1       9.806  87.415  43.042  1.00  0.00     0.078 C 
BRANCH  25  27
HETATM   27  O1  UNL     1       8.440  86.454  44.706  1.00  0.00    -0.363 OA
ATOM     28  H1  UNL     1       7.998  87.276  44.531  1.00  0.00     0.217 HD
ENDBRANCH  25  27
ENDBRANCH  23  25
BRANCH  24  29
HETATM   29  C5  UNL     1      11.837  83.789  42.822  1.00  0.00     0.263 C 
BRANCH  29  30
HETATM   30  N1  UNL     1      12.384  85.221  42.831  1.00  0.00    -0.067 N 
ATOM     31  H13 UNL     1      13.131  85.367  43.509  1.00  0.00     0.275 HD
ATOM     32  H12 UNL     1      12.925  85.456  41.998  1.00  0.00     0.275 HD
ATOM     33  H11 UNL     1      11.578  85.830  42.977  1.00  0.00     0.275 HD
ENDBRANCH  29  30
BRANCH  29  34
HETATM   34  C6  UNL     1      12.179  83.282  41.501  1.00  0.00     0.287 C 
BRANCH  34  35
HETATM   35  O2  UNL     1      11.804  81.960  41.286  1.00  0.00    -0.369 OA
ATOM     36  H2  UNL     1      12.451  81.445  40.818  1.00  0.00     0.212 HD
ENDBRANCH  34  35
BRANCH  34  37
HETATM   37  O3  UNL     1      13.544  83.452  41.184  1.00  0.00    -0.369 OA
ATOM     38  H3  UNL     1      14.124  83.152  41.874  1.00  0.00     0.212 HD
ENDBRANCH  34  37
ENDBRANCH  29  34
ENDBRANCH  24  29
ENDBRANCH   1  23
TORSDOF 8
ENDMDL
