MODEL 1
REMARK VINA RESULT: -8.901952141      0.000      0.000
REMARK  9 active torsions:
REMARK  status: ('A' for Active; 'I' for Inactive)
REMARK       I    between atoms: C1_4  and  N2_5 
REMARK       I    between atoms: C1_4  and  N8_31 
REMARK    1  A    between atoms: N2_5  and  N3_7 
REMARK    2  A    between atoms: N3_7  and  C2_9 
REMARK    3  A    between atoms: C2_9  and  N4_11 
REMARK    4  A    between atoms: N4_11  and  C3_13 
REMARK    5  A    between atoms: C4_15  and  C5_16 
REMARK    6  A    between atoms: C5_16  and  O2_17 
REMARK    7  A    between atoms: C6_19  and  N5_20 
REMARK       I    between atoms: N5_20  and  C7_22 
REMARK    8  A    between atoms: C9_26  and  N7_27 
REMARK    9  A    between atoms: N8_31  and  N9_33 
ROOT
HETATM    1  C3  UNL     1       7.339  87.578  40.092  1.00  0.00     0.254 C 
HETATM    2  O1  UNL     1       6.931  87.227  41.370  1.00  0.00    -0.355 OA
HETATM    3  C4  UNL     1       7.437  86.018  41.798  1.00  0.00     0.170 C 
HETATM    4  C6  UNL     1       8.875  85.809  41.522  1.00  0.00     0.119 C 
HETATM    5  C8  UNL     1       9.599  87.029  41.005  1.00  0.00     0.065 C 
HETATM    6  C9  UNL     1       8.822  87.824  40.010  1.00  0.00     0.234 C 
ENDROOT
BRANCH   1   7
HETATM    7  N4  UNL     1       6.671  88.819  39.757  1.00  0.00    -0.338 N 
ATOM      8  H4  UNL     1       7.240  89.608  39.448  1.00  0.00     0.164 HD
BRANCH   7   9
HETATM    9  C2  UNL     1       5.275  88.991  39.836  1.00  0.00     0.189 C 
HETATM   10  S1  UNL     1       4.695  90.489  40.080  1.00  0.00    -0.039 SA
BRANCH   9  11
HETATM   11  N3  UNL     1       4.405  87.902  39.708  1.00  0.00    -0.262 N 
ATOM     12  H3  UNL     1       4.758  87.010  39.360  1.00  0.00     0.190 HD
BRANCH  11  13
HETATM   13  N2  UNL     1       3.064  88.027  40.049  1.00  0.00    -0.129 N 
HETATM   14  C1  UNL     1       2.112  87.005  39.957  1.00  0.00     0.709 C 
HETATM   15  N1  UNL     1       0.881  87.304  39.748  1.00  0.00    -0.232 N 
HETATM   16  N8  UNL     1       2.430  85.617  40.086  1.00  0.00    -0.071 N 
ATOM     17  H12 UNL     1       0.655  88.294  39.656  1.00  0.00     0.174 HD
ATOM     18  H11 UNL     1       0.187  86.560  39.680  1.00  0.00     0.174 HD
ATOM     19  H8  UNL     1       2.956  85.167  39.337  1.00  0.00     0.212 HD
ATOM     20  H2  UNL     1       2.749  88.934  40.394  1.00  0.00     0.205 HD
BRANCH  16  21
HETATM   21  N9  UNL     1       2.058  84.856  41.177  1.00  0.00    -0.024 N 
HETATM   22  O4  UNL     1       0.969  84.266  41.186  1.00  0.00    -0.516 OA
HETATM   23  O5  UNL     1       2.883  84.744  42.258  1.00  0.00    -0.516 OA
ENDBRANCH  16  21
ENDBRANCH  11  13
ENDBRANCH   9  11
ENDBRANCH   7   9
ENDBRANCH   1   7
BRANCH   6  24
HETATM   24  N7  UNL     1       9.249  87.595  38.645  1.00  0.00    -0.071 N 
ATOM     25  H73 UNL     1       9.326  86.603  38.420  1.00  0.00     0.274 HD
ATOM     26  H72 UNL     1       8.528  87.836  37.964  1.00  0.00     0.274 HD
ATOM     27  H71 UNL     1      10.121  88.102  38.491  1.00  0.00     0.274 HD
ENDBRANCH   6  24
BRANCH   3  28
HETATM   28  C5  UNL     1       7.090  85.913  43.290  1.00  0.00     0.198 C 
BRANCH  28  29
HETATM   29  O2  UNL     1       7.496  87.013  44.004  1.00  0.00    -0.398 OA
ATOM     30  H2  UNL     1       6.979  87.786  43.807  1.00  0.00     0.209 HD
ENDBRANCH  28  29
ENDBRANCH   3  28
BRANCH   4  31
HETATM   31  N5  UNL     1       9.627  85.328  42.650  1.00  0.00    -0.338 N 
HETATM   32  C7  UNL     1      10.766  84.473  42.508  1.00  0.00     0.329 C 
HETATM   33  N6  UNL     1      11.506  83.998  43.600  1.00  0.00    -0.040 NA
HETATM   34  O3  UNL     1      11.103  84.146  41.354  1.00  0.00    -0.251 OA
ATOM     35  H5  UNL     1       9.337  85.607  43.588  1.00  0.00     0.164 HD
ENDBRANCH   4  31
TORSDOF 9
ENDMDL
MODEL 2
REMARK VINA RESULT: -8.551261574      2.217      2.602
REMARK  9 active torsions:
REMARK  status: ('A' for Active; 'I' for Inactive)
REMARK       I    between atoms: C1_4  and  N2_5 
REMARK       I    between atoms: C1_4  and  N8_31 
REMARK    1  A    between atoms: N2_5  and  N3_7 
REMARK    2  A    between atoms: N3_7  and  C2_9 
REMARK    3  A    between atoms: C2_9  and  N4_11 
REMARK    4  A    between atoms: N4_11  and  C3_13 
REMARK    5  A    between atoms: C4_15  and  C5_16 
REMARK    6  A    between atoms: C5_16  and  O2_17 
REMARK    7  A    between atoms: C6_19  and  N5_20 
REMARK       I    between atoms: N5_20  and  C7_22 
REMARK    8  A    between atoms: C9_26  and  N7_27 
REMARK    9  A    between atoms: N8_31  and  N9_33 
ROOT
HETATM    1  C3  UNL     1       7.056  86.168  41.362  1.00  0.00     0.254 C 
HETATM    2  O1  UNL     1       5.963  86.068  42.208  1.00  0.00    -0.355 OA
HETATM    3  C4  UNL     1       5.950  84.910  42.957  1.00  0.00     0.170 C 
HETATM    4  C6  UNL     1       7.246  84.545  43.567  1.00  0.00     0.119 C 
HETATM    5  C8  UNL     1       8.319  85.601  43.442  1.00  0.00     0.065 C 
HETATM    6  C9  UNL     1       8.356  86.278  42.114  1.00  0.00     0.234 C 
ENDROOT
BRANCH   1   7
HETATM    7  N4  UNL     1       6.892  87.386  40.594  1.00  0.00    -0.338 N 
ATOM      8  H4  UNL     1       7.704  87.764  40.104  1.00  0.00     0.164 HD
BRANCH   7   9
HETATM    9  C2  UNL     1       5.667  88.073  40.489  1.00  0.00     0.189 C 
HETATM   10  S1  UNL     1       5.542  89.536  41.185  1.00  0.00    -0.039 SA
BRANCH   9  11
HETATM   11  N3  UNL     1       4.582  87.515  39.803  1.00  0.00    -0.262 N 
ATOM     12  H3  UNL     1       4.749  86.879  39.023  1.00  0.00     0.190 HD
BRANCH  11  13
HETATM   13  N2  UNL     1       3.279  87.820  40.176  1.00  0.00    -0.129 N 
HETATM   14  C1  UNL     1       2.161  87.017  39.925  1.00  0.00     0.709 C 
HETATM   15  N1  UNL     1       1.008  87.564  39.783  1.00  0.00    -0.232 N 
HETATM   16  N8  UNL     1       2.222  85.592  39.816  1.00  0.00    -0.071 N 
ATOM     17  H12 UNL     1       0.965  88.579  39.861  1.00  0.00     0.174 HD
ATOM     18  H11 UNL     1       0.192  86.979  39.600  1.00  0.00     0.174 HD
ATOM     19  H8  UNL     1       2.673  85.187  38.997  1.00  0.00     0.212 HD
ATOM     20  H2  UNL     1       3.126  88.699  40.671  1.00  0.00     0.205 HD
BRANCH  16  21
HETATM   21  N9  UNL     1       1.698  84.740  40.769  1.00  0.00    -0.024 N 
HETATM   22  O4  UNL     1       0.815  83.928  40.464  1.00  0.00    -0.516 OA
HETATM   23  O5  UNL     1       2.146  84.782  42.057  1.00  0.00    -0.516 OA
ENDBRANCH  16  21
ENDBRANCH  11  13
ENDBRANCH   9  11
ENDBRANCH   7   9
ENDBRANCH   1   7
BRANCH   6  24
HETATM   24  N7  UNL     1       9.421  85.792  41.260  1.00  0.00    -0.071 N 
ATOM     25  H73 UNL     1       9.092  85.120  40.567  1.00  0.00     0.274 HD
ATOM     26  H72 UNL     1       9.760  86.504  40.613  1.00  0.00     0.274 HD
ATOM     27  H71 UNL     1      10.161  85.415  41.852  1.00  0.00     0.274 HD
ENDBRANCH   6  24
BRANCH   3  28
HETATM   28  C5  UNL     1       4.827  85.083  43.990  1.00  0.00     0.198 C 
BRANCH  28  29
HETATM   29  O2  UNL     1       4.875  86.301  44.622  1.00  0.00    -0.398 OA
ATOM     30  H2  UNL     1       4.180  86.408  45.260  1.00  0.00     0.209 HD
ENDBRANCH  28  29
ENDBRANCH   3  28
BRANCH   4  31
HETATM   31  N5  UNL     1       7.165  84.199  44.962  1.00  0.00    -0.338 N 
HETATM   32  C7  UNL     1       7.373  82.867  45.438  1.00  0.00     0.329 C 
HETATM   33  N6  UNL     1       7.296  82.519  46.794  1.00  0.00    -0.040 NA
HETATM   34  O3  UNL     1       7.635  81.987  44.596  1.00  0.00    -0.251 OA
ATOM     35  H5  UNL     1       6.950  84.934  45.636  1.00  0.00     0.164 HD
ENDBRANCH   4  31
TORSDOF 9
ENDMDL
MODEL 3
REMARK VINA RESULT: -8.356059757      3.543      7.705
REMARK  9 active torsions:
REMARK  status: ('A' for Active; 'I' for Inactive)
REMARK       I    between atoms: C1_4  and  N2_5 
REMARK       I    between atoms: C1_4  and  N8_31 
REMARK    1  A    between atoms: N2_5  and  N3_7 
REMARK    2  A    between atoms: N3_7  and  C2_9 
REMARK    3  A    between atoms: C2_9  and  N4_11 
REMARK    4  A    between atoms: N4_11  and  C3_13 
REMARK    5  A    between atoms: C4_15  and  C5_16 
REMARK    6  A    between atoms: C5_16  and  O2_17 
REMARK    7  A    between atoms: C6_19  and  N5_20 
REMARK       I    between atoms: N5_20  and  C7_22 
REMARK    8  A    between atoms: C9_26  and  N7_27 
REMARK    9  A    between atoms: N8_31  and  N9_33 
ROOT
HETATM    1  C3  UNL     1       6.590  86.594  43.336  1.00  0.00     0.254 C 
HETATM    2  O1  UNL     1       7.270  86.657  42.130  1.00  0.00    -0.355 OA
HETATM    3  C4  UNL     1       6.504  87.140  41.090  1.00  0.00     0.170 C 
HETATM    4  C6  UNL     1       5.693  88.334  41.412  1.00  0.00     0.119 C 
HETATM    5  C8  UNL     1       5.989  88.949  42.759  1.00  0.00     0.065 C 
HETATM    6  C9  UNL     1       6.204  87.956  43.850  1.00  0.00     0.234 C 
ENDROOT
BRANCH   1   7
HETATM    7  N4  UNL     1       7.491  86.001  44.304  1.00  0.00    -0.338 N 
ATOM      8  H4  UNL     1       7.904  86.605  45.016  1.00  0.00     0.164 HD
BRANCH   7   9
HETATM    9  C2  UNL     1       7.824  84.633  44.311  1.00  0.00     0.189 C 
HETATM   10  S1  UNL     1       6.874  83.612  45.146  1.00  0.00    -0.039 SA
BRANCH   9  11
HETATM   11  N3  UNL     1       8.943  84.158  43.617  1.00  0.00    -0.262 N 
ATOM     12  H3  UNL     1       9.189  83.169  43.669  1.00  0.00     0.190 HD
BRANCH  11  13
HETATM   13  N2  UNL     1       9.722  85.022  42.859  1.00  0.00    -0.129 N 
HETATM   14  C1  UNL     1      11.117  84.974  42.762  1.00  0.00     0.709 C 
HETATM   15  N1  UNL     1      11.774  86.053  42.538  1.00  0.00    -0.232 N 
HETATM   16  N8  UNL     1      11.876  83.769  42.900  1.00  0.00    -0.071 N 
ATOM     17  H12 UNL     1      11.233  86.912  42.439  1.00  0.00     0.174 HD
ATOM     18  H11 UNL     1      12.791  86.019  42.467  1.00  0.00     0.174 HD
ATOM     19  H8  UNL     1      11.944  83.341  43.823  1.00  0.00     0.212 HD
ATOM     20  H2  UNL     1       9.239  85.749  42.331  1.00  0.00     0.205 HD
BRANCH  16  21
HETATM   21  N9  UNL     1      12.520  83.159  41.842  1.00  0.00    -0.024 N 
HETATM   22  O4  UNL     1      13.591  83.612  41.416  1.00  0.00    -0.516 OA
HETATM   23  O5  UNL     1      11.987  82.050  41.252  1.00  0.00    -0.516 OA
ENDBRANCH  16  21
ENDBRANCH  11  13
ENDBRANCH   9  11
ENDBRANCH   7   9
ENDBRANCH   1   7
BRANCH   6  24
HETATM   24  N7  UNL     1       5.053  87.809  44.717  1.00  0.00    -0.071 N 
ATOM     25  H73 UNL     1       5.075  86.941  45.253  1.00  0.00     0.274 HD
ATOM     26  H72 UNL     1       5.069  88.458  45.504  1.00  0.00     0.274 HD
ATOM     27  H71 UNL     1       4.210  87.899  44.150  1.00  0.00     0.274 HD
ENDBRANCH   6  24
BRANCH   3  28
HETATM   28  C5  UNL     1       7.470  87.368  39.918  1.00  0.00     0.198 C 
BRANCH  28  29
HETATM   29  O2  UNL     1       8.397  88.347  40.183  1.00  0.00    -0.398 OA
ATOM     30  H2  UNL     1       9.132  88.324  39.582  1.00  0.00     0.209 HD
ENDBRANCH  28  29
ENDBRANCH   3  28
BRANCH   4  31
HETATM   31  N5  UNL     1       5.790  89.392  40.442  1.00  0.00    -0.338 N 
HETATM   32  C7  UNL     1       4.641  89.986  39.833  1.00  0.00     0.329 C 
HETATM   33  N6  UNL     1       4.724  91.018  38.887  1.00  0.00    -0.040 NA
HETATM   34  O3  UNL     1       3.521  89.557  40.171  1.00  0.00    -0.251 OA
ATOM     35  H5  UNL     1       6.716  89.731  40.178  1.00  0.00     0.164 HD
ENDBRANCH   4  31
TORSDOF 9
ENDMDL
MODEL 4
REMARK VINA RESULT: -8.246532700      3.737      4.901
REMARK  9 active torsions:
REMARK  status: ('A' for Active; 'I' for Inactive)
REMARK       I    between atoms: C1_4  and  N2_5 
REMARK       I    between atoms: C1_4  and  N8_31 
REMARK    1  A    between atoms: N2_5  and  N3_7 
REMARK    2  A    between atoms: N3_7  and  C2_9 
REMARK    3  A    between atoms: C2_9  and  N4_11 
REMARK    4  A    between atoms: N4_11  and  C3_13 
REMARK    5  A    between atoms: C4_15  and  C5_16 
REMARK    6  A    between atoms: C5_16  and  O2_17 
REMARK    7  A    between atoms: C6_19  and  N5_20 
REMARK       I    between atoms: N5_20  and  C7_22 
REMARK    8  A    between atoms: C9_26  and  N7_27 
REMARK    9  A    between atoms: N8_31  and  N9_33 
ROOT
HETATM    1  C3  UNL     1       7.997  85.751  41.931  1.00  0.00     0.254 C 
HETATM    2  O1  UNL     1       8.341  84.889  42.960  1.00  0.00    -0.355 OA
HETATM    3  C4  UNL     1       9.494  84.174  42.719  1.00  0.00     0.170 C 
HETATM    4  C6  UNL     1      10.616  84.964  42.165  1.00  0.00     0.119 C 
HETATM    5  C8  UNL     1      10.384  86.456  42.147  1.00  0.00     0.065 C 
HETATM    6  C9  UNL     1       9.005  86.855  41.745  1.00  0.00     0.234 C 
ENDROOT
BRANCH   1   7
HETATM    7  N4  UNL     1       6.737  86.368  42.293  1.00  0.00    -0.338 N 
ATOM      8  H4  UNL     1       5.976  86.354  41.613  1.00  0.00     0.164 HD
BRANCH   7   9
HETATM    9  C2  UNL     1       6.510  86.988  43.538  1.00  0.00     0.189 C 
HETATM   10  S1  UNL     1       5.732  88.414  43.559  1.00  0.00    -0.039 SA
BRANCH   9  11
HETATM   11  N3  UNL     1       6.940  86.393  44.730  1.00  0.00    -0.262 N 
ATOM     12  H3  UNL     1       7.929  86.177  44.859  1.00  0.00     0.190 HD
BRANCH  11  13
HETATM   13  N2  UNL     1       6.032  86.094  45.737  1.00  0.00    -0.129 N 
HETATM   14  C1  UNL     1       5.517  84.820  46.005  1.00  0.00     0.709 C 
HETATM   15  N1  UNL     1       4.347  84.705  46.520  1.00  0.00    -0.232 N 
HETATM   16  N8  UNL     1       6.231  83.609  45.738  1.00  0.00    -0.071 N 
ATOM     17  H12 UNL     1       3.839  85.569  46.710  1.00  0.00     0.174 HD
ATOM     18  H11 UNL     1       3.972  83.777  46.716  1.00  0.00     0.174 HD
ATOM     19  H8  UNL     1       6.365  83.329  44.767  1.00  0.00     0.212 HD
ATOM     20  H2  UNL     1       5.715  86.863  46.327  1.00  0.00     0.205 HD
BRANCH  16  21
HETATM   21  N9  UNL     1       6.745  82.802  46.733  1.00  0.00    -0.024 N 
HETATM   22  O4  UNL     1       6.715  83.170  47.915  1.00  0.00    -0.516 OA
HETATM   23  O5  UNL     1       7.294  81.590  46.428  1.00  0.00    -0.516 OA
ENDBRANCH  16  21
ENDBRANCH  11  13
ENDBRANCH   9  11
ENDBRANCH   7   9
ENDBRANCH   1   7
BRANCH   6  24
HETATM   24  N7  UNL     1       8.927  87.319  40.375  1.00  0.00    -0.071 N 
ATOM     25  H73 UNL     1       9.602  86.857  39.765  1.00  0.00     0.274 HD
ATOM     26  H72 UNL     1       8.078  87.007  39.903  1.00  0.00     0.274 HD
ATOM     27  H71 UNL     1       9.026  88.335  40.373  1.00  0.00     0.274 HD
ENDBRANCH   6  24
BRANCH   3  28
HETATM   28  C5  UNL     1       9.847  83.473  44.039  1.00  0.00     0.198 C 
BRANCH  28  29
HETATM   29  O2  UNL     1       8.914  82.533  44.401  1.00  0.00    -0.398 OA
ATOM     30  H2  UNL     1       8.706  82.564  45.327  1.00  0.00     0.209 HD
ENDBRANCH  28  29
ENDBRANCH   3  28
BRANCH   4  31
HETATM   31  N5  UNL     1      11.873  84.747  42.830  1.00  0.00    -0.338 N 
HETATM   32  C7  UNL     1      12.960  84.052  42.212  1.00  0.00     0.329 C 
HETATM   33  N6  UNL     1      14.190  83.835  42.849  1.00  0.00    -0.040 NA
HETATM   34  O3  UNL     1      12.791  83.628  41.052  1.00  0.00    -0.251 OA
ATOM     35  H5  UNL     1      11.994  85.102  43.779  1.00  0.00     0.164 HD
ENDBRANCH   4  31
TORSDOF 9
ENDMDL
MODEL 5
REMARK VINA RESULT: -8.205840162      3.537      6.719
REMARK  9 active torsions:
REMARK  status: ('A' for Active; 'I' for Inactive)
REMARK       I    between atoms: C1_4  and  N2_5 
REMARK       I    between atoms: C1_4  and  N8_31 
REMARK    1  A    between atoms: N2_5  and  N3_7 
REMARK    2  A    between atoms: N3_7  and  C2_9 
REMARK    3  A    between atoms: C2_9  and  N4_11 
REMARK    4  A    between atoms: N4_11  and  C3_13 
REMARK    5  A    between atoms: C4_15  and  C5_16 
REMARK    6  A    between atoms: C5_16  and  O2_17 
REMARK    7  A    between atoms: C6_19  and  N5_20 
REMARK       I    between atoms: N5_20  and  C7_22 
REMARK    8  A    between atoms: C9_26  and  N7_27 
REMARK    9  A    between atoms: N8_31  and  N9_33 
ROOT
HETATM    1  C3  UNL     1       6.721  86.510  43.882  1.00  0.00     0.254 C 
HETATM    2  O1  UNL     1       7.117  85.224  43.551  1.00  0.00    -0.355 OA
HETATM    3  C4  UNL     1       7.389  84.432  44.646  1.00  0.00     0.170 C 
HETATM    4  C6  UNL     1       6.400  84.517  45.742  1.00  0.00     0.119 C 
HETATM    5  C8  UNL     1       5.153  85.297  45.402  1.00  0.00     0.065 C 
HETATM    6  C9  UNL     1       5.403  86.536  44.611  1.00  0.00     0.234 C 
ENDROOT
BRANCH   1   7
HETATM    7  N4  UNL     1       6.546  87.237  42.640  1.00  0.00    -0.338 N 
ATOM      8  H4  UNL     1       6.122  88.164  42.676  1.00  0.00     0.164 HD
BRANCH   7   9
HETATM    9  C2  UNL     1       6.935  86.726  41.386  1.00  0.00     0.189 C 
HETATM   10  S1  UNL     1       5.882  86.828  40.153  1.00  0.00    -0.039 SA
BRANCH   9  11
HETATM   11  N3  UNL     1       8.195  86.145  41.201  1.00  0.00    -0.262 N 
ATOM     12  H3  UNL     1       8.293  85.331  40.593  1.00  0.00     0.190 HD
BRANCH  11  13
HETATM   13  N2  UNL     1       9.313  86.667  41.838  1.00  0.00    -0.129 N 
HETATM   14  C1  UNL     1      10.150  85.957  42.705  1.00  0.00     0.709 C 
HETATM   15  N1  UNL     1      10.771  86.581  43.640  1.00  0.00    -0.232 N 
HETATM   16  N8  UNL     1      10.365  84.545  42.614  1.00  0.00    -0.071 N 
ATOM     17  H12 UNL     1      10.618  87.587  43.704  1.00  0.00     0.174 HD
ATOM     18  H11 UNL     1      11.382  86.063  44.272  1.00  0.00     0.174 HD
ATOM     19  H8  UNL     1       9.602  83.920  42.870  1.00  0.00     0.212 HD
ATOM     20  H2  UNL     1       9.541  87.645  41.661  1.00  0.00     0.205 HD
BRANCH  16  21
HETATM   21  N9  UNL     1      11.558  83.990  42.195  1.00  0.00    -0.024 N 
HETATM   22  O4  UNL     1      12.502  83.864  42.986  1.00  0.00    -0.516 OA
HETATM   23  O5  UNL     1      11.713  83.573  40.905  1.00  0.00    -0.516 OA
ENDBRANCH  16  21
ENDBRANCH  11  13
ENDBRANCH   9  11
ENDBRANCH   7   9
ENDBRANCH   1   7
BRANCH   6  24
HETATM   24  N7  UNL     1       5.348  87.741  45.413  1.00  0.00    -0.071 N 
ATOM     25  H73 UNL     1       5.015  88.548  44.885  1.00  0.00     0.274 HD
ATOM     26  H72 UNL     1       4.603  87.714  46.110  1.00  0.00     0.274 HD
ATOM     27  H71 UNL     1       6.268  87.894  45.827  1.00  0.00     0.274 HD
ENDBRANCH   6  24
BRANCH   3  28
HETATM   28  C5  UNL     1       7.567  83.004  44.107  1.00  0.00     0.198 C 
BRANCH  28  29
HETATM   29  O2  UNL     1       8.746  82.431  44.516  1.00  0.00    -0.398 OA
ATOM     30  H2  UNL     1       8.623  81.811  45.225  1.00  0.00     0.209 HD
ENDBRANCH  28  29
ENDBRANCH   3  28
BRANCH   4  31
HETATM   31  N5  UNL     1       5.968  83.241  46.246  1.00  0.00    -0.338 N 
HETATM   32  C7  UNL     1       6.577  82.615  47.379  1.00  0.00     0.329 C 
HETATM   33  N6  UNL     1       6.164  81.372  47.879  1.00  0.00    -0.040 NA
HETATM   34  O3  UNL     1       7.516  83.215  47.936  1.00  0.00    -0.251 OA
ATOM     35  H5  UNL     1       5.197  82.764  45.777  1.00  0.00     0.164 HD
ENDBRANCH   4  31
TORSDOF 9
ENDMDL
