MODEL 1
REMARK VINA RESULT: -6.875119767      0.000      0.000
REMARK  4 active torsions:
REMARK  status: ('A' for Active; 'I' for Inactive)
REMARK    1  A    between atoms: C2_2  and  N1_4 
REMARK       I    between atoms: N1_4  and  C4_5 
REMARK       I    between atoms: C4_5  and  N2_7 
REMARK    2  A    between atoms: N2_7  and  N3_9 
REMARK       I    between atoms: N3_9  and  C5_11 
REMARK       I    between atoms: C5_11  and  N4_13 
REMARK    3  A    between atoms: N4_13  and  C6_15 
REMARK    4  A    between atoms: C6_15  and  C7_16 
REMARK       I    between atoms: C7_16  and  N5_18 
ROOT
HETATM    1  N3  UNL     1      17.332 -12.683  21.663  1.00  0.00    -0.247 N 
ATOM      2  H3  UNL     1      17.478 -12.421  22.637  1.00  0.00     0.192 HD
HETATM    3  C5  UNL     1      18.348 -13.538  21.206  1.00  0.00     0.339 C 
HETATM    4  O2  UNL     1      18.438 -13.864  20.054  1.00  0.00    -0.245 OA
HETATM    5  N4  UNL     1      19.224 -13.975  22.255  1.00  0.00    -0.312 N 
ATOM      6  H4  UNL     1      19.009 -13.585  23.172  1.00  0.00     0.170 HD
ENDROOT
BRANCH   1   7
HETATM    7  N2  UNL     1      16.203 -12.108  21.159  1.00  0.00    -0.236 N 
HETATM    8  C4  UNL     1      14.994 -12.632  21.839  1.00  0.00     0.407 C 
HETATM    9  N1  UNL     1      13.730 -12.111  21.721  1.00  0.00    -0.391 NA
HETATM   10  O1  UNL     1      15.316 -13.641  22.575  1.00  0.00    -0.229 OA
ATOM     11  H2  UNL     1      16.192 -11.411  20.415  1.00  0.00     0.193 HD
BRANCH   9  12
HETATM   12  C2  UNL     1      12.471 -11.603  21.612  1.00  0.00     0.160 C 
HETATM   13  C1  UNL     1      12.328 -10.198  21.089  1.00  0.00     0.047 C 
HETATM   14  C3  UNL     1      11.609 -11.658  22.913  1.00  0.00     0.047 C 
ENDBRANCH   9  12
ENDBRANCH   1   7
BRANCH   5  15
HETATM   15  C6  UNL     1      20.312 -14.834  22.239  1.00  0.00     0.167 C 
BRANCH  15  16
HETATM   16  C7  UNL     1      21.347 -14.706  23.321  1.00  0.00     0.259 C 
HETATM   17  O3  UNL     1      22.411 -14.184  22.963  1.00  0.00    -0.267 OA
HETATM   18  N5  UNL     1      21.026 -15.146  24.581  1.00  0.00    -0.343 N 
HETATM   19  C8  UNL     1      20.013 -16.103  24.972  1.00  0.00     0.127 C 
HETATM   20  C11 UNL     1      21.612 -14.641  25.815  1.00  0.00     0.083 C 
HETATM   21  C9  UNL     1      20.839 -16.930  25.964  1.00  0.00     0.022 C 
HETATM   22  C10 UNL     1      21.694 -15.858  26.687  1.00  0.00     0.026 C 
HETATM   23  C12 UNL     1      20.675 -13.574  26.412  1.00  0.00     0.032 C 
ENDBRANCH  15  16
ENDBRANCH   5  15
TORSDOF 4
ENDMDL
MODEL 2
REMARK VINA RESULT: -6.757522770      6.517      9.097
REMARK  4 active torsions:
REMARK  status: ('A' for Active; 'I' for Inactive)
REMARK    1  A    between atoms: C2_2  and  N1_4 
REMARK       I    between atoms: N1_4  and  C4_5 
REMARK       I    between atoms: C4_5  and  N2_7 
REMARK    2  A    between atoms: N2_7  and  N3_9 
REMARK       I    between atoms: N3_9  and  C5_11 
REMARK       I    between atoms: C5_11  and  N4_13 
REMARK    3  A    between atoms: N4_13  and  C6_15 
REMARK    4  A    between atoms: C6_15  and  C7_16 
REMARK       I    between atoms: C7_16  and  N5_18 
ROOT
HETATM    1  N3  UNL     1      14.622 -13.166  18.865  1.00  0.00    -0.247 N 
ATOM      2  H3  UNL     1      15.366 -13.691  19.323  1.00  0.00     0.192 HD
HETATM    3  C5  UNL     1      15.037 -12.676  17.616  1.00  0.00     0.339 C 
HETATM    4  O2  UNL     1      14.360 -11.926  16.968  1.00  0.00    -0.245 OA
HETATM    5  N4  UNL     1      16.318 -13.182  17.215  1.00  0.00    -0.312 N 
ATOM      6  H4  UNL     1      16.760 -13.797  17.898  1.00  0.00     0.170 HD
ENDROOT
BRANCH   1   7
HETATM    7  N2  UNL     1      13.496 -13.132  19.632  1.00  0.00    -0.236 N 
HETATM    8  C4  UNL     1      13.656 -12.187  20.763  1.00  0.00     0.407 C 
HETATM    9  N1  UNL     1      12.646 -11.761  21.589  1.00  0.00    -0.391 NA
HETATM   10  O1  UNL     1      14.888 -11.811  20.841  1.00  0.00    -0.229 OA
ATOM     11  H2  UNL     1      12.656 -13.681  19.451  1.00  0.00     0.193 HD
BRANCH   9  12
HETATM   12  C2  UNL     1      11.652 -11.331  22.415  1.00  0.00     0.160 C 
HETATM   13  C1  UNL     1      11.971 -10.204  23.361  1.00  0.00     0.047 C 
HETATM   14  C3  UNL     1      10.980 -12.438  23.289  1.00  0.00     0.047 C 
ENDBRANCH   9  12
ENDBRANCH   1   7
BRANCH   5  15
HETATM   15  C6  UNL     1      17.061 -12.981  16.061  1.00  0.00     0.167 C 
BRANCH  15  16
HETATM   16  C7  UNL     1      16.514 -13.483  14.755  1.00  0.00     0.259 C 
HETATM   17  O3  UNL     1      16.344 -14.708  14.699  1.00  0.00    -0.267 OA
HETATM   18  N5  UNL     1      16.236 -12.566  13.771  1.00  0.00    -0.343 N 
HETATM   19  C8  UNL     1      16.770 -11.230  13.607  1.00  0.00     0.127 C 
HETATM   20  C11 UNL     1      15.246 -12.744  12.720  1.00  0.00     0.083 C 
HETATM   21  C9  UNL     1      17.071 -11.279  12.105  1.00  0.00     0.022 C 
HETATM   22  C10 UNL     1      15.871 -12.075  11.532  1.00  0.00     0.026 C 
HETATM   23  C12 UNL     1      13.938 -12.049  13.144  1.00  0.00     0.032 C 
ENDBRANCH  15  16
ENDBRANCH   5  15
TORSDOF 4
ENDMDL
MODEL 3
REMARK VINA RESULT: -6.755134229      5.625      7.117
REMARK  4 active torsions:
REMARK  status: ('A' for Active; 'I' for Inactive)
REMARK    1  A    between atoms: C2_2  and  N1_4 
REMARK       I    between atoms: N1_4  and  C4_5 
REMARK       I    between atoms: C4_5  and  N2_7 
REMARK    2  A    between atoms: N2_7  and  N3_9 
REMARK       I    between atoms: N3_9  and  C5_11 
REMARK       I    between atoms: C5_11  and  N4_13 
REMARK    3  A    between atoms: N4_13  and  C6_15 
REMARK    4  A    between atoms: C6_15  and  C7_16 
REMARK       I    between atoms: C7_16  and  N5_18 
ROOT
HETATM    1  N3  UNL     1      15.473 -13.340  16.168  1.00  0.00    -0.247 N 
ATOM      2  H3  UNL     1      16.011 -14.196  16.035  1.00  0.00     0.192 HD
HETATM    3  C5  UNL     1      15.194 -13.117  17.526  1.00  0.00     0.339 C 
HETATM    4  O2  UNL     1      14.466 -12.234  17.891  1.00  0.00    -0.245 OA
HETATM    5  N4  UNL     1      15.880 -14.029  18.394  1.00  0.00    -0.312 N 
ATOM      6  H4  UNL     1      16.446 -14.726  17.910  1.00  0.00     0.170 HD
ENDROOT
BRANCH   1   7
HETATM    7  N2  UNL     1      15.221 -12.725  14.978  1.00  0.00    -0.236 N 
HETATM    8  C4  UNL     1      16.471 -12.543  14.201  1.00  0.00     0.407 C 
HETATM    9  N1  UNL     1      16.538 -12.157  12.886  1.00  0.00    -0.391 NA
HETATM   10  O1  UNL     1      17.486 -12.823  14.946  1.00  0.00    -0.229 OA
ATOM     11  H2  UNL     1      14.296 -12.430  14.663  1.00  0.00     0.193 HD
BRANCH   9  12
HETATM   12  C2  UNL     1      16.617 -11.775  11.581  1.00  0.00     0.160 C 
HETATM   13  C1  UNL     1      15.423 -12.040  10.703  1.00  0.00     0.047 C 
HETATM   14  C3  UNL     1      17.849 -12.323  10.794  1.00  0.00     0.047 C 
ENDBRANCH   9  12
ENDBRANCH   1   7
BRANCH   5  15
HETATM   15  C6  UNL     1      15.909 -14.129  19.777  1.00  0.00     0.167 C 
BRANCH  15  16
HETATM   16  C7  UNL     1      17.023 -13.454  20.526  1.00  0.00     0.259 C 
HETATM   17  O3  UNL     1      16.933 -12.221  20.591  1.00  0.00    -0.267 OA
HETATM   18  N5  UNL     1      18.007 -14.240  21.074  1.00  0.00    -0.343 N 
HETATM   19  C8  UNL     1      18.397 -15.584  20.707  1.00  0.00     0.127 C 
HETATM   20  C11 UNL     1      18.810 -13.881  22.234  1.00  0.00     0.083 C 
HETATM   21  C9  UNL     1      19.918 -15.398  20.707  1.00  0.00     0.022 C 
HETATM   22  C10 UNL     1      20.157 -14.463  21.920  1.00  0.00     0.026 C 
HETATM   23  C12 UNL     1      18.189 -14.523  23.489  1.00  0.00     0.032 C 
ENDBRANCH  15  16
ENDBRANCH   5  15
TORSDOF 4
ENDMDL
MODEL 4
REMARK VINA RESULT: -6.691678148      1.689      1.914
REMARK  4 active torsions:
REMARK  status: ('A' for Active; 'I' for Inactive)
REMARK    1  A    between atoms: C2_2  and  N1_4 
REMARK       I    between atoms: N1_4  and  C4_5 
REMARK       I    between atoms: C4_5  and  N2_7 
REMARK    2  A    between atoms: N2_7  and  N3_9 
REMARK       I    between atoms: N3_9  and  C5_11 
REMARK       I    between atoms: C5_11  and  N4_13 
REMARK    3  A    between atoms: N4_13  and  C6_15 
REMARK    4  A    between atoms: C6_15  and  C7_16 
REMARK       I    between atoms: C7_16  and  N5_18 
ROOT
HETATM    1  N3  UNL     1      15.988 -13.048  21.319  1.00  0.00    -0.247 N 
ATOM      2  H3  UNL     1      15.613 -13.994  21.383  1.00  0.00     0.192 HD
HETATM    3  C5  UNL     1      17.374 -13.062  21.096  1.00  0.00     0.339 C 
HETATM    4  O2  UNL     1      18.034 -12.059  21.115  1.00  0.00    -0.245 OA
HETATM    5  N4  UNL     1      17.885 -14.376  20.831  1.00  0.00    -0.312 N 
ATOM      6  H4  UNL     1      17.183 -15.115  20.871  1.00  0.00     0.170 HD
ENDROOT
BRANCH   1   7
HETATM    7  N2  UNL     1      15.006 -12.115  21.473  1.00  0.00    -0.236 N 
HETATM    8  C4  UNL     1      13.788 -12.722  22.060  1.00  0.00     0.407 C 
HETATM    9  N1  UNL     1      12.706 -12.025  22.537  1.00  0.00    -0.391 NA
HETATM   10  O1  UNL     1      13.908 -14.007  22.072  1.00  0.00    -0.229 OA
ATOM     11  H2  UNL     1      15.098 -11.132  21.219  1.00  0.00     0.193 HD
BRANCH   9  12
HETATM   12  C2  UNL     1      11.627 -11.344  23.013  1.00  0.00     0.160 C 
HETATM   13  C1  UNL     1      11.877 -10.014  23.672  1.00  0.00     0.047 C 
HETATM   14  C3  UNL     1      10.713 -12.139  24.000  1.00  0.00     0.047 C 
ENDBRANCH   9  12
ENDBRANCH   1   7
BRANCH   5  15
HETATM   15  C6  UNL     1      19.165 -14.817  20.531  1.00  0.00     0.167 C 
BRANCH  15  16
HETATM   16  C7  UNL     1      20.284 -14.475  21.473  1.00  0.00     0.259 C 
HETATM   17  O3  UNL     1      20.987 -13.519  21.120  1.00  0.00    -0.267 OA
HETATM   18  N5  UNL     1      20.415 -15.215  22.622  1.00  0.00    -0.343 N 
HETATM   19  C8  UNL     1      19.923 -16.548  22.897  1.00  0.00     0.127 C 
HETATM   20  C11 UNL     1      21.022 -14.739  23.857  1.00  0.00     0.083 C 
HETATM   21  C9  UNL     1      21.180 -17.134  23.550  1.00  0.00     0.022 C 
HETATM   22  C10 UNL     1      21.720 -15.952  24.395  1.00  0.00     0.026 C 
HETATM   23  C12 UNL     1      19.909 -14.253  24.805  1.00  0.00     0.032 C 
ENDBRANCH  15  16
ENDBRANCH   5  15
TORSDOF 4
ENDMDL
MODEL 5
REMARK VINA RESULT: -6.653700176      6.719      9.107
REMARK  4 active torsions:
REMARK  status: ('A' for Active; 'I' for Inactive)
REMARK    1  A    between atoms: C2_2  and  N1_4 
REMARK       I    between atoms: N1_4  and  C4_5 
REMARK       I    between atoms: C4_5  and  N2_7 
REMARK    2  A    between atoms: N2_7  and  N3_9 
REMARK       I    between atoms: N3_9  and  C5_11 
REMARK       I    between atoms: C5_11  and  N4_13 
REMARK    3  A    between atoms: N4_13  and  C6_15 
REMARK    4  A    between atoms: C6_15  and  C7_16 
REMARK       I    between atoms: C7_16  and  N5_18 
ROOT
HETATM    1  N3  UNL     1      13.470 -12.358  19.608  1.00  0.00    -0.247 N 
ATOM      2  H3  UNL     1      12.869 -11.751  19.052  1.00  0.00     0.192 HD
HETATM    3  C5  UNL     1      14.499 -12.912  18.828  1.00  0.00     0.339 C 
HETATM    4  O2  UNL     1      15.241 -13.754  19.256  1.00  0.00    -0.245 OA
HETATM    5  N4  UNL     1      14.564 -12.352  17.510  1.00  0.00    -0.312 N 
ATOM      6  H4  UNL     1      13.843 -11.658  17.312  1.00  0.00     0.170 HD
ENDROOT
BRANCH   1   7
HETATM    7  N2  UNL     1      13.055 -12.412  20.905  1.00  0.00    -0.236 N 
HETATM    8  C4  UNL     1      12.424 -11.133  21.311  1.00  0.00     0.407 C 
HETATM    9  N1  UNL     1      11.716 -10.931  22.470  1.00  0.00    -0.391 NA
HETATM   10  O1  UNL     1      12.625 -10.243  20.399  1.00  0.00    -0.229 OA
ATOM     11  H2  UNL     1      13.163 -13.223  21.514  1.00  0.00     0.193 HD
BRANCH   9  12
HETATM   12  C2  UNL     1      11.012 -10.719  23.616  1.00  0.00     0.160 C 
HETATM   13  C1  UNL     1      11.495  -9.633  24.540  1.00  0.00     0.047 C 
HETATM   14  C3  UNL     1      10.801 -11.977  24.518  1.00  0.00     0.047 C 
ENDBRANCH   9  12
ENDBRANCH   1   7
BRANCH   5  15
HETATM   15  C6  UNL     1      15.436 -12.588  16.457  1.00  0.00     0.167 C 
BRANCH  15  16
HETATM   16  C7  UNL     1      14.987 -12.257  15.062  1.00  0.00     0.259 C 
HETATM   17  O3  UNL     1      13.974 -11.548  14.996  1.00  0.00    -0.267 OA
HETATM   18  N5  UNL     1      15.727 -12.738  14.010  1.00  0.00    -0.343 N 
HETATM   19  C8  UNL     1      16.635 -13.864  13.987  1.00  0.00     0.127 C 
HETATM   20  C11 UNL     1      15.805 -12.120  12.695  1.00  0.00     0.083 C 
HETATM   21  C9  UNL     1      16.175 -14.512  12.676  1.00  0.00     0.022 C 
HETATM   22  C10 UNL     1      15.894 -13.292  11.762  1.00  0.00     0.026 C 
HETATM   23  C12 UNL     1      17.070 -11.243  12.629  1.00  0.00     0.032 C 
ENDBRANCH  15  16
ENDBRANCH   5  15
TORSDOF 4
ENDMDL
