MODEL 1
REMARK VINA RESULT: -6.103554932      0.000      0.000
REMARK  2 active torsions:
REMARK  status: ('A' for Active; 'I' for Inactive)
REMARK    1  A    between atoms: C8_12  and  O2_13 
REMARK    2  A    between atoms: C9_15  and  O3_16 
ROOT
HETATM    1  C1  UNL     1       8.975 -18.869   3.763  1.00  0.00     0.020 C 
HETATM    2  C2  UNL     1      10.084 -19.719   3.271  1.00  0.00     0.007 C 
HETATM    3  C3  UNL     1       9.688 -20.826   2.368  1.00  0.00     0.160 C 
HETATM    4  C4  UNL     1       8.460 -20.397   1.560  1.00  0.00     0.268 C 
HETATM    5  N1  UNL     1       9.045 -19.241   0.877  1.00  0.00    -0.046 N 
ATOM      6  H11 UNL     1       8.684 -18.347   1.209  1.00  0.00     0.280 HD
ATOM      7  H12 UNL     1       8.740 -19.146  -0.092  1.00  0.00     0.280 HD
HETATM    8  C5  UNL     1      10.480 -19.372   1.021  1.00  0.00     0.326 C 
HETATM    9  O1  UNL     1      10.564 -20.784   1.244  1.00  0.00    -0.351 OA
HETATM   10  C6  UNL     1      11.048 -18.988   2.317  1.00  0.00     0.056 C 
HETATM   11  C7  UNL     1      11.209 -17.645   2.777  1.00  0.00     0.044 C 
HETATM   12  C8  UNL     1      12.016 -17.748   4.075  1.00  0.00     0.148 C 
HETATM   13  C9  UNL     1      11.749 -18.893   4.934  1.00  0.00     0.162 C 
HETATM   14  C10 UNL     1      10.962 -20.051   4.420  1.00  0.00     0.100 C 
HETATM   15 BR1  UNL     1       9.911 -20.746   5.912  1.00  0.00    -0.087 Br
ENDROOT
BRANCH  12  16
HETATM   16  O2  UNL     1      13.379 -17.688   3.694  1.00  0.00    -0.393 OA
ATOM     17  H2  UNL     1      13.784 -17.047   4.268  1.00  0.00     0.210 HD
ENDBRANCH  12  16
BRANCH  13  18
HETATM   18  O3  UNL     1      11.223 -18.409   6.162  1.00  0.00    -0.392 OA
ATOM     19  H3  UNL     1      10.295 -18.612   6.186  1.00  0.00     0.210 HD
ENDBRANCH  13  18
TORSDOF 2
ENDMDL
MODEL 2
REMARK VINA RESULT: -5.993828618      1.884      2.365
REMARK  2 active torsions:
REMARK  status: ('A' for Active; 'I' for Inactive)
REMARK    1  A    between atoms: C8_12  and  O2_13 
REMARK    2  A    between atoms: C9_15  and  O3_16 
ROOT
HETATM    1  C1  UNL     1       8.510 -20.073   1.026  1.00  0.00     0.020 C 
HETATM    2  C2  UNL     1       9.759 -20.640   1.588  1.00  0.00     0.007 C 
HETATM    3  C3  UNL     1      10.017 -22.063   1.264  1.00  0.00     0.160 C 
HETATM    4  C4  UNL     1       9.432 -22.374  -0.117  1.00  0.00     0.268 C 
HETATM    5  N1  UNL     1      10.219 -21.424  -0.904  1.00  0.00    -0.046 N 
ATOM      6  H11 UNL     1       9.674 -20.637  -1.256  1.00  0.00     0.280 HD
ATOM      7  H12 UNL     1      10.508 -21.790  -1.812  1.00  0.00     0.280 HD
HETATM    8  C5  UNL     1      11.329 -21.026  -0.063  1.00  0.00     0.326 C 
HETATM    9  O1  UNL     1      11.369 -22.153   0.819  1.00  0.00    -0.351 OA
HETATM   10  C6  UNL     1      11.040 -20.038   0.981  1.00  0.00     0.056 C 
HETATM   11  C7  UNL     1      10.822 -18.644   0.753  1.00  0.00     0.044 C 
HETATM   12  C8  UNL     1      10.763 -18.004   2.143  1.00  0.00     0.148 C 
HETATM   13  C9  UNL     1      10.137 -18.779   3.205  1.00  0.00     0.162 C 
HETATM   14  C10 UNL     1       9.857 -20.231   3.011  1.00  0.00     0.100 C 
HETATM   15 BR1  UNL     1       8.199 -20.635   3.959  1.00  0.00    -0.087 Br
ENDROOT
BRANCH  12  16
HETATM   16  O2  UNL     1      12.096 -17.652   2.470  1.00  0.00    -0.393 OA
ATOM     17  H2  UNL     1      12.257 -16.815   2.050  1.00  0.00     0.210 HD
ENDBRANCH  12  16
BRANCH  13  18
HETATM   18  O3  UNL     1       8.979 -18.079   3.639  1.00  0.00    -0.392 OA
ATOM     19  H3  UNL     1       8.288 -18.714   3.785  1.00  0.00     0.210 HD
ENDBRANCH  13  18
TORSDOF 2
ENDMDL
MODEL 3
REMARK VINA RESULT: -5.638398843      2.515      3.447
REMARK  2 active torsions:
REMARK  status: ('A' for Active; 'I' for Inactive)
REMARK    1  A    between atoms: C8_12  and  O2_13 
REMARK    2  A    between atoms: C9_15  and  O3_16 
ROOT
HETATM    1  C1  UNL     1      11.089 -20.652   2.166  1.00  0.00     0.020 C 
HETATM    2  C2  UNL     1       9.817 -20.117   1.629  1.00  0.00     0.007 C 
HETATM    3  C3  UNL     1       9.365 -20.709   0.347  1.00  0.00     0.160 C 
HETATM    4  C4  UNL     1       9.823 -22.169   0.284  1.00  0.00     0.268 C 
HETATM    5  N1  UNL     1       9.113 -22.670   1.462  1.00  0.00    -0.046 N 
ATOM      6  H11 UNL     1       9.730 -22.893   2.243  1.00  0.00     0.280 HD
ATOM      7  H12 UNL     1       8.727 -23.606   1.337  1.00  0.00     0.280 HD
HETATM    8  C5  UNL     1       8.114 -21.672   1.784  1.00  0.00     0.326 C 
HETATM    9  O1  UNL     1       7.988 -21.046   0.503  1.00  0.00    -0.351 OA
HETATM   10  C6  UNL     1       8.586 -20.473   2.484  1.00  0.00     0.056 C 
HETATM   11  C7  UNL     1       8.960 -20.420   3.862  1.00  0.00     0.044 C 
HETATM   12  C8  UNL     1       9.182 -18.937   4.173  1.00  0.00     0.148 C 
HETATM   13  C9  UNL     1       9.770 -18.119   3.121  1.00  0.00     0.162 C 
HETATM   14  C10 UNL     1       9.856 -18.637   1.725  1.00  0.00     0.100 C 
HETATM   15 BR1  UNL     1      11.505 -17.939   0.947  1.00  0.00    -0.087 Br
ENDROOT
BRANCH  12  16
HETATM   16  O2  UNL     1       7.925 -18.432   4.586  1.00  0.00    -0.393 OA
ATOM     17  H2  UNL     1       8.096 -17.902   5.357  1.00  0.00     0.210 HD
ENDBRANCH  12  16
BRANCH  13  18
HETATM   18  O3  UNL     1      11.030 -17.649   3.580  1.00  0.00    -0.392 OA
ATOM     19  H3  UNL     1      11.467 -18.365   4.026  1.00  0.00     0.210 HD
ENDBRANCH  13  18
TORSDOF 2
ENDMDL
MODEL 4
REMARK VINA RESULT: -5.524190115      9.528     10.762
REMARK  2 active torsions:
REMARK  status: ('A' for Active; 'I' for Inactive)
REMARK    1  A    between atoms: C8_12  and  O2_13 
REMARK    2  A    between atoms: C9_15  and  O3_16 
ROOT
HETATM    1  C1  UNL     1      10.097 -19.453  -6.338  1.00  0.00     0.020 C 
HETATM    2  C2  UNL     1      11.202 -19.274  -7.308  1.00  0.00     0.007 C 
HETATM    3  C3  UNL     1      11.397 -20.388  -8.266  1.00  0.00     0.160 C 
HETATM    4  C4  UNL     1      10.042 -21.037  -8.560  1.00  0.00     0.268 C 
HETATM    5  N1  UNL     1       9.361 -19.869  -9.124  1.00  0.00    -0.046 N 
ATOM      6  H11 UNL     1       8.636 -19.490  -8.516  1.00  0.00     0.280 HD
ATOM      7  H12 UNL     1       8.757 -20.094  -9.914  1.00  0.00     0.280 HD
HETATM    8  C5  UNL     1      10.401 -18.914  -9.446  1.00  0.00     0.326 C 
HETATM    9  O1  UNL     1      11.512 -19.810  -9.565  1.00  0.00    -0.351 OA
HETATM   10  C6  UNL     1      10.956 -18.146  -8.327  1.00  0.00     0.056 C 
HETATM   11  C7  UNL     1      10.292 -17.070  -7.660  1.00  0.00     0.044 C 
HETATM   12  C8  UNL     1      11.334 -16.464  -6.716  1.00  0.00     0.148 C 
HETATM   13  C9  UNL     1      12.268 -17.383  -6.081  1.00  0.00     0.162 C 
HETATM   14  C10 UNL     1      12.394 -18.786  -6.571  1.00  0.00     0.100 C 
HETATM   15 BR1  UNL     1      12.754 -19.914  -5.019  1.00  0.00    -0.087 Br
ENDROOT
BRANCH  12  16
HETATM   16  O2  UNL     1      12.007 -15.468  -7.464  1.00  0.00    -0.393 OA
ATOM     17  H2  UNL     1      11.468 -15.304  -8.229  1.00  0.00     0.210 HD
ENDBRANCH  12  16
BRANCH  13  18
HETATM   18  O3  UNL     1      12.046 -17.339  -4.678  1.00  0.00    -0.392 OA
ATOM     19  H3  UNL     1      11.108 -17.347  -4.528  1.00  0.00     0.210 HD
ENDBRANCH  13  18
TORSDOF 2
ENDMDL
MODEL 5
REMARK VINA RESULT: -5.430152045      2.559      4.434
REMARK  2 active torsions:
REMARK  status: ('A' for Active; 'I' for Inactive)
REMARK    1  A    between atoms: C8_12  and  O2_13 
REMARK    2  A    between atoms: C9_15  and  O3_16 
ROOT
HETATM    1  C1  UNL     1       9.014 -18.838   1.000  1.00  0.00     0.020 C 
HETATM    2  C2  UNL     1      10.190 -19.185   1.831  1.00  0.00     0.007 C 
HETATM    3  C3  UNL     1      10.350 -18.393   3.074  1.00  0.00     0.160 C 
HETATM    4  C4  UNL     1       8.966 -18.001   3.598  1.00  0.00     0.268 C 
HETATM    5  N1  UNL     1       8.424 -19.345   3.805  1.00  0.00    -0.046 N 
ATOM      6  H11 UNL     1       7.696 -19.597   3.137  1.00  0.00     0.280 HD
ATOM      7  H12 UNL     1       7.854 -19.428   4.647  1.00  0.00     0.280 HD
HETATM    8  C5  UNL     1       9.559 -20.244   3.787  1.00  0.00     0.326 C 
HETATM    9  O1  UNL     1      10.595 -19.318   4.132  1.00  0.00    -0.351 OA
HETATM   10  C6  UNL     1      10.105 -20.585   2.469  1.00  0.00     0.056 C 
HETATM   11  C7  UNL     1       9.494 -21.474   1.532  1.00  0.00     0.044 C 
HETATM   12  C8  UNL     1      10.522 -21.664   0.413  1.00  0.00     0.148 C 
HETATM   13  C9  UNL     1      11.333 -20.509   0.053  1.00  0.00     0.162 C 
HETATM   14  C10 UNL     1      11.369 -19.311   0.940  1.00  0.00     0.100 C 
HETATM   15 BR1  UNL     1      11.533 -17.741  -0.210  1.00  0.00    -0.087 Br
ENDROOT
BRANCH  12  16
HETATM   16  O2  UNL     1      11.323 -22.765   0.800  1.00  0.00    -0.393 OA
ATOM     17  H2  UNL     1      10.759 -23.528   0.759  1.00  0.00     0.210 HD
ENDBRANCH  12  16
BRANCH  13  18
HETATM   18  O3  UNL     1      11.026 -20.155  -1.288  1.00  0.00    -0.392 OA
ATOM     19  H3  UNL     1      11.833 -19.893  -1.716  1.00  0.00     0.210 HD
ENDBRANCH  13  18
TORSDOF 2
ENDMDL
