MODEL 1
REMARK VINA RESULT: -5.299464201      0.000      0.000
REMARK  0 active torsions:
REMARK  status: ('A' for Active; 'I' for Inactive)
REMARK       I    between atoms: N1_2  and  C2_4 
REMARK       I    between atoms: C2_4  and  N4_9 
ROOT
HETATM    1  C1  UNL     1      39.957  -1.253  33.315  1.00  0.00     0.149 C 
HETATM    2  N1  UNL     1      41.201  -1.058  32.648  1.00  0.00    -0.360 N 
ATOM      3  H1  UNL     1      42.015  -0.888  33.238  1.00  0.00     0.162 HD
HETATM    4  C2  UNL     1      41.419  -1.077  31.251  1.00  0.00     0.290 C 
HETATM    5  N2  UNL     1      40.703  -0.301  30.523  1.00  0.00    -0.259 N 
ATOM      6  H2  UNL     1      40.871  -0.326  29.517  1.00  0.00     0.181 HD
HETATM    7  C3  UNL     1      39.730   0.564  30.969  1.00  0.00     0.184 C 
HETATM    8  N3  UNL     1      38.916   1.303  31.331  1.00  0.00    -0.172 NA
HETATM    9  N4  UNL     1      42.385  -1.911  30.629  1.00  0.00     0.009 N 
HETATM   10  C4  UNL     1      43.680  -1.407  31.114  1.00  0.00     0.285 C 
HETATM   11  C5  UNL     1      42.298  -1.901  29.195  1.00  0.00     0.276 C 
HETATM   12 BR1  UNL     1      43.721  -0.936  28.341  1.00  0.00    -0.059 Br
HETATM   13  C6  UNL     1      42.291  -3.374  28.759  1.00  0.00     0.038 C 
HETATM   14  C7  UNL     1      43.635  -3.925  29.124  1.00  0.00     0.010 C 
HETATM   15  C8  UNL     1      43.593  -3.962  30.656  1.00  0.00     0.035 C 
HETATM   16  C9  UNL     1      42.254  -3.302  31.001  1.00  0.00     0.209 C 
HETATM   17  C10 UNL     1      41.423  -3.950  29.879  1.00  0.00    -0.012 C 
HETATM   18  C11 UNL     1      41.493  -5.434  29.970  1.00  0.00     0.017 C 
HETATM   19  C12 UNL     1      40.017  -3.502  29.839  1.00  0.00     0.017 C 
ENDROOT
TORSDOF 0
ENDMDL
MODEL 2
REMARK VINA RESULT: -5.134856276      2.136      4.492
REMARK  0 active torsions:
REMARK  status: ('A' for Active; 'I' for Inactive)
REMARK       I    between atoms: N1_2  and  C2_4 
REMARK       I    between atoms: C2_4  and  N4_9 
ROOT
HETATM    1  C1  UNL     1      43.709  -3.788  28.901  1.00  0.00     0.149 C 
HETATM    2  N1  UNL     1      42.413  -3.233  29.107  1.00  0.00    -0.360 N 
ATOM      3  H1  UNL     1      41.618  -3.813  28.842  1.00  0.00     0.162 HD
HETATM    4  C2  UNL     1      42.121  -1.957  29.643  1.00  0.00     0.290 C 
HETATM    5  N2  UNL     1      42.666  -0.936  29.090  1.00  0.00    -0.259 N 
ATOM      6  H2  UNL     1      42.446  -0.023  29.488  1.00  0.00     0.181 HD
HETATM    7  C3  UNL     1      43.520  -0.955  28.011  1.00  0.00     0.184 C 
HETATM    8  N3  UNL     1      44.232  -0.956  27.098  1.00  0.00    -0.172 NA
HETATM    9  N4  UNL     1      41.258  -1.762  30.754  1.00  0.00     0.009 N 
HETATM   10  C4  UNL     1      39.932  -2.183  30.275  1.00  0.00     0.285 C 
HETATM   11  C5  UNL     1      41.259  -0.410  31.237  1.00  0.00     0.276 C 
HETATM   12 BR1  UNL     1      39.659   0.564  30.817  1.00  0.00    -0.059 Br
HETATM   13  C6  UNL     1      41.466  -0.502  32.756  1.00  0.00     0.038 C 
HETATM   14  C7  UNL     1      40.245  -1.174  33.305  1.00  0.00     0.010 C 
HETATM   15  C8  UNL     1      40.380  -2.613  32.796  1.00  0.00     0.035 C 
HETATM   16  C9  UNL     1      41.621  -2.568  31.898  1.00  0.00     0.209 C 
HETATM   17  C10 UNL     1      42.474  -1.651  32.792  1.00  0.00    -0.012 C 
HETATM   18  C11 UNL     1      42.636  -2.247  34.145  1.00  0.00     0.017 C 
HETATM   19  C12 UNL     1      43.791  -1.311  32.217  1.00  0.00     0.017 C 
ENDROOT
TORSDOF 0
ENDMDL
MODEL 3
REMARK VINA RESULT: -5.069639861      2.512      4.746
REMARK  0 active torsions:
REMARK  status: ('A' for Active; 'I' for Inactive)
REMARK       I    between atoms: N1_2  and  C2_4 
REMARK       I    between atoms: C2_4  and  N4_9 
ROOT
HETATM    1  C1  UNL     1      43.902  -0.563  28.490  1.00  0.00     0.149 C 
HETATM    2  N1  UNL     1      44.090  -0.940  29.851  1.00  0.00    -0.360 N 
ATOM      3  H1  UNL     1      44.869  -0.504  30.345  1.00  0.00     0.162 HD
HETATM    4  C2  UNL     1      43.304  -1.858  30.587  1.00  0.00     0.290 C 
HETATM    5  N2  UNL     1      43.142  -3.032  30.098  1.00  0.00    -0.259 N 
ATOM      6  H2  UNL     1      42.572  -3.683  30.640  1.00  0.00     0.181 HD
HETATM    7  C3  UNL     1      43.663  -3.499  28.913  1.00  0.00     0.184 C 
HETATM    8  N3  UNL     1      44.102  -3.908  27.924  1.00  0.00    -0.172 NA
HETATM    9  N4  UNL     1      42.695  -1.536  31.829  1.00  0.00     0.009 N 
HETATM   10  C4  UNL     1      43.821  -1.319  32.751  1.00  0.00     0.285 C 
HETATM   11  C5  UNL     1      41.796  -2.553  32.295  1.00  0.00     0.276 C 
HETATM   12 BR1  UNL     1      42.475  -3.565  33.779  1.00  0.00    -0.059 Br
HETATM   13  C6  UNL     1      40.494  -1.831  32.671  1.00  0.00     0.038 C 
HETATM   14  C7  UNL     1      40.824  -0.953  33.839  1.00  0.00     0.010 C 
HETATM   15  C8  UNL     1      41.717   0.128  33.221  1.00  0.00     0.035 C 
HETATM   16  C9  UNL     1      41.898  -0.331  31.770  1.00  0.00     0.209 C 
HETATM   17  C10 UNL     1      40.453  -0.806  31.536  1.00  0.00    -0.012 C 
HETATM   18  C11 UNL     1      39.493   0.304  31.783  1.00  0.00     0.017 C 
HETATM   19  C12 UNL     1      40.226  -1.397  30.203  1.00  0.00     0.017 C 
ENDROOT
TORSDOF 0
ENDMDL
MODEL 4
REMARK VINA RESULT: -5.029832689      2.634      4.473
REMARK  0 active torsions:
REMARK  status: ('A' for Active; 'I' for Inactive)
REMARK       I    between atoms: N1_2  and  C2_4 
REMARK       I    between atoms: C2_4  and  N4_9 
ROOT
HETATM    1  C1  UNL     1      43.189  -6.647  31.093  1.00  0.00     0.149 C 
HETATM    2  N1  UNL     1      42.524  -5.551  31.715  1.00  0.00    -0.360 N 
ATOM      3  H1  UNL     1      42.706  -5.407  32.708  1.00  0.00     0.162 HD
HETATM    4  C2  UNL     1      41.635  -4.644  31.093  1.00  0.00     0.290 C 
HETATM    5  N2  UNL     1      40.629  -5.129  30.462  1.00  0.00    -0.259 N 
ATOM      6  H2  UNL     1      39.997  -4.462  30.018  1.00  0.00     0.181 HD
HETATM    7  C3  UNL     1      40.320  -6.463  30.328  1.00  0.00     0.184 C 
HETATM    8  N3  UNL     1      40.042  -7.581  30.214  1.00  0.00    -0.172 NA
HETATM    9  N4  UNL     1      41.809  -3.235  31.137  1.00  0.00     0.009 N 
HETATM   10  C4  UNL     1      41.634  -2.882  32.555  1.00  0.00     0.285 C 
HETATM   11  C5  UNL     1      40.898  -2.528  30.282  1.00  0.00     0.276 C 
HETATM   12 BR1  UNL     1      39.507  -1.603  31.229  1.00  0.00    -0.059 Br
HETATM   13  C6  UNL     1      41.754  -1.549  29.465  1.00  0.00     0.038 C 
HETATM   14  C7  UNL     1      42.310  -0.561  30.444  1.00  0.00     0.010 C 
HETATM   15  C8  UNL     1      43.313  -1.394  31.249  1.00  0.00     0.035 C 
HETATM   16  C9  UNL     1      43.124  -2.816  30.709  1.00  0.00     0.209 C 
HETATM   17  C10 UNL     1      42.973  -2.440  29.224  1.00  0.00    -0.012 C 
HETATM   18  C11 UNL     1      44.166  -1.687  28.752  1.00  0.00     0.017 C 
HETATM   19  C12 UNL     1      42.708  -3.592  28.339  1.00  0.00     0.017 C 
ENDROOT
TORSDOF 0
ENDMDL
MODEL 5
REMARK VINA RESULT: -4.772127117      2.136      3.573
REMARK  0 active torsions:
REMARK  status: ('A' for Active; 'I' for Inactive)
REMARK       I    between atoms: N1_2  and  C2_4 
REMARK       I    between atoms: C2_4  and  N4_9 
ROOT
HETATM    1  C1  UNL     1      42.948  -1.608  35.060  1.00  0.00     0.149 C 
HETATM    2  N1  UNL     1      43.164  -2.377  33.881  1.00  0.00    -0.360 N 
ATOM      3  H1  UNL     1      43.352  -3.372  34.010  1.00  0.00     0.162 HD
HETATM    4  C2  UNL     1      43.145  -1.901  32.549  1.00  0.00     0.290 C 
HETATM    5  N2  UNL     1      43.906  -0.910  32.257  1.00  0.00    -0.259 N 
ATOM      6  H2  UNL     1      43.880  -0.577  31.293  1.00  0.00     0.181 HD
HETATM    7  C3  UNL     1      44.753  -0.254  33.120  1.00  0.00     0.184 C 
HETATM    8  N3  UNL     1      45.477   0.301  33.832  1.00  0.00    -0.172 NA
HETATM    9  N4  UNL     1      42.328  -2.467  31.535  1.00  0.00     0.009 N 
HETATM   10  C4  UNL     1      42.858  -3.827  31.345  1.00  0.00     0.285 C 
HETATM   11  C5  UNL     1      42.332  -1.705  30.318  1.00  0.00     0.276 C 
HETATM   12 BR1  UNL     1      43.321  -2.528  28.893  1.00  0.00    -0.059 Br
HETATM   13  C6  UNL     1      40.858  -1.517  29.929  1.00  0.00     0.038 C 
HETATM   14  C7  UNL     1      40.334  -2.881  29.603  1.00  0.00     0.010 C 
HETATM   15  C8  UNL     1      40.301  -3.578  30.968  1.00  0.00     0.035 C 
HETATM   16  C9  UNL     1      40.936  -2.555  31.916  1.00  0.00     0.209 C 
HETATM   17  C10 UNL     1      40.268  -1.301  31.323  1.00  0.00    -0.012 C 
HETATM   18  C11 UNL     1      38.787  -1.433  31.360  1.00  0.00     0.017 C 
HETATM   19  C12 UNL     1      40.689  -0.039  31.964  1.00  0.00     0.017 C 
ENDROOT
TORSDOF 0
ENDMDL
