MODEL 1
REMARK VINA RESULT: -5.661491460      0.000      0.000
REMARK  1 active torsions:
REMARK  status: ('A' for Active; 'I' for Inactive)
REMARK       I    between atoms: C1_2  and  N1_3 
REMARK       I    between atoms: C1_2  and  N2_9 
REMARK    1  A    between atoms: N1_3  and  C2_5 
ROOT
HETATM    1  O1  UNL     1      43.955  -3.963  30.028  1.00  0.00    -0.247 OA
HETATM    2  C1  UNL     1      43.475  -2.809  29.968  1.00  0.00     0.319 C 
HETATM    3  N1  UNL     1      43.579  -2.108  28.754  1.00  0.00    -0.337 N 
ATOM      4  H1  UNL     1      43.189  -1.167  28.698  1.00  0.00     0.164 HD
HETATM    5  N2  UNL     1      42.856  -2.242  31.081  1.00  0.00    -0.328 N 
HETATM    6  C5  UNL     1      42.846  -3.123  32.257  1.00  0.00     0.152 C 
HETATM    7  C6  UNL     1      41.431  -3.071  32.795  1.00  0.00     0.095 C 
HETATM    8  C7  UNL     1      40.491  -3.017  31.632  1.00  0.00     0.031 C 
HETATM    9  C8  UNL     1      39.985  -1.665  31.286  1.00  0.00    -0.009 C 
HETATM   10  C9  UNL     1      39.758  -0.768  32.493  1.00  0.00     0.029 C 
HETATM   11  C10 UNL     1      41.081  -0.728  33.227  1.00  0.00     0.079 C 
HETATM   12  C11 UNL     1      42.217  -0.266  32.383  1.00  0.00     0.050 C 
HETATM   13  C12 UNL     1      42.306  -0.928  31.023  1.00  0.00     0.091 C 
HETATM   14  C13 UNL     1      40.953  -0.889  30.388  1.00  0.00     0.030 C 
HETATM   15  N3  UNL     1      41.342  -2.023  33.717  1.00  0.00    -0.411 N 
ATOM     16  H3  UNL     1      41.463  -2.191  34.716  1.00  0.00     0.154 HD
ENDROOT
BRANCH   3  17
HETATM   17  C2  UNL     1      44.218  -2.669  27.571  1.00  0.00     0.101 A 
HETATM   18  C3  UNL     1      44.968  -1.623  26.759  1.00  0.00     0.044 A 
HETATM   19  C4  UNL     1      43.768  -2.310  26.222  1.00  0.00     0.082 A 
HETATM   20 BR1  UNL     1      44.134  -3.627  24.842  1.00  0.00    -0.089 Br
ENDBRANCH   3  17
TORSDOF 1
ENDMDL
MODEL 2
REMARK VINA RESULT: -5.476906859      3.617      5.525
REMARK  1 active torsions:
REMARK  status: ('A' for Active; 'I' for Inactive)
REMARK       I    between atoms: C1_2  and  N1_3 
REMARK       I    between atoms: C1_2  and  N2_9 
REMARK    1  A    between atoms: N1_3  and  C2_5 
ROOT
HETATM    1  O1  UNL     1      43.727  -0.619  30.549  1.00  0.00    -0.247 OA
HETATM    2  C1  UNL     1      43.523  -1.630  31.260  1.00  0.00     0.319 C 
HETATM    3  N1  UNL     1      43.478  -1.463  32.654  1.00  0.00    -0.337 N 
ATOM      4  H1  UNL     1      43.312  -2.282  33.239  1.00  0.00     0.164 HD
HETATM    5  N2  UNL     1      43.346  -2.883  30.673  1.00  0.00    -0.328 N 
HETATM    6  C5  UNL     1      43.428  -2.859  29.206  1.00  0.00     0.152 C 
HETATM    7  C6  UNL     1      42.242  -3.663  28.717  1.00  0.00     0.095 C 
HETATM    8  C7  UNL     1      41.079  -3.374  29.615  1.00  0.00     0.031 C 
HETATM    9  C8  UNL     1      40.825  -4.387  30.670  1.00  0.00    -0.009 C 
HETATM   10  C9  UNL     1      41.116  -5.814  30.234  1.00  0.00     0.029 C 
HETATM   11  C10 UNL     1      42.553  -5.812  29.759  1.00  0.00     0.079 C 
HETATM   12  C11 UNL     1      43.517  -5.325  30.782  1.00  0.00     0.050 C 
HETATM   13  C12 UNL     1      43.113  -4.038  31.474  1.00  0.00     0.091 C 
HETATM   14  C13 UNL     1      41.690  -4.166  31.915  1.00  0.00     0.030 C 
HETATM   15  N3  UNL     1      42.626  -5.004  28.607  1.00  0.00    -0.411 N 
ATOM     16  H3  UNL     1      42.949  -5.386  27.718  1.00  0.00     0.154 HD
ENDROOT
BRANCH   3  17
HETATM   17  C2  UNL     1      43.659  -0.170  33.301  1.00  0.00     0.101 A 
HETATM   18  C3  UNL     1      44.983  -0.066  34.043  1.00  0.00     0.044 A 
HETATM   19  C4  UNL     1      43.686  -0.049  34.762  1.00  0.00     0.082 A 
HETATM   20 BR1  UNL     1      43.168   1.686  35.466  1.00  0.00    -0.089 Br
ENDBRANCH   3  17
TORSDOF 1
ENDMDL
MODEL 3
REMARK VINA RESULT: -5.419605139      3.431      4.822
REMARK  1 active torsions:
REMARK  status: ('A' for Active; 'I' for Inactive)
REMARK       I    between atoms: C1_2  and  N1_3 
REMARK       I    between atoms: C1_2  and  N2_9 
REMARK    1  A    between atoms: N1_3  and  C2_5 
ROOT
HETATM    1  O1  UNL     1      41.609   0.189  32.017  1.00  0.00    -0.247 OA
HETATM    2  C1  UNL     1      42.686  -0.273  32.459  1.00  0.00     0.319 C 
HETATM    3  N1  UNL     1      43.509  -0.996  31.579  1.00  0.00    -0.337 N 
ATOM      4  H1  UNL     1      44.388  -1.375  31.933  1.00  0.00     0.164 HD
HETATM    5  N2  UNL     1      43.048  -0.070  33.790  1.00  0.00    -0.328 N 
HETATM    6  C5  UNL     1      42.061   0.706  34.554  1.00  0.00     0.152 C 
HETATM    7  C6  UNL     1      42.857   1.751  35.307  1.00  0.00     0.095 C 
HETATM    8  C7  UNL     1      43.966   2.224  34.420  1.00  0.00     0.031 C 
HETATM    9  C8  UNL     1      45.291   1.604  34.675  1.00  0.00    -0.009 C 
HETATM   10  C9  UNL     1      45.559   1.314  36.143  1.00  0.00     0.029 C 
HETATM   11  C10 UNL     1      44.409   0.445  36.606  1.00  0.00     0.079 C 
HETATM   12  C11 UNL     1      44.241  -0.797  35.803  1.00  0.00     0.050 C 
HETATM   13  C12 UNL     1      44.271  -0.591  34.302  1.00  0.00     0.091 C 
HETATM   14  C13 UNL     1      45.455   0.257  33.965  1.00  0.00     0.030 C 
HETATM   15  N3  UNL     1      43.233   1.219  36.545  1.00  0.00    -0.411 N 
ATOM     16  H3  UNL     1      42.672   1.386  37.380  1.00  0.00     0.154 HD
ENDROOT
BRANCH   3  17
HETATM   17  C2  UNL     1      43.162  -1.228  30.183  1.00  0.00     0.101 A 
HETATM   18  C3  UNL     1      43.247  -2.696  29.794  1.00  0.00     0.044 A 
HETATM   19  C4  UNL     1      44.166  -1.684  29.217  1.00  0.00     0.082 A 
HETATM   20 BR1  UNL     1      43.810  -1.226  27.363  1.00  0.00    -0.089 Br
ENDBRANCH   3  17
TORSDOF 1
ENDMDL
MODEL 4
REMARK VINA RESULT: -5.419419811      1.069      1.287
REMARK  1 active torsions:
REMARK  status: ('A' for Active; 'I' for Inactive)
REMARK       I    between atoms: C1_2  and  N1_3 
REMARK       I    between atoms: C1_2  and  N2_9 
REMARK    1  A    between atoms: N1_3  and  C2_5 
ROOT
HETATM    1  O1  UNL     1      42.226  -4.179  28.823  1.00  0.00    -0.247 OA
HETATM    2  C1  UNL     1      42.681  -3.168  29.405  1.00  0.00     0.319 C 
HETATM    3  N1  UNL     1      43.739  -2.472  28.796  1.00  0.00    -0.337 N 
ATOM      4  H1  UNL     1      44.115  -1.647  29.266  1.00  0.00     0.164 HD
HETATM    5  N2  UNL     1      42.146  -2.754  30.624  1.00  0.00    -0.328 N 
HETATM    6  C5  UNL     1      41.050  -3.607  31.103  1.00  0.00     0.152 C 
HETATM    7  C6  UNL     1      39.950  -2.659  31.531  1.00  0.00     0.095 C 
HETATM    8  C7  UNL     1      39.920  -1.513  30.568  1.00  0.00     0.031 C 
HETATM    9  C8  UNL     1      40.614  -0.282  31.024  1.00  0.00    -0.009 C 
HETATM   10  C9  UNL     1      40.492  -0.027  32.518  1.00  0.00     0.029 C 
HETATM   11  C10 UNL     1      41.016  -1.277  33.191  1.00  0.00     0.079 C 
HETATM   12  C11 UNL     1      42.404  -1.633  32.788  1.00  0.00     0.050 C 
HETATM   13  C12 UNL     1      42.658  -1.605  31.294  1.00  0.00     0.091 C 
HETATM   14  C13 UNL     1      42.120  -0.322  30.747  1.00  0.00     0.030 C 
HETATM   15  N3  UNL     1      40.139  -2.335  32.878  1.00  0.00    -0.411 N 
ATOM     16  H3  UNL     1      39.656  -2.850  33.615  1.00  0.00     0.154 HD
ENDROOT
BRANCH   3  17
HETATM   17  C2  UNL     1      44.323  -2.876  27.524  1.00  0.00     0.101 A 
HETATM   18  C3  UNL     1      44.934  -1.709  26.762  1.00  0.00     0.044 A 
HETATM   19  C4  UNL     1      43.746  -2.436  26.250  1.00  0.00     0.082 A 
HETATM   20 BR1  UNL     1      44.094  -3.595  24.731  1.00  0.00    -0.089 Br
ENDBRANCH   3  17
TORSDOF 1
ENDMDL
MODEL 5
REMARK VINA RESULT: -5.403545476      2.088      2.705
REMARK  1 active torsions:
REMARK  status: ('A' for Active; 'I' for Inactive)
REMARK       I    between atoms: C1_2  and  N1_3 
REMARK       I    between atoms: C1_2  and  N2_9 
REMARK    1  A    between atoms: N1_3  and  C2_5 
ROOT
HETATM    1  O1  UNL     1      43.112  -0.998  31.681  1.00  0.00    -0.247 OA
HETATM    2  C1  UNL     1      42.099  -0.689  31.013  1.00  0.00     0.319 C 
HETATM    3  N1  UNL     1      42.142  -0.869  29.620  1.00  0.00    -0.337 N 
ATOM      4  H1  UNL     1      41.319  -0.619  29.070  1.00  0.00     0.164 HD
HETATM    5  N2  UNL     1      40.965  -0.180  31.644  1.00  0.00    -0.328 N 
HETATM    6  C5  UNL     1      41.109  -0.062  33.102  1.00  0.00     0.152 C 
HETATM    7  C6  UNL     1      39.844  -0.652  33.687  1.00  0.00     0.095 C 
HETATM    8  C7  UNL     1      39.453  -1.836  32.858  1.00  0.00     0.031 C 
HETATM    9  C8  UNL     1      38.394  -1.582  31.849  1.00  0.00    -0.009 C 
HETATM   10  C9  UNL     1      37.337  -0.588  32.306  1.00  0.00     0.029 C 
HETATM   11  C10 UNL     1      38.094   0.666  32.688  1.00  0.00     0.079 C 
HETATM   12  C11 UNL     1      38.944   1.206  31.592  1.00  0.00     0.050 C 
HETATM   13  C12 UNL     1      39.807   0.175  30.892  1.00  0.00     0.091 C 
HETATM   14  C13 UNL     1      38.952  -1.001  30.546  1.00  0.00     0.030 C 
HETATM   15  N3  UNL     1      38.891   0.364  33.810  1.00  0.00    -0.411 N 
ATOM     16  H3  UNL     1      38.776   0.873  34.687  1.00  0.00     0.154 HD
ENDROOT
BRANCH   3  17
HETATM   17  C2  UNL     1      43.309  -1.398  28.927  1.00  0.00     0.101 A 
HETATM   18  C3  UNL     1      44.217  -0.302  28.388  1.00  0.00     0.044 A 
HETATM   19  C4  UNL     1      43.481  -1.219  27.482  1.00  0.00     0.082 A 
HETATM   20 BR1  UNL     1      44.585  -2.551  26.600  1.00  0.00    -0.089 Br
ENDBRANCH   3  17
TORSDOF 1
ENDMDL
