MODEL 1
REMARK VINA RESULT: -5.348517930      0.000      0.000
REMARK  4 active torsions:
REMARK  status: ('A' for Active; 'I' for Inactive)
REMARK    1  A    between atoms: N2_3  and  C2_5 
REMARK    2  A    between atoms: C2_5  and  N3_6 
REMARK    3  A    between atoms: C2_5  and  S1_12 
REMARK       I    between atoms: N3_6  and  C3_8 
REMARK    4  A    between atoms: C3_8  and  C4_10 
ROOT
HETATM    1  C1  UNL     1      43.087   0.144  33.192  1.00  0.00     0.258 C 
HETATM    2  N1  UNL     1      42.892  -0.068  32.074  1.00  0.00    -0.348 NA
HETATM    3  N2  UNL     1      42.650  -0.253  30.797  1.00  0.00    -0.213 N 
ATOM      4  H2  UNL     1      42.791   0.595  30.250  1.00  0.00     0.204 HD
ENDROOT
BRANCH   3   5
HETATM    5  C2  UNL     1      42.246  -1.337  30.006  1.00  0.00     0.191 C 
BRANCH   5   6
HETATM    6  N3  UNL     1      43.017  -1.595  28.881  1.00  0.00    -0.304 N 
HETATM    7  C3  UNL     1      44.177  -1.064  28.333  1.00  0.00     0.233 C 
HETATM    8  O1  UNL     1      44.830  -0.146  28.841  1.00  0.00    -0.272 OA
ATOM      9  H3  UNL     1      42.641  -2.359  28.321  1.00  0.00     0.171 HD
BRANCH   7  10
HETATM   10  C4  UNL     1      44.695  -1.637  27.017  1.00  0.00     0.188 C 
HETATM   11 BR1  UNL     1      43.895  -3.377  26.806  1.00  0.00    -0.087 Br
ENDBRANCH   7  10
ENDBRANCH   5   6
BRANCH   5  12
HETATM   12  S1  UNL     1      40.939  -2.067  30.275  1.00  0.00     0.013 S 
HETATM   13  O2  UNL     1      40.787  -2.854  28.990  1.00  0.00    -0.262 OA
HETATM   14  C5  UNL     1      39.500  -0.967  30.465  1.00  0.00     0.109 C 
HETATM   15  C6  UNL     1      38.827  -1.780  31.591  1.00  0.00    -0.001 C 
HETATM   16  C7  UNL     1      39.973  -1.846  32.625  1.00  0.00     0.022 C 
HETATM   17  C9  UNL     1      39.059  -3.217  31.373  1.00  0.00     0.022 C 
HETATM   18  C8  UNL     1      40.560  -2.916  31.703  1.00  0.00     0.076 C 
ENDBRANCH   5  12
ENDBRANCH   3   5
TORSDOF 4
ENDMDL
MODEL 2
REMARK VINA RESULT: -5.155082801      1.088      1.483
REMARK  4 active torsions:
REMARK  status: ('A' for Active; 'I' for Inactive)
REMARK    1  A    between atoms: N2_3  and  C2_5 
REMARK    2  A    between atoms: C2_5  and  N3_6 
REMARK    3  A    between atoms: C2_5  and  S1_12 
REMARK       I    between atoms: N3_6  and  C3_8 
REMARK    4  A    between atoms: C3_8  and  C4_10 
ROOT
HETATM    1  C1  UNL     1      43.112   0.255  33.331  1.00  0.00     0.258 C 
HETATM    2  N1  UNL     1      42.955   0.048  32.206  1.00  0.00    -0.348 NA
HETATM    3  N2  UNL     1      42.769  -0.129  30.919  1.00  0.00    -0.213 N 
ATOM      4  H2  UNL     1      43.131   0.647  30.366  1.00  0.00     0.204 HD
ENDROOT
BRANCH   3   5
HETATM    5  C2  UNL     1      42.193  -1.128  30.123  1.00  0.00     0.191 C 
BRANCH   5   6
HETATM    6  N3  UNL     1      42.909  -1.498  28.993  1.00  0.00    -0.304 N 
HETATM    7  C3  UNL     1      44.098  -1.097  28.399  1.00  0.00     0.233 C 
HETATM    8  O1  UNL     1      44.844  -0.224  28.855  1.00  0.00    -0.272 OA
ATOM      9  H3  UNL     1      42.451  -2.247  28.473  1.00  0.00     0.171 HD
BRANCH   7  10
HETATM   10  C4  UNL     1      44.529  -1.767  27.097  1.00  0.00     0.188 C 
HETATM   11 BR1  UNL     1      43.781  -3.543  27.101  1.00  0.00    -0.087 Br
ENDBRANCH   7  10
ENDBRANCH   5   6
BRANCH   5  12
HETATM   12  S1  UNL     1      40.786  -1.640  30.392  1.00  0.00     0.013 S 
HETATM   13  O2  UNL     1      40.007  -0.342  30.377  1.00  0.00    -0.262 OA
HETATM   14  C5  UNL     1      40.584  -2.428  32.021  1.00  0.00     0.109 C 
HETATM   15  C6  UNL     1      39.636  -3.547  31.539  1.00  0.00    -0.001 C 
HETATM   16  C7  UNL     1      40.479  -4.172  30.405  1.00  0.00     0.022 C 
HETATM   17  C9  UNL     1      38.755  -3.029  30.480  1.00  0.00     0.022 C 
HETATM   18  C8  UNL     1      40.044  -2.950  29.594  1.00  0.00     0.076 C 
ENDBRANCH   5  12
ENDBRANCH   3   5
TORSDOF 4
ENDMDL
MODEL 3
REMARK VINA RESULT: -5.088772575      2.067      2.313
REMARK  4 active torsions:
REMARK  status: ('A' for Active; 'I' for Inactive)
REMARK    1  A    between atoms: N2_3  and  C2_5 
REMARK    2  A    between atoms: C2_5  and  N3_6 
REMARK    3  A    between atoms: C2_5  and  S1_12 
REMARK       I    between atoms: N3_6  and  C3_8 
REMARK    4  A    between atoms: C3_8  and  C4_10 
ROOT
HETATM    1  C1  UNL     1      44.247  -0.467  33.246  1.00  0.00     0.258 C 
HETATM    2  N1  UNL     1      43.911  -0.765  32.182  1.00  0.00    -0.348 NA
HETATM    3  N2  UNL     1      43.486  -1.067  30.978  1.00  0.00    -0.213 N 
ATOM      4  H2  UNL     1      43.056  -0.270  30.509  1.00  0.00     0.204 HD
ENDROOT
BRANCH   3   5
HETATM    5  C2  UNL     1      43.480  -2.220  30.182  1.00  0.00     0.191 C 
BRANCH   5   6
HETATM    6  N3  UNL     1      43.700  -2.028  28.825  1.00  0.00    -0.304 N 
HETATM    7  C3  UNL     1      44.011  -0.944  28.017  1.00  0.00     0.233 C 
HETATM    8  O1  UNL     1      44.194   0.205  28.433  1.00  0.00    -0.272 OA
ATOM      9  H3  UNL     1      43.610  -2.893  28.292  1.00  0.00     0.171 HD
BRANCH   7  10
HETATM   10  C4  UNL     1      44.140  -1.165  26.512  1.00  0.00     0.188 C 
HETATM   11 BR1  UNL     1      44.128  -3.069  26.218  1.00  0.00    -0.087 Br
ENDBRANCH   7  10
ENDBRANCH   5   6
BRANCH   5  12
HETATM   12  S1  UNL     1      43.081  -3.572  30.753  1.00  0.00     0.013 S 
HETATM   13  O2  UNL     1      44.097  -4.472  30.083  1.00  0.00    -0.262 OA
HETATM   14  C5  UNL     1      41.410  -4.115  30.275  1.00  0.00     0.109 C 
HETATM   15  C6  UNL     1      41.053  -4.748  31.637  1.00  0.00    -0.001 C 
HETATM   16  C7  UNL     1      41.308  -3.556  32.586  1.00  0.00     0.022 C 
HETATM   17  C9  UNL     1      42.254  -5.362  32.229  1.00  0.00     0.022 C 
HETATM   18  C8  UNL     1      42.786  -3.899  32.400  1.00  0.00     0.076 C 
ENDBRANCH   5  12
ENDBRANCH   3   5
TORSDOF 4
ENDMDL
MODEL 4
REMARK VINA RESULT: -5.086034511      1.291      1.461
REMARK  4 active torsions:
REMARK  status: ('A' for Active; 'I' for Inactive)
REMARK    1  A    between atoms: N2_3  and  C2_5 
REMARK    2  A    between atoms: C2_5  and  N3_6 
REMARK    3  A    between atoms: C2_5  and  S1_12 
REMARK       I    between atoms: N3_6  and  C3_8 
REMARK    4  A    between atoms: C3_8  and  C4_10 
ROOT
HETATM    1  C1  UNL     1      44.533  -0.489  33.548  1.00  0.00     0.258 C 
HETATM    2  N1  UNL     1      44.094  -0.588  32.485  1.00  0.00    -0.348 NA
HETATM    3  N2  UNL     1      43.574  -0.646  31.281  1.00  0.00    -0.213 N 
ATOM      4  H2  UNL     1      43.578   0.260  30.814  1.00  0.00     0.204 HD
ENDROOT
BRANCH   3   5
HETATM    5  C2  UNL     1      43.014  -1.654  30.485  1.00  0.00     0.191 C 
BRANCH   5   6
HETATM    6  N3  UNL     1      43.600  -1.848  29.241  1.00  0.00    -0.304 N 
HETATM    7  C3  UNL     1      44.160  -1.026  28.273  1.00  0.00     0.233 C 
HETATM    8  O1  UNL     1      44.269   0.200  28.377  1.00  0.00    -0.272 OA
ATOM      9  H3  UNL     1      43.624  -2.831  28.974  1.00  0.00     0.171 HD
BRANCH   7  10
HETATM   10  C4  UNL     1      44.683  -1.661  26.987  1.00  0.00     0.188 C 
HETATM   11 BR1  UNL     1      43.945  -3.438  26.894  1.00  0.00    -0.087 Br
ENDBRANCH   7  10
ENDBRANCH   5   6
BRANCH   5  12
HETATM   12  S1  UNL     1      41.733  -2.365  30.894  1.00  0.00     0.013 S 
HETATM   13  O2  UNL     1      42.298  -3.605  31.553  1.00  0.00    -0.262 OA
HETATM   14  C5  UNL     1      40.684  -2.868  29.494  1.00  0.00     0.109 C 
HETATM   15  C6  UNL     1      39.339  -2.548  30.181  1.00  0.00    -0.001 C 
HETATM   16  C7  UNL     1      39.559  -1.070  30.573  1.00  0.00     0.022 C 
HETATM   17  C9  UNL     1      39.430  -2.852  31.618  1.00  0.00     0.022 C 
HETATM   18  C8  UNL     1      40.419  -1.641  31.703  1.00  0.00     0.076 C 
ENDBRANCH   5  12
ENDBRANCH   3   5
TORSDOF 4
ENDMDL
MODEL 5
REMARK VINA RESULT: -5.018797454      2.048      3.029
REMARK  4 active torsions:
REMARK  status: ('A' for Active; 'I' for Inactive)
REMARK    1  A    between atoms: N2_3  and  C2_5 
REMARK    2  A    between atoms: C2_5  and  N3_6 
REMARK    3  A    between atoms: C2_5  and  S1_12 
REMARK       I    between atoms: N3_6  and  C3_8 
REMARK    4  A    between atoms: C3_8  and  C4_10 
ROOT
HETATM    1  C1  UNL     1      43.364  -5.615  30.665  1.00  0.00     0.258 C 
HETATM    2  N1  UNL     1      43.392  -4.461  30.692  1.00  0.00    -0.348 NA
HETATM    3  N2  UNL     1      43.424  -3.152  30.781  1.00  0.00    -0.213 N 
ATOM      4  H2  UNL     1      43.951  -2.833  31.593  1.00  0.00     0.204 HD
ENDROOT
BRANCH   3   5
HETATM    5  C2  UNL     1      42.908  -2.089  30.028  1.00  0.00     0.191 C 
BRANCH   5   6
HETATM    6  N3  UNL     1      43.441  -1.924  28.757  1.00  0.00    -0.304 N 
HETATM    7  C3  UNL     1      43.473  -2.678  27.592  1.00  0.00     0.233 C 
HETATM    8  O1  UNL     1      42.934  -3.783  27.463  1.00  0.00    -0.272 OA
ATOM      9  H3  UNL     1      43.926  -1.033  28.653  1.00  0.00     0.171 HD
BRANCH   7  10
HETATM   10  C4  UNL     1      44.218  -2.124  26.381  1.00  0.00     0.188 C 
HETATM   11 BR1  UNL     1      44.054  -3.428  24.972  1.00  0.00    -0.087 Br
ENDBRANCH   7  10
ENDBRANCH   5   6
BRANCH   5  12
HETATM   12  S1  UNL     1      41.954  -1.076  30.642  1.00  0.00     0.013 S 
HETATM   13  O2  UNL     1      42.756   0.198  30.487  1.00  0.00    -0.262 OA
HETATM   14  C5  UNL     1      41.620  -1.350  32.412  1.00  0.00     0.109 C 
HETATM   15  C6  UNL     1      40.125  -0.968  32.352  1.00  0.00    -0.001 C 
HETATM   16  C7  UNL     1      39.627  -1.927  31.248  1.00  0.00     0.022 C 
HETATM   17  C9  UNL     1      39.928   0.116  31.377  1.00  0.00     0.022 C 
HETATM   18  C8  UNL     1      40.293  -0.944  30.284  1.00  0.00     0.076 C 
ENDBRANCH   5  12
ENDBRANCH   3   5
TORSDOF 4
ENDMDL
