MODEL 1
REMARK VINA RESULT: -6.034972876      0.000      0.000
REMARK  4 active torsions:
REMARK  status: ('A' for Active; 'I' for Inactive)
REMARK    1  A    between atoms: C3_5  and  N2_6 
REMARK    2  A    between atoms: C4_11  and  N4_12 
REMARK    3  A    between atoms: C5_15  and  C6_16 
REMARK    4  A    between atoms: C6_16  and  N5_17 
ROOT
HETATM    1  C1  UNL     1      45.763  11.833   2.478  1.00  0.00     0.069 C 
HETATM    2  C2  UNL     1      45.237  13.167   2.736  1.00  0.00     0.034 A 
HETATM    3  N1  UNL     1      45.708  13.932   3.720  1.00  0.00    -0.195 N 
ATOM      4  H1  UNL     1      46.396  13.499   4.335  1.00  0.00     0.184 HD
HETATM    5  C3  UNL     1      45.393  15.180   3.992  1.00  0.00     0.677 A 
HETATM    6  N3  UNL     1      44.490  15.784   3.201  1.00  0.00    -0.177 N 
ATOM      7  H3  UNL     1      44.211  16.751   3.361  1.00  0.00     0.185 HD
HETATM    8  C4  UNL     1      43.947  15.035   2.150  1.00  0.00     0.124 A 
HETATM    9  C5  UNL     1      44.251  13.766   1.866  1.00  0.00     0.037 A 
ENDROOT
BRANCH   9  10
HETATM   10  C6  UNL     1      43.724  12.875   0.849  1.00  0.00     0.317 C 
BRANCH  10  11
HETATM   11  N5  UNL     1      44.369  12.826  -0.424  1.00  0.00     0.093 N 
HETATM   12  C7  UNL     1      43.577  13.723  -1.293  1.00  0.00     0.277 C 
HETATM   13  C8  UNL     1      44.064  13.898  -2.668  1.00  0.00     0.010 C 
HETATM   14  C9  UNL     1      42.953  14.641  -3.440  1.00  0.00     0.011 C 
HETATM   15  C10 UNL     1      44.338  12.610  -3.380  1.00  0.00     0.012 C 
HETATM   16  C11 UNL     1      44.310  11.427  -2.489  1.00  0.00     0.010 C 
HETATM   17  C12 UNL     1      42.924  10.777  -2.437  1.00  0.00     0.011 C 
HETATM   18  C13 UNL     1      44.728  11.656  -1.058  1.00  0.00     0.277 C 
ENDBRANCH  10  11
ENDBRANCH   9  10
BRANCH   8  19
HETATM   19  N4  UNL     1      43.203  15.804   1.412  1.00  0.00    -0.385 N 
ATOM     20  H42 UNL     1      43.372  16.797   1.247  1.00  0.00     0.157 HD
ATOM     21  H41 UNL     1      42.374  15.290   1.114  1.00  0.00     0.157 HD
ENDBRANCH   8  19
BRANCH   5  22
HETATM   22  N2  UNL     1      45.888  15.800   5.055  1.00  0.00    -0.234 N 
ATOM     23  H22 UNL     1      45.278  16.112   5.809  1.00  0.00     0.174 HD
ATOM     24  H21 UNL     1      46.893  15.929   5.173  1.00  0.00     0.174 HD
ENDBRANCH   5  22
TORSDOF 4
ENDMDL
MODEL 2
REMARK VINA RESULT: -5.930218754      1.325      2.144
REMARK  4 active torsions:
REMARK  status: ('A' for Active; 'I' for Inactive)
REMARK    1  A    between atoms: C3_5  and  N2_6 
REMARK    2  A    between atoms: C4_11  and  N4_12 
REMARK    3  A    between atoms: C5_15  and  C6_16 
REMARK    4  A    between atoms: C6_16  and  N5_17 
ROOT
HETATM    1  C1  UNL     1      45.746  11.551   2.657  1.00  0.00     0.069 C 
HETATM    2  C2  UNL     1      45.280  12.929   2.743  1.00  0.00     0.034 A 
HETATM    3  N1  UNL     1      45.839  13.811   3.571  1.00  0.00    -0.195 N 
ATOM      4  H1  UNL     1      46.552  13.446   4.202  1.00  0.00     0.184 HD
HETATM    5  C3  UNL     1      45.582  15.097   3.672  1.00  0.00     0.677 A 
HETATM    6  N3  UNL     1      44.648  15.614   2.855  1.00  0.00    -0.177 N 
ATOM      7  H3  UNL     1      44.411  16.605   2.884  1.00  0.00     0.185 HD
HETATM    8  C4  UNL     1      44.013  14.741   1.963  1.00  0.00     0.124 A 
HETATM    9  C5  UNL     1      44.258  13.432   1.854  1.00  0.00     0.037 A 
ENDROOT
BRANCH   9  10
HETATM   10  C6  UNL     1      43.637  12.423   1.016  1.00  0.00     0.317 C 
BRANCH  10  11
HETATM   11  N5  UNL     1      43.979  12.374  -0.368  1.00  0.00     0.093 N 
HETATM   12  C7  UNL     1      43.797  10.961  -0.761  1.00  0.00     0.277 C 
HETATM   13  C8  UNL     1      44.036  10.639  -2.175  1.00  0.00     0.010 C 
HETATM   14  C9  UNL     1      44.048   9.099  -2.283  1.00  0.00     0.011 C 
HETATM   15  C10 UNL     1      45.343  11.148  -2.697  1.00  0.00     0.012 C 
HETATM   16  C11 UNL     1      46.021  12.087  -1.773  1.00  0.00     0.010 C 
HETATM   17  C12 UNL     1      46.998  11.368  -0.836  1.00  0.00     0.011 C 
HETATM   18  C13 UNL     1      45.127  12.926  -0.896  1.00  0.00     0.277 C 
ENDBRANCH  10  11
ENDBRANCH   9  10
BRANCH   8  19
HETATM   19  N4  UNL     1      43.247  15.423   1.164  1.00  0.00    -0.385 N 
ATOM     20  H42 UNL     1      42.308  15.146   0.879  1.00  0.00     0.157 HD
ATOM     21  H41 UNL     1      43.768  16.216   0.789  1.00  0.00     0.157 HD
ENDBRANCH   8  19
BRANCH   5  22
HETATM   22  N2  UNL     1      46.165  15.847   4.597  1.00  0.00    -0.234 N 
ATOM     23  H22 UNL     1      46.578  15.424   5.428  1.00  0.00     0.174 HD
ATOM     24  H21 UNL     1      46.269  16.854   4.475  1.00  0.00     0.174 HD
ENDBRANCH   5  22
TORSDOF 4
ENDMDL
MODEL 3
REMARK VINA RESULT: -5.673247884      0.915      2.069
REMARK  4 active torsions:
REMARK  status: ('A' for Active; 'I' for Inactive)
REMARK    1  A    between atoms: C3_5  and  N2_6 
REMARK    2  A    between atoms: C4_11  and  N4_12 
REMARK    3  A    between atoms: C5_15  and  C6_16 
REMARK    4  A    between atoms: C6_16  and  N5_17 
ROOT
HETATM    1  C1  UNL     1      43.069  15.655   1.504  1.00  0.00     0.069 C 
HETATM    2  C2  UNL     1      44.161  15.041   2.250  1.00  0.00     0.034 A 
HETATM    3  N1  UNL     1      44.837  15.707   3.185  1.00  0.00    -0.195 N 
ATOM      4  H1  UNL     1      44.606  16.694   3.289  1.00  0.00     0.184 HD
HETATM    5  C3  UNL     1      45.767  15.243   3.991  1.00  0.00     0.677 A 
HETATM    6  N3  UNL     1      46.097  13.945   3.883  1.00  0.00    -0.177 N 
ATOM      7  H3  UNL     1      46.807  13.528   4.485  1.00  0.00     0.185 HD
HETATM    8  C4  UNL     1      45.430  13.185   2.914  1.00  0.00     0.124 A 
HETATM    9  C5  UNL     1      44.489  13.644   2.083  1.00  0.00     0.037 A 
ENDROOT
BRANCH   9  10
HETATM   10  C6  UNL     1      43.771  12.978   1.014  1.00  0.00     0.317 C 
BRANCH  10  11
HETATM   11  N5  UNL     1      44.486  12.592  -0.160  1.00  0.00     0.093 N 
HETATM   12  C7  UNL     1      43.724  13.173  -1.285  1.00  0.00     0.277 C 
HETATM   13  C8  UNL     1      44.283  12.965  -2.629  1.00  0.00     0.010 C 
HETATM   14  C9  UNL     1      43.201  13.416  -3.633  1.00  0.00     0.011 C 
HETATM   15  C10 UNL     1      44.624  11.539  -2.927  1.00  0.00     0.012 C 
HETATM   16  C11 UNL     1      44.573  10.660  -1.736  1.00  0.00     0.010 C 
HETATM   17  C12 UNL     1      43.200  10.001  -1.565  1.00  0.00     0.011 C 
HETATM   18  C13 UNL     1      44.905  11.303  -0.414  1.00  0.00     0.277 C 
ENDBRANCH  10  11
ENDBRANCH   9  10
BRANCH   8  19
HETATM   19  N4  UNL     1      45.768  11.936   3.037  1.00  0.00    -0.385 N 
ATOM     20  H42 UNL     1      45.833  11.271   2.266  1.00  0.00     0.157 HD
ATOM     21  H41 UNL     1      45.855  11.704   4.026  1.00  0.00     0.157 HD
ENDBRANCH   8  19
BRANCH   5  22
HETATM   22  N2  UNL     1      46.413  16.041   4.830  1.00  0.00    -0.234 N 
ATOM     23  H22 UNL     1      47.343  15.797   5.172  1.00  0.00     0.174 HD
ATOM     24  H21 UNL     1      46.027  16.943   5.108  1.00  0.00     0.174 HD
ENDBRANCH   5  22
TORSDOF 4
ENDMDL
MODEL 4
REMARK VINA RESULT: -5.544354109      1.598      2.593
REMARK  4 active torsions:
REMARK  status: ('A' for Active; 'I' for Inactive)
REMARK    1  A    between atoms: C3_5  and  N2_6 
REMARK    2  A    between atoms: C4_11  and  N4_12 
REMARK    3  A    between atoms: C5_15  and  C6_16 
REMARK    4  A    between atoms: C6_16  and  N5_17 
ROOT
HETATM    1  C1  UNL     1      43.105  15.530   1.257  1.00  0.00     0.069 C 
HETATM    2  C2  UNL     1      44.150  14.927   2.075  1.00  0.00     0.034 A 
HETATM    3  N1  UNL     1      44.751  15.597   3.057  1.00  0.00    -0.195 N 
ATOM      4  H1  UNL     1      44.500  16.582   3.147  1.00  0.00     0.184 HD
HETATM    5  C3  UNL     1      45.628  15.142   3.925  1.00  0.00     0.677 A 
HETATM    6  N3  UNL     1      45.982  13.848   3.836  1.00  0.00    -0.177 N 
ATOM      7  H3  UNL     1      46.654  13.439   4.485  1.00  0.00     0.185 HD
HETATM    8  C4  UNL     1      45.394  13.084   2.821  1.00  0.00     0.124 A 
HETATM    9  C5  UNL     1      44.508  13.535   1.928  1.00  0.00     0.037 A 
ENDROOT
BRANCH   9  10
HETATM   10  C6  UNL     1      43.874  12.864   0.809  1.00  0.00     0.317 C 
BRANCH  10  11
HETATM   11  N5  UNL     1      44.528  11.741   0.219  1.00  0.00     0.093 N 
HETATM   12  C7  UNL     1      45.202  12.274  -0.983  1.00  0.00     0.277 C 
HETATM   13  C8  UNL     1      46.006  11.320  -1.759  1.00  0.00     0.010 C 
HETATM   14  C9  UNL     1      46.380  12.026  -3.080  1.00  0.00     0.011 C 
HETATM   15  C10 UNL     1      45.280  10.056  -2.101  1.00  0.00     0.012 C 
HETATM   16  C11 UNL     1      43.994   9.904  -1.382  1.00  0.00     0.010 C 
HETATM   17  C12 UNL     1      42.816  10.465  -2.185  1.00  0.00     0.011 C 
HETATM   18  C13 UNL     1      43.914  10.528  -0.012  1.00  0.00     0.277 C 
ENDBRANCH  10  11
ENDBRANCH   9  10
BRANCH   8  19
HETATM   19  N4  UNL     1      45.739  11.839   2.963  1.00  0.00    -0.385 N 
ATOM     20  H42 UNL     1      46.136  11.437   3.812  1.00  0.00     0.157 HD
ATOM     21  H41 UNL     1      45.649  11.358   2.068  1.00  0.00     0.157 HD
ENDBRANCH   8  19
BRANCH   5  22
HETATM   22  N2  UNL     1      46.205  15.945   4.809  1.00  0.00    -0.234 N 
ATOM     23  H22 UNL     1      46.384  15.629   5.762  1.00  0.00     0.174 HD
ATOM     24  H21 UNL     1      46.536  16.873   4.546  1.00  0.00     0.174 HD
ENDBRANCH   5  22
TORSDOF 4
ENDMDL
MODEL 5
REMARK VINA RESULT: -5.521432638      1.919      3.428
REMARK  4 active torsions:
REMARK  status: ('A' for Active; 'I' for Inactive)
REMARK    1  A    between atoms: C3_5  and  N2_6 
REMARK    2  A    between atoms: C4_11  and  N4_12 
REMARK    3  A    between atoms: C5_15  and  C6_16 
REMARK    4  A    between atoms: C6_16  and  N5_17 
ROOT
HETATM    1  C1  UNL     1      44.562  11.476   1.439  1.00  0.00     0.069 C 
HETATM    2  C2  UNL     1      44.127  12.799   1.010  1.00  0.00     0.034 A 
HETATM    3  N1  UNL     1      43.944  13.796   1.875  1.00  0.00    -0.195 N 
ATOM      4  H1  UNL     1      44.042  13.557   2.862  1.00  0.00     0.184 HD
HETATM    5  C3  UNL     1      43.653  15.050   1.610  1.00  0.00     0.677 A 
HETATM    6  N3  UNL     1      43.517  15.401   0.319  1.00  0.00    -0.177 N 
ATOM      7  H3  UNL     1      43.297  16.361   0.053  1.00  0.00     0.185 HD
HETATM    8  C4  UNL     1      43.689  14.401  -0.645  1.00  0.00     0.124 A 
HETATM    9  C5  UNL     1      43.976  13.121  -0.390  1.00  0.00     0.037 A 
ENDROOT
BRANCH   9  10
HETATM   10  C6  UNL     1      44.125  11.991  -1.289  1.00  0.00     0.317 C 
BRANCH  10  11
HETATM   11  N5  UNL     1      42.968  11.483  -1.952  1.00  0.00     0.093 N 
HETATM   12  C7  UNL     1      43.009  10.021  -1.735  1.00  0.00     0.277 C 
HETATM   13  C8  UNL     1      41.885   9.248  -2.279  1.00  0.00     0.010 C 
HETATM   14  C9  UNL     1      42.276   7.759  -2.167  1.00  0.00     0.011 C 
HETATM   15  C10 UNL     1      41.590   9.540  -3.717  1.00  0.00     0.012 C 
HETATM   16  C11 UNL     1      42.314  10.724  -4.237  1.00  0.00     0.010 C 
HETATM   17  C12 UNL     1      43.652  10.345  -4.880  1.00  0.00     0.011 C 
HETATM   18  C13 UNL     1      42.613  11.817  -3.242  1.00  0.00     0.277 C 
ENDBRANCH  10  11
ENDBRANCH   9  10
BRANCH   8  19
HETATM   19  N4  UNL     1      43.658  14.934  -1.830  1.00  0.00    -0.385 N 
ATOM     20  H42 UNL     1      44.176  15.768  -2.109  1.00  0.00     0.157 HD
ATOM     21  H41 UNL     1      42.961  14.455  -2.400  1.00  0.00     0.157 HD
ENDBRANCH   8  19
BRANCH   5  22
HETATM   22  N2  UNL     1      43.425  15.926   2.579  1.00  0.00    -0.234 N 
ATOM     23  H22 UNL     1      44.140  16.133   3.275  1.00  0.00     0.174 HD
ATOM     24  H21 UNL     1      42.555  16.457   2.621  1.00  0.00     0.174 HD
ENDBRANCH   5  22
TORSDOF 4
ENDMDL
