MODEL 1
REMARK VINA RESULT: -7.057681241      0.000      0.000
REMARK  3 active torsions:
REMARK  status: ('A' for Active; 'I' for Inactive)
REMARK    1  A    between atoms: O1_2  and  C2_3 
REMARK    2  A    between atoms: C5_6  and  N1_7 
REMARK    3  A    between atoms: C9_17  and  N4_18 
ROOT
HETATM    1  C2  UNL     1      11.804  44.610  18.043  1.00  0.00     0.096 A 
HETATM    2  C3  UNL     1      10.474  44.817  18.405  1.00  0.00     0.056 A 
HETATM    3  C4  UNL     1      10.115  45.618  19.462  1.00  0.00     0.037 A 
HETATM    4  C5  UNL     1       8.802  45.837  19.839  1.00  0.00     0.112 A 
HETATM    5  N2  UNL     1       8.483  46.635  20.890  1.00  0.00    -0.338 N 
ATOM      6  H2  UNL     1       7.511  46.788  21.158  1.00  0.00     0.168 HD
HETATM    7  C6  UNL     1       9.491  47.220  21.569  1.00  0.00     0.182 A 
HETATM    8  N3  UNL     1      10.773  47.009  21.206  1.00  0.00    -0.351 N 
ATOM      9  H3  UNL     1      11.509  47.466  21.744  1.00  0.00     0.166 HD
HETATM   10  C7  UNL     1      11.132  46.229  20.175  1.00  0.00     0.049 A 
HETATM   11  C8  UNL     1      12.448  46.021  19.814  1.00  0.00     0.063 A 
HETATM   12  C9  UNL     1      12.814  45.218  18.755  1.00  0.00     0.069 A 
ENDROOT
BRANCH  12  13
HETATM   13  N4  UNL     1      14.163  44.999  18.374  1.00  0.00    -0.340 N 
HETATM   14  C10 UNL     1      14.810  45.786  17.590  1.00  0.00     0.107 A 
HETATM   15  C11 UNL     1      16.116  45.576  17.218  1.00  0.00     0.065 A 
HETATM   16  N6  UNL     1      14.178  46.864  17.109  1.00  0.00    -0.339 N 
HETATM   17  C12 UNL     1      16.762  46.461  16.369  1.00  0.00     0.092 A 
HETATM   18  N5  UNL     1      16.064  47.527  15.922  1.00  0.00    -0.362 N 
HETATM   19  C13 UNL     1      14.786  47.753  16.270  1.00  0.00     0.181 A 
ATOM     20  H5  UNL     1      16.525  48.187  15.296  1.00  0.00     0.165 HD
ATOM     21  H6  UNL     1      13.208  47.028  17.380  1.00  0.00     0.168 HD
ATOM     22  H4  UNL     1      14.643  44.176  18.741  1.00  0.00     0.167 HD
ENDBRANCH  12  13
BRANCH   1  23
HETATM   23  O1  UNL     1      12.120  43.795  16.972  1.00  0.00    -0.354 OA
HETATM   24  C1  UNL     1      11.377  43.867  15.793  1.00  0.00     0.210 C 
ENDBRANCH   1  23
BRANCH   4  25
HETATM   25  N1  UNL     1       7.885  45.238  19.135  1.00  0.00    -0.385 N 
ATOM     26  H12 UNL     1       8.123  44.660  18.328  1.00  0.00     0.157 HD
ATOM     27  H11 UNL     1       6.918  45.376  19.430  1.00  0.00     0.157 HD
ENDBRANCH   4  25
TORSDOF 3
ENDMDL
MODEL 2
REMARK VINA RESULT: -6.773417967      1.243      1.264
REMARK  3 active torsions:
REMARK  status: ('A' for Active; 'I' for Inactive)
REMARK    1  A    between atoms: O1_2  and  C2_3 
REMARK    2  A    between atoms: C5_6  and  N1_7 
REMARK    3  A    between atoms: C9_17  and  N4_18 
ROOT
HETATM    1  C2  UNL     1      11.880  44.181  17.325  1.00  0.00     0.096 A 
HETATM    2  C3  UNL     1      10.631  44.570  17.804  1.00  0.00     0.056 A 
HETATM    3  C4  UNL     1      10.485  45.398  18.891  1.00  0.00     0.037 A 
HETATM    4  C5  UNL     1       9.255  45.796  19.384  1.00  0.00     0.112 A 
HETATM    5  N2  UNL     1       9.147  46.616  20.461  1.00  0.00    -0.338 N 
ATOM      6  H2  UNL     1       8.235  46.902  20.815  1.00  0.00     0.168 HD
HETATM    7  C6  UNL     1      10.284  47.041  21.049  1.00  0.00     0.182 A 
HETATM    8  N3  UNL     1      11.486  46.655  20.572  1.00  0.00    -0.351 N 
ATOM      9  H3  UNL     1      12.324  46.995  21.043  1.00  0.00     0.166 HD
HETATM   10  C7  UNL     1      11.638  45.847  19.512  1.00  0.00     0.049 A 
HETATM   11  C8  UNL     1      12.874  45.460  19.034  1.00  0.00     0.063 A 
HETATM   12  C9  UNL     1      13.026  44.629  17.945  1.00  0.00     0.069 A 
ENDROOT
BRANCH  12  13
HETATM   13  N4  UNL     1      14.291  44.225  17.445  1.00  0.00    -0.340 N 
HETATM   14  C10 UNL     1      14.861  44.786  16.438  1.00  0.00     0.107 A 
HETATM   15  C11 UNL     1      16.086  44.397  15.950  1.00  0.00     0.065 A 
HETATM   16  N6  UNL     1      14.230  45.800  15.833  1.00  0.00    -0.339 N 
HETATM   17  C12 UNL     1      16.652  45.041  14.861  1.00  0.00     0.092 A 
HETATM   18  N5  UNL     1      15.959  46.056  14.300  1.00  0.00    -0.362 N 
HETATM   19  C13 UNL     1      14.759  46.453  14.758  1.00  0.00     0.181 A 
ATOM     20  H5  UNL     1      16.362  46.539  13.498  1.00  0.00     0.165 HD
ATOM     21  H6  UNL     1      13.321  46.096  16.189  1.00  0.00     0.168 HD
ATOM     22  H4  UNL     1      14.772  43.452  17.907  1.00  0.00     0.167 HD
ENDBRANCH  12  13
BRANCH   1  23
HETATM   23  O1  UNL     1      11.981  43.346  16.228  1.00  0.00    -0.354 OA
HETATM   24  C1  UNL     1      11.193  43.573  15.099  1.00  0.00     0.210 C 
ENDBRANCH   1  23
BRANCH   4  25
HETATM   25  N1  UNL     1       8.203  45.345  18.763  1.00  0.00    -0.385 N 
ATOM     26  H12 UNL     1       8.277  44.634  18.035  1.00  0.00     0.157 HD
ATOM     27  H11 UNL     1       7.304  45.738  19.041  1.00  0.00     0.157 HD
ENDBRANCH   4  25
TORSDOF 3
ENDMDL
MODEL 3
REMARK VINA RESULT: -6.408117459      1.585      1.716
REMARK  3 active torsions:
REMARK  status: ('A' for Active; 'I' for Inactive)
REMARK    1  A    between atoms: O1_2  and  C2_3 
REMARK    2  A    between atoms: C5_6  and  N1_7 
REMARK    3  A    between atoms: C9_17  and  N4_18 
ROOT
HETATM    1  C2  UNL     1      11.715  44.263  17.206  1.00  0.00     0.096 A 
HETATM    2  C3  UNL     1      10.498  44.629  17.778  1.00  0.00     0.056 A 
HETATM    3  C4  UNL     1      10.420  45.426  18.894  1.00  0.00     0.037 A 
HETATM    4  C5  UNL     1       9.222  45.801  19.478  1.00  0.00     0.112 A 
HETATM    5  N2  UNL     1       9.182  46.591  20.583  1.00  0.00    -0.338 N 
ATOM      6  H2  UNL     1       8.293  46.860  21.003  1.00  0.00     0.168 HD
HETATM    7  C6  UNL     1      10.352  47.008  21.106  1.00  0.00     0.182 A 
HETATM    8  N3  UNL     1      11.522  46.644  20.540  1.00  0.00    -0.351 N 
ATOM      9  H3  UNL     1      12.388  46.977  20.964  1.00  0.00     0.166 HD
HETATM   10  C7  UNL     1      11.608  45.867  19.450  1.00  0.00     0.049 A 
HETATM   11  C8  UNL     1      12.812  45.502  18.881  1.00  0.00     0.063 A 
HETATM   12  C9  UNL     1      12.897  44.703  17.761  1.00  0.00     0.069 A 
ENDROOT
BRANCH  12  13
HETATM   13  N4  UNL     1      14.129  44.322  17.168  1.00  0.00    -0.340 N 
HETATM   14  C10 UNL     1      15.273  44.648  17.654  1.00  0.00     0.107 A 
HETATM   15  C11 UNL     1      16.469  44.282  17.082  1.00  0.00     0.065 A 
HETATM   16  N6  UNL     1      15.303  45.381  18.775  1.00  0.00    -0.339 N 
HETATM   17  C12 UNL     1      17.673  44.663  17.653  1.00  0.00     0.092 A 
HETATM   18  N5  UNL     1      17.628  45.402  18.783  1.00  0.00    -0.362 N 
HETATM   19  C13 UNL     1      16.472  45.772  19.360  1.00  0.00     0.181 A 
ATOM     20  H5  UNL     1      18.505  45.690  19.215  1.00  0.00     0.165 HD
ATOM     21  H6  UNL     1      14.421  45.656  19.206  1.00  0.00     0.168 HD
ATOM     22  H4  UNL     1      14.104  43.763  16.315  1.00  0.00     0.167 HD
ENDBRANCH  12  13
BRANCH   1  23
HETATM   23  O1  UNL     1      11.748  43.459  16.082  1.00  0.00    -0.354 OA
HETATM   24  C1  UNL     1      10.864  43.691  15.028  1.00  0.00     0.210 C 
ENDBRANCH   1  23
BRANCH   4  25
HETATM   25  N1  UNL     1       8.135  45.359  18.915  1.00  0.00    -0.385 N 
ATOM     26  H12 UNL     1       7.763  45.783  18.065  1.00  0.00     0.157 HD
ATOM     27  H11 UNL     1       7.674  44.569  19.368  1.00  0.00     0.157 HD
ENDBRANCH   4  25
TORSDOF 3
ENDMDL
MODEL 4
REMARK VINA RESULT: -6.097930190      1.642      5.921
REMARK  3 active torsions:
REMARK  status: ('A' for Active; 'I' for Inactive)
REMARK    1  A    between atoms: O1_2  and  C2_3 
REMARK    2  A    between atoms: C5_6  and  N1_7 
REMARK    3  A    between atoms: C9_17  and  N4_18 
ROOT
HETATM    1  C2  UNL     1      10.539  44.824  17.262  1.00  0.00     0.096 A 
HETATM    2  C3  UNL     1      11.686  44.786  16.472  1.00  0.00     0.056 A 
HETATM    3  C4  UNL     1      12.944  44.973  16.992  1.00  0.00     0.037 A 
HETATM    4  C5  UNL     1      14.097  44.940  16.227  1.00  0.00     0.112 A 
HETATM    5  N2  UNL     1      15.325  45.130  16.775  1.00  0.00    -0.338 N 
ATOM      6  H2  UNL     1      16.166  45.103  16.200  1.00  0.00     0.168 HD
HETATM    7  C6  UNL     1      15.397  45.355  18.102  1.00  0.00     0.182 A 
HETATM    8  N3  UNL     1      14.276  45.390  18.852  1.00  0.00    -0.351 N 
ATOM      9  H3  UNL     1      14.370  45.565  19.853  1.00  0.00     0.166 HD
HETATM   10  C7  UNL     1      13.045  45.207  18.353  1.00  0.00     0.049 A 
HETATM   11  C8  UNL     1      11.905  45.245  19.132  1.00  0.00     0.063 A 
HETATM   12  C9  UNL     1      10.641  45.057  18.615  1.00  0.00     0.069 A 
ENDROOT
BRANCH  12  13
HETATM   13  N4  UNL     1       9.464  45.093  19.407  1.00  0.00    -0.340 N 
HETATM   14  C10 UNL     1       9.220  46.021  20.263  1.00  0.00     0.107 A 
HETATM   15  C11 UNL     1       8.082  46.059  21.032  1.00  0.00     0.065 A 
HETATM   16  N6  UNL     1      10.121  47.000  20.413  1.00  0.00    -0.339 N 
HETATM   17  C12 UNL     1       7.873  47.086  21.939  1.00  0.00     0.092 A 
HETATM   18  N5  UNL     1       8.824  48.041  22.038  1.00  0.00    -0.362 N 
HETATM   19  C13 UNL     1       9.946  48.024  21.298  1.00  0.00     0.181 A 
ATOM     20  H5  UNL     1       8.686  48.803  22.701  1.00  0.00     0.165 HD
ATOM     21  H6  UNL     1      10.969  46.980  19.846  1.00  0.00     0.168 HD
ATOM     22  H4  UNL     1       8.778  44.347  19.291  1.00  0.00     0.167 HD
ENDBRANCH  12  13
BRANCH   1  23
HETATM   23  O1  UNL     1       9.292  44.630  16.696  1.00  0.00    -0.354 OA
HETATM   24  C1  UNL     1       9.167  44.464  15.316  1.00  0.00     0.210 C 
ENDBRANCH   1  23
BRANCH   4  25
HETATM   25  N1  UNL     1      13.945  44.716  14.954  1.00  0.00    -0.385 N 
ATOM     26  H12 UNL     1      13.929  45.478  14.275  1.00  0.00     0.157 HD
ATOM     27  H11 UNL     1      13.844  43.741  14.669  1.00  0.00     0.157 HD
ENDBRANCH   4  25
TORSDOF 3
ENDMDL
MODEL 5
REMARK VINA RESULT: -5.933438289      2.369      3.228
REMARK  3 active torsions:
REMARK  status: ('A' for Active; 'I' for Inactive)
REMARK    1  A    between atoms: O1_2  and  C2_3 
REMARK    2  A    between atoms: C5_6  and  N1_7 
REMARK    3  A    between atoms: C9_17  and  N4_18 
ROOT
HETATM    1  C2  UNL     1      13.485  44.836  18.405  1.00  0.00     0.096 A 
HETATM    2  C3  UNL     1      12.692  45.583  19.274  1.00  0.00     0.056 A 
HETATM    3  C4  UNL     1      11.321  45.584  19.201  1.00  0.00     0.037 A 
HETATM    4  C5  UNL     1      10.514  46.318  20.053  1.00  0.00     0.112 A 
HETATM    5  N2  UNL     1       9.160  46.296  19.952  1.00  0.00    -0.338 N 
ATOM      6  H2  UNL     1       8.577  46.841  20.586  1.00  0.00     0.168 HD
HETATM    7  C6  UNL     1       8.610  45.531  18.986  1.00  0.00     0.182 A 
HETATM    8  N3  UNL     1       9.392  44.815  18.153  1.00  0.00    -0.351 N 
ATOM      9  H3  UNL     1       8.941  44.250  17.433  1.00  0.00     0.166 HD
HETATM   10  C7  UNL     1      10.732  44.807  18.218  1.00  0.00     0.049 A 
HETATM   11  C8  UNL     1      11.521  44.070  17.358  1.00  0.00     0.063 A 
HETATM   12  C9  UNL     1      12.898  44.065  17.427  1.00  0.00     0.069 A 
ENDROOT
BRANCH  12  13
HETATM   13  N4  UNL     1      13.718  43.310  16.549  1.00  0.00    -0.340 N 
HETATM   14  C10 UNL     1      14.062  43.720  15.380  1.00  0.00     0.107 A 
HETATM   15  C11 UNL     1      14.855  42.992  14.526  1.00  0.00     0.065 A 
HETATM   16  N6  UNL     1      13.624  44.919  14.974  1.00  0.00    -0.339 N 
HETATM   17  C12 UNL     1      15.194  43.488  13.277  1.00  0.00     0.092 A 
HETATM   18  N5  UNL     1      14.717  44.704  12.933  1.00  0.00    -0.362 N 
HETATM   19  C13 UNL     1      13.939  45.434  13.750  1.00  0.00     0.181 A 
ATOM     20  H5  UNL     1      14.957  45.082  12.017  1.00  0.00     0.165 HD
ATOM     21  H6  UNL     1      13.035  45.467  15.601  1.00  0.00     0.168 HD
ATOM     22  H4  UNL     1      14.051  42.397  16.860  1.00  0.00     0.167 HD
ENDBRANCH  12  13
BRANCH   1  23
HETATM   23  O1  UNL     1      14.863  44.865  18.514  1.00  0.00    -0.354 OA
HETATM   24  C1  UNL     1      15.591  45.904  17.933  1.00  0.00     0.210 C 
ENDBRANCH   1  23
BRANCH   4  25
HETATM   25  N1  UNL     1      11.118  47.031  20.959  1.00  0.00    -0.385 N 
ATOM     26  H12 UNL     1      10.740  47.924  21.277  1.00  0.00     0.157 HD
ATOM     27  H11 UNL     1      11.988  46.651  21.335  1.00  0.00     0.157 HD
ENDBRANCH   4  25
TORSDOF 3
ENDMDL
