MODEL 1
REMARK VINA RESULT: -6.934905245      0.000      0.000
REMARK  6 active torsions:
REMARK  status: ('A' for Active; 'I' for Inactive)
REMARK    1  A    between atoms: C6_6  and  C7_7 
REMARK    2  A    between atoms: C7_7  and  N1_8 
REMARK    3  A    between atoms: N1_8  and  C8_10 
REMARK    4  A    between atoms: C9_13  and  N3_14 
REMARK    5  A    between atoms: C11_19  and  N5_20 
REMARK    6  A    between atoms: N5_20  and  N6_22 
ROOT
HETATM    1  C1  UNL     1      46.087  16.458   5.133  1.00  0.00     0.018 C 
HETATM    2  C2  UNL     1      45.777  15.585   4.361  1.00  0.00    -0.078 C 
HETATM    3  C3  UNL     1      45.430  14.548   3.433  1.00  0.00     0.017 A 
HETATM    4  C4  UNL     1      46.042  13.315   3.484  1.00  0.00     0.021 A 
HETATM    5  C5  UNL     1      45.730  12.292   2.602  1.00  0.00     0.010 A 
HETATM    6  C6  UNL     1      44.770  12.478   1.618  1.00  0.00    -0.040 A 
HETATM    7  C12 UNL     1      44.155  13.704   1.561  1.00  0.00     0.010 A 
HETATM    8  C13 UNL     1      44.466  14.721   2.437  1.00  0.00     0.021 A 
ENDROOT
BRANCH   6   9
HETATM    9  C7  UNL     1      44.429  11.387   0.668  1.00  0.00     0.176 C 
BRANCH   9  10
HETATM   10  N1  UNL     1      45.675  10.675   0.393  1.00  0.00    -0.221 N 
ATOM     11  H1  UNL     1      45.813   9.744   0.788  1.00  0.00     0.178 HD
BRANCH  10  12
HETATM   12  C8  UNL     1      46.597  11.187  -0.330  1.00  0.00     0.707 A 
HETATM   13  N2  UNL     1      46.302  11.804  -1.495  1.00  0.00    -0.022 N 
HETATM   14  C9  UNL     1      47.315  12.321  -2.209  1.00  0.00     0.706 A 
ATOM     15  H2  UNL     1      45.338  11.874  -1.822  1.00  0.00     0.203 HD
HETATM   16  N4  UNL     1      48.593  12.217  -1.754  1.00  0.00    -0.020 N 
HETATM   17  C11 UNL     1      48.876  11.607  -0.604  1.00  0.00     0.725 A 
ATOM     18  H4  UNL     1      49.353  12.616  -2.306  1.00  0.00     0.203 HD
HETATM   19  N7  UNL     1      47.864  11.088   0.112  1.00  0.00    -0.020 N 
ATOM     20  H7  UNL     1      48.057  10.616   0.995  1.00  0.00     0.203 HD
BRANCH  14  21
HETATM   21  N3  UNL     1      47.062  12.917  -3.327  1.00  0.00    -0.229 N 
HETATM   22  C10 UNL     1      45.895  13.714  -3.556  1.00  0.00     0.165 C 
ATOM     23  H3  UNL     1      47.731  12.815  -4.090  1.00  0.00     0.177 HD
ENDBRANCH  14  21
BRANCH  17  24
HETATM   24  N5  UNL     1      50.091  11.508  -0.173  1.00  0.00    -0.138 N 
ATOM     25  H5  UNL     1      50.630  10.677  -0.419  1.00  0.00     0.205 HD
BRANCH  24  26
HETATM   26  N6  UNL     1      50.693  12.480   0.611  1.00  0.00    -0.331 N 
ATOM     27  H62 UNL     1      51.359  13.106   0.158  1.00  0.00     0.177 HD
ATOM     28  H61 UNL     1      50.496  12.590   1.605  1.00  0.00     0.177 HD
ENDBRANCH  24  26
ENDBRANCH  17  24
ENDBRANCH  10  12
ENDBRANCH   9  10
ENDBRANCH   6   9
TORSDOF 6
ENDMDL
MODEL 2
REMARK VINA RESULT: -6.837074315      1.690      1.772
REMARK  6 active torsions:
REMARK  status: ('A' for Active; 'I' for Inactive)
REMARK    1  A    between atoms: C6_6  and  C7_7 
REMARK    2  A    between atoms: C7_7  and  N1_8 
REMARK    3  A    between atoms: N1_8  and  C8_10 
REMARK    4  A    between atoms: C9_13  and  N3_14 
REMARK    5  A    between atoms: C11_19  and  N5_20 
REMARK    6  A    between atoms: N5_20  and  N6_22 
ROOT
HETATM    1  C1  UNL     1      46.165  16.747   5.287  1.00  0.00     0.018 C 
HETATM    2  C2  UNL     1      45.812  15.897   4.508  1.00  0.00    -0.078 C 
HETATM    3  C3  UNL     1      45.413  14.887   3.570  1.00  0.00     0.017 A 
HETATM    4  C4  UNL     1      46.030  13.656   3.548  1.00  0.00     0.021 A 
HETATM    5  C5  UNL     1      45.669  12.659   2.655  1.00  0.00     0.010 A 
HETATM    6  C6  UNL     1      44.654  12.872   1.734  1.00  0.00    -0.040 A 
HETATM    7  C12 UNL     1      44.034  14.097   1.749  1.00  0.00     0.010 A 
HETATM    8  C13 UNL     1      44.394  15.087   2.637  1.00  0.00     0.021 A 
ENDROOT
BRANCH   6   9
HETATM    9  C7  UNL     1      44.260  11.809   0.772  1.00  0.00     0.176 C 
BRANCH   9  10
HETATM   10  N1  UNL     1      45.185  10.698   0.982  1.00  0.00    -0.221 N 
ATOM     11  H1  UNL     1      45.076  10.109   1.808  1.00  0.00     0.178 HD
BRANCH  10  12
HETATM   12  C8  UNL     1      46.130  10.445   0.158  1.00  0.00     0.707 A 
HETATM   13  N2  UNL     1      45.926  10.524  -1.175  1.00  0.00    -0.022 N 
HETATM   14  C9  UNL     1      46.958  10.245  -1.989  1.00  0.00     0.706 A 
ATOM     15  H2  UNL     1      45.016  10.788  -1.552  1.00  0.00     0.203 HD
HETATM   16  N4  UNL     1      48.164   9.895  -1.465  1.00  0.00    -0.020 N 
HETATM   17  C11 UNL     1      48.357   9.819  -0.149  1.00  0.00     0.725 A 
ATOM     18  H4  UNL     1      48.940   9.688  -2.094  1.00  0.00     0.203 HD
HETATM   19  N7  UNL     1      47.326  10.097   0.667  1.00  0.00    -0.020 N 
ATOM     20  H7  UNL     1      47.450  10.045   1.678  1.00  0.00     0.203 HD
BRANCH  14  21
HETATM   21  N3  UNL     1      46.792  10.313  -3.268  1.00  0.00    -0.229 N 
HETATM   22  C10 UNL     1      45.599   9.896  -3.937  1.00  0.00     0.165 C 
ATOM     23  H3  UNL     1      47.554  10.687  -3.833  1.00  0.00     0.177 HD
ENDBRANCH  14  21
BRANCH  17  24
HETATM   24  N5  UNL     1      49.503   9.486   0.349  1.00  0.00    -0.138 N 
ATOM     25  H5  UNL     1      50.351   9.814  -0.115  1.00  0.00     0.205 HD
BRANCH  24  26
HETATM   26  N6  UNL     1      49.630   8.701   1.485  1.00  0.00    -0.331 N 
ATOM     27  H62 UNL     1      49.970   9.152   2.334  1.00  0.00     0.177 HD
ATOM     28  H61 UNL     1      49.400   7.708   1.500  1.00  0.00     0.177 HD
ENDBRANCH  24  26
ENDBRANCH  17  24
ENDBRANCH  10  12
ENDBRANCH   9  10
ENDBRANCH   6   9
TORSDOF 6
ENDMDL
MODEL 3
REMARK VINA RESULT: -6.827082122      1.710      2.082
REMARK  6 active torsions:
REMARK  status: ('A' for Active; 'I' for Inactive)
REMARK    1  A    between atoms: C6_6  and  C7_7 
REMARK    2  A    between atoms: C7_7  and  N1_8 
REMARK    3  A    between atoms: N1_8  and  C8_10 
REMARK    4  A    between atoms: C9_13  and  N3_14 
REMARK    5  A    between atoms: C11_19  and  N5_20 
REMARK    6  A    between atoms: N5_20  and  N6_22 
ROOT
HETATM    1  C1  UNL     1      46.110  16.733   5.289  1.00  0.00     0.018 C 
HETATM    2  C2  UNL     1      45.814  15.870   4.500  1.00  0.00    -0.078 C 
HETATM    3  C3  UNL     1      45.442  14.841   3.572  1.00  0.00     0.017 A 
HETATM    4  C4  UNL     1      44.458  15.055   2.632  1.00  0.00     0.021 A 
HETATM    5  C5  UNL     1      44.075  14.083   1.721  1.00  0.00     0.010 A 
HETATM    6  C6  UNL     1      44.681  12.835   1.725  1.00  0.00    -0.040 A 
HETATM    7  C12 UNL     1      45.663  12.614   2.659  1.00  0.00     0.010 A 
HETATM    8  C13 UNL     1      46.043  13.581   3.564  1.00  0.00     0.021 A 
ENDROOT
BRANCH   6   9
HETATM    9  C7  UNL     1      44.276  11.786   0.753  1.00  0.00     0.176 C 
BRANCH   9  10
HETATM   10  N1  UNL     1      45.184  10.660   0.960  1.00  0.00    -0.221 N 
ATOM     11  H1  UNL     1      45.048  10.053   1.768  1.00  0.00     0.178 HD
BRANCH  10  12
HETATM   12  C8  UNL     1      46.147  10.415   0.153  1.00  0.00     0.707 A 
HETATM   13  N2  UNL     1      45.977  10.526  -1.182  1.00  0.00    -0.022 N 
HETATM   14  C9  UNL     1      47.026  10.255  -1.976  1.00  0.00     0.706 A 
ATOM     15  H2  UNL     1      45.079  10.807  -1.575  1.00  0.00     0.203 HD
HETATM   16  N4  UNL     1      48.216   9.882  -1.430  1.00  0.00    -0.020 N 
HETATM   17  C11 UNL     1      48.375   9.775  -0.113  1.00  0.00     0.725 A 
ATOM     18  H4  UNL     1      49.004   9.681  -2.045  1.00  0.00     0.203 HD
HETATM   19  N7  UNL     1      47.326  10.045   0.684  1.00  0.00    -0.020 N 
ATOM     20  H7  UNL     1      47.425   9.969   1.696  1.00  0.00     0.203 HD
BRANCH  14  21
HETATM   21  N3  UNL     1      46.892  10.354  -3.257  1.00  0.00    -0.229 N 
HETATM   22  C10 UNL     1      45.842   9.724  -3.996  1.00  0.00     0.165 C 
ATOM     23  H3  UNL     1      47.574  10.912  -3.771  1.00  0.00     0.177 HD
ENDBRANCH  14  21
BRANCH  17  24
HETATM   24  N5  UNL     1      49.505   9.419   0.406  1.00  0.00    -0.138 N 
ATOM     25  H5  UNL     1      50.366   9.689  -0.071  1.00  0.00     0.205 HD
BRANCH  24  26
HETATM   26  N6  UNL     1      49.597   8.688   1.580  1.00  0.00    -0.331 N 
ATOM     27  H62 UNL     1      50.358   8.916   2.219  1.00  0.00     0.177 HD
ATOM     28  H61 UNL     1      48.943   7.945   1.821  1.00  0.00     0.177 HD
ENDBRANCH  24  26
ENDBRANCH  17  24
ENDBRANCH  10  12
ENDBRANCH   9  10
ENDBRANCH   6   9
TORSDOF 6
ENDMDL
MODEL 4
REMARK VINA RESULT: -6.788491145      1.455      2.389
REMARK  6 active torsions:
REMARK  status: ('A' for Active; 'I' for Inactive)
REMARK    1  A    between atoms: C6_6  and  C7_7 
REMARK    2  A    between atoms: C7_7  and  N1_8 
REMARK    3  A    between atoms: N1_8  and  C8_10 
REMARK    4  A    between atoms: C9_13  and  N3_14 
REMARK    5  A    between atoms: C11_19  and  N5_20 
REMARK    6  A    between atoms: N5_20  and  N6_22 
ROOT
HETATM    1  C1  UNL     1      46.160  16.564   5.095  1.00  0.00     0.018 C 
HETATM    2  C2  UNL     1      45.831  15.676   4.348  1.00  0.00    -0.078 C 
HETATM    3  C3  UNL     1      45.461  14.622   3.449  1.00  0.00     0.017 A 
HETATM    4  C4  UNL     1      46.068  13.386   3.515  1.00  0.00     0.021 A 
HETATM    5  C5  UNL     1      45.734  12.347   2.662  1.00  0.00     0.010 A 
HETATM    6  C6  UNL     1      44.757  12.517   1.692  1.00  0.00    -0.040 A 
HETATM    7  C12 UNL     1      44.148  13.745   1.619  1.00  0.00     0.010 A 
HETATM    8  C13 UNL     1      44.481  14.779   2.468  1.00  0.00     0.021 A 
ENDROOT
BRANCH   6   9
HETATM    9  C7  UNL     1      44.393  11.408   0.771  1.00  0.00     0.176 C 
BRANCH   9  10
HETATM   10  N1  UNL     1      45.273  11.528  -0.389  1.00  0.00    -0.221 N 
ATOM     11  H1  UNL     1      44.900  11.904  -1.260  1.00  0.00     0.178 HD
BRANCH  10  12
HETATM   12  C8  UNL     1      46.501  11.172  -0.340  1.00  0.00     0.707 A 
HETATM   13  N2  UNL     1      47.469  11.951  -0.870  1.00  0.00    -0.022 N 
HETATM   14  C9  UNL     1      48.739  11.522  -0.788  1.00  0.00     0.706 A 
ATOM     15  H2  UNL     1      47.242  12.838  -1.320  1.00  0.00     0.203 HD
HETATM   16  N4  UNL     1      49.021  10.335  -0.183  1.00  0.00    -0.020 N 
HETATM   17  C11 UNL     1      48.060   9.573   0.337  1.00  0.00     0.725 A 
ATOM     18  H4  UNL     1      49.990  10.022  -0.126  1.00  0.00     0.203 HD
HETATM   19  N7  UNL     1      46.788  10.000   0.255  1.00  0.00    -0.020 N 
ATOM     20  H7  UNL     1      46.036   9.433   0.646  1.00  0.00     0.203 HD
BRANCH  14  21
HETATM   21  N3  UNL     1      49.686  12.246  -1.286  1.00  0.00    -0.229 N 
HETATM   22  C10 UNL     1      50.742  12.817  -0.507  1.00  0.00     0.165 C 
ATOM     23  H3  UNL     1      49.681  12.421  -2.291  1.00  0.00     0.177 HD
ENDBRANCH  14  21
BRANCH  17  24
HETATM   24  N5  UNL     1      48.327   8.445   0.911  1.00  0.00    -0.138 N 
ATOM     25  H5  UNL     1      49.192   7.965   0.662  1.00  0.00     0.205 HD
BRANCH  24  26
HETATM   26  N6  UNL     1      47.489   7.862   1.848  1.00  0.00    -0.331 N 
ATOM     27  H62 UNL     1      46.930   8.483   2.433  1.00  0.00     0.177 HD
ATOM     28  H61 UNL     1      47.415   6.852   1.971  1.00  0.00     0.177 HD
ENDBRANCH  24  26
ENDBRANCH  17  24
ENDBRANCH  10  12
ENDBRANCH   9  10
ENDBRANCH   6   9
TORSDOF 6
ENDMDL
MODEL 5
REMARK VINA RESULT: -6.777363134      2.885      4.398
REMARK  6 active torsions:
REMARK  status: ('A' for Active; 'I' for Inactive)
REMARK    1  A    between atoms: C6_6  and  C7_7 
REMARK    2  A    between atoms: C7_7  and  N1_8 
REMARK    3  A    between atoms: N1_8  and  C8_10 
REMARK    4  A    between atoms: C9_13  and  N3_14 
REMARK    5  A    between atoms: C11_19  and  N5_20 
REMARK    6  A    between atoms: N5_20  and  N6_22 
ROOT
HETATM    1  C1  UNL     1      44.652  16.770   4.708  1.00  0.00     0.018 C 
HETATM    2  C2  UNL     1      44.798  15.773   4.045  1.00  0.00    -0.078 C 
HETATM    3  C3  UNL     1      44.950  14.579   3.265  1.00  0.00     0.017 A 
HETATM    4  C4  UNL     1      44.162  14.348   2.159  1.00  0.00     0.021 A 
HETATM    5  C5  UNL     1      44.283  13.205   1.384  1.00  0.00     0.010 A 
HETATM    6  C6  UNL     1      45.222  12.235   1.702  1.00  0.00    -0.040 A 
HETATM    7  C12 UNL     1      46.013  12.458   2.802  1.00  0.00     0.010 A 
HETATM    8  C13 UNL     1      45.890  13.594   3.572  1.00  0.00     0.021 A 
ENDROOT
BRANCH   6   9
HETATM    9  C7  UNL     1      45.360  11.006   0.877  1.00  0.00     0.176 C 
BRANCH   9  10
HETATM   10  N1  UNL     1      46.787  10.852   0.600  1.00  0.00    -0.221 N 
ATOM     11  H1  UNL     1      47.267  11.567   0.054  1.00  0.00     0.178 HD
BRANCH  10  12
HETATM   12  C8  UNL     1      47.449   9.843   1.025  1.00  0.00     0.707 A 
HETATM   13  N2  UNL     1      48.669   9.555   0.524  1.00  0.00    -0.022 N 
HETATM   14  C9  UNL     1      49.313   8.482   1.011  1.00  0.00     0.706 A 
ATOM     15  H2  UNL     1      49.088  10.134  -0.203  1.00  0.00     0.203 HD
HETATM   16  N4  UNL     1      48.736   7.722   1.982  1.00  0.00    -0.020 N 
HETATM   17  C11 UNL     1      47.532   8.013   2.471  1.00  0.00     0.725 A 
ATOM     18  H4  UNL     1      49.238   6.911   2.344  1.00  0.00     0.203 HD
HETATM   19  N7  UNL     1      46.885   9.086   1.984  1.00  0.00    -0.020 N 
ATOM     20  H7  UNL     1      45.962   9.328   2.344  1.00  0.00     0.203 HD
BRANCH  14  21
HETATM   21  N3  UNL     1      50.483   8.182   0.550  1.00  0.00    -0.229 N 
HETATM   22  C10 UNL     1      51.107   6.908   0.736  1.00  0.00     0.165 C 
ATOM     23  H3  UNL     1      50.990   8.894   0.024  1.00  0.00     0.177 HD
ENDBRANCH  14  21
BRANCH  17  24
HETATM   24  N5  UNL     1      46.983   7.291   3.392  1.00  0.00    -0.138 N 
ATOM     25  H5  UNL     1      46.229   7.697   3.946  1.00  0.00     0.205 HD
BRANCH  24  26
HETATM   26  N6  UNL     1      47.376   5.988   3.660  1.00  0.00    -0.331 N 
ATOM     27  H62 UNL     1      46.979   5.536   4.484  1.00  0.00     0.177 HD
ATOM     28  H61 UNL     1      48.035   5.477   3.073  1.00  0.00     0.177 HD
ENDBRANCH  24  26
ENDBRANCH  17  24
ENDBRANCH  10  12
ENDBRANCH   9  10
ENDBRANCH   6   9
TORSDOF 6
ENDMDL
