MODEL 1
REMARK VINA RESULT: -6.464969190      0.000      0.000
REMARK  5 active torsions:
REMARK  status: ('A' for Active; 'I' for Inactive)
REMARK    1  A    between atoms: C2_2  and  N1_3 
REMARK    2  A    between atoms: N1_3  and  C3_5 
REMARK    3  A    between atoms: C3_5  and  C4_6 
REMARK    4  A    between atoms: C4_6  and  N2_7 
REMARK    5  A    between atoms: N2_7  and  C5_9 
ROOT
HETATM    1  C5  UNL     1      -2.723  29.816  -9.881  1.00  0.00     0.030 C 
HETATM    2  C6  UNL     1      -3.287  28.971 -10.997  1.00  0.00     0.035 C 
HETATM    3  C7  UNL     1      -3.161  29.925 -12.176  1.00  0.00    -0.011 C 
HETATM    4  C8  UNL     1      -1.710  30.268 -12.415  1.00  0.00     0.009 C 
HETATM    5  C9  UNL     1      -1.034  30.773 -11.184  1.00  0.00    -0.011 C 
HETATM    6  C10 UNL     1      -1.812  31.939 -10.559  1.00  0.00     0.012 C 
HETATM    7  C11 UNL     1      -3.120  31.226 -10.234  1.00  0.00     0.014 C 
HETATM    8  C12 UNL     1      -3.868  31.146 -11.566  1.00  0.00     0.012 C 
HETATM    9  C13 UNL     1      -1.206  29.758 -10.044  1.00  0.00     0.035 C 
ENDROOT
BRANCH   1  10
HETATM   10  N2  UNL     1      -3.057  29.394  -8.588  1.00  0.00    -0.411 N 
ATOM     11  H2  UNL     1      -4.032  29.243  -8.329  1.00  0.00     0.154 HD
BRANCH  10  12
HETATM   12  C4  UNL     1      -2.013  29.177  -7.637  1.00  0.00     0.133 C 
BRANCH  12  13
HETATM   13  C3  UNL     1      -2.626  29.463  -6.249  1.00  0.00     0.133 C 
BRANCH  13  14
HETATM   14  N1  UNL     1      -3.373  30.688  -6.374  1.00  0.00    -0.420 N 
ATOM     15  H1  UNL     1      -3.888  30.922  -7.223  1.00  0.00     0.153 HD
BRANCH  14  16
HETATM   16  C2  UNL     1      -3.352  31.551  -5.251  1.00  0.00     0.109 C 
HETATM   17  C1  UNL     1      -3.765  30.888  -3.965  1.00  0.00     0.026 C 
ENDBRANCH  14  16
ENDBRANCH  13  14
ENDBRANCH  12  13
ENDBRANCH  10  12
ENDBRANCH   1  10
TORSDOF 5
ENDMDL
MODEL 2
REMARK VINA RESULT: -5.970513616      0.822      1.920
REMARK  5 active torsions:
REMARK  status: ('A' for Active; 'I' for Inactive)
REMARK    1  A    between atoms: C2_2  and  N1_3 
REMARK    2  A    between atoms: N1_3  and  C3_5 
REMARK    3  A    between atoms: C3_5  and  C4_6 
REMARK    4  A    between atoms: C4_6  and  N2_7 
REMARK    5  A    between atoms: N2_7  and  C5_9 
ROOT
HETATM    1  C5  UNL     1      -2.463  29.845  -9.779  1.00  0.00     0.030 C 
HETATM    2  C6  UNL     1      -3.229  31.088  -9.396  1.00  0.00     0.035 C 
HETATM    3  C7  UNL     1      -3.043  31.941 -10.642  1.00  0.00    -0.011 C 
HETATM    4  C8  UNL     1      -3.656  31.255 -11.839  1.00  0.00     0.009 C 
HETATM    5  C9  UNL     1      -3.159  29.858 -12.012  1.00  0.00    -0.011 C 
HETATM    6  C10 UNL     1      -1.625  29.810 -12.037  1.00  0.00     0.012 C 
HETATM    7  C11 UNL     1      -1.332  30.347 -10.640  1.00  0.00     0.014 C 
HETATM    8  C12 UNL     1      -1.511  31.862 -10.752  1.00  0.00     0.012 C 
HETATM    9  C13 UNL     1      -3.382  29.064 -10.716  1.00  0.00     0.035 C 
ENDROOT
BRANCH   1  10
HETATM   10  N2  UNL     1      -2.095  29.019  -8.710  1.00  0.00    -0.411 N 
ATOM     11  H2  UNL     1      -2.472  28.074  -8.634  1.00  0.00     0.154 HD
BRANCH  10  12
HETATM   12  C4  UNL     1      -1.185  29.518  -7.728  1.00  0.00     0.133 C 
BRANCH  12  13
HETATM   13  C3  UNL     1      -1.894  29.366  -6.365  1.00  0.00     0.133 C 
BRANCH  13  14
HETATM   14  N1  UNL     1      -2.247  30.694  -5.934  1.00  0.00    -0.420 N 
ATOM     15  H1  UNL     1      -1.943  31.524  -6.442  1.00  0.00     0.153 HD
BRANCH  14  16
HETATM   16  C2  UNL     1      -3.041  30.783  -4.764  1.00  0.00     0.109 C 
HETATM   17  C1  UNL     1      -2.660  29.796  -3.694  1.00  0.00     0.026 C 
ENDBRANCH  14  16
ENDBRANCH  13  14
ENDBRANCH  12  13
ENDBRANCH  10  12
ENDBRANCH   1  10
TORSDOF 5
ENDMDL
MODEL 3
REMARK VINA RESULT: -5.964567696      1.098      2.201
REMARK  5 active torsions:
REMARK  status: ('A' for Active; 'I' for Inactive)
REMARK    1  A    between atoms: C2_2  and  N1_3 
REMARK    2  A    between atoms: N1_3  and  C3_5 
REMARK    3  A    between atoms: C3_5  and  C4_6 
REMARK    4  A    between atoms: C4_6  and  N2_7 
REMARK    5  A    between atoms: N2_7  and  C5_9 
ROOT
HETATM    1  C5  UNL     1      -2.533  30.103  -9.043  1.00  0.00     0.030 C 
HETATM    2  C6  UNL     1      -1.053  30.402  -9.010  1.00  0.00     0.035 C 
HETATM    3  C7  UNL     1      -0.809  30.822 -10.453  1.00  0.00    -0.011 C 
HETATM    4  C8  UNL     1      -1.619  32.053 -10.780  1.00  0.00     0.009 C 
HETATM    5  C9  UNL     1      -3.067  31.884 -10.462  1.00  0.00    -0.011 C 
HETATM    6  C10 UNL     1      -3.639  30.619 -11.119  1.00  0.00     0.012 C 
HETATM    7  C11 UNL     1      -2.780  29.565 -10.429  1.00  0.00     0.014 C 
HETATM    8  C12 UNL     1      -1.436  29.609 -11.159  1.00  0.00     0.012 C 
HETATM    9  C13 UNL     1      -3.230  31.461  -8.994  1.00  0.00     0.035 C 
ENDROOT
BRANCH   1  10
HETATM   10  N2  UNL     1      -3.004  29.312  -7.988  1.00  0.00    -0.411 N 
ATOM     11  H2  UNL     1      -3.862  28.771  -8.092  1.00  0.00     0.154 HD
BRANCH  10  12
HETATM   12  C4  UNL     1      -2.265  29.275  -6.765  1.00  0.00     0.133 C 
BRANCH  12  13
HETATM   13  C3  UNL     1      -3.022  30.186  -5.775  1.00  0.00     0.133 C 
BRANCH  13  14
HETATM   14  N1  UNL     1      -3.416  29.353  -4.668  1.00  0.00    -0.420 N 
ATOM     15  H1  UNL     1      -3.979  28.514  -4.800  1.00  0.00     0.153 HD
BRANCH  14  16
HETATM   16  C2  UNL     1      -2.978  29.767  -3.386  1.00  0.00     0.109 C 
HETATM   17  C1  UNL     1      -3.759  30.920  -2.818  1.00  0.00     0.026 C 
ENDBRANCH  14  16
ENDBRANCH  13  14
ENDBRANCH  12  13
ENDBRANCH  10  12
ENDBRANCH   1  10
TORSDOF 5
ENDMDL
MODEL 4
REMARK VINA RESULT: -5.906169921      1.166      2.057
REMARK  5 active torsions:
REMARK  status: ('A' for Active; 'I' for Inactive)
REMARK    1  A    between atoms: C2_2  and  N1_3 
REMARK    2  A    between atoms: N1_3  and  C3_5 
REMARK    3  A    between atoms: C3_5  and  C4_6 
REMARK    4  A    between atoms: C4_6  and  N2_7 
REMARK    5  A    between atoms: N2_7  and  C5_9 
ROOT
HETATM    1  C5  UNL     1      -2.123  30.491  -9.035  1.00  0.00     0.030 C 
HETATM    2  C6  UNL     1      -3.183  31.560  -9.147  1.00  0.00     0.035 C 
HETATM    3  C7  UNL     1      -3.075  31.924 -10.620  1.00  0.00    -0.011 C 
HETATM    4  C8  UNL     1      -3.400  30.724 -11.477  1.00  0.00     0.009 C 
HETATM    5  C9  UNL     1      -2.588  29.527 -11.114  1.00  0.00    -0.011 C 
HETATM    6  C10 UNL     1      -1.087  29.850 -11.112  1.00  0.00     0.012 C 
HETATM    7  C11 UNL     1      -1.057  30.909 -10.015  1.00  0.00     0.014 C 
HETATM    8  C12 UNL     1      -1.562  32.188 -10.686  1.00  0.00     0.012 C 
HETATM    9  C13 UNL     1      -2.749  29.225  -9.616  1.00  0.00     0.035 C 
ENDROOT
BRANCH   1  10
HETATM   10  N2  UNL     1      -1.683  30.223  -7.733  1.00  0.00    -0.411 N 
ATOM     11  H2  UNL     1      -0.814  30.629  -7.387  1.00  0.00     0.154 HD
BRANCH  10  12
HETATM   12  C4  UNL     1      -2.470  29.372  -6.896  1.00  0.00     0.133 C 
BRANCH  12  13
HETATM   13  C3  UNL     1      -3.035  30.271  -5.775  1.00  0.00     0.133 C 
BRANCH  13  14
HETATM   14  N1  UNL     1      -3.420  29.394  -4.699  1.00  0.00    -0.420 N 
ATOM     15  H1  UNL     1      -3.996  28.568  -4.857  1.00  0.00     0.153 HD
BRANCH  14  16
HETATM   16  C2  UNL     1      -2.955  29.746  -3.408  1.00  0.00     0.109 C 
HETATM   17  C1  UNL     1      -3.701  30.894  -2.784  1.00  0.00     0.026 C 
ENDBRANCH  14  16
ENDBRANCH  13  14
ENDBRANCH  12  13
ENDBRANCH  10  12
ENDBRANCH   1  10
TORSDOF 5
ENDMDL
MODEL 5
REMARK VINA RESULT: -5.690342184      2.150      7.009
REMARK  5 active torsions:
REMARK  status: ('A' for Active; 'I' for Inactive)
REMARK    1  A    between atoms: C2_2  and  N1_3 
REMARK    2  A    between atoms: N1_3  and  C3_5 
REMARK    3  A    between atoms: C3_5  and  C4_6 
REMARK    4  A    between atoms: C4_6  and  N2_7 
REMARK    5  A    between atoms: N2_7  and  C5_9 
ROOT
HETATM    1  C5  UNL     1      -3.622  31.414  -3.829  1.00  0.00     0.030 C 
HETATM    2  C6  UNL     1      -4.212  31.114  -2.472  1.00  0.00     0.035 C 
HETATM    3  C7  UNL     1      -3.652  32.265  -1.650  1.00  0.00    -0.011 C 
HETATM    4  C8  UNL     1      -4.150  33.583  -2.195  1.00  0.00     0.009 C 
HETATM    5  C9  UNL     1      -3.886  33.731  -3.656  1.00  0.00    -0.011 C 
HETATM    6  C10 UNL     1      -2.407  33.487  -3.984  1.00  0.00     0.012 C 
HETATM    7  C11 UNL     1      -2.282  32.036  -3.531  1.00  0.00     0.014 C 
HETATM    8  C12 UNL     1      -2.165  32.107  -2.007  1.00  0.00     0.012 C 
HETATM    9  C13 UNL     1      -4.480  32.534  -4.415  1.00  0.00     0.035 C 
ENDROOT
BRANCH   1  10
HETATM   10  N2  UNL     1      -3.608  30.337  -4.724  1.00  0.00    -0.411 N 
ATOM     11  H2  UNL     1      -4.474  29.852  -4.962  1.00  0.00     0.154 HD
BRANCH  10  12
HETATM   12  C4  UNL     1      -2.366  29.928  -5.299  1.00  0.00     0.133 C 
BRANCH  12  13
HETATM   13  C3  UNL     1      -2.635  29.714  -6.804  1.00  0.00     0.133 C 
BRANCH  13  14
HETATM   14  N1  UNL     1      -2.905  31.014  -7.363  1.00  0.00    -0.420 N 
ATOM     15  H1  UNL     1      -3.300  31.770  -6.802  1.00  0.00     0.153 HD
BRANCH  14  16
HETATM   16  C2  UNL     1      -2.592  31.184  -8.733  1.00  0.00     0.109 C 
HETATM   17  C1  UNL     1      -1.274  30.583  -9.136  1.00  0.00     0.026 C 
ENDBRANCH  14  16
ENDBRANCH  13  14
ENDBRANCH  12  13
ENDBRANCH  10  12
ENDBRANCH   1  10
TORSDOF 5
ENDMDL
