MODEL 1
REMARK VINA RESULT: -7.208560453      0.000      0.000
REMARK  4 active torsions:
REMARK  status: ('A' for Active; 'I' for Inactive)
REMARK    1  A    between atoms: C4_4  and  N1_5 
REMARK    2  A    between atoms: N1_5  and  S1_7 
REMARK    3  A    between atoms: C6_11  and  N2_12 
REMARK    4  A    between atoms: C11_20  and  N5_21 
REMARK       I    between atoms: N5_21  and  C12_23 
REMARK       I    between atoms: C12_23  and  N6_25 
ROOT
HETATM    1  N2  UNL     1      59.920  25.975   3.859  1.00  0.00    -0.281 N 
HETATM    2  C7  UNL     1      59.822  25.047   2.886  1.00  0.00     0.147 A 
HETATM    3  N3  UNL     1      60.096  23.632   3.034  1.00  0.00    -0.080 NA
HETATM    4  C8  UNL     1      59.420  25.670   1.740  1.00  0.00     0.107 A 
HETATM    5  C9  UNL     1      59.176  25.132   0.456  1.00  0.00     0.104 C 
HETATM    6  N4  UNL     1      58.977  24.683  -0.581  1.00  0.00    -0.191 NA
HETATM    7  C10 UNL     1      59.281  27.021   2.074  1.00  0.00     0.077 A 
HETATM    8  S2  UNL     1      58.883  28.603   1.557  1.00  0.00    -0.048 SA
HETATM    9  C11 UNL     1      59.132  29.417   3.032  1.00  0.00     0.154 A 
HETATM   10  N7  UNL     1      59.508  28.444   3.858  1.00  0.00    -0.321 N 
ATOM     11  H7  UNL     1      59.728  28.645   4.834  1.00  0.00     0.169 HD
HETATM   12  C15 UNL     1      59.590  27.218   3.387  1.00  0.00     0.135 A 
ENDROOT
BRANCH   1  13
HETATM   13  C6  UNL     1      60.319  25.643   5.178  1.00  0.00     0.070 A 
HETATM   14  C4  UNL     1      59.363  25.292   6.103  1.00  0.00     0.070 A 
HETATM   15  C3  UNL     1      59.678  24.957   7.402  1.00  0.00     0.039 A 
HETATM   16  C2  UNL     1      61.011  24.968   7.818  1.00  0.00    -0.054 A 
HETATM   17  C1  UNL     1      61.352  24.603   9.234  1.00  0.00     0.049 C 
HETATM   18  C17 UNL     1      61.964  25.316   6.903  1.00  0.00    -0.054 A 
HETATM   19  C16 UNL     1      61.628  25.648   5.603  1.00  0.00     0.039 A 
HETATM   20  C18 UNL     1      63.384  25.340   7.300  1.00  0.00     0.049 C 
BRANCH  14  21
HETATM   21  N1  UNL     1      58.026  25.268   5.665  1.00  0.00    -0.283 N 
ATOM     22  H1  UNL     1      57.706  24.504   5.071  1.00  0.00     0.178 HD
BRANCH  21  23
HETATM   23  S1  UNL     1      56.928  26.503   6.116  1.00  0.00     0.227 S 
HETATM   24  C5  UNL     1      55.654  26.687   4.871  1.00  0.00     0.186 C 
HETATM   25  O1  UNL     1      56.280  26.102   7.433  1.00  0.00    -0.206 OA
HETATM   26  O2  UNL     1      57.554  27.845   6.294  1.00  0.00    -0.206 OA
ENDBRANCH  21  23
ENDBRANCH  14  21
ENDBRANCH   1  13
BRANCH   9  27
HETATM   27  N5  UNL     1      58.992  30.696   3.314  1.00  0.00    -0.289 N 
HETATM   28  C12 UNL     1      57.737  31.129   3.848  1.00  0.00     0.323 C 
HETATM   29  O3  UNL     1      57.386  30.830   5.028  1.00  0.00    -0.247 OA
HETATM   30  N6  UNL     1      56.851  31.904   3.071  1.00  0.00    -0.343 N 
HETATM   31  C13 UNL     1      57.221  32.260   1.724  1.00  0.00     0.154 C 
HETATM   32  C14 UNL     1      55.584  32.347   3.592  1.00  0.00     0.154 C 
ATOM     33  H5  UNL     1      59.754  31.357   3.157  1.00  0.00     0.172 HD
ENDBRANCH   9  27
TORSDOF 4
ENDMDL
MODEL 2
REMARK VINA RESULT: -7.203062867      2.625      3.424
REMARK  4 active torsions:
REMARK  status: ('A' for Active; 'I' for Inactive)
REMARK    1  A    between atoms: C4_4  and  N1_5 
REMARK    2  A    between atoms: N1_5  and  S1_7 
REMARK    3  A    between atoms: C6_11  and  N2_12 
REMARK    4  A    between atoms: C11_20  and  N5_21 
REMARK       I    between atoms: N5_21  and  C12_23 
REMARK       I    between atoms: C12_23  and  N6_25 
ROOT
HETATM    1  N2  UNL     1      59.688  25.703   4.160  1.00  0.00    -0.281 N 
HETATM    2  C7  UNL     1      59.135  24.732   3.406  1.00  0.00     0.147 A 
HETATM    3  N3  UNL     1      59.270  23.307   3.628  1.00  0.00    -0.080 NA
HETATM    4  C8  UNL     1      58.427  25.324   2.401  1.00  0.00     0.107 A 
HETATM    5  C9  UNL     1      57.673  24.737   1.359  1.00  0.00     0.104 C 
HETATM    6  N4  UNL     1      57.061  24.249   0.519  1.00  0.00    -0.191 NA
HETATM    7  C10 UNL     1      58.582  26.701   2.589  1.00  0.00     0.077 A 
HETATM    8  S2  UNL     1      58.220  28.283   2.046  1.00  0.00    -0.048 SA
HETATM    9  C11 UNL     1      59.080  29.155   3.229  1.00  0.00     0.154 A 
HETATM   10  N7  UNL     1      59.607  28.200   3.991  1.00  0.00    -0.321 N 
ATOM     11  H7  UNL     1      60.186  28.435   4.797  1.00  0.00     0.169 HD
HETATM   12  C15 UNL     1      59.364  26.945   3.678  1.00  0.00     0.135 A 
ENDROOT
BRANCH   1  13
HETATM   13  C6  UNL     1      60.492  25.412   5.292  1.00  0.00     0.070 A 
HETATM   14  C4  UNL     1      61.862  25.431   5.169  1.00  0.00     0.070 A 
HETATM   15  C3  UNL     1      62.702  25.158   6.225  1.00  0.00     0.039 A 
HETATM   16  C2  UNL     1      62.167  24.848   7.477  1.00  0.00    -0.054 A 
HETATM   17  C1  UNL     1      63.085  24.550   8.627  1.00  0.00     0.049 C 
HETATM   18  C17 UNL     1      60.807  24.827   7.604  1.00  0.00    -0.054 A 
HETATM   19  C16 UNL     1      59.978  25.104   6.531  1.00  0.00     0.039 A 
HETATM   20  C18 UNL     1      60.199  24.504   8.908  1.00  0.00     0.049 C 
BRANCH  14  21
HETATM   21  N1  UNL     1      62.388  25.763   3.907  1.00  0.00    -0.283 N 
ATOM     22  H1  UNL     1      62.328  26.725   3.576  1.00  0.00     0.178 HD
BRANCH  21  23
HETATM   23  S1  UNL     1      63.126  24.574   2.919  1.00  0.00     0.227 S 
HETATM   24  C5  UNL     1      63.751  25.318   1.414  1.00  0.00     0.186 C 
HETATM   25  O1  UNL     1      64.288  23.970   3.693  1.00  0.00    -0.206 OA
HETATM   26  O2  UNL     1      62.215  23.468   2.506  1.00  0.00    -0.206 OA
ENDBRANCH  21  23
ENDBRANCH  14  21
ENDBRANCH   1  13
BRANCH   9  27
HETATM   27  N5  UNL     1      59.207  30.458   3.378  1.00  0.00    -0.289 N 
HETATM   28  C12 UNL     1      58.020  31.224   3.602  1.00  0.00     0.323 C 
HETATM   29  O3  UNL     1      57.391  31.159   4.700  1.00  0.00    -0.247 OA
HETATM   30  N6  UNL     1      57.511  32.076   2.599  1.00  0.00    -0.343 N 
HETATM   31  C13 UNL     1      58.202  32.171   1.338  1.00  0.00     0.154 C 
HETATM   32  C14 UNL     1      56.317  32.853   2.807  1.00  0.00     0.154 C 
ATOM     33  H5  UNL     1      60.123  30.906   3.336  1.00  0.00     0.172 HD
ENDBRANCH   9  27
TORSDOF 4
ENDMDL
MODEL 3
REMARK VINA RESULT: -7.002890514      1.753      1.972
REMARK  4 active torsions:
REMARK  status: ('A' for Active; 'I' for Inactive)
REMARK    1  A    between atoms: C4_4  and  N1_5 
REMARK    2  A    between atoms: N1_5  and  S1_7 
REMARK    3  A    between atoms: C6_11  and  N2_12 
REMARK    4  A    between atoms: C11_20  and  N5_21 
REMARK       I    between atoms: N5_21  and  C12_23 
REMARK       I    between atoms: C12_23  and  N6_25 
ROOT
HETATM    1  N2  UNL     1      59.795  26.282   4.597  1.00  0.00    -0.281 N 
HETATM    2  C7  UNL     1      60.320  25.748   3.476  1.00  0.00     0.147 A 
HETATM    3  N3  UNL     1      61.049  24.499   3.394  1.00  0.00    -0.080 NA
HETATM    4  C8  UNL     1      60.046  26.587   2.435  1.00  0.00     0.107 A 
HETATM    5  C9  UNL     1      60.382  26.470   1.067  1.00  0.00     0.104 C 
HETATM    6  N4  UNL     1      60.658  26.362  -0.042  1.00  0.00    -0.191 NA
HETATM    7  C10 UNL     1      59.328  27.653   2.987  1.00  0.00     0.077 A 
HETATM    8  S2  UNL     1      58.528  29.143   2.729  1.00  0.00    -0.048 SA
HETATM    9  C11 UNL     1      58.041  29.445   4.332  1.00  0.00     0.154 A 
HETATM   10  N7  UNL     1      58.510  28.393   4.998  1.00  0.00    -0.321 N 
ATOM     11  H7  UNL     1      58.362  28.303   6.003  1.00  0.00     0.169 HD
HETATM   12  C15 UNL     1      59.168  27.470   4.329  1.00  0.00     0.135 A 
ENDROOT
BRANCH   1  13
HETATM   13  C6  UNL     1      59.909  25.645   5.859  1.00  0.00     0.070 A 
HETATM   14  C4  UNL     1      58.810  25.020   6.401  1.00  0.00     0.070 A 
HETATM   15  C3  UNL     1      58.850  24.382   7.621  1.00  0.00     0.039 A 
HETATM   16  C2  UNL     1      60.038  24.356   8.354  1.00  0.00    -0.054 A 
HETATM   17  C1  UNL     1      60.079  23.661   9.684  1.00  0.00     0.049 C 
HETATM   18  C17 UNL     1      61.132  24.976   7.820  1.00  0.00    -0.054 A 
HETATM   19  C16 UNL     1      61.073  25.612   6.592  1.00  0.00     0.039 A 
HETATM   20  C18 UNL     1      62.408  24.974   8.560  1.00  0.00     0.049 C 
BRANCH  14  21
HETATM   21  N1  UNL     1      57.625  25.037   5.644  1.00  0.00    -0.283 N 
ATOM     22  H1  UNL     1      57.590  24.540   4.754  1.00  0.00     0.178 HD
BRANCH  21  23
HETATM   23  S1  UNL     1      56.240  25.880   6.195  1.00  0.00     0.227 S 
HETATM   24  C5  UNL     1      55.296  26.501   4.804  1.00  0.00     0.186 C 
HETATM   25  O1  UNL     1      55.376  24.908   6.985  1.00  0.00    -0.206 OA
HETATM   26  O2  UNL     1      56.541  27.051   7.067  1.00  0.00    -0.206 OA
ENDBRANCH  21  23
ENDBRANCH  14  21
ENDBRANCH   1  13
BRANCH   9  27
HETATM   27  N5  UNL     1      57.363  30.463   4.821  1.00  0.00    -0.289 N 
HETATM   28  C12 UNL     1      56.719  30.291   6.087  1.00  0.00     0.323 C 
HETATM   29  O3  UNL     1      57.387  30.218   7.161  1.00  0.00    -0.247 OA
HETATM   30  N6  UNL     1      55.315  30.194   6.175  1.00  0.00    -0.343 N 
HETATM   31  C13 UNL     1      54.526  30.272   4.971  1.00  0.00     0.154 C 
HETATM   32  C14 UNL     1      54.650  30.019   7.440  1.00  0.00     0.154 C 
ATOM     33  H5  UNL     1      57.300  31.347   4.314  1.00  0.00     0.172 HD
ENDBRANCH   9  27
TORSDOF 4
ENDMDL
MODEL 4
REMARK VINA RESULT: -6.983066565     10.857     13.681
REMARK  4 active torsions:
REMARK  status: ('A' for Active; 'I' for Inactive)
REMARK    1  A    between atoms: C4_4  and  N1_5 
REMARK    2  A    between atoms: N1_5  and  S1_7 
REMARK    3  A    between atoms: C6_11  and  N2_12 
REMARK    4  A    between atoms: C11_20  and  N5_21 
REMARK       I    between atoms: N5_21  and  C12_23 
REMARK       I    between atoms: C12_23  and  N6_25 
ROOT
HETATM    1  N2  UNL     1      59.661  24.207  17.523  1.00  0.00    -0.281 N 
HETATM    2  C7  UNL     1      59.879  25.123  18.489  1.00  0.00     0.147 A 
HETATM    3  N3  UNL     1      61.113  25.849  18.705  1.00  0.00    -0.080 NA
HETATM    4  C8  UNL     1      58.735  25.246  19.224  1.00  0.00     0.107 A 
HETATM    5  C9  UNL     1      58.462  26.072  20.338  1.00  0.00     0.104 C 
HETATM    6  N4  UNL     1      58.250  26.751  21.239  1.00  0.00    -0.191 NA
HETATM    7  C10 UNL     1      57.819  24.358  18.652  1.00  0.00     0.077 A 
HETATM    8  S2  UNL     1      56.245  23.690  18.680  1.00  0.00    -0.048 SA
HETATM    9  C11 UNL     1      56.400  22.631  17.355  1.00  0.00     0.154 A 
HETATM   10  N7  UNL     1      57.650  22.833  16.946  1.00  0.00    -0.321 N 
ATOM     11  H7  UNL     1      58.027  22.322  16.149  1.00  0.00     0.169 HD
HETATM   12  C15 UNL     1      58.387  23.709  17.596  1.00  0.00     0.135 A 
ENDROOT
BRANCH   1  13
HETATM   13  C6  UNL     1      60.664  23.850  16.586  1.00  0.00     0.070 A 
HETATM   14  C4  UNL     1      60.584  24.330  15.299  1.00  0.00     0.070 A 
HETATM   15  C3  UNL     1      61.521  24.025  14.337  1.00  0.00     0.039 A 
HETATM   16  C2  UNL     1      62.602  23.199  14.656  1.00  0.00    -0.054 A 
HETATM   17  C1  UNL     1      63.622  22.867  13.606  1.00  0.00     0.049 C 
HETATM   18  C17 UNL     1      62.685  22.720  15.933  1.00  0.00    -0.054 A 
HETATM   19  C16 UNL     1      61.733  23.038  16.886  1.00  0.00     0.039 A 
HETATM   20  C18 UNL     1      63.809  21.845  16.314  1.00  0.00     0.049 C 
BRANCH  14  21
HETATM   21  N1  UNL     1      59.501  25.175  14.995  1.00  0.00    -0.283 N 
ATOM     22  H1  UNL     1      59.456  26.104  15.414  1.00  0.00     0.178 HD
BRANCH  21  23
HETATM   23  S1  UNL     1      58.256  24.666  13.934  1.00  0.00     0.227 S 
HETATM   24  C5  UNL     1      56.664  25.236  14.525  1.00  0.00     0.186 C 
HETATM   25  O1  UNL     1      58.523  25.274  12.565  1.00  0.00    -0.206 OA
HETATM   26  O2  UNL     1      58.152  23.187  13.775  1.00  0.00    -0.206 OA
ENDBRANCH  21  23
ENDBRANCH  14  21
ENDBRANCH   1  13
BRANCH   9  27
HETATM   27  N5  UNL     1      55.514  21.803  16.839  1.00  0.00    -0.289 N 
HETATM   28  C12 UNL     1      55.636  21.474  15.452  1.00  0.00     0.323 C 
HETATM   29  O3  UNL     1      56.574  20.733  15.032  1.00  0.00    -0.247 OA
HETATM   30  N6  UNL     1      54.712  21.968  14.509  1.00  0.00    -0.343 N 
HETATM   31  C13 UNL     1      53.633  22.814  14.955  1.00  0.00     0.154 C 
HETATM   32  C14 UNL     1      54.820  21.648  13.109  1.00  0.00     0.154 C 
ATOM     33  H5  UNL     1      54.765  21.409  17.410  1.00  0.00     0.172 HD
ENDBRANCH   9  27
TORSDOF 4
ENDMDL
MODEL 5
REMARK VINA RESULT: -6.955769365      8.114     11.687
REMARK  4 active torsions:
REMARK  status: ('A' for Active; 'I' for Inactive)
REMARK    1  A    between atoms: C4_4  and  N1_5 
REMARK    2  A    between atoms: N1_5  and  S1_7 
REMARK    3  A    between atoms: C6_11  and  N2_12 
REMARK    4  A    between atoms: C11_20  and  N5_21 
REMARK       I    between atoms: N5_21  and  C12_23 
REMARK       I    between atoms: C12_23  and  N6_25 
ROOT
HETATM    1  N2  UNL     1      59.357  25.394  15.310  1.00  0.00    -0.281 N 
HETATM    2  C7  UNL     1      58.357  26.241  15.628  1.00  0.00     0.147 A 
HETATM    3  N3  UNL     1      58.147  26.855  16.922  1.00  0.00    -0.080 NA
HETATM    4  C8  UNL     1      57.580  26.418  14.519  1.00  0.00     0.107 A 
HETATM    5  C9  UNL     1      56.421  27.208  14.345  1.00  0.00     0.104 C 
HETATM    6  N4  UNL     1      55.482  27.856  14.215  1.00  0.00    -0.191 NA
HETATM    7  C10 UNL     1      58.164  25.635  13.519  1.00  0.00     0.077 A 
HETATM    8  S2  UNL     1      58.117  25.094  11.896  1.00  0.00    -0.048 SA
HETATM    9  C11 UNL     1      59.494  24.093  11.928  1.00  0.00     0.154 A 
HETATM   10  N7  UNL     1      59.933  24.215  13.178  1.00  0.00    -0.321 N 
ATOM     11  H7  UNL     1      60.765  23.715  13.490  1.00  0.00     0.169 HD
HETATM   12  C15 UNL     1      59.267  24.996  14.002  1.00  0.00     0.135 A 
ENDROOT
BRANCH   1  13
HETATM   13  C6  UNL     1      60.342  25.006  16.253  1.00  0.00     0.070 A 
HETATM   14  C4  UNL     1      60.171  23.841  16.965  1.00  0.00     0.070 A 
HETATM   15  C3  UNL     1      61.087  23.402  17.896  1.00  0.00     0.039 A 
HETATM   16  C2  UNL     1      62.239  24.152  18.144  1.00  0.00    -0.054 A 
HETATM   17  C1  UNL     1      63.235  23.673  19.159  1.00  0.00     0.049 C 
HETATM   18  C17 UNL     1      62.413  25.309  17.439  1.00  0.00    -0.054 A 
HETATM   19  C16 UNL     1      61.482  25.733  16.508  1.00  0.00     0.039 A 
HETATM   20  C18 UNL     1      63.615  26.132  17.670  1.00  0.00     0.049 C 
BRANCH  14  21
HETATM   21  N1  UNL     1      59.016  23.086  16.692  1.00  0.00    -0.283 N 
ATOM     22  H1  UNL     1      58.981  22.505  15.855  1.00  0.00     0.178 HD
BRANCH  21  23
HETATM   23  S1  UNL     1      57.666  23.130  17.745  1.00  0.00     0.227 S 
HETATM   24  C5  UNL     1      56.189  23.597  16.844  1.00  0.00     0.186 C 
HETATM   25  O1  UNL     1      57.472  21.737  18.325  1.00  0.00    -0.206 OA
HETATM   26  O2  UNL     1      57.801  24.091  18.877  1.00  0.00    -0.206 OA
ENDBRANCH  21  23
ENDBRANCH  14  21
ENDBRANCH   1  13
BRANCH   9  27
HETATM   27  N5  UNL     1      60.019  23.364  10.964  1.00  0.00    -0.289 N 
HETATM   28  C12 UNL     1      61.402  23.561  10.656  1.00  0.00     0.323 C 
HETATM   29  O3  UNL     1      62.314  23.174  11.446  1.00  0.00    -0.247 OA
HETATM   30  N6  UNL     1      61.792  24.197   9.459  1.00  0.00    -0.343 N 
HETATM   31  C13 UNL     1      60.779  24.649   8.539  1.00  0.00     0.154 C 
HETATM   32  C14 UNL     1      63.179  24.404   9.133  1.00  0.00     0.154 C 
ATOM     33  H5  UNL     1      59.458  22.681  10.453  1.00  0.00     0.172 HD
ENDBRANCH   9  27
TORSDOF 4
ENDMDL
