MODEL 1
REMARK VINA RESULT: -4.996264278      0.000      0.000
REMARK  2 active torsions:
REMARK  status: ('A' for Active; 'I' for Inactive)
REMARK    1  A    between atoms: C1_2  and  N1_3 
REMARK    2  A    between atoms: N1_3  and  N2_5 
ROOT
HETATM    1  N2  UNL     1      27.485  55.260  43.971  1.00  0.00    -0.287 N 
ATOM      2  H2  UNL     1      26.560  54.955  43.668  1.00  0.00     0.188 HD
HETATM    3  C2  UNL     1      27.667  55.818  45.125  1.00  0.00     0.091 C 
HETATM    4  C3  UNL     1      28.957  56.319  45.715  1.00  0.00     0.079 C 
HETATM    5  C4  UNL     1      28.507  57.467  46.577  1.00  0.00     0.027 C 
HETATM    6  C5  UNL     1      27.031  57.304  46.794  1.00  0.00     0.121 C 
HETATM    7  N3  UNL     1      26.672  56.088  46.123  1.00  0.00    -0.379 N 
ATOM      8  H3  UNL     1      25.852  55.516  46.320  1.00  0.00     0.160 HD
ENDROOT
BRANCH   1   9
HETATM    9  N1  UNL     1      28.609  55.096  43.158  1.00  0.00    -0.276 N 
ATOM     10  H1  UNL     1      29.541  55.207  43.560  1.00  0.00     0.189 HD
BRANCH   9  11
HETATM   11  C1  UNL     1      28.479  54.779  41.787  1.00  0.00     0.368 C 
HETATM   12  O1  UNL     1      28.126  55.619  40.925  1.00  0.00    -0.282 OA
ENDBRANCH   9  11
ENDBRANCH   1   9
TORSDOF 2
ENDMDL
MODEL 2
REMARK VINA RESULT: -4.443708969      2.791      4.360
REMARK  2 active torsions:
REMARK  status: ('A' for Active; 'I' for Inactive)
REMARK    1  A    between atoms: C1_2  and  N1_3 
REMARK    2  A    between atoms: N1_3  and  N2_5 
ROOT
HETATM    1  N2  UNL     1      28.074  55.972  45.794  1.00  0.00    -0.287 N 
ATOM      2  H2  UNL     1      28.713  56.227  46.547  1.00  0.00     0.188 HD
HETATM    3  C2  UNL     1      28.502  55.756  44.591  1.00  0.00     0.091 C 
HETATM    4  C3  UNL     1      27.696  55.374  43.380  1.00  0.00     0.079 C 
HETATM    5  C4  UNL     1      28.471  55.999  42.251  1.00  0.00     0.027 C 
HETATM    6  C5  UNL     1      29.843  56.306  42.775  1.00  0.00     0.121 C 
HETATM    7  N3  UNL     1      29.858  55.829  44.128  1.00  0.00    -0.379 N 
ATOM      8  H3  UNL     1      30.688  55.584  44.667  1.00  0.00     0.160 HD
ENDROOT
BRANCH   1   9
HETATM    9  N1  UNL     1      26.701  55.841  46.015  1.00  0.00    -0.276 N 
ATOM     10  H1  UNL     1      26.196  55.061  45.592  1.00  0.00     0.189 HD
BRANCH   9  11
HETATM   11  C1  UNL     1      25.998  56.769  46.815  1.00  0.00     0.368 C 
HETATM   12  O1  UNL     1      26.574  57.619  47.537  1.00  0.00    -0.282 OA
ENDBRANCH   9  11
ENDBRANCH   1   9
TORSDOF 2
ENDMDL
MODEL 3
REMARK VINA RESULT: -4.354089757      1.064      1.064
REMARK  2 active torsions:
REMARK  status: ('A' for Active; 'I' for Inactive)
REMARK    1  A    between atoms: C1_2  and  N1_3 
REMARK    2  A    between atoms: N1_3  and  N2_5 
ROOT
HETATM    1  N2  UNL     1      27.199  55.292  44.206  1.00  0.00    -0.287 N 
ATOM      2  H2  UNL     1      26.243  55.075  43.924  1.00  0.00     0.188 HD
HETATM    3  C2  UNL     1      27.454  55.882  45.330  1.00  0.00     0.091 C 
HETATM    4  C3  UNL     1      28.797  56.267  45.887  1.00  0.00     0.079 C 
HETATM    5  C4  UNL     1      28.485  57.499  46.693  1.00  0.00     0.027 C 
HETATM    6  C5  UNL     1      27.002  57.510  46.925  1.00  0.00     0.121 C 
HETATM    7  N3  UNL     1      26.505  56.310  46.318  1.00  0.00    -0.379 N 
ATOM      8  H3  UNL     1      25.629  55.842  46.549  1.00  0.00     0.160 HD
ENDROOT
BRANCH   1   9
HETATM    9  N1  UNL     1      28.290  54.964  43.397  1.00  0.00    -0.276 N 
ATOM     10  H1  UNL     1      28.628  54.001  43.376  1.00  0.00     0.189 HD
BRANCH   9  11
HETATM   11  C1  UNL     1      28.933  55.942  42.607  1.00  0.00     0.368 C 
HETATM   12  O1  UNL     1      30.176  56.112  42.611  1.00  0.00    -0.282 OA
ENDBRANCH   9  11
ENDBRANCH   1   9
TORSDOF 2
ENDMDL
MODEL 4
REMARK VINA RESULT: -4.192954755      1.024      1.090
REMARK  2 active torsions:
REMARK  status: ('A' for Active; 'I' for Inactive)
REMARK    1  A    between atoms: C1_2  and  N1_3 
REMARK    2  A    between atoms: N1_3  and  N2_5 
ROOT
HETATM    1  N2  UNL     1      28.005  55.283  44.092  1.00  0.00    -0.287 N 
ATOM      2  H2  UNL     1      27.386  54.688  43.541  1.00  0.00     0.188 HD
HETATM    3  C2  UNL     1      27.641  55.754  45.242  1.00  0.00     0.091 C 
HETATM    4  C3  UNL     1      28.431  56.636  46.169  1.00  0.00     0.079 C 
HETATM    5  C4  UNL     1      27.361  57.448  46.850  1.00  0.00     0.027 C 
HETATM    6  C5  UNL     1      26.060  56.732  46.636  1.00  0.00     0.121 C 
HETATM    7  N3  UNL     1      26.388  55.541  45.908  1.00  0.00    -0.379 N 
ATOM      8  H3  UNL     1      25.828  54.690  45.870  1.00  0.00     0.160 HD
ENDROOT
BRANCH   1   9
HETATM    9  N1  UNL     1      29.282  55.624  43.639  1.00  0.00    -0.276 N 
ATOM     10  H1  UNL     1      30.099  55.351  44.186  1.00  0.00     0.189 HD
BRANCH   9  11
HETATM   11  C1  UNL     1      29.462  56.340  42.435  1.00  0.00     0.368 C 
HETATM   12  O1  UNL     1      28.505  56.696  41.704  1.00  0.00    -0.282 OA
ENDBRANCH   9  11
ENDBRANCH   1   9
TORSDOF 2
ENDMDL
MODEL 5
REMARK VINA RESULT: -4.060040585      2.174      2.715
REMARK  2 active torsions:
REMARK  status: ('A' for Active; 'I' for Inactive)
REMARK    1  A    between atoms: C1_2  and  N1_3 
REMARK    2  A    between atoms: N1_3  and  N2_5 
ROOT
HETATM    1  N2  UNL     1      29.242  54.604  42.240  1.00  0.00    -0.287 N 
ATOM      2  H2  UNL     1      30.239  54.534  42.040  1.00  0.00     0.188 HD
HETATM    3  C2  UNL     1      28.797  55.340  43.207  1.00  0.00     0.091 C 
HETATM    4  C3  UNL     1      27.367  55.548  43.626  1.00  0.00     0.079 C 
HETATM    5  C4  UNL     1      27.484  55.781  45.109  1.00  0.00     0.027 C 
HETATM    6  C5  UNL     1      28.917  56.129  45.389  1.00  0.00     0.121 C 
HETATM    7  N3  UNL     1      29.570  56.140  44.113  1.00  0.00    -0.379 N 
ATOM      8  H3  UNL     1      30.435  56.631  43.888  1.00  0.00     0.160 HD
ENDROOT
BRANCH   1   9
HETATM    9  N1  UNL     1      28.296  53.908  41.481  1.00  0.00    -0.276 N 
ATOM     10  H1  UNL     1      27.379  54.325  41.317  1.00  0.00     0.189 HD
BRANCH   9  11
HETATM   11  C1  UNL     1      28.588  52.637  40.938  1.00  0.00     0.368 C 
HETATM   12  O1  UNL     1      28.435  52.365  39.723  1.00  0.00    -0.282 OA
ENDBRANCH   9  11
ENDBRANCH   1   9
TORSDOF 2
ENDMDL
