MODEL 1
REMARK VINA RESULT: -6.364233052      0.000      0.000
REMARK  14 active torsions:
REMARK  status: ('A' for Active; 'I' for Inactive)
REMARK    1  A    between atoms: C3_5  and  C4_6 
REMARK    2  A    between atoms: C4_6  and  O2_7 
REMARK    3  A    between atoms: C5_10  and  C6_11 
REMARK    4  A    between atoms: C6_11  and  N2_12 
REMARK    5  A    between atoms: N2_12  and  C8_14 
REMARK    6  A    between atoms: C8_14  and  C9_15 
REMARK    7  A    between atoms: C8_14  and  C12_22 
REMARK    8  A    between atoms: C9_15  and  C10_16 
REMARK    9  A    between atoms: C10_16  and  C11_17 
REMARK   10  A    between atoms: C11_17  and  N3_18 
REMARK   11  A    between atoms: C12_22  and  C13_23 
REMARK   12  A    between atoms: C13_23  and  C14_24 
REMARK   13  A    between atoms: C14_24  and  C15_25 
REMARK   14  A    between atoms: C15_25  and  N4_26 
ROOT
HETATM    1  C8  UNL     1      -4.562   5.912  13.530  1.00  0.00     0.078 C 
ENDROOT
BRANCH   1   2
HETATM    2  N2  UNL     1      -5.113   5.636  14.776  1.00  0.00    -0.409 N 
HETATM    3  C7  UNL     1      -4.880   6.450  15.889  1.00  0.00     0.143 C 
BRANCH   2   4
HETATM    4  C6  UNL     1      -6.362   4.958  14.729  1.00  0.00     0.158 C 
BRANCH   4   5
HETATM    5  C5  UNL     1      -6.318   3.441  14.821  1.00  0.00     0.232 C 
HETATM    6  O3  UNL     1      -5.185   3.118  14.126  1.00  0.00    -0.358 OA
HETATM    7  C3  UNL     1      -4.255   2.302  14.561  1.00  0.00     0.238 C 
HETATM    8  C2  UNL     1      -4.340   1.731  15.896  1.00  0.00     0.257 C 
HETATM    9  N1  UNL     1      -5.527   1.940  16.662  1.00  0.00    -0.288 N 
HETATM   10  O1  UNL     1      -3.386   1.068  16.360  1.00  0.00    -0.270 OA
HETATM   11  C1  UNL     1      -5.861   1.118  17.805  1.00  0.00     0.162 C 
HETATM   12  C17 UNL     1      -6.345   3.016  16.217  1.00  0.00     0.256 C 
HETATM   13  O4  UNL     1      -7.087   3.599  17.026  1.00  0.00    -0.270 OA
BRANCH   7  14
HETATM   14  C4  UNL     1      -4.143   1.124  13.578  1.00  0.00     0.205 C 
BRANCH  14  15
HETATM   15  O2  UNL     1      -3.073   1.284  12.714  1.00  0.00    -0.398 OA
ATOM     16  H2  UNL     1      -3.268   0.938  11.851  1.00  0.00     0.209 HD
ENDBRANCH  14  15
ENDBRANCH   7  14
ENDBRANCH   4   5
ENDBRANCH   2   4
ENDBRANCH   1   2
BRANCH   1  17
HETATM   17  C9  UNL     1      -3.092   6.240  13.514  1.00  0.00     0.026 C 
BRANCH  17  18
HETATM   18  C10 UNL     1      -2.153   5.258  14.065  1.00  0.00     0.029 C 
BRANCH  18  19
HETATM   19  C11 UNL     1      -1.100   4.991  12.958  1.00  0.00     0.230 C 
BRANCH  19  20
HETATM   20  N3  UNL     1      -1.062   3.554  12.681  1.00  0.00    -0.079 N 
ATOM     21  H33 UNL     1      -1.990   3.132  12.682  1.00  0.00     0.274 HD
ATOM     22  H32 UNL     1      -0.815   3.350  11.712  1.00  0.00     0.274 HD
ATOM     23  H31 UNL     1      -0.430   3.109  13.347  1.00  0.00     0.274 HD
ENDBRANCH  19  20
ENDBRANCH  18  19
ENDBRANCH  17  18
ENDBRANCH   1  17
BRANCH   1  24
HETATM   24  C12 UNL     1      -5.273   6.849  12.599  1.00  0.00     0.025 C 
BRANCH  24  25
HETATM   25  C13 UNL     1      -4.426   7.558  11.593  1.00  0.00     0.007 C 
BRANCH  25  26
HETATM   26  C14 UNL     1      -5.120   7.468  10.201  1.00  0.00     0.044 C 
BRANCH  26  27
HETATM   27  C15 UNL     1      -4.464   6.408   9.374  1.00  0.00     0.063 C 
BRANCH  27  28
HETATM   28  N4  UNL     1      -4.582   5.088   9.820  1.00  0.00    -0.347 N 
HETATM   29  C16 UNL     1      -3.715   4.187  10.018  1.00  0.00     0.200 C 
HETATM   30  N5  UNL     1      -2.319   4.341   9.815  1.00  0.00    -0.067 NA
HETATM   31  N6  UNL     1      -4.110   2.867  10.481  1.00  0.00    -0.067 NA
ATOM     32  H4  UNL     1      -5.539   4.799  10.021  1.00  0.00     0.167 HD
ENDBRANCH  27  28
ENDBRANCH  26  27
ENDBRANCH  25  26
ENDBRANCH  24  25
ENDBRANCH   1  24
TORSDOF 14
ENDMDL
MODEL 2
REMARK VINA RESULT: -6.289443301      1.226      1.555
REMARK  14 active torsions:
REMARK  status: ('A' for Active; 'I' for Inactive)
REMARK    1  A    between atoms: C3_5  and  C4_6 
REMARK    2  A    between atoms: C4_6  and  O2_7 
REMARK    3  A    between atoms: C5_10  and  C6_11 
REMARK    4  A    between atoms: C6_11  and  N2_12 
REMARK    5  A    between atoms: N2_12  and  C8_14 
REMARK    6  A    between atoms: C8_14  and  C9_15 
REMARK    7  A    between atoms: C8_14  and  C12_22 
REMARK    8  A    between atoms: C9_15  and  C10_16 
REMARK    9  A    between atoms: C10_16  and  C11_17 
REMARK   10  A    between atoms: C11_17  and  N3_18 
REMARK   11  A    between atoms: C12_22  and  C13_23 
REMARK   12  A    between atoms: C13_23  and  C14_24 
REMARK   13  A    between atoms: C14_24  and  C15_25 
REMARK   14  A    between atoms: C15_25  and  N4_26 
ROOT
HETATM    1  C8  UNL     1      -4.981   5.875  12.942  1.00  0.00     0.078 C 
ENDROOT
BRANCH   1   2
HETATM    2  N2  UNL     1      -4.789   5.622  14.295  1.00  0.00    -0.409 N 
HETATM    3  C7  UNL     1      -3.933   6.396  15.084  1.00  0.00     0.143 C 
BRANCH   2   4
HETATM    4  C6  UNL     1      -5.912   5.043  14.949  1.00  0.00     0.158 C 
BRANCH   4   5
HETATM    5  C5  UNL     1      -6.078   3.538  14.814  1.00  0.00     0.232 C 
HETATM    6  O3  UNL     1      -4.926   3.151  14.186  1.00  0.00    -0.358 OA
HETATM    7  C3  UNL     1      -4.165   2.156  14.576  1.00  0.00     0.238 C 
HETATM    8  C2  UNL     1      -4.473   1.427  15.796  1.00  0.00     0.257 C 
HETATM    9  N1  UNL     1      -5.700   1.700  16.472  1.00  0.00    -0.288 N 
HETATM   10  O1  UNL     1      -3.672   0.576  16.240  1.00  0.00    -0.270 OA
HETATM   11  C1  UNL     1      -6.265   0.788  17.444  1.00  0.00     0.162 C 
HETATM   12  C17 UNL     1      -6.315   2.934  16.122  1.00  0.00     0.256 C 
HETATM   13  O4  UNL     1      -7.061   3.503  16.938  1.00  0.00    -0.270 OA
BRANCH   7  14
HETATM   14  C4  UNL     1      -4.099   1.120  13.441  1.00  0.00     0.205 C 
BRANCH  14  15
HETATM   15  O2  UNL     1      -3.007   1.337  12.618  1.00  0.00    -0.398 OA
ATOM     16  H2  UNL     1      -2.189   1.220  13.087  1.00  0.00     0.209 HD
ENDBRANCH  14  15
ENDBRANCH   7  14
ENDBRANCH   4   5
ENDBRANCH   2   4
ENDBRANCH   1   2
BRANCH   1  17
HETATM   17  C9  UNL     1      -3.732   5.998  12.108  1.00  0.00     0.026 C 
BRANCH  17  18
HETATM   18  C10 UNL     1      -2.982   4.778  11.795  1.00  0.00     0.029 C 
BRANCH  18  19
HETATM   19  C11 UNL     1      -1.573   4.960  12.416  1.00  0.00     0.230 C 
BRANCH  19  20
HETATM   20  N3  UNL     1      -1.365   3.920  13.425  1.00  0.00    -0.079 N 
ATOM     21  H33 UNL     1      -2.240   3.494  13.732  1.00  0.00     0.274 HD
ATOM     22  H32 UNL     1      -0.928   3.083  13.038  1.00  0.00     0.274 HD
ATOM     23  H31 UNL     1      -0.832   4.316  14.199  1.00  0.00     0.274 HD
ENDBRANCH  19  20
ENDBRANCH  18  19
ENDBRANCH  17  18
ENDBRANCH   1  17
BRANCH   1  24
HETATM   24  C12 UNL     1      -5.945   6.945  12.520  1.00  0.00     0.025 C 
BRANCH  24  25
HETATM   25  C13 UNL     1      -5.653   7.632  11.226  1.00  0.00     0.007 C 
BRANCH  25  26
HETATM   26  C14 UNL     1      -6.950   7.648  10.362  1.00  0.00     0.044 C 
BRANCH  26  27
HETATM   27  C15 UNL     1      -6.709   6.928   9.074  1.00  0.00     0.063 C 
BRANCH  27  28
HETATM   28  N4  UNL     1      -5.569   6.121   8.998  1.00  0.00    -0.347 N 
HETATM   29  C16 UNL     1      -4.756   5.903   8.053  1.00  0.00     0.200 C 
HETATM   30  N5  UNL     1      -4.834   6.483   6.760  1.00  0.00    -0.067 NA
HETATM   31  N6  UNL     1      -3.637   4.992   8.233  1.00  0.00    -0.067 NA
ATOM     32  H4  UNL     1      -5.355   5.618   9.858  1.00  0.00     0.167 HD
ENDBRANCH  27  28
ENDBRANCH  26  27
ENDBRANCH  25  26
ENDBRANCH  24  25
ENDBRANCH   1  24
TORSDOF 14
ENDMDL
MODEL 3
REMARK VINA RESULT: -6.190900704      3.431      7.004
REMARK  14 active torsions:
REMARK  status: ('A' for Active; 'I' for Inactive)
REMARK    1  A    between atoms: C3_5  and  C4_6 
REMARK    2  A    between atoms: C4_6  and  O2_7 
REMARK    3  A    between atoms: C5_10  and  C6_11 
REMARK    4  A    between atoms: C6_11  and  N2_12 
REMARK    5  A    between atoms: N2_12  and  C8_14 
REMARK    6  A    between atoms: C8_14  and  C9_15 
REMARK    7  A    between atoms: C8_14  and  C12_22 
REMARK    8  A    between atoms: C9_15  and  C10_16 
REMARK    9  A    between atoms: C10_16  and  C11_17 
REMARK   10  A    between atoms: C11_17  and  N3_18 
REMARK   11  A    between atoms: C12_22  and  C13_23 
REMARK   12  A    between atoms: C13_23  and  C14_24 
REMARK   13  A    between atoms: C14_24  and  C15_25 
REMARK   14  A    between atoms: C15_25  and  N4_26 
ROOT
HETATM    1  C8  UNL     1      -3.466   3.917  13.547  1.00  0.00     0.078 C 
ENDROOT
BRANCH   1   2
HETATM    2  N2  UNL     1      -2.370   4.687  13.177  1.00  0.00    -0.409 N 
HETATM    3  C7  UNL     1      -1.823   5.658  14.022  1.00  0.00     0.143 C 
BRANCH   2   4
HETATM    4  C6  UNL     1      -1.474   4.043  12.280  1.00  0.00     0.158 C 
BRANCH   4   5
HETATM    5  C5  UNL     1      -0.623   4.944  11.401  1.00  0.00     0.232 C 
HETATM    6  O3  UNL     1       0.655   4.560  11.705  1.00  0.00    -0.358 OA
HETATM    7  C3  UNL     1       1.578   4.283  10.814  1.00  0.00     0.238 C 
HETATM    8  C2  UNL     1       1.261   4.293   9.395  1.00  0.00     0.257 C 
HETATM    9  N1  UNL     1      -0.021   4.765   8.978  1.00  0.00    -0.288 N 
HETATM   10  O1  UNL     1       2.100   3.892   8.560  1.00  0.00    -0.270 OA
HETATM   11  C1  UNL     1      -0.286   5.169   7.614  1.00  0.00     0.162 C 
HETATM   12  C17 UNL     1      -1.008   4.800  10.001  1.00  0.00     0.256 C 
HETATM   13  O4  UNL     1      -2.211   4.707   9.698  1.00  0.00    -0.270 OA
BRANCH   7  14
HETATM   14  C4  UNL     1       2.754   5.255  11.016  1.00  0.00     0.205 C 
BRANCH  14  15
HETATM   15  O2  UNL     1       3.969   4.640  10.764  1.00  0.00    -0.398 OA
ATOM     16  H2  UNL     1       4.680   5.077  11.217  1.00  0.00     0.209 HD
ENDBRANCH  14  15
ENDBRANCH   7  14
ENDBRANCH   4   5
ENDBRANCH   2   4
ENDBRANCH   1   2
BRANCH   1  17
HETATM   17  C9  UNL     1      -3.660   2.633  12.782  1.00  0.00     0.026 C 
BRANCH  17  18
HETATM   18  C10 UNL     1      -4.886   2.470  11.994  1.00  0.00     0.029 C 
BRANCH  18  19
HETATM   19  C11 UNL     1      -4.915   0.989  11.534  1.00  0.00     0.230 C 
BRANCH  19  20
HETATM   20  N3  UNL     1      -4.214   0.173  12.527  1.00  0.00    -0.079 N 
ATOM     21  H33 UNL     1      -3.610  -0.528  12.099  1.00  0.00     0.274 HD
ATOM     22  H32 UNL     1      -3.493   0.697  13.022  1.00  0.00     0.274 HD
ATOM     23  H31 UNL     1      -4.903  -0.237  13.158  1.00  0.00     0.274 HD
ENDBRANCH  19  20
ENDBRANCH  18  19
ENDBRANCH  17  18
ENDBRANCH   1  17
BRANCH   1  24
HETATM   24  C12 UNL     1      -4.803   4.573  13.727  1.00  0.00     0.025 C 
BRANCH  24  25
HETATM   25  C13 UNL     1      -5.262   4.772  15.135  1.00  0.00     0.007 C 
BRANCH  25  26
HETATM   26  C14 UNL     1      -6.449   3.803  15.417  1.00  0.00     0.044 C 
BRANCH  26  27
HETATM   27  C15 UNL     1      -6.056   2.811  16.465  1.00  0.00     0.063 C 
BRANCH  27  28
HETATM   28  N4  UNL     1      -5.793   1.505  16.039  1.00  0.00    -0.347 N 
HETATM   29  C16 UNL     1      -4.710   0.858  15.933  1.00  0.00     0.200 C 
HETATM   30  N5  UNL     1      -3.424   1.365  16.255  1.00  0.00    -0.067 NA
HETATM   31  N6  UNL     1      -4.709  -0.510  15.443  1.00  0.00    -0.067 NA
ATOM     32  H4  UNL     1      -6.622   0.980  15.764  1.00  0.00     0.167 HD
ENDBRANCH  27  28
ENDBRANCH  26  27
ENDBRANCH  25  26
ENDBRANCH  24  25
ENDBRANCH   1  24
TORSDOF 14
ENDMDL
MODEL 4
REMARK VINA RESULT: -6.176274203      2.478      3.135
REMARK  14 active torsions:
REMARK  status: ('A' for Active; 'I' for Inactive)
REMARK    1  A    between atoms: C3_5  and  C4_6 
REMARK    2  A    between atoms: C4_6  and  O2_7 
REMARK    3  A    between atoms: C5_10  and  C6_11 
REMARK    4  A    between atoms: C6_11  and  N2_12 
REMARK    5  A    between atoms: N2_12  and  C8_14 
REMARK    6  A    between atoms: C8_14  and  C9_15 
REMARK    7  A    between atoms: C8_14  and  C12_22 
REMARK    8  A    between atoms: C9_15  and  C10_16 
REMARK    9  A    between atoms: C10_16  and  C11_17 
REMARK   10  A    between atoms: C11_17  and  N3_18 
REMARK   11  A    between atoms: C12_22  and  C13_23 
REMARK   12  A    between atoms: C13_23  and  C14_24 
REMARK   13  A    between atoms: C14_24  and  C15_25 
REMARK   14  A    between atoms: C15_25  and  N4_26 
ROOT
HETATM    1  C8  UNL     1      -4.986   5.898  12.986  1.00  0.00     0.078 C 
ENDROOT
BRANCH   1   2
HETATM    2  N2  UNL     1      -4.779   5.624  14.333  1.00  0.00    -0.409 N 
HETATM    3  C7  UNL     1      -3.910   6.383  15.123  1.00  0.00     0.143 C 
BRANCH   2   4
HETATM    4  C6  UNL     1      -5.895   5.038  14.991  1.00  0.00     0.158 C 
BRANCH   4   5
HETATM    5  C5  UNL     1      -6.066   3.536  14.839  1.00  0.00     0.232 C 
HETATM    6  O3  UNL     1      -4.913   3.152  14.211  1.00  0.00    -0.358 OA
HETATM    7  C3  UNL     1      -4.157   2.149  14.593  1.00  0.00     0.238 C 
HETATM    8  C2  UNL     1      -4.474   1.407  15.803  1.00  0.00     0.257 C 
HETATM    9  N1  UNL     1      -5.703   1.678  16.477  1.00  0.00    -0.288 N 
HETATM   10  O1  UNL     1      -3.678   0.548  16.241  1.00  0.00    -0.270 OA
HETATM   11  C1  UNL     1      -6.276   0.756  17.435  1.00  0.00     0.162 C 
HETATM   12  C17 UNL     1      -6.312   2.918  16.138  1.00  0.00     0.256 C 
HETATM   13  O4  UNL     1      -7.060   3.480  16.958  1.00  0.00    -0.270 OA
BRANCH   7  14
HETATM   14  C4  UNL     1      -4.090   1.127  13.446  1.00  0.00     0.205 C 
BRANCH  14  15
HETATM   15  O2  UNL     1      -3.002   1.359  12.622  1.00  0.00    -0.398 OA
ATOM     16  H2  UNL     1      -3.213   1.192  11.711  1.00  0.00     0.209 HD
ENDBRANCH  14  15
ENDBRANCH   7  14
ENDBRANCH   4   5
ENDBRANCH   2   4
ENDBRANCH   1   2
BRANCH   1  17
HETATM   17  C9  UNL     1      -3.747   6.037  12.141  1.00  0.00     0.026 C 
BRANCH  17  18
HETATM   18  C10 UNL     1      -2.988   4.825  11.814  1.00  0.00     0.029 C 
BRANCH  18  19
HETATM   19  C11 UNL     1      -1.580   5.009  12.439  1.00  0.00     0.230 C 
BRANCH  19  20
HETATM   20  N3  UNL     1      -1.402   4.015  13.499  1.00  0.00    -0.079 N 
ATOM     21  H33 UNL     1      -2.290   3.676  13.868  1.00  0.00     0.274 HD
ATOM     22  H32 UNL     1      -1.048   3.127  13.144  1.00  0.00     0.274 HD
ATOM     23  H31 UNL     1      -0.805   4.413  14.224  1.00  0.00     0.274 HD
ENDBRANCH  19  20
ENDBRANCH  18  19
ENDBRANCH  17  18
ENDBRANCH   1  17
BRANCH   1  24
HETATM   24  C12 UNL     1      -5.957   6.972  12.592  1.00  0.00     0.025 C 
BRANCH  24  25
HETATM   25  C13 UNL     1      -5.793   7.549  11.224  1.00  0.00     0.007 C 
BRANCH  25  26
HETATM   26  C14 UNL     1      -7.146   8.181  10.780  1.00  0.00     0.044 C 
BRANCH  26  27
HETATM   27  C15 UNL     1      -7.501   7.708   9.407  1.00  0.00     0.063 C 
BRANCH  27  28
HETATM   28  N4  UNL     1      -8.579   8.335   8.775  1.00  0.00    -0.347 N 
HETATM   29  C16 UNL     1      -8.629   9.149   7.807  1.00  0.00     0.200 C 
HETATM   30  N5  UNL     1      -7.502   9.635   7.094  1.00  0.00    -0.067 NA
HETATM   31  N6  UNL     1      -9.903   9.672   7.342  1.00  0.00    -0.067 NA
ATOM     32  H4  UNL     1      -9.489   8.095   9.166  1.00  0.00     0.167 HD
ENDBRANCH  27  28
ENDBRANCH  26  27
ENDBRANCH  25  26
ENDBRANCH  24  25
ENDBRANCH   1  24
TORSDOF 14
ENDMDL
MODEL 5
REMARK VINA RESULT: -6.150251196      3.197      6.994
REMARK  14 active torsions:
REMARK  status: ('A' for Active; 'I' for Inactive)
REMARK    1  A    between atoms: C3_5  and  C4_6 
REMARK    2  A    between atoms: C4_6  and  O2_7 
REMARK    3  A    between atoms: C5_10  and  C6_11 
REMARK    4  A    between atoms: C6_11  and  N2_12 
REMARK    5  A    between atoms: N2_12  and  C8_14 
REMARK    6  A    between atoms: C8_14  and  C9_15 
REMARK    7  A    between atoms: C8_14  and  C12_22 
REMARK    8  A    between atoms: C9_15  and  C10_16 
REMARK    9  A    between atoms: C10_16  and  C11_17 
REMARK   10  A    between atoms: C11_17  and  N3_18 
REMARK   11  A    between atoms: C12_22  and  C13_23 
REMARK   12  A    between atoms: C13_23  and  C14_24 
REMARK   13  A    between atoms: C14_24  and  C15_25 
REMARK   14  A    between atoms: C15_25  and  N4_26 
ROOT
HETATM    1  C8  UNL     1      -3.322   5.375  13.449  1.00  0.00     0.078 C 
ENDROOT
BRANCH   1   2
HETATM    2  N2  UNL     1      -3.867   5.043  12.215  1.00  0.00    -0.409 N 
HETATM    3  C7  UNL     1      -4.245   3.736  11.894  1.00  0.00     0.143 C 
BRANCH   2   4
HETATM    4  C6  UNL     1      -4.605   6.092  11.598  1.00  0.00     0.158 C 
BRANCH   4   5
HETATM    5  C5  UNL     1      -4.934   5.918  10.124  1.00  0.00     0.232 C 
HETATM    6  O3  UNL     1      -6.231   6.347  10.041  1.00  0.00    -0.358 OA
HETATM    7  C3  UNL     1      -6.676   7.196   9.146  1.00  0.00     0.238 C 
HETATM    8  C2  UNL     1      -5.762   7.817   8.200  1.00  0.00     0.257 C 
HETATM    9  N1  UNL     1      -4.408   7.368   8.153  1.00  0.00    -0.288 N 
HETATM   10  O1  UNL     1      -6.163   8.728   7.443  1.00  0.00    -0.270 OA
HETATM   11  C1  UNL     1      -3.546   7.636   7.021  1.00  0.00     0.162 C 
HETATM   12  C17 UNL     1      -3.975   6.647   9.300  1.00  0.00     0.256 C 
HETATM   13  O4  UNL     1      -2.769   6.639   9.603  1.00  0.00    -0.270 OA
BRANCH   7  14
HETATM   14  C4  UNL     1      -7.771   6.500   8.319  1.00  0.00     0.205 C 
BRANCH  14  15
HETATM   15  O2  UNL     1      -7.253   5.929   7.169  1.00  0.00    -0.398 OA
ATOM     16  H2  UNL     1      -7.780   5.196   6.876  1.00  0.00     0.209 HD
ENDBRANCH  14  15
ENDBRANCH   7  14
ENDBRANCH   4   5
ENDBRANCH   2   4
ENDBRANCH   1   2
BRANCH   1  17
HETATM   17  C9  UNL     1      -1.826   5.245  13.568  1.00  0.00     0.026 C 
BRANCH  17  18
HETATM   18  C10 UNL     1      -0.991   5.811  12.503  1.00  0.00     0.029 C 
BRANCH  18  19
HETATM   19  C11 UNL     1      -0.336   4.608  11.776  1.00  0.00     0.230 C 
BRANCH  19  20
HETATM   20  N3  UNL     1      -0.605   3.391  12.543  1.00  0.00    -0.079 N 
ATOM     21  H33 UNL     1      -1.587   3.305  12.806  1.00  0.00     0.274 HD
ATOM     22  H32 UNL     1      -0.537   2.548  11.972  1.00  0.00     0.274 HD
ATOM     23  H31 UNL     1       0.018   3.367  13.350  1.00  0.00     0.274 HD
ENDBRANCH  19  20
ENDBRANCH  18  19
ENDBRANCH  17  18
ENDBRANCH   1  17
BRANCH   1  24
HETATM   24  C12 UNL     1      -3.950   4.840  14.702  1.00  0.00     0.025 C 
BRANCH  24  25
HETATM   25  C13 UNL     1      -5.262   5.437  15.097  1.00  0.00     0.007 C 
BRANCH  25  26
HETATM   26  C14 UNL     1      -6.222   4.291  15.537  1.00  0.00     0.044 C 
BRANCH  26  27
HETATM   27  C15 UNL     1      -5.555   2.967  15.341  1.00  0.00     0.063 C 
BRANCH  27  28
HETATM   28  N4  UNL     1      -5.997   1.907  16.138  1.00  0.00    -0.347 N 
HETATM   29  C16 UNL     1      -5.399   0.884  16.584  1.00  0.00     0.200 C 
HETATM   30  N5  UNL     1      -4.034   0.573  16.351  1.00  0.00    -0.067 NA
HETATM   31  N6  UNL     1      -6.105  -0.092  17.397  1.00  0.00    -0.067 NA
ATOM     32  H4  UNL     1      -6.978   1.969  16.409  1.00  0.00     0.167 HD
ENDBRANCH  27  28
ENDBRANCH  26  27
ENDBRANCH  25  26
ENDBRANCH  24  25
ENDBRANCH   1  24
TORSDOF 14
ENDMDL
