MODEL 1
REMARK VINA RESULT: -6.410725199      0.000      0.000
REMARK  8 active torsions:
REMARK  status: ('A' for Active; 'I' for Inactive)
REMARK    1  A    between atoms: N1_1  and  C1_5 
REMARK    2  A    between atoms: C1_5  and  C2_6 
REMARK    3  A    between atoms: C1_5  and  C3_9 
REMARK    4  A    between atoms: C1_5  and  C4_12 
REMARK    5  A    between atoms: C2_6  and  O1_7 
REMARK    6  A    between atoms: C3_9  and  O2_10 
REMARK    7  A    between atoms: C4_12  and  C5_13 
REMARK    8  A    between atoms: C5_13  and  C6_14 
ROOT
HETATM    1  C1  UNL     1      -1.805  30.378  -6.929  1.00  0.00     0.165 C 
ENDROOT
BRANCH   1   2
HETATM    2  N1  UNL     1      -2.960  31.246  -6.797  1.00  0.00    -0.066 N 
ATOM      3  H13 UNL     1      -3.787  30.877  -7.266  1.00  0.00     0.275 HD
ATOM      4  H12 UNL     1      -3.336  31.261  -5.849  1.00  0.00     0.275 HD
ATOM      5  H11 UNL     1      -2.699  32.173  -7.132  1.00  0.00     0.275 HD
ENDBRANCH   1   2
BRANCH   1   6
HETATM    6  C2  UNL     1      -2.298  28.951  -7.013  1.00  0.00     0.205 C 
BRANCH   6   7
HETATM    7  O1  UNL     1      -3.408  28.845  -6.150  1.00  0.00    -0.398 OA
ATOM      8  H1  UNL     1      -3.679  27.935  -6.153  1.00  0.00     0.209 HD
ENDBRANCH   6   7
ENDBRANCH   1   6
BRANCH   1   9
HETATM    9  C3  UNL     1      -0.972  30.583  -5.671  1.00  0.00     0.205 C 
BRANCH   9  10
HETATM   10  O2  UNL     1       0.366  30.743  -6.027  1.00  0.00    -0.398 OA
ATOM     11  H2  UNL     1       0.870  30.013  -5.687  1.00  0.00     0.209 HD
ENDBRANCH   9  10
ENDBRANCH   1   9
BRANCH   1  12
HETATM   12  C4  UNL     1      -1.006  30.711  -8.139  1.00  0.00     0.043 C 
BRANCH  12  13
HETATM   13  C5  UNL     1      -1.740  31.633  -9.052  1.00  0.00     0.007 C 
BRANCH  13  14
HETATM   14  C6  UNL     1      -1.867  31.031 -10.467  1.00  0.00    -0.014 C 
HETATM   15  C7  UNL     1      -0.606  30.308 -10.750  1.00  0.00     0.004 C 
HETATM   16  C8  UNL     1      -0.194  30.161 -12.147  1.00  0.00     0.000 C 
HETATM   17  C9  UNL     1      -1.298  30.204 -13.175  1.00  0.00     0.000 C 
HETATM   18  C10 UNL     1      -1.983  28.897 -13.371  1.00  0.00     0.000 C 
HETATM   19  C11 UNL     1      -3.427  28.842 -13.126  1.00  0.00     0.000 C 
HETATM   20  C12 UNL     1      -4.139  30.093 -12.784  1.00  0.00     0.000 C 
HETATM   21  C13 UNL     1      -4.153  30.478 -11.343  1.00  0.00     0.000 C 
HETATM   22  C14 UNL     1      -3.009  30.039 -10.521  1.00  0.00     0.004 C 
ENDBRANCH  13  14
ENDBRANCH  12  13
ENDBRANCH   1  12
TORSDOF 8
ENDMDL
MODEL 2
REMARK VINA RESULT: -6.249182241      1.959      2.882
REMARK  8 active torsions:
REMARK  status: ('A' for Active; 'I' for Inactive)
REMARK    1  A    between atoms: N1_1  and  C1_5 
REMARK    2  A    between atoms: C1_5  and  C2_6 
REMARK    3  A    between atoms: C1_5  and  C3_9 
REMARK    4  A    between atoms: C1_5  and  C4_12 
REMARK    5  A    between atoms: C2_6  and  O1_7 
REMARK    6  A    between atoms: C3_9  and  O2_10 
REMARK    7  A    between atoms: C4_12  and  C5_13 
REMARK    8  A    between atoms: C5_13  and  C6_14 
ROOT
HETATM    1  C1  UNL     1      -2.968  30.128  -4.689  1.00  0.00     0.165 C 
ENDROOT
BRANCH   1   2
HETATM    2  N1  UNL     1      -3.828  28.959  -4.704  1.00  0.00    -0.066 N 
ATOM      3  H13 UNL     1      -3.393  28.155  -5.156  1.00  0.00     0.275 HD
ATOM      4  H12 UNL     1      -3.949  28.547  -3.779  1.00  0.00     0.275 HD
ATOM      5  H11 UNL     1      -4.712  29.223  -5.138  1.00  0.00     0.275 HD
ENDBRANCH   1   2
BRANCH   1   6
HETATM    6  C2  UNL     1      -1.640  29.724  -4.088  1.00  0.00     0.205 C 
BRANCH   6   7
HETATM    7  O1  UNL     1      -1.566  28.318  -4.152  1.00  0.00    -0.398 OA
ATOM      8  H1  UNL     1      -2.037  28.048  -4.931  1.00  0.00     0.209 HD
ENDBRANCH   6   7
ENDBRANCH   1   6
BRANCH   1   9
HETATM    9  C3  UNL     1      -3.663  31.157  -3.808  1.00  0.00     0.205 C 
BRANCH   9  10
HETATM   10  O2  UNL     1      -5.013  30.828  -3.696  1.00  0.00    -0.398 OA
ATOM     11  H2  UNL     1      -5.536  31.611  -3.818  1.00  0.00     0.209 HD
ENDBRANCH   9  10
ENDBRANCH   1   9
BRANCH   1  12
HETATM   12  C4  UNL     1      -2.762  30.673  -6.057  1.00  0.00     0.043 C 
BRANCH  12  13
HETATM   13  C5  UNL     1      -2.396  29.605  -7.032  1.00  0.00     0.007 C 
BRANCH  13  14
HETATM   14  C6  UNL     1      -2.274  30.175  -8.461  1.00  0.00    -0.014 C 
HETATM   15  C7  UNL     1      -0.897  30.701  -8.606  1.00  0.00     0.004 C 
HETATM   16  C8  UNL     1      -0.672  31.785  -9.563  1.00  0.00     0.000 C 
HETATM   17  C9  UNL     1      -1.651  31.878 -10.708  1.00  0.00     0.000 C 
HETATM   18  C10 UNL     1      -1.327  30.974 -11.846  1.00  0.00     0.000 C 
HETATM   19  C11 UNL     1      -2.333  29.983 -12.236  1.00  0.00     0.000 C 
HETATM   20  C12 UNL     1      -3.641  29.986 -11.544  1.00  0.00     0.000 C 
HETATM   21  C13 UNL     1      -3.721  29.212 -10.270  1.00  0.00     0.000 C 
HETATM   22  C14 UNL     1      -2.478  29.081  -9.487  1.00  0.00     0.004 C 
ENDBRANCH  13  14
ENDBRANCH  12  13
ENDBRANCH   1  12
TORSDOF 8
ENDMDL
MODEL 3
REMARK VINA RESULT: -6.223727544      5.512      8.047
REMARK  8 active torsions:
REMARK  status: ('A' for Active; 'I' for Inactive)
REMARK    1  A    between atoms: N1_1  and  C1_5 
REMARK    2  A    between atoms: C1_5  and  C2_6 
REMARK    3  A    between atoms: C1_5  and  C3_9 
REMARK    4  A    between atoms: C1_5  and  C4_12 
REMARK    5  A    between atoms: C2_6  and  O1_7 
REMARK    6  A    between atoms: C3_9  and  O2_10 
REMARK    7  A    between atoms: C4_12  and  C5_13 
REMARK    8  A    between atoms: C5_13  and  C6_14 
ROOT
HETATM    1  C1  UNL     1      -2.673  30.085  -5.088  1.00  0.00     0.165 C 
ENDROOT
BRANCH   1   2
HETATM    2  N1  UNL     1      -2.831  29.532  -6.422  1.00  0.00    -0.066 N 
ATOM      3  H13 UNL     1      -2.546  30.182  -7.154  1.00  0.00     0.275 HD
ATOM      4  H12 UNL     1      -2.157  28.794  -6.625  1.00  0.00     0.275 HD
ATOM      5  H11 UNL     1      -3.797  29.223  -6.523  1.00  0.00     0.275 HD
ENDBRANCH   1   2
BRANCH   1   6
HETATM    6  C2  UNL     1      -1.329  29.645  -4.556  1.00  0.00     0.205 C 
BRANCH   6   7
HETATM    7  O1  UNL     1      -1.432  28.273  -4.250  1.00  0.00    -0.398 OA
ATOM      8  H1  UNL     1      -1.451  28.198  -3.303  1.00  0.00     0.209 HD
ENDBRANCH   6   7
ENDBRANCH   1   6
BRANCH   1   9
HETATM    9  C3  UNL     1      -3.800  29.498  -4.249  1.00  0.00     0.205 C 
BRANCH   9  10
HETATM   10  O2  UNL     1      -4.304  28.364  -4.884  1.00  0.00    -0.398 OA
ATOM     11  H2  UNL     1      -5.017  28.007  -4.368  1.00  0.00     0.209 HD
ENDBRANCH   9  10
ENDBRANCH   1   9
BRANCH   1  12
HETATM   12  C4  UNL     1      -2.756  31.569  -5.099  1.00  0.00     0.043 C 
BRANCH  12  13
HETATM   13  C5  UNL     1      -4.163  32.047  -5.214  1.00  0.00     0.007 C 
BRANCH  13  14
HETATM   14  C6  UNL     1      -4.424  33.241  -4.271  1.00  0.00    -0.014 C 
HETATM   15  C7  UNL     1      -3.780  32.924  -2.976  1.00  0.00     0.004 C 
HETATM   16  C8  UNL     1      -4.332  33.533  -1.765  1.00  0.00     0.000 C 
HETATM   17  C9  UNL     1      -5.076  34.832  -1.952  1.00  0.00     0.000 C 
HETATM   18  C10 UNL     1      -4.189  36.027  -1.997  1.00  0.00     0.000 C 
HETATM   19  C11 UNL     1      -4.231  36.861  -3.201  1.00  0.00     0.000 C 
HETATM   20  C12 UNL     1      -5.204  36.527  -4.265  1.00  0.00     0.000 C 
HETATM   21  C13 UNL     1      -4.767  35.516  -5.272  1.00  0.00     0.000 C 
HETATM   22  C14 UNL     1      -3.795  34.501  -4.824  1.00  0.00     0.004 C 
ENDBRANCH  13  14
ENDBRANCH  12  13
ENDBRANCH   1  12
TORSDOF 8
ENDMDL
MODEL 4
REMARK VINA RESULT: -6.133340353      5.014      7.921
REMARK  8 active torsions:
REMARK  status: ('A' for Active; 'I' for Inactive)
REMARK    1  A    between atoms: N1_1  and  C1_5 
REMARK    2  A    between atoms: C1_5  and  C2_6 
REMARK    3  A    between atoms: C1_5  and  C3_9 
REMARK    4  A    between atoms: C1_5  and  C4_12 
REMARK    5  A    between atoms: C2_6  and  O1_7 
REMARK    6  A    between atoms: C3_9  and  O2_10 
REMARK    7  A    between atoms: C4_12  and  C5_13 
REMARK    8  A    between atoms: C5_13  and  C6_14 
ROOT
HETATM    1  C1  UNL     1      -3.285  29.734  -4.539  1.00  0.00     0.165 C 
ENDROOT
BRANCH   1   2
HETATM    2  N1  UNL     1      -4.253  28.652  -4.535  1.00  0.00    -0.066 N 
ATOM      3  H13 UNL     1      -4.568  28.408  -3.596  1.00  0.00     0.275 HD
ATOM      4  H12 UNL     1      -5.158  28.931  -4.914  1.00  0.00     0.275 HD
ATOM      5  H11 UNL     1      -3.844  27.861  -5.031  1.00  0.00     0.275 HD
ENDBRANCH   1   2
BRANCH   1   6
HETATM    6  C2  UNL     1      -2.889  30.003  -5.973  1.00  0.00     0.205 C 
BRANCH   6   7
HETATM    7  O1  UNL     1      -3.102  28.810  -6.693  1.00  0.00    -0.398 OA
ATOM      8  H1  UNL     1      -3.859  28.384  -6.310  1.00  0.00     0.209 HD
ENDBRANCH   6   7
ENDBRANCH   1   6
BRANCH   1   9
HETATM    9  C3  UNL     1      -2.089  29.238  -3.737  1.00  0.00     0.205 C 
BRANCH   9  10
HETATM   10  O2  UNL     1      -1.466  28.204  -4.434  1.00  0.00    -0.398 OA
ATOM     11  H2  UNL     1      -0.659  28.526  -4.817  1.00  0.00     0.209 HD
ENDBRANCH   9  10
ENDBRANCH   1   9
BRANCH   1  12
HETATM   12  C4  UNL     1      -3.843  30.968  -3.925  1.00  0.00     0.043 C 
BRANCH  12  13
HETATM   13  C5  UNL     1      -4.101  32.027  -4.942  1.00  0.00     0.007 C 
BRANCH  13  14
HETATM   14  C6  UNL     1      -4.452  33.371  -4.269  1.00  0.00    -0.014 C 
HETATM   15  C7  UNL     1      -3.781  33.388  -2.950  1.00  0.00     0.004 C 
HETATM   16  C8  UNL     1      -4.375  34.198  -1.885  1.00  0.00     0.000 C 
HETATM   17  C9  UNL     1      -5.220  35.367  -2.329  1.00  0.00     0.000 C 
HETATM   18  C10 UNL     1      -4.430  36.588  -2.644  1.00  0.00     0.000 C 
HETATM   19  C11 UNL     1      -4.541  37.140  -3.997  1.00  0.00     0.000 C 
HETATM   20  C12 UNL     1      -5.488  36.514  -4.946  1.00  0.00     0.000 C 
HETATM   21  C13 UNL     1      -4.976  35.347  -5.724  1.00  0.00     0.000 C 
HETATM   22  C14 UNL     1      -3.926  34.529  -5.090  1.00  0.00     0.004 C 
ENDBRANCH  13  14
ENDBRANCH  12  13
ENDBRANCH   1  12
TORSDOF 8
ENDMDL
MODEL 5
REMARK VINA RESULT: -6.114713557      4.425      7.689
REMARK  8 active torsions:
REMARK  status: ('A' for Active; 'I' for Inactive)
REMARK    1  A    between atoms: N1_1  and  C1_5 
REMARK    2  A    between atoms: C1_5  and  C2_6 
REMARK    3  A    between atoms: C1_5  and  C3_9 
REMARK    4  A    between atoms: C1_5  and  C4_12 
REMARK    5  A    between atoms: C2_6  and  O1_7 
REMARK    6  A    between atoms: C3_9  and  O2_10 
REMARK    7  A    between atoms: C4_12  and  C5_13 
REMARK    8  A    between atoms: C5_13  and  C6_14 
ROOT
HETATM    1  C1  UNL     1      -1.831  30.259  -5.570  1.00  0.00     0.165 C 
ENDROOT
BRANCH   1   2
HETATM    2  N1  UNL     1      -0.509  30.858  -5.626  1.00  0.00    -0.066 N 
ATOM      3  H13 UNL     1      -0.452  31.736  -5.111  1.00  0.00     0.275 HD
ATOM      4  H12 UNL     1       0.182  30.337  -5.085  1.00  0.00     0.275 HD
ATOM      5  H11 UNL     1      -0.249  30.958  -6.606  1.00  0.00     0.275 HD
ENDBRANCH   1   2
BRANCH   1   6
HETATM    6  C2  UNL     1      -1.954  29.517  -4.259  1.00  0.00     0.205 C 
BRANCH   6   7
HETATM    7  O1  UNL     1      -1.438  28.222  -4.465  1.00  0.00    -0.398 OA
ATOM      8  H1  UNL     1      -1.298  27.837  -3.608  1.00  0.00     0.209 HD
ENDBRANCH   6   7
ENDBRANCH   1   6
BRANCH   1   9
HETATM    9  C3  UNL     1      -1.909  29.291  -6.743  1.00  0.00     0.205 C 
BRANCH   9  10
HETATM   10  O2  UNL     1      -3.128  28.617  -6.701  1.00  0.00    -0.398 OA
ATOM     11  H2  UNL     1      -2.967  27.682  -6.640  1.00  0.00     0.209 HD
ENDBRANCH   9  10
ENDBRANCH   1   9
BRANCH   1  12
HETATM   12  C4  UNL     1      -2.900  31.287  -5.676  1.00  0.00     0.043 C 
BRANCH  12  13
HETATM   13  C5  UNL     1      -3.860  31.210  -4.538  1.00  0.00     0.007 C 
BRANCH  13  14
HETATM   14  C6  UNL     1      -4.179  32.614  -3.982  1.00  0.00    -0.014 C 
HETATM   15  C7  UNL     1      -3.612  32.682  -2.616  1.00  0.00     0.004 C 
HETATM   16  C8  UNL     1      -4.236  33.595  -1.656  1.00  0.00     0.000 C 
HETATM   17  C9  UNL     1      -4.970  34.777  -2.241  1.00  0.00     0.000 C 
HETATM   18  C10 UNL     1      -4.083  35.928  -2.567  1.00  0.00     0.000 C 
HETATM   19  C11 UNL     1      -4.054  36.392  -3.957  1.00  0.00     0.000 C 
HETATM   20  C12 UNL     1      -4.961  35.757  -4.939  1.00  0.00     0.000 C 
HETATM   21  C13 UNL     1      -4.464  34.514  -5.597  1.00  0.00     0.000 C 
HETATM   22  C14 UNL     1      -3.519  33.681  -4.828  1.00  0.00     0.004 C 
ENDBRANCH  13  14
ENDBRANCH  12  13
ENDBRANCH   1  12
TORSDOF 8
ENDMDL
