MODEL 1
REMARK VINA RESULT: -9.371996050      0.000      0.000
REMARK  15 active torsions:
REMARK  status: ('A' for Active; 'I' for Inactive)
REMARK    1  A    between atoms: C6_8  and  C7_9 
REMARK       I    between atoms: C7_9  and  N2_11 
REMARK    2  A    between atoms: N2_11  and  C8_13 
REMARK    3  A    between atoms: C8_13  and  C9_14 
REMARK    4  A    between atoms: C9_14  and  C10_15 
REMARK    5  A    between atoms: C10_15  and  N3_16 
REMARK    6  A    between atoms: C10_15  and  C11_20 
REMARK       I    between atoms: C11_20  and  N4_22 
REMARK    7  A    between atoms: N4_22  and  C12_24 
REMARK    8  A    between atoms: C12_24  and  C13_25 
REMARK    9  A    between atoms: C13_25  and  C14_26 
REMARK   10  A    between atoms: C14_26  and  C15_27 
REMARK   11  A    between atoms: C15_27  and  C16_28 
REMARK   12  A    between atoms: C16_28  and  C17_29 
REMARK   13  A    between atoms: C16_28  and  C18_36 
REMARK   14  A    between atoms: C17_29  and  O3_30 
REMARK   15  A    between atoms: N5_32  and  O4_34 
ROOT
HETATM    1  C11 UNL     1      47.469  35.807  30.576  1.00  0.00     0.248 C 
HETATM    2  O2  UNL     1      46.764  34.835  30.976  1.00  0.00    -0.271 OA
HETATM    3  N4  UNL     1      48.418  36.447  31.396  1.00  0.00    -0.359 N 
ATOM      4  H4  UNL     1      48.956  37.225  31.014  1.00  0.00     0.162 HD
ENDROOT
BRANCH   3   5
HETATM    5  C12 UNL     1      48.649  36.044  32.733  1.00  0.00     0.122 C 
BRANCH   5   6
HETATM    6  C13 UNL     1      49.986  35.333  32.964  1.00  0.00     0.020 C 
BRANCH   6   7
HETATM    7  C14 UNL     1      50.121  34.256  31.968  1.00  0.00     0.003 C 
BRANCH   7   8
HETATM    8  C15 UNL     1      50.053  32.847  32.411  1.00  0.00     0.018 C 
BRANCH   8   9
HETATM    9  C16 UNL     1      48.749  32.309  32.902  1.00  0.00     0.101 C 
BRANCH   9  10
HETATM   10  C17 UNL     1      48.218  31.154  32.151  1.00  0.00     0.144 C 
HETATM   11  N5  UNL     1      47.114  31.196  31.518  1.00  0.00    -0.251 N 
ATOM     12  H5  UNL     1      46.860  30.332  31.039  1.00  0.00     0.196 HD
BRANCH  10  13
HETATM   13  O3  UNL     1      48.931  29.971  32.115  1.00  0.00    -0.348 OA
ATOM     14  H3  UNL     1      49.756  29.931  31.645  1.00  0.00     0.219 HD
ENDBRANCH  10  13
BRANCH  11  15
HETATM   15  O4  UNL     1      46.233  32.196  31.381  1.00  0.00    -0.288 OA
ATOM     16  H4  UNL     1      45.856  32.775  32.033  1.00  0.00     0.244 HD
ENDBRANCH  11  15
ENDBRANCH   9  10
BRANCH   9  17
HETATM   17  C18 UNL     1      48.697  32.065  34.375  1.00  0.00     0.037 A 
HETATM   18  C19 UNL     1      47.708  32.754  35.078  1.00  0.00     0.168 A 
HETATM   19  F1  UNL     1      46.843  33.629  34.525  1.00  0.00    -0.202 F 
HETATM   20  C20 UNL     1      47.563  32.584  36.449  1.00  0.00     0.197 A 
HETATM   21  F2  UNL     1      46.599  33.250  37.158  1.00  0.00    -0.199 F 
HETATM   22  C21 UNL     1      48.382  31.737  37.162  1.00  0.00     0.199 A 
HETATM   23  F3  UNL     1      48.229  31.580  38.511  1.00  0.00    -0.199 F 
HETATM   24  C22 UNL     1      49.352  31.064  36.469  1.00  0.00     0.197 A 
HETATM   25  F4  UNL     1      50.169  30.228  37.149  1.00  0.00    -0.199 F 
HETATM   26  C23 UNL     1      49.499  31.234  35.085  1.00  0.00     0.168 A 
HETATM   27  F5  UNL     1      50.477  30.512  34.530  1.00  0.00    -0.202 F 
ENDBRANCH   9  17
ENDBRANCH   8   9
ENDBRANCH   7   8
ENDBRANCH   6   7
ENDBRANCH   5   6
ENDBRANCH   3   5
BRANCH   1  28
HETATM   28  C10 UNL     1      47.246  36.247  29.189  1.00  0.00     0.276 C 
BRANCH  28  29
HETATM   29  C9  UNL     1      47.799  35.359  28.132  1.00  0.00     0.062 C 
BRANCH  29  30
HETATM   30  C8  UNL     1      46.884  34.250  27.696  1.00  0.00     0.125 C 
BRANCH  30  31
HETATM   31  N2  UNL     1      47.225  32.990  28.329  1.00  0.00    -0.354 N 
HETATM   32  C7  UNL     1      48.012  32.055  27.612  1.00  0.00     0.285 C 
HETATM   33  O1  UNL     1      48.388  32.328  26.463  1.00  0.00    -0.264 OA
ATOM     34  H2  UNL     1      46.905  32.781  29.274  1.00  0.00     0.162 HD
BRANCH  32  35
HETATM   35  C6  UNL     1      48.395  30.767  28.201  1.00  0.00     0.178 A 
HETATM   36  N1  UNL     1      49.669  30.412  28.430  1.00  0.00    -0.330 N 
HETATM   37  C5  UNL     1      49.606  29.152  28.976  1.00  0.00     0.103 A 
ATOM     38  H1  UNL     1      50.507  30.962  28.241  1.00  0.00     0.168 HD
HETATM   39  C4  UNL     1      48.311  28.733  29.081  1.00  0.00     0.071 A 
HETATM   40  S1  UNL     1      50.489  27.833  29.601  1.00  0.00    -0.075 SA
HETATM   41  C3  UNL     1      48.099  27.506  29.602  1.00  0.00     0.046 A 
HETATM   42  N6  UNL     1      47.568  29.780  28.581  1.00  0.00    -0.331 N 
HETATM   43  C2  UNL     1      49.199  26.787  29.979  1.00  0.00    -0.017 A 
HETATM   44  C1  UNL     1      49.228  25.401  30.582  1.00  0.00     0.056 C 
HETATM   45  C24 UNL     1      46.132  29.886  28.453  1.00  0.00     0.158 C 
ENDBRANCH  32  35
ENDBRANCH  30  31
ENDBRANCH  29  30
ENDBRANCH  28  29
BRANCH  28  46
HETATM   46  N3  UNL     1      47.921  37.546  29.023  1.00  0.00    -0.066 N 
ATOM     47  H33 UNL     1      47.417  38.192  28.417  1.00  0.00     0.275 HD
ATOM     48  H32 UNL     1      47.904  38.124  29.863  1.00  0.00     0.275 HD
ATOM     49  H31 UNL     1      48.864  37.333  28.696  1.00  0.00     0.275 HD
ENDBRANCH  28  46
ENDBRANCH   1  28
TORSDOF 15
ENDMDL
MODEL 2
REMARK VINA RESULT: -9.217091464      1.480      2.202
REMARK  15 active torsions:
REMARK  status: ('A' for Active; 'I' for Inactive)
REMARK    1  A    between atoms: C6_8  and  C7_9 
REMARK       I    between atoms: C7_9  and  N2_11 
REMARK    2  A    between atoms: N2_11  and  C8_13 
REMARK    3  A    between atoms: C8_13  and  C9_14 
REMARK    4  A    between atoms: C9_14  and  C10_15 
REMARK    5  A    between atoms: C10_15  and  N3_16 
REMARK    6  A    between atoms: C10_15  and  C11_20 
REMARK       I    between atoms: C11_20  and  N4_22 
REMARK    7  A    between atoms: N4_22  and  C12_24 
REMARK    8  A    between atoms: C12_24  and  C13_25 
REMARK    9  A    between atoms: C13_25  and  C14_26 
REMARK   10  A    between atoms: C14_26  and  C15_27 
REMARK   11  A    between atoms: C15_27  and  C16_28 
REMARK   12  A    between atoms: C16_28  and  C17_29 
REMARK   13  A    between atoms: C16_28  and  C18_36 
REMARK   14  A    between atoms: C17_29  and  O3_30 
REMARK   15  A    between atoms: N5_32  and  O4_34 
ROOT
HETATM    1  C11 UNL     1      48.077  34.025  29.123  1.00  0.00     0.248 C 
HETATM    2  O2  UNL     1      47.252  34.065  30.082  1.00  0.00    -0.271 OA
HETATM    3  N4  UNL     1      49.257  34.792  29.101  1.00  0.00    -0.359 N 
ATOM      4  H4  UNL     1      49.882  34.714  28.300  1.00  0.00     0.162 HD
ENDROOT
BRANCH   3   5
HETATM    5  C12 UNL     1      49.603  35.668  30.159  1.00  0.00     0.122 C 
BRANCH   5   6
HETATM    6  C13 UNL     1      50.719  35.156  31.073  1.00  0.00     0.020 C 
BRANCH   6   7
HETATM    7  C14 UNL     1      50.104  34.553  32.269  1.00  0.00     0.003 C 
BRANCH   7   8
HETATM    8  C15 UNL     1      49.995  33.082  32.365  1.00  0.00     0.018 C 
BRANCH   8   9
HETATM    9  C16 UNL     1      48.712  32.484  32.842  1.00  0.00     0.101 C 
BRANCH   9  10
HETATM   10  C17 UNL     1      48.202  31.356  32.037  1.00  0.00     0.144 C 
HETATM   11  N5  UNL     1      47.024  31.332  31.558  1.00  0.00    -0.251 N 
ATOM     12  H5  UNL     1      46.795  30.496  31.020  1.00  0.00     0.196 HD
BRANCH  10  13
HETATM   13  O3  UNL     1      49.020  30.272  31.779  1.00  0.00    -0.348 OA
ATOM     14  H3  UNL     1      48.864  29.735  31.011  1.00  0.00     0.219 HD
ENDBRANCH  10  13
BRANCH  11  15
HETATM   15  O4  UNL     1      46.035  32.232  31.647  1.00  0.00    -0.288 OA
ATOM     16  H4  UNL     1      46.023  33.093  32.048  1.00  0.00     0.244 HD
ENDBRANCH  11  15
ENDBRANCH   9  10
BRANCH   9  17
HETATM   17  C18 UNL     1      48.685  32.165  34.300  1.00  0.00     0.037 A 
HETATM   18  C19 UNL     1      47.698  32.804  35.052  1.00  0.00     0.168 A 
HETATM   19  F1  UNL     1      46.815  33.695  34.557  1.00  0.00    -0.202 F 
HETATM   20  C20 UNL     1      47.576  32.561  36.415  1.00  0.00     0.197 A 
HETATM   21  F2  UNL     1      46.615  33.177  37.171  1.00  0.00    -0.199 F 
HETATM   22  C21 UNL     1      48.415  31.689  37.071  1.00  0.00     0.199 A 
HETATM   23  F3  UNL     1      48.285  31.460  38.411  1.00  0.00    -0.199 F 
HETATM   24  C22 UNL     1      49.383  31.065  36.330  1.00  0.00     0.197 A 
HETATM   25  F4  UNL     1      50.220  30.205  36.954  1.00  0.00    -0.199 F 
HETATM   26  C23 UNL     1      49.507  31.308  34.954  1.00  0.00     0.168 A 
HETATM   27  F5  UNL     1      50.485  30.628  34.349  1.00  0.00    -0.202 F 
ENDBRANCH   9  17
ENDBRANCH   8   9
ENDBRANCH   7   8
ENDBRANCH   6   7
ENDBRANCH   5   6
ENDBRANCH   3   5
BRANCH   1  28
HETATM   28  C10 UNL     1      47.739  33.123  28.009  1.00  0.00     0.276 C 
BRANCH  28  29
HETATM   29  C9  UNL     1      48.888  32.436  27.362  1.00  0.00     0.062 C 
BRANCH  29  30
HETATM   30  C8  UNL     1      50.032  32.113  28.282  1.00  0.00     0.125 C 
BRANCH  30  31
HETATM   31  N2  UNL     1      49.813  30.870  28.997  1.00  0.00    -0.354 N 
HETATM   32  C7  UNL     1      50.254  29.657  28.414  1.00  0.00     0.285 C 
HETATM   33  O1  UNL     1      50.814  29.680  27.307  1.00  0.00    -0.264 OA
ATOM     34  H2  UNL     1      49.348  30.869  29.905  1.00  0.00     0.162 HD
BRANCH  32  35
HETATM   35  C6  UNL     1      50.066  28.369  29.090  1.00  0.00     0.178 A 
HETATM   36  N1  UNL     1      51.081  27.548  29.406  1.00  0.00    -0.330 N 
HETATM   37  C5  UNL     1      50.497  26.463  30.014  1.00  0.00     0.103 A 
ATOM     38  H1  UNL     1      52.074  27.699  29.231  1.00  0.00     0.168 HD
HETATM   39  C4  UNL     1      49.142  26.610  30.074  1.00  0.00     0.071 A 
HETATM   40  S1  UNL     1      50.753  24.948  30.756  1.00  0.00    -0.075 SA
HETATM   41  C3  UNL     1      48.437  25.612  30.650  1.00  0.00     0.046 A 
HETATM   42  N6  UNL     1      48.900  27.829  29.480  1.00  0.00    -0.331 N 
HETATM   43  C2  UNL     1      49.140  24.539  31.122  1.00  0.00    -0.017 A 
HETATM   44  C1  UNL     1      48.589  23.306  31.800  1.00  0.00     0.056 C 
HETATM   45  C24 UNL     1      47.635  28.495  29.270  1.00  0.00     0.158 C 
ENDBRANCH  32  35
ENDBRANCH  30  31
ENDBRANCH  29  30
ENDBRANCH  28  29
BRANCH  28  46
HETATM   46  N3  UNL     1      47.107  33.937  26.957  1.00  0.00    -0.066 N 
ATOM     47  H33 UNL     1      46.215  33.564  26.635  1.00  0.00     0.275 HD
ATOM     48  H32 UNL     1      46.753  34.833  27.293  1.00  0.00     0.275 HD
ATOM     49  H31 UNL     1      47.801  34.027  26.216  1.00  0.00     0.275 HD
ENDBRANCH  28  46
ENDBRANCH   1  28
TORSDOF 15
ENDMDL
MODEL 3
REMARK VINA RESULT: -9.043742379      1.269      2.400
REMARK  15 active torsions:
REMARK  status: ('A' for Active; 'I' for Inactive)
REMARK    1  A    between atoms: C6_8  and  C7_9 
REMARK       I    between atoms: C7_9  and  N2_11 
REMARK    2  A    between atoms: N2_11  and  C8_13 
REMARK    3  A    between atoms: C8_13  and  C9_14 
REMARK    4  A    between atoms: C9_14  and  C10_15 
REMARK    5  A    between atoms: C10_15  and  N3_16 
REMARK    6  A    between atoms: C10_15  and  C11_20 
REMARK       I    between atoms: C11_20  and  N4_22 
REMARK    7  A    between atoms: N4_22  and  C12_24 
REMARK    8  A    between atoms: C12_24  and  C13_25 
REMARK    9  A    between atoms: C13_25  and  C14_26 
REMARK   10  A    between atoms: C14_26  and  C15_27 
REMARK   11  A    between atoms: C15_27  and  C16_28 
REMARK   12  A    between atoms: C16_28  and  C17_29 
REMARK   13  A    between atoms: C16_28  and  C18_36 
REMARK   14  A    between atoms: C17_29  and  O3_30 
REMARK   15  A    between atoms: N5_32  and  O4_34 
ROOT
HETATM    1  C11 UNL     1      47.545  35.498  29.615  1.00  0.00     0.248 C 
HETATM    2  O2  UNL     1      46.951  35.423  30.730  1.00  0.00    -0.271 OA
HETATM    3  N4  UNL     1      48.885  35.911  29.492  1.00  0.00    -0.359 N 
ATOM      4  H4  UNL     1      49.306  35.949  28.564  1.00  0.00     0.162 HD
ENDROOT
BRANCH   3   5
HETATM    5  C12 UNL     1      49.665  36.274  30.616  1.00  0.00     0.122 C 
BRANCH   5   6
HETATM    6  C13 UNL     1      50.770  35.277  30.975  1.00  0.00     0.020 C 
BRANCH   6   7
HETATM    7  C14 UNL     1      50.388  34.582  32.217  1.00  0.00     0.003 C 
BRANCH   7   8
HETATM    8  C15 UNL     1      49.858  33.204  32.143  1.00  0.00     0.018 C 
BRANCH   8   9
HETATM    9  C16 UNL     1      48.484  32.932  32.661  1.00  0.00     0.101 C 
BRANCH   9  10
HETATM   10  C17 UNL     1      47.660  32.033  31.827  1.00  0.00     0.144 C 
HETATM   11  N5  UNL     1      46.423  32.240  31.612  1.00  0.00    -0.251 N 
ATOM     12  H5  UNL     1      45.968  31.546  31.019  1.00  0.00     0.196 HD
BRANCH  10  13
HETATM   13  O3  UNL     1      48.234  30.919  31.245  1.00  0.00    -0.348 OA
ATOM     14  H3  UNL     1      48.319  30.116  31.745  1.00  0.00     0.219 HD
ENDBRANCH  10  13
BRANCH  11  15
HETATM   15  O4  UNL     1      45.623  33.226  32.040  1.00  0.00    -0.288 OA
ATOM     16  H4  UNL     1      45.209  33.933  31.559  1.00  0.00     0.244 HD
ENDBRANCH  11  15
ENDBRANCH   9  10
BRANCH   9  17
HETATM   17  C18 UNL     1      48.435  32.532  34.098  1.00  0.00     0.037 A 
HETATM   18  C19 UNL     1      49.350  31.557  34.497  1.00  0.00     0.168 A 
HETATM   19  F1  UNL     1      50.228  30.947  33.675  1.00  0.00    -0.202 F 
HETATM   20  C20 UNL     1      49.399  31.127  35.818  1.00  0.00     0.197 A 
HETATM   21  F2  UNL     1      50.289  30.172  36.231  1.00  0.00    -0.199 F 
HETATM   22  C21 UNL     1      48.554  31.642  36.777  1.00  0.00     0.199 A 
HETATM   23  F3  UNL     1      48.612  31.210  38.071  1.00  0.00    -0.199 F 
HETATM   24  C22 UNL     1      47.657  32.597  36.380  1.00  0.00     0.197 A 
HETATM   25  F4  UNL     1      46.817  33.116  37.305  1.00  0.00    -0.199 F 
HETATM   26  C23 UNL     1      47.607  33.033  35.048  1.00  0.00     0.168 A 
HETATM   27  F5  UNL     1      46.693  33.975  34.798  1.00  0.00    -0.202 F 
ENDBRANCH   9  17
ENDBRANCH   8   9
ENDBRANCH   7   8
ENDBRANCH   6   7
ENDBRANCH   5   6
ENDBRANCH   3   5
BRANCH   1  28
HETATM   28  C10 UNL     1      46.754  35.128  28.430  1.00  0.00     0.276 C 
BRANCH  28  29
HETATM   29  C9  UNL     1      46.311  33.710  28.364  1.00  0.00     0.062 C 
BRANCH  29  30
HETATM   30  C8  UNL     1      47.207  32.805  27.565  1.00  0.00     0.125 C 
BRANCH  30  31
HETATM   31  N2  UNL     1      47.471  31.560  28.261  1.00  0.00    -0.354 N 
HETATM   32  C7  UNL     1      48.501  30.713  27.782  1.00  0.00     0.285 C 
HETATM   33  O1  UNL     1      49.150  31.048  26.781  1.00  0.00    -0.264 OA
ATOM     34  H2  UNL     1      46.925  31.298  29.082  1.00  0.00     0.162 HD
BRANCH  32  35
HETATM   35  C6  UNL     1      48.819  29.444  28.446  1.00  0.00     0.178 A 
HETATM   36  N1  UNL     1      47.883  28.593  28.895  1.00  0.00    -0.330 N 
HETATM   37  C5  UNL     1      48.578  27.543  29.448  1.00  0.00     0.103 A 
ATOM     38  H1  UNL     1      46.870  28.702  28.838  1.00  0.00     0.168 HD
HETATM   39  C4  UNL     1      49.923  27.742  29.342  1.00  0.00     0.071 A 
HETATM   40  S1  UNL     1      48.473  26.038  30.243  1.00  0.00    -0.075 SA
HETATM   41  C3  UNL     1      50.731  26.785  29.846  1.00  0.00     0.046 A 
HETATM   42  N6  UNL     1      50.044  28.957  28.702  1.00  0.00    -0.331 N 
HETATM   43  C2  UNL     1      50.133  25.699  30.421  1.00  0.00    -0.017 A 
HETATM   44  C1  UNL     1      50.810  24.504  31.052  1.00  0.00     0.056 C 
HETATM   45  C24 UNL     1      51.248  29.663  28.326  1.00  0.00     0.158 C 
ENDBRANCH  32  35
ENDBRANCH  30  31
ENDBRANCH  29  30
ENDBRANCH  28  29
BRANCH  28  46
HETATM   46  N3  UNL     1      47.603  35.344  27.246  1.00  0.00    -0.066 N 
ATOM     47  H33 UNL     1      47.310  34.805  26.431  1.00  0.00     0.275 HD
ATOM     48  H32 UNL     1      47.493  36.269  26.829  1.00  0.00     0.275 HD
ATOM     49  H31 UNL     1      48.557  35.144  27.544  1.00  0.00     0.275 HD
ENDBRANCH  28  46
ENDBRANCH   1  28
TORSDOF 15
ENDMDL
MODEL 4
REMARK VINA RESULT: -9.007082546      2.966      4.844
REMARK  15 active torsions:
REMARK  status: ('A' for Active; 'I' for Inactive)
REMARK    1  A    between atoms: C6_8  and  C7_9 
REMARK       I    between atoms: C7_9  and  N2_11 
REMARK    2  A    between atoms: N2_11  and  C8_13 
REMARK    3  A    between atoms: C8_13  and  C9_14 
REMARK    4  A    between atoms: C9_14  and  C10_15 
REMARK    5  A    between atoms: C10_15  and  N3_16 
REMARK    6  A    between atoms: C10_15  and  C11_20 
REMARK       I    between atoms: C11_20  and  N4_22 
REMARK    7  A    between atoms: N4_22  and  C12_24 
REMARK    8  A    between atoms: C12_24  and  C13_25 
REMARK    9  A    between atoms: C13_25  and  C14_26 
REMARK   10  A    between atoms: C14_26  and  C15_27 
REMARK   11  A    between atoms: C15_27  and  C16_28 
REMARK   12  A    between atoms: C16_28  and  C17_29 
REMARK   13  A    between atoms: C16_28  and  C18_36 
REMARK   14  A    between atoms: C17_29  and  O3_30 
REMARK   15  A    between atoms: N5_32  and  O4_34 
ROOT
HETATM    1  C11 UNL     1      51.107  30.685  28.152  1.00  0.00     0.248 C 
HETATM    2  O2  UNL     1      51.584  31.464  27.275  1.00  0.00    -0.271 OA
HETATM    3  N4  UNL     1      51.086  31.003  29.523  1.00  0.00    -0.359 N 
ATOM      4  H4  UNL     1      50.687  30.333  30.179  1.00  0.00     0.162 HD
ENDROOT
BRANCH   3   5
HETATM    5  C12 UNL     1      51.603  32.225  30.018  1.00  0.00     0.122 C 
BRANCH   5   6
HETATM    6  C13 UNL     1      50.663  33.424  29.864  1.00  0.00     0.020 C 
BRANCH   6   7
HETATM    7  C14 UNL     1      50.259  33.876  31.207  1.00  0.00     0.003 C 
BRANCH   7   8
HETATM    8  C15 UNL     1      50.197  32.897  32.313  1.00  0.00     0.018 C 
BRANCH   8   9
HETATM    9  C16 UNL     1      48.861  32.406  32.765  1.00  0.00     0.101 C 
BRANCH   9  10
HETATM   10  C17 UNL     1      48.291  31.301  31.968  1.00  0.00     0.144 C 
HETATM   11  N5  UNL     1      47.130  31.357  31.449  1.00  0.00    -0.251 N 
ATOM     12  H5  UNL     1      46.854  30.529  30.922  1.00  0.00     0.196 HD
BRANCH  10  13
HETATM   13  O3  UNL     1      49.029  30.151  31.760  1.00  0.00    -0.348 OA
ATOM     14  H3  UNL     1      48.903  29.646  30.966  1.00  0.00     0.219 HD
ENDBRANCH  10  13
BRANCH  11  15
HETATM   15  O4  UNL     1      46.212  32.333  31.486  1.00  0.00    -0.288 OA
ATOM     16  H4  UNL     1      45.301  32.328  31.218  1.00  0.00     0.244 HD
ENDBRANCH  11  15
ENDBRANCH   9  10
BRANCH   9  17
HETATM   17  C18 UNL     1      48.772  32.119  34.228  1.00  0.00     0.037 A 
HETATM   18  C19 UNL     1      47.780  32.805  34.930  1.00  0.00     0.168 A 
HETATM   19  F1  UNL     1      46.943  33.712  34.385  1.00  0.00    -0.202 F 
HETATM   20  C20 UNL     1      47.601  32.597  36.292  1.00  0.00     0.197 A 
HETATM   21  F2  UNL     1      46.633  33.259  37.000  1.00  0.00    -0.199 F 
HETATM   22  C21 UNL     1      48.388  31.713  36.997  1.00  0.00     0.199 A 
HETATM   23  F3  UNL     1      48.202  31.518  38.336  1.00  0.00    -0.199 F 
HETATM   24  C22 UNL     1      49.360  31.043  36.304  1.00  0.00     0.197 A 
HETATM   25  F4  UNL     1      50.147  30.171  36.976  1.00  0.00    -0.199 F 
HETATM   26  C23 UNL     1      49.542  31.251  34.929  1.00  0.00     0.168 A 
HETATM   27  F5  UNL     1      50.519  30.528  34.374  1.00  0.00    -0.202 F 
ENDBRANCH   9  17
ENDBRANCH   8   9
ENDBRANCH   7   8
ENDBRANCH   6   7
ENDBRANCH   5   6
ENDBRANCH   3   5
BRANCH   1  28
HETATM   28  C10 UNL     1      50.566  29.407  27.662  1.00  0.00     0.276 C 
BRANCH  28  29
HETATM   29  C9  UNL     1      49.128  29.416  27.280  1.00  0.00     0.062 C 
BRANCH  29  30
HETATM   30  C8  UNL     1      48.200  29.970  28.325  1.00  0.00     0.125 C 
BRANCH  30  31
HETATM   31  N2  UNL     1      46.885  29.361  28.253  1.00  0.00    -0.354 N 
HETATM   32  C7  UNL     1      45.741  30.188  28.369  1.00  0.00     0.285 C 
HETATM   33  O1  UNL     1      45.884  31.409  28.531  1.00  0.00    -0.264 OA
ATOM     34  H2  UNL     1      46.786  28.355  28.122  1.00  0.00     0.162 HD
BRANCH  32  35
HETATM   35  C6  UNL     1      44.385  29.632  28.299  1.00  0.00     0.178 A 
HETATM   36  N1  UNL     1      43.912  28.978  27.227  1.00  0.00    -0.330 N 
HETATM   37  C5  UNL     1      42.623  28.626  27.552  1.00  0.00     0.103 A 
ATOM     38  H1  UNL     1      44.405  28.782  26.355  1.00  0.00     0.168 HD
HETATM   39  C4  UNL     1      42.304  29.058  28.806  1.00  0.00     0.071 A 
HETATM   40  S1  UNL     1      41.194  27.852  27.036  1.00  0.00    -0.075 SA
HETATM   41  C3  UNL     1      41.062  28.781  29.257  1.00  0.00     0.046 A 
HETATM   42  N6  UNL     1      43.443  29.692  29.254  1.00  0.00    -0.331 N 
HETATM   43  C2  UNL     1      40.229  28.093  28.419  1.00  0.00    -0.017 A 
HETATM   44  C1  UNL     1      38.804  27.667  28.686  1.00  0.00     0.056 C 
HETATM   45  C24 UNL     1      43.674  30.339  30.525  1.00  0.00     0.158 C 
ENDBRANCH  32  35
ENDBRANCH  30  31
ENDBRANCH  29  30
ENDBRANCH  28  29
BRANCH  28  46
HETATM   46  N3  UNL     1      50.689  28.427  28.755  1.00  0.00    -0.066 N 
ATOM     47  H33 UNL     1      51.122  28.808  29.596  1.00  0.00     0.275 HD
ATOM     48  H32 UNL     1      49.796  28.175  29.179  1.00  0.00     0.275 HD
ATOM     49  H31 UNL     1      51.192  27.631  28.363  1.00  0.00     0.275 HD
ENDBRANCH  28  46
ENDBRANCH   1  28
TORSDOF 15
ENDMDL
MODEL 5
REMARK VINA RESULT: -8.992512498      1.647      2.225
REMARK  15 active torsions:
REMARK  status: ('A' for Active; 'I' for Inactive)
REMARK    1  A    between atoms: C6_8  and  C7_9 
REMARK       I    between atoms: C7_9  and  N2_11 
REMARK    2  A    between atoms: N2_11  and  C8_13 
REMARK    3  A    between atoms: C8_13  and  C9_14 
REMARK    4  A    between atoms: C9_14  and  C10_15 
REMARK    5  A    between atoms: C10_15  and  N3_16 
REMARK    6  A    between atoms: C10_15  and  C11_20 
REMARK       I    between atoms: C11_20  and  N4_22 
REMARK    7  A    between atoms: N4_22  and  C12_24 
REMARK    8  A    between atoms: C12_24  and  C13_25 
REMARK    9  A    between atoms: C13_25  and  C14_26 
REMARK   10  A    between atoms: C14_26  and  C15_27 
REMARK   11  A    between atoms: C15_27  and  C16_28 
REMARK   12  A    between atoms: C16_28  and  C17_29 
REMARK   13  A    between atoms: C16_28  and  C18_36 
REMARK   14  A    between atoms: C17_29  and  O3_30 
REMARK   15  A    between atoms: N5_32  and  O4_34 
ROOT
HETATM    1  C11 UNL     1      49.075  36.871  29.301  1.00  0.00     0.248 C 
HETATM    2  O2  UNL     1      49.560  35.709  29.175  1.00  0.00    -0.271 OA
HETATM    3  N4  UNL     1      49.379  37.709  30.391  1.00  0.00    -0.359 N 
ATOM      4  H4  UNL     1      48.956  38.635  30.434  1.00  0.00     0.162 HD
ENDROOT
BRANCH   3   5
HETATM    5  C12 UNL     1      50.253  37.304  31.428  1.00  0.00     0.122 C 
BRANCH   5   6
HETATM    6  C13 UNL     1      49.759  37.625  32.841  1.00  0.00     0.020 C 
BRANCH   6   7
HETATM    7  C14 UNL     1      48.803  36.581  33.250  1.00  0.00     0.003 C 
BRANCH   7   8
HETATM    8  C15 UNL     1      48.957  35.209  32.720  1.00  0.00     0.018 C 
BRANCH   8   9
HETATM    9  C16 UNL     1      47.917  34.189  33.049  1.00  0.00     0.101 C 
BRANCH   9  10
HETATM   10  C17 UNL     1      47.221  33.598  31.889  1.00  0.00     0.144 C 
HETATM   11  N5  UNL     1      46.014  33.200  31.943  1.00  0.00    -0.251 N 
ATOM     12  H5  UNL     1      45.650  32.812  31.073  1.00  0.00     0.196 HD
BRANCH  10  13
HETATM   13  O3  UNL     1      47.885  33.465  30.684  1.00  0.00    -0.348 OA
ATOM     14  H3  UNL     1      47.470  33.006  29.964  1.00  0.00     0.219 HD
ENDBRANCH  10  13
BRANCH  11  15
HETATM   15  O4  UNL     1      45.144  33.209  32.962  1.00  0.00    -0.288 OA
ATOM     16  H4  UNL     1      45.227  32.863  33.843  1.00  0.00     0.244 HD
ENDBRANCH  11  15
ENDBRANCH   9  10
BRANCH   9  17
HETATM   17  C18 UNL     1      48.369  33.133  34.003  1.00  0.00     0.037 A 
HETATM   18  C19 UNL     1      47.879  33.230  35.306  1.00  0.00     0.168 A 
HETATM   19  F1  UNL     1      47.071  34.215  35.749  1.00  0.00    -0.202 F 
HETATM   20  C20 UNL     1      48.224  32.287  36.267  1.00  0.00     0.197 A 
HETATM   21  F2  UNL     1      47.754  32.364  37.551  1.00  0.00    -0.199 F 
HETATM   22  C21 UNL     1      49.056  31.230  35.974  1.00  0.00     0.199 A 
HETATM   23  F3  UNL     1      49.388  30.310  36.928  1.00  0.00    -0.199 F 
HETATM   24  C22 UNL     1      49.535  31.139  34.695  1.00  0.00     0.197 A 
HETATM   25  F4  UNL     1      50.356  30.109  34.385  1.00  0.00    -0.199 F 
HETATM   26  C23 UNL     1      49.188  32.089  33.724  1.00  0.00     0.168 A 
HETATM   27  F5  UNL     1      49.716  31.878  32.515  1.00  0.00    -0.202 F 
ENDBRANCH   9  17
ENDBRANCH   8   9
ENDBRANCH   7   8
ENDBRANCH   6   7
ENDBRANCH   5   6
ENDBRANCH   3   5
BRANCH   1  28
HETATM   28  C10 UNL     1      48.160  37.314  28.236  1.00  0.00     0.276 C 
BRANCH  28  29
HETATM   29  C9  UNL     1      46.843  36.625  28.185  1.00  0.00     0.062 C 
BRANCH  29  30
HETATM   30  C8  UNL     1      46.781  35.448  27.252  1.00  0.00     0.125 C 
BRANCH  30  31
HETATM   31  N2  UNL     1      47.346  34.255  27.854  1.00  0.00    -0.354 N 
HETATM   32  C7  UNL     1      46.964  32.988  27.350  1.00  0.00     0.285 C 
HETATM   33  O1  UNL     1      46.155  32.923  26.412  1.00  0.00    -0.264 OA
ATOM     34  H2  UNL     1      48.008  34.327  28.627  1.00  0.00     0.162 HD
BRANCH  32  35
HETATM   35  C6  UNL     1      47.504  31.745  27.912  1.00  0.00     0.178 A 
HETATM   36  N1  UNL     1      46.903  31.060  28.897  1.00  0.00    -0.330 N 
HETATM   37  C5  UNL     1      47.714  29.977  29.138  1.00  0.00     0.103 A 
ATOM     38  H1  UNL     1      46.028  31.294  29.367  1.00  0.00     0.168 HD
HETATM   39  C4  UNL     1      48.801  29.992  28.314  1.00  0.00     0.071 A 
HETATM   40  S1  UNL     1      47.954  28.565  30.065  1.00  0.00    -0.075 SA
HETATM   41  C3  UNL     1      49.688  28.982  28.443  1.00  0.00     0.046 A 
HETATM   42  N6  UNL     1      48.639  31.126  27.548  1.00  0.00    -0.331 N 
HETATM   43  C2  UNL     1      49.422  28.031  29.388  1.00  0.00    -0.017 A 
HETATM   44  C1  UNL     1      50.251  26.813  29.724  1.00  0.00     0.056 C 
HETATM   45  C24 UNL     1      49.496  31.639  26.503  1.00  0.00     0.158 C 
ENDBRANCH  32  35
ENDBRANCH  30  31
ENDBRANCH  29  30
ENDBRANCH  28  29
BRANCH  28  46
HETATM   46  N3  UNL     1      48.815  37.035  26.947  1.00  0.00    -0.066 N 
ATOM     47  H33 UNL     1      49.771  36.692  27.041  1.00  0.00     0.275 HD
ATOM     48  H32 UNL     1      48.437  36.218  26.467  1.00  0.00     0.275 HD
ATOM     49  H31 UNL     1      48.743  37.895  26.403  1.00  0.00     0.275 HD
ENDBRANCH  28  46
ENDBRANCH   1  28
TORSDOF 15
ENDMDL
