MODEL 1
REMARK VINA RESULT: -10.488093207      0.000      0.000
REMARK  15 active torsions:
REMARK  status: ('A' for Active; 'I' for Inactive)
REMARK    1  A    between atoms: N1_1  and  C1_4 
REMARK    2  A    between atoms: C4_11  and  C5_12 
REMARK    3  A    between atoms: C5_12  and  O1_13 
REMARK    4  A    between atoms: C5_12  and  C6_15 
REMARK    5  A    between atoms: N4_24  and  C12_25 
REMARK    6  A    between atoms: C12_25  and  C13_26 
REMARK    7  A    between atoms: C17_31  and  N5_32 
REMARK    8  A    between atoms: N5_32  and  S1_34 
REMARK    9  A    between atoms: S1_34  and  C18_37 
REMARK   10  A    between atoms: C18_37  and  C19_38 
REMARK   11  A    between atoms: C19_38  and  C20_39 
REMARK   12  A    between atoms: C20_39  and  C21_40 
REMARK   13  A    between atoms: C21_40  and  C22_41 
REMARK   14  A    between atoms: C22_41  and  C23_42 
REMARK   15  A    between atoms: C23_42  and  N6_43 
ROOT
HETATM    1  C1  UNL     1      49.766  37.222  31.602  1.00  0.00     0.130 A 
HETATM    2  N2  UNL     1      49.565  37.719  32.825  1.00  0.00    -0.337 N 
ATOM      3  H2  UNL     1      49.953  38.633  33.062  1.00  0.00     0.168 HD
HETATM    4  C2  UNL     1      48.861  37.040  33.756  1.00  0.00     0.182 A 
HETATM    5  N3  UNL     1      48.323  35.833  33.513  1.00  0.00    -0.349 N 
ATOM      6  H3  UNL     1      47.796  35.343  34.236  1.00  0.00     0.167 HD
HETATM    7  C3  UNL     1      48.494  35.285  32.299  1.00  0.00     0.092 A 
HETATM    8  C4  UNL     1      48.070  34.085  31.764  1.00  0.00     0.091 A 
HETATM    9  N4  UNL     1      48.519  34.041  30.508  1.00  0.00    -0.286 N 
HETATM   10  N7  UNL     1      49.205  35.175  30.255  1.00  0.00    -0.292 N 
ATOM     11  H7  UNL     1      49.654  35.394  29.366  1.00  0.00     0.187 HD
HETATM   12  C25 UNL     1      49.218  35.973  31.329  1.00  0.00     0.120 A 
ENDROOT
BRANCH   9  13
HETATM   13  C12 UNL     1      48.358  33.038  29.500  1.00  0.00     0.191 C 
BRANCH  13  14
HETATM   14  C13 UNL     1      49.441  32.062  29.357  1.00  0.00     0.005 A 
HETATM   15  C14 UNL     1      50.486  32.345  28.494  1.00  0.00     0.054 A 
HETATM   16  C15 UNL     1      51.504  31.437  28.384  1.00  0.00     0.119 A 
HETATM   17  F4  UNL     1      52.543  31.675  27.553  1.00  0.00    -0.206 F 
HETATM   18  C16 UNL     1      51.481  30.258  29.128  1.00  0.00     0.075 A 
HETATM   19  C17 UNL     1      50.462  29.959  29.986  1.00  0.00     0.084 A 
HETATM   20  C24 UNL     1      49.437  30.891  30.084  1.00  0.00     0.151 A 
HETATM   21  F5  UNL     1      48.437  30.569  30.949  1.00  0.00    -0.203 F 
BRANCH  19  22
HETATM   22  N5  UNL     1      50.440  28.762  30.715  1.00  0.00    -0.281 N 
ATOM     23  H5  UNL     1      50.924  28.773  31.613  1.00  0.00     0.178 HD
BRANCH  22  24
HETATM   24  S1  UNL     1      49.713  27.314  30.285  1.00  0.00     0.231 S 
HETATM   25  O2  UNL     1      49.050  27.552  28.916  1.00  0.00    -0.206 OA
HETATM   26  O3  UNL     1      50.754  26.232  29.961  1.00  0.00    -0.206 OA
BRANCH  24  27
HETATM   27  C18 UNL     1      48.464  26.674  31.316  1.00  0.00     0.163 C 
BRANCH  27  28
HETATM   28  C19 UNL     1      48.271  25.189  31.261  1.00  0.00     0.017 C 
BRANCH  28  29
HETATM   29  C20 UNL     1      48.381  24.523  32.601  1.00  0.00     0.001 C 
BRANCH  29  30
HETATM   30  C21 UNL     1      48.913  23.112  32.467  1.00  0.00     0.002 C 
BRANCH  30  31
HETATM   31  C22 UNL     1      48.906  22.621  31.041  1.00  0.00     0.027 C 
BRANCH  31  32
HETATM   32  C23 UNL     1      50.270  22.056  30.664  1.00  0.00     0.229 C 
BRANCH  32  33
HETATM   33  N6  UNL     1      51.222  23.142  30.659  1.00  0.00    -0.079 N 
ATOM     34  H63 UNL     1      50.783  24.051  30.805  1.00  0.00     0.274 HD
ATOM     35  H62 UNL     1      51.821  23.144  31.485  1.00  0.00     0.274 HD
ATOM     36  H61 UNL     1      51.752  23.097  29.789  1.00  0.00     0.274 HD
ENDBRANCH  32  33
ENDBRANCH  31  32
ENDBRANCH  30  31
ENDBRANCH  29  30
ENDBRANCH  28  29
ENDBRANCH  27  28
ENDBRANCH  24  27
ENDBRANCH  22  24
ENDBRANCH  19  22
ENDBRANCH  13  14
ENDBRANCH   9  13
BRANCH   8  37
HETATM   37  C5  UNL     1      47.249  33.094  32.444  1.00  0.00     0.205 C 
BRANCH  37  38
HETATM   38  O1  UNL     1      45.889  33.460  32.565  1.00  0.00    -0.385 OA
ATOM     39  H1  UNL     1      45.610  33.623  33.458  1.00  0.00     0.211 HD
ENDBRANCH  37  38
BRANCH  37  40
HETATM   40  C6  UNL     1      47.777  32.582  33.731  1.00  0.00    -0.018 A 
HETATM   41  C7  UNL     1      47.153  32.953  34.908  1.00  0.00     0.055 A 
HETATM   42  C8  UNL     1      47.604  32.522  36.135  1.00  0.00     0.158 A 
HETATM   43  F1  UNL     1      46.963  32.910  37.294  1.00  0.00    -0.203 F 
HETATM   44  C9  UNL     1      48.701  31.698  36.219  1.00  0.00     0.193 A 
HETATM   45  F2  UNL     1      49.149  31.269  37.446  1.00  0.00    -0.200 F 
HETATM   46  C10 UNL     1      49.335  31.316  35.067  1.00  0.00     0.158 A 
HETATM   47  F3  UNL     1      50.414  30.503  35.192  1.00  0.00    -0.203 F 
HETATM   48  C11 UNL     1      48.872  31.757  33.846  1.00  0.00     0.055 A 
ENDBRANCH  37  40
ENDBRANCH   8  37
BRANCH   1  49
HETATM   49  N1  UNL     1      50.422  37.795  30.655  1.00  0.00    -0.383 N 
ATOM     50  H12 UNL     1      50.002  38.623  30.233  1.00  0.00     0.157 HD
ATOM     51  H11 UNL     1      51.324  37.495  30.287  1.00  0.00     0.157 HD
ENDBRANCH   1  49
TORSDOF 15
ENDMDL
MODEL 2
REMARK VINA RESULT: -10.433931618      0.160      1.283
REMARK  15 active torsions:
REMARK  status: ('A' for Active; 'I' for Inactive)
REMARK    1  A    between atoms: N1_1  and  C1_4 
REMARK    2  A    between atoms: C4_11  and  C5_12 
REMARK    3  A    between atoms: C5_12  and  O1_13 
REMARK    4  A    between atoms: C5_12  and  C6_15 
REMARK    5  A    between atoms: N4_24  and  C12_25 
REMARK    6  A    between atoms: C12_25  and  C13_26 
REMARK    7  A    between atoms: C17_31  and  N5_32 
REMARK    8  A    between atoms: N5_32  and  S1_34 
REMARK    9  A    between atoms: S1_34  and  C18_37 
REMARK   10  A    between atoms: C18_37  and  C19_38 
REMARK   11  A    between atoms: C19_38  and  C20_39 
REMARK   12  A    between atoms: C20_39  and  C21_40 
REMARK   13  A    between atoms: C21_40  and  C22_41 
REMARK   14  A    between atoms: C22_41  and  C23_42 
REMARK   15  A    between atoms: C23_42  and  N6_43 
ROOT
HETATM    1  C1  UNL     1      49.819  37.211  31.705  1.00  0.00     0.130 A 
HETATM    2  N2  UNL     1      49.598  37.697  32.929  1.00  0.00    -0.337 N 
ATOM      3  H2  UNL     1      49.983  38.608  33.181  1.00  0.00     0.168 HD
HETATM    4  C2  UNL     1      48.877  37.010  33.841  1.00  0.00     0.182 A 
HETATM    5  N3  UNL     1      48.342  35.807  33.577  1.00  0.00    -0.349 N 
ATOM      6  H3  UNL     1      47.802  35.311  34.286  1.00  0.00     0.167 HD
HETATM    7  C3  UNL     1      48.532  35.270  32.361  1.00  0.00     0.092 A 
HETATM    8  C4  UNL     1      48.115  34.076  31.807  1.00  0.00     0.091 A 
HETATM    9  N4  UNL     1      48.585  34.044  30.559  1.00  0.00    -0.286 N 
HETATM   10  N7  UNL     1      49.278  35.179  30.328  1.00  0.00    -0.292 N 
ATOM     11  H7  UNL     1      49.742  35.406  29.449  1.00  0.00     0.187 HD
HETATM   12  C25 UNL     1      49.273  35.966  31.411  1.00  0.00     0.120 A 
ENDROOT
BRANCH   9  13
HETATM   13  C12 UNL     1      48.440  33.051  29.538  1.00  0.00     0.191 C 
BRANCH  13  14
HETATM   14  C13 UNL     1      49.554  32.116  29.359  1.00  0.00     0.005 A 
HETATM   15  C14 UNL     1      50.576  32.454  28.490  1.00  0.00     0.054 A 
HETATM   16  C15 UNL     1      51.623  31.585  28.347  1.00  0.00     0.119 A 
HETATM   17  F4  UNL     1      52.642  31.876  27.508  1.00  0.00    -0.206 F 
HETATM   18  C16 UNL     1      51.651  30.389  29.063  1.00  0.00     0.075 A 
HETATM   19  C17 UNL     1      50.654  30.036  29.927  1.00  0.00     0.084 A 
HETATM   20  C24 UNL     1      49.599  30.930  30.059  1.00  0.00     0.151 A 
HETATM   21  F5  UNL     1      48.623  30.554  30.929  1.00  0.00    -0.203 F 
BRANCH  19  22
HETATM   22  N5  UNL     1      50.683  28.823  30.628  1.00  0.00    -0.281 N 
ATOM     23  H5  UNL     1      51.245  28.809  31.479  1.00  0.00     0.178 HD
BRANCH  22  24
HETATM   24  S1  UNL     1      49.903  27.393  30.234  1.00  0.00     0.231 S 
HETATM   25  O2  UNL     1      49.265  27.614  28.850  1.00  0.00    -0.206 OA
HETATM   26  O3  UNL     1      50.902  26.260  29.955  1.00  0.00    -0.206 OA
BRANCH  24  27
HETATM   27  C18 UNL     1      48.617  26.835  31.269  1.00  0.00     0.163 C 
BRANCH  27  28
HETATM   28  C19 UNL     1      48.311  25.371  31.195  1.00  0.00     0.017 C 
BRANCH  28  29
HETATM   29  C20 UNL     1      48.261  24.703  32.538  1.00  0.00     0.001 C 
BRANCH  29  30
HETATM   30  C21 UNL     1      48.626  23.238  32.432  1.00  0.00     0.002 C 
BRANCH  30  31
HETATM   31  C22 UNL     1      48.926  22.813  31.017  1.00  0.00     0.027 C 
BRANCH  31  32
HETATM   32  C23 UNL     1      50.314  22.190  30.928  1.00  0.00     0.229 C 
BRANCH  32  33
HETATM   33  N6  UNL     1      51.260  23.238  30.623  1.00  0.00    -0.079 N 
ATOM     34  H63 UNL     1      51.446  23.322  29.623  1.00  0.00     0.274 HD
ATOM     35  H62 UNL     1      50.875  24.171  30.771  1.00  0.00     0.274 HD
ATOM     36  H61 UNL     1      52.106  23.071  31.167  1.00  0.00     0.274 HD
ENDBRANCH  32  33
ENDBRANCH  31  32
ENDBRANCH  30  31
ENDBRANCH  29  30
ENDBRANCH  28  29
ENDBRANCH  27  28
ENDBRANCH  24  27
ENDBRANCH  22  24
ENDBRANCH  19  22
ENDBRANCH  13  14
ENDBRANCH   9  13
BRANCH   8  37
HETATM   37  C5  UNL     1      47.281  33.080  32.463  1.00  0.00     0.205 C 
BRANCH  37  38
HETATM   38  O1  UNL     1      45.903  33.395  32.465  1.00  0.00    -0.385 OA
ATOM     39  H1  UNL     1      45.591  33.765  31.647  1.00  0.00     0.211 HD
ENDBRANCH  37  38
BRANCH  37  40
HETATM   40  C6  UNL     1      47.727  32.640  33.807  1.00  0.00    -0.018 A 
HETATM   41  C7  UNL     1      48.831  31.814  33.911  1.00  0.00     0.055 A 
HETATM   42  C8  UNL     1      49.285  31.360  35.129  1.00  0.00     0.158 A 
HETATM   43  F1  UNL     1      50.389  30.534  35.203  1.00  0.00    -0.203 F 
HETATM   44  C9  UNL     1      48.641  31.725  36.287  1.00  0.00     0.193 A 
HETATM   45  F2  UNL     1      49.098  31.270  37.502  1.00  0.00    -0.200 F 
HETATM   46  C10 UNL     1      47.546  32.543  36.210  1.00  0.00     0.158 A 
HETATM   47  F3  UNL     1      46.939  32.881  37.375  1.00  0.00    -0.203 F 
HETATM   48  C11 UNL     1      47.103  32.989  34.983  1.00  0.00     0.055 A 
ENDBRANCH  37  40
ENDBRANCH   8  37
BRANCH   1  49
HETATM   49  N1  UNL     1      50.491  37.792  30.774  1.00  0.00    -0.383 N 
ATOM     50  H12 UNL     1      51.375  38.227  31.040  1.00  0.00     0.157 HD
ATOM     51  H11 UNL     1      50.219  37.858  29.793  1.00  0.00     0.157 HD
ENDBRANCH   1  49
TORSDOF 15
ENDMDL
MODEL 3
REMARK VINA RESULT: -10.215557875      1.489      1.577
REMARK  15 active torsions:
REMARK  status: ('A' for Active; 'I' for Inactive)
REMARK    1  A    between atoms: N1_1  and  C1_4 
REMARK    2  A    between atoms: C4_11  and  C5_12 
REMARK    3  A    between atoms: C5_12  and  O1_13 
REMARK    4  A    between atoms: C5_12  and  C6_15 
REMARK    5  A    between atoms: N4_24  and  C12_25 
REMARK    6  A    between atoms: C12_25  and  C13_26 
REMARK    7  A    between atoms: C17_31  and  N5_32 
REMARK    8  A    between atoms: N5_32  and  S1_34 
REMARK    9  A    between atoms: S1_34  and  C18_37 
REMARK   10  A    between atoms: C18_37  and  C19_38 
REMARK   11  A    between atoms: C19_38  and  C20_39 
REMARK   12  A    between atoms: C20_39  and  C21_40 
REMARK   13  A    between atoms: C21_40  and  C22_41 
REMARK   14  A    between atoms: C22_41  and  C23_42 
REMARK   15  A    between atoms: C23_42  and  N6_43 
ROOT
HETATM    1  C1  UNL     1      49.254  36.997  30.837  1.00  0.00     0.130 A 
HETATM    2  N2  UNL     1      49.552  37.385  32.079  1.00  0.00    -0.337 N 
ATOM      3  H2  UNL     1      50.091  38.241  32.218  1.00  0.00     0.168 HD
HETATM    4  C2  UNL     1      49.157  36.672  33.156  1.00  0.00     0.182 A 
HETATM    5  N3  UNL     1      48.447  35.537  33.045  1.00  0.00    -0.349 N 
ATOM      6  H3  UNL     1      48.162  35.019  33.876  1.00  0.00     0.167 HD
HETATM    7  C3  UNL     1      48.118  35.100  31.819  1.00  0.00     0.092 A 
HETATM    8  C4  UNL     1      47.410  33.992  31.396  1.00  0.00     0.091 A 
HETATM    9  N4  UNL     1      47.377  34.039  30.064  1.00  0.00    -0.286 N 
HETATM   10  N7  UNL     1      48.043  35.138  29.654  1.00  0.00    -0.292 N 
ATOM     11  H7  UNL     1      48.167  35.410  28.678  1.00  0.00     0.187 HD
HETATM   12  C25 UNL     1      48.518  35.824  30.700  1.00  0.00     0.120 A 
ENDROOT
BRANCH   9  13
HETATM   13  C12 UNL     1      46.767  33.154  29.119  1.00  0.00     0.191 C 
BRANCH  13  14
HETATM   14  C13 UNL     1      47.636  32.164  28.479  1.00  0.00     0.005 A 
HETATM   15  C14 UNL     1      48.363  32.537  27.362  1.00  0.00     0.054 A 
HETATM   16  C15 UNL     1      49.190  31.612  26.784  1.00  0.00     0.119 A 
HETATM   17  F4  UNL     1      49.917  31.935  25.692  1.00  0.00    -0.206 F 
HETATM   18  C16 UNL     1      49.292  30.327  27.316  1.00  0.00     0.075 A 
HETATM   19  C17 UNL     1      48.585  29.938  28.418  1.00  0.00     0.084 A 
HETATM   20  C24 UNL     1      47.750  30.890  28.990  1.00  0.00     0.151 A 
HETATM   21  F5  UNL     1      47.063  30.476  30.089  1.00  0.00    -0.203 F 
BRANCH  19  22
HETATM   22  N5  UNL     1      48.681  28.639  28.933  1.00  0.00    -0.281 N 
ATOM     23  H5  UNL     1      47.971  27.977  28.620  1.00  0.00     0.178 HD
BRANCH  22  24
HETATM   24  S1  UNL     1      49.826  28.043  30.003  1.00  0.00     0.231 S 
HETATM   25  O2  UNL     1      51.201  28.427  29.426  1.00  0.00    -0.206 OA
HETATM   26  O3  UNL     1      49.807  28.806  31.336  1.00  0.00    -0.206 OA
BRANCH  24  27
HETATM   27  C18 UNL     1      49.888  26.325  30.282  1.00  0.00     0.163 C 
BRANCH  27  28
HETATM   28  C19 UNL     1      48.584  25.672  30.623  1.00  0.00     0.017 C 
BRANCH  28  29
HETATM   29  C20 UNL     1      48.270  25.693  32.089  1.00  0.00     0.001 C 
BRANCH  29  30
HETATM   30  C21 UNL     1      48.270  24.295  32.668  1.00  0.00     0.002 C 
BRANCH  30  31
HETATM   31  C22 UNL     1      48.644  23.245  31.653  1.00  0.00     0.027 C 
BRANCH  31  32
HETATM   32  C23 UNL     1      50.007  22.646  31.981  1.00  0.00     0.229 C 
BRANCH  32  33
HETATM   33  N6  UNL     1      50.741  22.493  30.746  1.00  0.00    -0.079 N 
ATOM     34  H63 UNL     1      50.136  22.276  29.954  1.00  0.00     0.274 HD
ATOM     35  H62 UNL     1      51.113  23.377  30.397  1.00  0.00     0.274 HD
ATOM     36  H61 UNL     1      51.466  21.791  30.892  1.00  0.00     0.274 HD
ENDBRANCH  32  33
ENDBRANCH  31  32
ENDBRANCH  30  31
ENDBRANCH  29  30
ENDBRANCH  28  29
ENDBRANCH  27  28
ENDBRANCH  24  27
ENDBRANCH  22  24
ENDBRANCH  19  22
ENDBRANCH  13  14
ENDBRANCH   9  13
BRANCH   8  37
HETATM   37  C5  UNL     1      46.785  33.003  32.262  1.00  0.00     0.205 C 
BRANCH  37  38
HETATM   38  O1  UNL     1      45.529  33.398  32.775  1.00  0.00    -0.385 OA
ATOM     39  H1  UNL     1      45.459  34.330  32.950  1.00  0.00     0.211 HD
ENDBRANCH  37  38
BRANCH  37  40
HETATM   40  C6  UNL     1      47.642  32.438  33.332  1.00  0.00    -0.018 A 
HETATM   41  C7  UNL     1      47.345  32.725  34.651  1.00  0.00     0.055 A 
HETATM   42  C8  UNL     1      48.109  32.241  35.688  1.00  0.00     0.158 A 
HETATM   43  F1  UNL     1      47.790  32.546  36.996  1.00  0.00    -0.203 F 
HETATM   44  C9  UNL     1      49.204  31.450  35.432  1.00  0.00     0.193 A 
HETATM   45  F2  UNL     1      49.966  30.969  36.470  1.00  0.00    -0.200 F 
HETATM   46  C10 UNL     1      49.518  31.152  34.133  1.00  0.00     0.158 A 
HETATM   47  F3  UNL     1      50.604  30.367  33.921  1.00  0.00    -0.203 F 
HETATM   48  C11 UNL     1      48.742  31.643  33.105  1.00  0.00     0.055 A 
ENDBRANCH  37  40
ENDBRANCH   8  37
BRANCH   1  49
HETATM   49  N1  UNL     1      49.586  37.610  29.756  1.00  0.00    -0.383 N 
ATOM     50  H12 UNL     1      50.582  37.747  29.585  1.00  0.00     0.157 HD
ATOM     51  H11 UNL     1      48.942  37.973  29.053  1.00  0.00     0.157 HD
ENDBRANCH   1  49
TORSDOF 15
ENDMDL
MODEL 4
REMARK VINA RESULT: -9.996230181      3.377      4.204
REMARK  15 active torsions:
REMARK  status: ('A' for Active; 'I' for Inactive)
REMARK    1  A    between atoms: N1_1  and  C1_4 
REMARK    2  A    between atoms: C4_11  and  C5_12 
REMARK    3  A    between atoms: C5_12  and  O1_13 
REMARK    4  A    between atoms: C5_12  and  C6_15 
REMARK    5  A    between atoms: N4_24  and  C12_25 
REMARK    6  A    between atoms: C12_25  and  C13_26 
REMARK    7  A    between atoms: C17_31  and  N5_32 
REMARK    8  A    between atoms: N5_32  and  S1_34 
REMARK    9  A    between atoms: S1_34  and  C18_37 
REMARK   10  A    between atoms: C18_37  and  C19_38 
REMARK   11  A    between atoms: C19_38  and  C20_39 
REMARK   12  A    between atoms: C20_39  and  C21_40 
REMARK   13  A    between atoms: C21_40  and  C22_41 
REMARK   14  A    between atoms: C22_41  and  C23_42 
REMARK   15  A    between atoms: C23_42  and  N6_43 
ROOT
HETATM    1  C1  UNL     1      50.298  36.931  31.794  1.00  0.00     0.130 A 
HETATM    2  N2  UNL     1      49.605  37.680  32.656  1.00  0.00    -0.337 N 
ATOM      3  H2  UNL     1      49.821  38.674  32.739  1.00  0.00     0.168 HD
HETATM    4  C2  UNL     1      48.624  37.152  33.419  1.00  0.00     0.182 A 
HETATM    5  N3  UNL     1      48.287  35.853  33.361  1.00  0.00    -0.349 N 
ATOM      6  H3  UNL     1      47.542  35.482  33.950  1.00  0.00     0.167 HD
HETATM    7  C3  UNL     1      48.951  35.053  32.511  1.00  0.00     0.092 A 
HETATM    8  C4  UNL     1      48.834  33.705  32.234  1.00  0.00     0.091 A 
HETATM    9  N4  UNL     1      49.744  33.421  31.301  1.00  0.00    -0.286 N 
HETATM   10  N7  UNL     1      50.418  34.550  30.997  1.00  0.00    -0.292 N 
ATOM     11  H7  UNL     1      51.171  34.608  30.311  1.00  0.00     0.187 HD
HETATM   12  C25 UNL     1      49.964  35.582  31.718  1.00  0.00     0.120 A 
ENDROOT
BRANCH   9  13
HETATM   13  C12 UNL     1      50.046  32.185  30.645  1.00  0.00     0.191 C 
BRANCH  13  14
HETATM   14  C13 UNL     1      49.716  32.092  29.221  1.00  0.00     0.005 A 
HETATM   15  C14 UNL     1      50.460  31.246  28.418  1.00  0.00     0.054 A 
HETATM   16  C15 UNL     1      50.130  31.148  27.093  1.00  0.00     0.119 A 
HETATM   17  F4  UNL     1      50.832  30.334  26.273  1.00  0.00    -0.206 F 
HETATM   18  C16 UNL     1      49.067  31.886  26.575  1.00  0.00     0.075 A 
HETATM   19  C17 UNL     1      48.318  32.725  27.350  1.00  0.00     0.084 A 
HETATM   20  C24 UNL     1      48.669  32.813  28.691  1.00  0.00     0.151 A 
HETATM   21  F5  UNL     1      47.903  33.652  29.439  1.00  0.00    -0.203 F 
BRANCH  19  22
HETATM   22  N5  UNL     1      47.264  33.476  26.814  1.00  0.00    -0.281 N 
ATOM     23  H5  UNL     1      47.526  34.315  26.296  1.00  0.00     0.178 HD
BRANCH  22  24
HETATM   24  S1  UNL     1      45.621  33.159  26.923  1.00  0.00     0.231 S 
HETATM   25  O2  UNL     1      44.991  34.372  27.633  1.00  0.00    -0.206 OA
HETATM   26  O3  UNL     1      44.943  33.199  25.545  1.00  0.00    -0.206 OA
BRANCH  24  27
HETATM   27  C18 UNL     1      45.103  31.759  27.821  1.00  0.00     0.163 C 
BRANCH  27  28
HETATM   28  C19 UNL     1      45.130  31.895  29.312  1.00  0.00     0.017 C 
BRANCH  28  29
HETATM   29  C20 UNL     1      45.856  30.778  30.001  1.00  0.00     0.001 C 
BRANCH  29  30
HETATM   30  C21 UNL     1      46.522  29.860  28.999  1.00  0.00     0.002 C 
BRANCH  30  31
HETATM   31  C22 UNL     1      47.611  29.018  29.615  1.00  0.00     0.027 C 
BRANCH  31  32
HETATM   32  C23 UNL     1      47.755  29.332  31.100  1.00  0.00     0.229 C 
BRANCH  32  33
HETATM   33  N6  UNL     1      49.008  28.781  31.558  1.00  0.00    -0.079 N 
ATOM     34  H63 UNL     1      49.591  29.471  32.033  1.00  0.00     0.274 HD
ATOM     35  H62 UNL     1      48.892  28.136  32.340  1.00  0.00     0.274 HD
ATOM     36  H61 UNL     1      49.478  28.351  30.761  1.00  0.00     0.274 HD
ENDBRANCH  32  33
ENDBRANCH  31  32
ENDBRANCH  30  31
ENDBRANCH  29  30
ENDBRANCH  28  29
ENDBRANCH  27  28
ENDBRANCH  24  27
ENDBRANCH  22  24
ENDBRANCH  19  22
ENDBRANCH  13  14
ENDBRANCH   9  13
BRANCH   8  37
HETATM   37  C5  UNL     1      47.861  32.798  32.824  1.00  0.00     0.205 C 
BRANCH  37  38
HETATM   38  O1  UNL     1      46.518  33.208  32.658  1.00  0.00    -0.385 OA
ATOM     39  H1  UNL     1      45.902  32.489  32.573  1.00  0.00     0.211 HD
ENDBRANCH  37  38
BRANCH  37  40
HETATM   40  C6  UNL     1      48.120  32.385  34.225  1.00  0.00    -0.018 A 
HETATM   41  C7  UNL     1      47.329  32.901  35.234  1.00  0.00     0.055 A 
HETATM   42  C8  UNL     1      47.528  32.567  36.554  1.00  0.00     0.158 A 
HETATM   43  F1  UNL     1      46.725  33.100  37.542  1.00  0.00    -0.203 F 
HETATM   44  C9  UNL     1      48.534  31.697  36.904  1.00  0.00     0.193 A 
HETATM   45  F2  UNL     1      48.730  31.365  38.224  1.00  0.00    -0.200 F 
HETATM   46  C10 UNL     1      49.329  31.172  35.921  1.00  0.00     0.158 A 
HETATM   47  F3  UNL     1      50.310  30.317  36.307  1.00  0.00    -0.203 F 
HETATM   48  C11 UNL     1      49.118  31.517  34.604  1.00  0.00     0.055 A 
ENDBRANCH  37  40
ENDBRANCH   8  37
BRANCH   1  49
HETATM   49  N1  UNL     1      51.245  37.346  31.029  1.00  0.00    -0.383 N 
ATOM     50  H12 UNL     1      52.141  36.862  31.093  1.00  0.00     0.157 HD
ATOM     51  H11 UNL     1      51.181  38.115  30.362  1.00  0.00     0.157 HD
ENDBRANCH   1  49
TORSDOF 15
ENDMDL
MODEL 5
REMARK VINA RESULT: -9.922929762      2.858      4.761
REMARK  15 active torsions:
REMARK  status: ('A' for Active; 'I' for Inactive)
REMARK    1  A    between atoms: N1_1  and  C1_4 
REMARK    2  A    between atoms: C4_11  and  C5_12 
REMARK    3  A    between atoms: C5_12  and  O1_13 
REMARK    4  A    between atoms: C5_12  and  C6_15 
REMARK    5  A    between atoms: N4_24  and  C12_25 
REMARK    6  A    between atoms: C12_25  and  C13_26 
REMARK    7  A    between atoms: C17_31  and  N5_32 
REMARK    8  A    between atoms: N5_32  and  S1_34 
REMARK    9  A    between atoms: S1_34  and  C18_37 
REMARK   10  A    between atoms: C18_37  and  C19_38 
REMARK   11  A    between atoms: C19_38  and  C20_39 
REMARK   12  A    between atoms: C20_39  and  C21_40 
REMARK   13  A    between atoms: C21_40  and  C22_41 
REMARK   14  A    between atoms: C22_41  and  C23_42 
REMARK   15  A    between atoms: C23_42  and  N6_43 
ROOT
HETATM    1  C1  UNL     1      49.830  37.005  31.499  1.00  0.00     0.130 A 
HETATM    2  N2  UNL     1      49.596  37.611  32.665  1.00  0.00    -0.337 N 
ATOM      3  H2  UNL     1      49.992  38.536  32.835  1.00  0.00     0.168 HD
HETATM    4  C2  UNL     1      48.849  37.027  33.627  1.00  0.00     0.182 A 
HETATM    5  N3  UNL     1      48.299  35.811  33.472  1.00  0.00    -0.349 N 
ATOM      6  H3  UNL     1      47.739  35.395  34.216  1.00  0.00     0.167 HD
HETATM    7  C3  UNL     1      48.501  35.156  32.317  1.00  0.00     0.092 A 
HETATM    8  C4  UNL     1      48.074  33.919  31.874  1.00  0.00     0.091 A 
HETATM    9  N4  UNL     1      48.564  33.759  30.644  1.00  0.00    -0.286 N 
HETATM   10  N7  UNL     1      49.278  34.855  30.317  1.00  0.00    -0.292 N 
ATOM     11  H7  UNL     1      49.761  34.988  29.428  1.00  0.00     0.187 HD
HETATM   12  C25 UNL     1      49.268  35.745  31.317  1.00  0.00     0.120 A 
ENDROOT
BRANCH   9  13
HETATM   13  C12 UNL     1      48.420  32.673  29.723  1.00  0.00     0.191 C 
BRANCH  13  14
HETATM   14  C13 UNL     1      48.977  31.380  30.128  1.00  0.00     0.005 A 
HETATM   15  C14 UNL     1      48.124  30.415  30.634  1.00  0.00     0.054 A 
HETATM   16  C15 UNL     1      48.651  29.203  30.989  1.00  0.00     0.119 A 
HETATM   17  F4  UNL     1      47.853  28.232  31.488  1.00  0.00    -0.206 F 
HETATM   18  C16 UNL     1      50.015  28.954  30.840  1.00  0.00     0.075 A 
HETATM   19  C17 UNL     1      50.874  29.892  30.341  1.00  0.00     0.084 A 
HETATM   20  C24 UNL     1      50.322  31.116  29.988  1.00  0.00     0.151 A 
HETATM   21  F5  UNL     1      51.200  32.029  29.490  1.00  0.00    -0.203 F 
BRANCH  19  22
HETATM   22  N5  UNL     1      52.246  29.638  30.213  1.00  0.00    -0.281 N 
ATOM     23  H5  UNL     1      52.511  28.941  29.517  1.00  0.00     0.178 HD
BRANCH  22  24
HETATM   24  S1  UNL     1      53.503  30.344  31.069  1.00  0.00     0.231 S 
HETATM   25  O2  UNL     1      52.880  30.928  32.351  1.00  0.00    -0.206 OA
HETATM   26  O3  UNL     1      54.471  29.290  31.627  1.00  0.00    -0.206 OA
BRANCH  24  27
HETATM   27  C18 UNL     1      54.381  31.651  30.327  1.00  0.00     0.163 C 
BRANCH  27  28
HETATM   28  C19 UNL     1      54.732  31.464  28.883  1.00  0.00     0.017 C 
BRANCH  28  29
HETATM   29  C20 UNL     1      56.196  31.235  28.648  1.00  0.00     0.001 C 
BRANCH  29  30
HETATM   30  C21 UNL     1      56.422  30.277  27.499  1.00  0.00     0.002 C 
BRANCH  30  31
HETATM   31  C22 UNL     1      57.232  29.070  27.898  1.00  0.00     0.027 C 
BRANCH  31  32
HETATM   32  C23 UNL     1      57.157  28.851  29.405  1.00  0.00     0.229 C 
BRANCH  32  33
HETATM   33  N6  UNL     1      56.219  27.783  29.660  1.00  0.00    -0.079 N 
ATOM     34  H63 UNL     1      56.179  27.105  28.899  1.00  0.00     0.274 HD
ATOM     35  H62 UNL     1      56.534  27.148  30.394  1.00  0.00     0.274 HD
ATOM     36  H61 UNL     1      55.311  28.199  29.864  1.00  0.00     0.274 HD
ENDBRANCH  32  33
ENDBRANCH  31  32
ENDBRANCH  30  31
ENDBRANCH  29  30
ENDBRANCH  28  29
ENDBRANCH  27  28
ENDBRANCH  24  27
ENDBRANCH  22  24
ENDBRANCH  19  22
ENDBRANCH  13  14
ENDBRANCH   9  13
BRANCH   8  37
HETATM   37  C5  UNL     1      47.213  33.005  32.609  1.00  0.00     0.205 C 
BRANCH  37  38
HETATM   38  O1  UNL     1      45.862  33.417  32.680  1.00  0.00    -0.385 OA
ATOM     39  H1  UNL     1      45.332  32.901  33.275  1.00  0.00     0.211 HD
ENDBRANCH  37  38
BRANCH  37  40
HETATM   40  C6  UNL     1      47.706  32.571  33.939  1.00  0.00    -0.018 A 
HETATM   41  C7  UNL     1      48.812  31.745  34.008  1.00  0.00     0.055 A 
HETATM   42  C8  UNL     1      49.309  31.298  35.211  1.00  0.00     0.158 A 
HETATM   43  F1  UNL     1      50.415  30.472  35.250  1.00  0.00    -0.203 F 
HETATM   44  C9  UNL     1      48.708  31.669  36.390  1.00  0.00     0.193 A 
HETATM   45  F2  UNL     1      49.207  31.220  37.589  1.00  0.00    -0.200 F 
HETATM   46  C10 UNL     1      47.611  32.487  36.347  1.00  0.00     0.158 A 
HETATM   47  F3  UNL     1      47.046  32.831  37.531  1.00  0.00    -0.203 F 
HETATM   48  C11 UNL     1      47.124  32.927  35.134  1.00  0.00     0.055 A 
ENDBRANCH  37  40
ENDBRANCH   8  37
BRANCH   1  49
HETATM   49  N1  UNL     1      50.526  37.482  30.528  1.00  0.00    -0.383 N 
ATOM     50  H12 UNL     1      51.321  36.928  30.209  1.00  0.00     0.157 HD
ATOM     51  H11 UNL     1      50.355  38.366  30.049  1.00  0.00     0.157 HD
ENDBRANCH   1  49
TORSDOF 15
ENDMDL
