MODEL 1
REMARK VINA RESULT: -7.941383557      0.000      0.000
REMARK  3 active torsions:
REMARK  status: ('A' for Active; 'I' for Inactive)
REMARK    1  A    between atoms: C5_11  and  C6_12 
REMARK    2  A    between atoms: C7_13  and  N3_14 
REMARK    3  A    between atoms: N3_14  and  C8_16 
ROOT
HETATM    1  C6  UNL     1      36.703  48.943   8.984  1.00  0.00     0.036 C 
HETATM    2  C7  UNL     1      36.639  47.977   8.151  1.00  0.00     0.107 C 
ENDROOT
BRANCH   1   3
HETATM    3  C5  UNL     1      35.765  49.775   9.677  1.00  0.00     0.056 A 
HETATM    4  C2  UNL     1      35.879  51.177   9.601  1.00  0.00     0.025 A 
HETATM    5  C1  UNL     1      36.988  51.785   8.792  1.00  0.00     0.069 C 
HETATM    6  N1  UNL     1      35.051  52.032  10.211  1.00  0.00    -0.312 N 
HETATM    7  C3  UNL     1      34.049  51.525  10.944  1.00  0.00     0.327 A 
ATOM      8  H1  UNL     1      35.179  53.039  10.121  1.00  0.00     0.170 HD
HETATM    9  O1  UNL     1      33.254  52.301  11.528  1.00  0.00    -0.247 OA
HETATM   10  N2  UNL     1      33.898  50.200  11.048  1.00  0.00    -0.275 N 
HETATM   11  C4  UNL     1      34.729  49.309  10.435  1.00  0.00     0.261 A 
ATOM     12  H2  UNL     1      33.128  49.840  11.611  1.00  0.00     0.173 HD
HETATM   13  O2  UNL     1      34.473  48.091  10.617  1.00  0.00    -0.267 OA
ENDBRANCH   1   3
BRANCH   2  14
HETATM   14  N3  UNL     1      35.565  47.339   7.577  1.00  0.00    -0.199 N 
ATOM     15  H3  UNL     1      35.523  47.341   6.558  1.00  0.00     0.183 HD
BRANCH  14  16
HETATM   16  C8  UNL     1      34.606  46.738   8.194  1.00  0.00     0.713 A 
HETATM   17  N4  UNL     1      34.630  45.737   9.070  1.00  0.00    -0.115 N 
HETATM   18  N5  UNL     1      33.371  45.483   9.411  1.00  0.00    -0.213 N 
ATOM     19  H4  UNL     1      35.459  45.255   9.416  1.00  0.00     0.207 HD
HETATM   20  N6  UNL     1      32.551  46.295   8.776  1.00  0.00    -0.213 N 
ATOM     21  H5  UNL     1      33.081  44.761  10.070  1.00  0.00     0.210 HD
HETATM   22  N7  UNL     1      33.313  47.072   8.023  1.00  0.00    -0.115 N 
ATOM     23  H6  UNL     1      31.534  46.319   8.850  1.00  0.00     0.210 HD
ATOM     24  H7  UNL     1      32.973  47.810   7.408  1.00  0.00     0.207 HD
ENDBRANCH  14  16
ENDBRANCH   2  14
TORSDOF 3
ENDMDL
MODEL 2
REMARK VINA RESULT: -7.819551634      2.039      2.881
REMARK  3 active torsions:
REMARK  status: ('A' for Active; 'I' for Inactive)
REMARK    1  A    between atoms: C5_11  and  C6_12 
REMARK    2  A    between atoms: C7_13  and  N3_14 
REMARK    3  A    between atoms: N3_14  and  C8_16 
ROOT
HETATM    1  C6  UNL     1      34.153  49.692  10.354  1.00  0.00     0.036 C 
HETATM    2  C7  UNL     1      33.619  48.667   9.808  1.00  0.00     0.107 C 
ENDROOT
BRANCH   1   3
HETATM    3  C5  UNL     1      35.216  50.597  10.033  1.00  0.00     0.056 A 
HETATM    4  C2  UNL     1      35.307  51.837  10.696  1.00  0.00     0.025 A 
HETATM    5  C1  UNL     1      34.282  52.196  11.734  1.00  0.00     0.069 C 
HETATM    6  N1  UNL     1      36.262  52.743  10.467  1.00  0.00    -0.312 N 
HETATM    7  C3  UNL     1      37.194  52.457   9.546  1.00  0.00     0.327 A 
ATOM      8  H1  UNL     1      36.281  53.626  10.977  1.00  0.00     0.170 HD
HETATM    9  O1  UNL     1      38.105  53.287   9.307  1.00  0.00    -0.247 OA
HETATM   10  N2  UNL     1      37.153  51.294   8.888  1.00  0.00    -0.275 N 
HETATM   11  C4  UNL     1      36.188  50.354   9.106  1.00  0.00     0.261 A 
ATOM     12  H2  UNL     1      37.873  51.100   8.193  1.00  0.00     0.173 HD
HETATM   13  O2  UNL     1      36.268  49.304   8.418  1.00  0.00    -0.267 OA
ENDBRANCH   1   3
BRANCH   2  14
HETATM   14  N3  UNL     1      33.892  48.018   8.629  1.00  0.00    -0.199 N 
ATOM     15  H3  UNL     1      33.812  48.569   7.774  1.00  0.00     0.183 HD
BRANCH  14  16
HETATM   16  C8  UNL     1      34.239  46.784   8.490  1.00  0.00     0.713 A 
HETATM   17  N4  UNL     1      33.505  45.674   8.459  1.00  0.00    -0.115 N 
HETATM   18  N5  UNL     1      34.341  44.655   8.295  1.00  0.00    -0.213 N 
ATOM     19  H4  UNL     1      32.491  45.616   8.545  1.00  0.00     0.207 HD
HETATM   20  N6  UNL     1      35.583  45.087   8.220  1.00  0.00    -0.213 N 
ATOM     21  H5  UNL     1      34.062  43.676   8.234  1.00  0.00     0.210 HD
HETATM   22  N7  UNL     1      35.521  46.404   8.341  1.00  0.00    -0.115 N 
ATOM     23  H6  UNL     1      36.422  44.522   8.096  1.00  0.00     0.210 HD
ATOM     24  H7  UNL     1      36.323  47.034   8.324  1.00  0.00     0.207 HD
ENDBRANCH  14  16
ENDBRANCH   2  14
TORSDOF 3
ENDMDL
MODEL 3
REMARK VINA RESULT: -7.683585448      1.026      1.301
REMARK  3 active torsions:
REMARK  status: ('A' for Active; 'I' for Inactive)
REMARK    1  A    between atoms: C5_11  and  C6_12 
REMARK    2  A    between atoms: C7_13  and  N3_14 
REMARK    3  A    between atoms: N3_14  and  C8_16 
ROOT
HETATM    1  C6  UNL     1      36.304  50.057   8.841  1.00  0.00     0.036 C 
HETATM    2  C7  UNL     1      36.617  48.879   8.459  1.00  0.00     0.107 C 
ENDROOT
BRANCH   1   3
HETATM    3  C5  UNL     1      35.515  50.628   9.892  1.00  0.00     0.056 A 
HETATM    4  C2  UNL     1      35.849  51.893  10.413  1.00  0.00     0.025 A 
HETATM    5  C1  UNL     1      37.035  52.630   9.860  1.00  0.00     0.069 C 
HETATM    6  N1  UNL     1      35.172  52.506  11.389  1.00  0.00    -0.312 N 
HETATM    7  C3  UNL     1      34.107  51.877  11.909  1.00  0.00     0.327 A 
ATOM      8  H1  UNL     1      35.457  53.424  11.730  1.00  0.00     0.170 HD
HETATM    9  O1  UNL     1      33.450  52.425  12.827  1.00  0.00    -0.247 OA
HETATM   10  N2  UNL     1      33.749  50.673  11.449  1.00  0.00    -0.275 N 
HETATM   11  C4  UNL     1      34.424  50.030  10.454  1.00  0.00     0.261 A 
ATOM     12  H2  UNL     1      32.936  50.216  11.861  1.00  0.00     0.173 HD
HETATM   13  O2  UNL     1      33.979  48.902  10.117  1.00  0.00    -0.267 OA
ENDBRANCH   1   3
BRANCH   2  14
HETATM   14  N3  UNL     1      36.285  47.642   8.957  1.00  0.00    -0.199 N 
ATOM     15  H3  UNL     1      36.950  47.215   9.602  1.00  0.00     0.183 HD
BRANCH  14  16
HETATM   16  C8  UNL     1      35.219  46.966   8.695  1.00  0.00     0.713 A 
HETATM   17  N4  UNL     1      34.526  46.842   7.565  1.00  0.00    -0.115 N 
HETATM   18  N5  UNL     1      33.506  46.029   7.818  1.00  0.00    -0.213 N 
ATOM     19  H4  UNL     1      34.737  47.288   6.673  1.00  0.00     0.207 HD
HETATM   20  N6  UNL     1      33.535  45.633   9.074  1.00  0.00    -0.213 N 
ATOM     21  H5  UNL     1      32.801  45.750   7.136  1.00  0.00     0.210 HD
HETATM   22  N7  UNL     1      34.594  46.212   9.617  1.00  0.00    -0.115 N 
ATOM     23  H6  UNL     1      32.874  45.008   9.534  1.00  0.00     0.210 HD
ATOM     24  H7  UNL     1      34.890  46.103  10.587  1.00  0.00     0.207 HD
ENDBRANCH  14  16
ENDBRANCH   2  14
TORSDOF 3
ENDMDL
MODEL 4
REMARK VINA RESULT: -6.741211461      1.644      2.214
REMARK  3 active torsions:
REMARK  status: ('A' for Active; 'I' for Inactive)
REMARK    1  A    between atoms: C5_11  and  C6_12 
REMARK    2  A    between atoms: C7_13  and  N3_14 
REMARK    3  A    between atoms: N3_14  and  C8_16 
ROOT
HETATM    1  C6  UNL     1      36.070  50.283   8.709  1.00  0.00     0.036 C 
HETATM    2  C7  UNL     1      36.417  49.086   8.425  1.00  0.00     0.107 C 
ENDROOT
BRANCH   1   3
HETATM    3  C5  UNL     1      35.376  50.931   9.782  1.00  0.00     0.056 A 
HETATM    4  C2  UNL     1      34.011  50.660  10.001  1.00  0.00     0.025 A 
HETATM    5  C1  UNL     1      33.297  49.692   9.102  1.00  0.00     0.069 C 
HETATM    6  N1  UNL     1      33.282  51.213  10.975  1.00  0.00    -0.312 N 
HETATM    7  C3  UNL     1      33.887  52.084  11.797  1.00  0.00     0.327 A 
ATOM      8  H1  UNL     1      32.297  50.981  11.090  1.00  0.00     0.170 HD
HETATM    9  O1  UNL     1      33.230  52.621  12.723  1.00  0.00    -0.247 OA
HETATM   10  N2  UNL     1      35.181  52.376  11.631  1.00  0.00    -0.275 N 
HETATM   11  C4  UNL     1      35.944  51.823  10.645  1.00  0.00     0.261 A 
ATOM     12  H2  UNL     1      35.617  53.041  12.270  1.00  0.00     0.173 HD
HETATM   13  O2  UNL     1      37.148  52.185  10.602  1.00  0.00    -0.267 OA
ENDBRANCH   1   3
BRANCH   2  14
HETATM   14  N3  UNL     1      36.236  47.902   9.098  1.00  0.00    -0.199 N 
ATOM     15  H3  UNL     1      36.945  47.656   9.789  1.00  0.00     0.183 HD
BRANCH  14  16
HETATM   16  C8  UNL     1      35.263  47.070   8.947  1.00  0.00     0.713 A 
HETATM   17  N4  UNL     1      34.499  46.455   9.847  1.00  0.00    -0.115 N 
HETATM   18  N5  UNL     1      33.637  45.698   9.178  1.00  0.00    -0.213 N 
ATOM     19  H4  UNL     1      34.564  46.548  10.860  1.00  0.00     0.207 HD
HETATM   20  N6  UNL     1      33.831  45.816   7.881  1.00  0.00    -0.213 N 
ATOM     21  H5  UNL     1      32.924  45.108   9.608  1.00  0.00     0.210 HD
HETATM   22  N7  UNL     1      34.837  46.665   7.736  1.00  0.00    -0.115 N 
ATOM     23  H6  UNL     1      33.312  45.348   7.138  1.00  0.00     0.210 HD
ATOM     24  H7  UNL     1      35.229  46.965   6.844  1.00  0.00     0.207 HD
ENDBRANCH  14  16
ENDBRANCH   2  14
TORSDOF 3
ENDMDL
MODEL 5
REMARK VINA RESULT: -6.625328831      1.751      4.937
REMARK  3 active torsions:
REMARK  status: ('A' for Active; 'I' for Inactive)
REMARK    1  A    between atoms: C5_11  and  C6_12 
REMARK    2  A    between atoms: C7_13  and  N3_14 
REMARK    3  A    between atoms: N3_14  and  C8_16 
ROOT
HETATM    1  C6  UNL     1      36.182  50.579   8.701  1.00  0.00     0.036 C 
HETATM    2  C7  UNL     1      36.167  51.806   9.055  1.00  0.00     0.107 C 
ENDROOT
BRANCH   1   3
HETATM    3  C5  UNL     1      35.346  49.433   8.904  1.00  0.00     0.056 A 
HETATM    4  C2  UNL     1      35.909  48.142   8.900  1.00  0.00     0.025 A 
HETATM    5  C1  UNL     1      37.386  47.982   8.681  1.00  0.00     0.069 C 
HETATM    6  N1  UNL     1      35.210  47.018   9.083  1.00  0.00    -0.312 N 
HETATM    7  C3  UNL     1      33.887  47.122   9.281  1.00  0.00     0.327 A 
ATOM      8  H1  UNL     1      35.669  46.107   9.072  1.00  0.00     0.170 HD
HETATM    9  O1  UNL     1      33.203  46.085   9.456  1.00  0.00    -0.247 OA
HETATM   10  N2  UNL     1      33.304  48.325   9.293  1.00  0.00    -0.275 N 
HETATM   11  C4  UNL     1      33.997  49.486   9.110  1.00  0.00     0.261 A 
ATOM     12  H2  UNL     1      32.297  48.378   9.446  1.00  0.00     0.173 HD
HETATM   13  O2  UNL     1      33.324  50.549   9.145  1.00  0.00    -0.267 OA
ENDBRANCH   1   3
BRANCH   2  14
HETATM   14  N3  UNL     1      35.275  52.523   9.814  1.00  0.00    -0.199 N 
ATOM     15  H3  UNL     1      34.871  53.355   9.382  1.00  0.00     0.183 HD
BRANCH  14  16
HETATM   16  C8  UNL     1      34.894  52.255  11.016  1.00  0.00     0.713 A 
HETATM   17  N4  UNL     1      35.601  51.970  12.107  1.00  0.00    -0.115 N 
HETATM   18  N5  UNL     1      34.735  51.772  13.095  1.00  0.00    -0.213 N 
ATOM     19  H4  UNL     1      36.617  51.915  12.173  1.00  0.00     0.207 HD
HETATM   20  N6  UNL     1      33.501  51.924  12.662  1.00  0.00    -0.213 N 
ATOM     21  H5  UNL     1      34.990  51.536  14.054  1.00  0.00     0.210 HD
HETATM   22  N7  UNL     1      33.598  52.223  11.376  1.00  0.00    -0.115 N 
ATOM     23  H6  UNL     1      32.645  51.829  13.207  1.00  0.00     0.210 HD
ATOM     24  H7  UNL     1      32.810  52.401  10.753  1.00  0.00     0.207 HD
ENDBRANCH  14  16
ENDBRANCH   2  14
TORSDOF 3
ENDMDL
