MODEL 1
REMARK VINA RESULT: -6.681276975      0.000      0.000
REMARK  7 active torsions:
REMARK  status: ('A' for Active; 'I' for Inactive)
REMARK    1  A    between atoms: N1_2  and  C2_3 
REMARK       I    between atoms: N1_2  and  C11_26 
REMARK    2  A    between atoms: C2_3  and  C3_4 
REMARK    3  A    between atoms: C3_4  and  N2_5 
REMARK    4  A    between atoms: N2_5  and  C4_8 
REMARK    5  A    between atoms: C4_8  and  C5_9 
REMARK    6  A    between atoms: C6_10  and  N3_11 
REMARK    7  A    between atoms: C10_21  and  N5_22 
REMARK       I    between atoms: C11_26  and  N6_27 
REMARK       I    between atoms: C11_26  and  N7_31 
ROOT
HETATM    1  C5  UNL     1      40.794  29.698  19.536  1.00  0.00     0.073 C 
HETATM    2  C6  UNL     1      40.612  31.107  19.086  1.00  0.00     0.192 C 
HETATM    3  C7  UNL     1      39.171  31.413  18.721  1.00  0.00     0.060 C 
HETATM    4  C8  UNL     1      38.235  31.106  19.867  1.00  0.00     0.234 C 
HETATM    5  N4  UNL     1      37.693  29.789  19.863  1.00  0.00    -0.073 N 
ATOM      6  H41 UNL     1      37.241  29.594  18.970  1.00  0.00     0.277 HD
ATOM      7  H42 UNL     1      36.885  29.736  20.484  1.00  0.00     0.277 HD
HETATM    8  C9  UNL     1      38.631  28.759  20.180  1.00  0.00     0.265 C 
HETATM    9  C10 UNL     1      39.710  28.752  19.089  1.00  0.00     0.216 C 
ENDROOT
BRANCH   1  10
HETATM   10  C4  UNL     1      42.175  29.193  19.206  1.00  0.00     0.241 C 
BRANCH  10  11
HETATM   11  N2  UNL     1      42.584  29.610  17.862  1.00  0.00    -0.073 N 
ATOM     12  H22 UNL     1      42.199  30.520  17.614  1.00  0.00     0.277 HD
ATOM     13  H21 UNL     1      42.132  29.051  17.138  1.00  0.00     0.277 HD
BRANCH  11  14
HETATM   14  C3  UNL     1      44.001  29.584  17.742  1.00  0.00     0.262 C 
BRANCH  14  15
HETATM   15  C2  UNL     1      44.579  28.627  16.730  1.00  0.00     0.304 C 
BRANCH  15  16
HETATM   16  N1  UNL     1      44.513  29.344  15.462  1.00  0.00     0.143 N 
HETATM   17  C1  UNL     1      45.857  29.631  14.987  1.00  0.00     0.315 C 
HETATM   18  C11 UNL     1      43.681  28.755  14.477  1.00  0.00     0.611 C 
HETATM   19  N6  UNL     1      42.317  28.712  14.982  1.00  0.00    -0.024 N 
HETATM   20  N7  UNL     1      43.691  29.490  13.245  1.00  0.00    -0.024 N 
ATOM     21  H63 UNL     1      42.250  28.239  15.883  1.00  0.00     0.279 HD
ATOM     22  H62 UNL     1      41.981  29.629  15.279  1.00  0.00     0.279 HD
ATOM     23  H61 UNL     1      41.718  28.288  14.274  1.00  0.00     0.279 HD
ATOM     24  H73 UNL     1      43.444  30.469  13.398  1.00  0.00     0.279 HD
ATOM     25  H72 UNL     1      44.642  29.614  12.898  1.00  0.00     0.279 HD
ATOM     26  H71 UNL     1      43.092  29.067  12.537  1.00  0.00     0.279 HD
ENDBRANCH  15  16
ENDBRANCH  14  15
ENDBRANCH  11  14
ENDBRANCH  10  11
ENDBRANCH   1  10
BRANCH   2  27
HETATM   27  N3  UNL     1      41.048  32.102  20.030  1.00  0.00    -0.074 N 
ATOM     28  H33 UNL     1      40.531  32.011  20.904  1.00  0.00     0.274 HD
ATOM     29  H32 UNL     1      41.990  31.889  20.359  1.00  0.00     0.274 HD
ATOM     30  H31 UNL     1      41.001  33.063  19.691  1.00  0.00     0.274 HD
ENDBRANCH   2  27
BRANCH   9  31
HETATM   31  N5  UNL     1      40.213  27.383  19.024  1.00  0.00    -0.073 N 
ATOM     32  H53 UNL     1      40.698  27.200  18.146  1.00  0.00     0.274 HD
ATOM     33  H52 UNL     1      40.993  27.236  19.664  1.00  0.00     0.274 HD
ATOM     34  H51 UNL     1      39.461  26.713  19.186  1.00  0.00     0.274 HD
ENDBRANCH   9  31
TORSDOF 7
ENDMDL
MODEL 2
REMARK VINA RESULT: -5.953783760      1.068      1.647
REMARK  7 active torsions:
REMARK  status: ('A' for Active; 'I' for Inactive)
REMARK    1  A    between atoms: N1_2  and  C2_3 
REMARK       I    between atoms: N1_2  and  C11_26 
REMARK    2  A    between atoms: C2_3  and  C3_4 
REMARK    3  A    between atoms: C3_4  and  N2_5 
REMARK    4  A    between atoms: N2_5  and  C4_8 
REMARK    5  A    between atoms: C4_8  and  C5_9 
REMARK    6  A    between atoms: C6_10  and  N3_11 
REMARK    7  A    between atoms: C10_21  and  N5_22 
REMARK       I    between atoms: C11_26  and  N6_27 
REMARK       I    between atoms: C11_26  and  N7_31 
ROOT
HETATM    1  C5  UNL     1      40.815  30.078  19.236  1.00  0.00     0.073 C 
HETATM    2  C6  UNL     1      40.503  31.522  19.041  1.00  0.00     0.192 C 
HETATM    3  C7  UNL     1      39.017  31.769  18.852  1.00  0.00     0.060 C 
HETATM    4  C8  UNL     1      38.215  31.214  20.006  1.00  0.00     0.234 C 
HETATM    5  N4  UNL     1      37.759  29.876  19.831  1.00  0.00    -0.073 N 
ATOM      6  H41 UNL     1      37.238  29.790  18.959  1.00  0.00     0.277 HD
ATOM      7  H42 UNL     1      37.019  29.663  20.500  1.00  0.00     0.277 HD
HETATM    8  C9  UNL     1      38.786  28.884  19.896  1.00  0.00     0.265 C 
HETATM    9  C10 UNL     1      39.755  29.133  18.732  1.00  0.00     0.216 C 
ENDROOT
BRANCH   1  10
HETATM   10  C4  UNL     1      42.188  29.740  18.714  1.00  0.00     0.241 C 
BRANCH  10  11
HETATM   11  N2  UNL     1      42.607  30.686  17.676  1.00  0.00    -0.073 N 
ATOM     12  H22 UNL     1      43.525  31.083  17.873  1.00  0.00     0.277 HD
ATOM     13  H21 UNL     1      42.059  31.546  17.704  1.00  0.00     0.277 HD
BRANCH  11  14
HETATM   14  C3  UNL     1      42.560  30.070  16.394  1.00  0.00     0.262 C 
BRANCH  14  15
HETATM   15  C2  UNL     1      43.214  28.718  16.266  1.00  0.00     0.304 C 
BRANCH  15  16
HETATM   16  N1  UNL     1      44.351  28.938  15.380  1.00  0.00     0.143 N 
HETATM   17  C1  UNL     1      43.879  29.298  14.053  1.00  0.00     0.315 C 
HETATM   18  C11 UNL     1      45.347  29.815  15.880  1.00  0.00     0.611 C 
HETATM   19  N6  UNL     1      45.898  29.248  17.102  1.00  0.00    -0.024 N 
HETATM   20  N7  UNL     1      46.416  30.015  14.945  1.00  0.00    -0.024 N 
ATOM     21  H63 UNL     1      45.178  29.039  17.794  1.00  0.00     0.279 HD
ATOM     22  H62 UNL     1      46.245  28.298  16.969  1.00  0.00     0.279 HD
ATOM     23  H61 UNL     1      46.614  29.878  17.462  1.00  0.00     0.279 HD
ATOM     24  H73 UNL     1      46.821  29.126  14.652  1.00  0.00     0.279 HD
ATOM     25  H72 UNL     1      46.061  30.337  14.044  1.00  0.00     0.279 HD
ATOM     26  H71 UNL     1      47.132  30.645  15.305  1.00  0.00     0.279 HD
ENDBRANCH  15  16
ENDBRANCH  14  15
ENDBRANCH  11  14
ENDBRANCH  10  11
ENDBRANCH   1  10
BRANCH   2  27
HETATM   27  N3  UNL     1      40.963  32.387  20.095  1.00  0.00    -0.074 N 
ATOM     28  H33 UNL     1      41.565  33.117  19.716  1.00  0.00     0.274 HD
ATOM     29  H32 UNL     1      40.193  32.957  20.446  1.00  0.00     0.274 HD
ATOM     30  H31 UNL     1      41.430  31.909  20.866  1.00  0.00     0.274 HD
ENDBRANCH   2  27
BRANCH   9  31
HETATM   31  N5  UNL     1      40.335  27.835  18.402  1.00  0.00    -0.073 N 
ATOM     32  H53 UNL     1      40.756  27.834  17.474  1.00  0.00     0.274 HD
ATOM     33  H52 UNL     1      41.173  27.644  18.951  1.00  0.00     0.274 HD
ATOM     34  H51 UNL     1      39.642  27.093  18.502  1.00  0.00     0.274 HD
ENDBRANCH   9  31
TORSDOF 7
ENDMDL
MODEL 3
REMARK VINA RESULT: -5.858962301      0.620      2.226
REMARK  7 active torsions:
REMARK  status: ('A' for Active; 'I' for Inactive)
REMARK    1  A    between atoms: N1_2  and  C2_3 
REMARK       I    between atoms: N1_2  and  C11_26 
REMARK    2  A    between atoms: C2_3  and  C3_4 
REMARK    3  A    between atoms: C3_4  and  N2_5 
REMARK    4  A    between atoms: N2_5  and  C4_8 
REMARK    5  A    between atoms: C4_8  and  C5_9 
REMARK    6  A    between atoms: C6_10  and  N3_11 
REMARK    7  A    between atoms: C10_21  and  N5_22 
REMARK       I    between atoms: C11_26  and  N6_27 
REMARK       I    between atoms: C11_26  and  N7_31 
ROOT
HETATM    1  C5  UNL     1      40.551  29.501  19.149  1.00  0.00     0.073 C 
HETATM    2  C6  UNL     1      40.166  28.165  19.685  1.00  0.00     0.192 C 
HETATM    3  C7  UNL     1      38.898  28.223  20.518  1.00  0.00     0.060 C 
HETATM    4  C8  UNL     1      37.751  28.822  19.735  1.00  0.00     0.234 C 
HETATM    5  N4  UNL     1      37.605  30.232  19.869  1.00  0.00    -0.073 N 
ATOM      6  H41 UNL     1      37.540  30.490  20.854  1.00  0.00     0.277 HD
ATOM      7  H42 UNL     1      36.682  30.525  19.549  1.00  0.00     0.277 HD
HETATM    8  C9  UNL     1      38.621  31.000  19.222  1.00  0.00     0.265 C 
HETATM    9  C10 UNL     1      39.961  30.670  19.893  1.00  0.00     0.216 C 
ENDROOT
BRANCH   1  10
HETATM   10  C4  UNL     1      42.045  29.613  18.984  1.00  0.00     0.241 C 
BRANCH  10  11
HETATM   11  N2  UNL     1      42.389  30.295  17.734  1.00  0.00    -0.073 N 
ATOM     12  H22 UNL     1      42.006  31.239  17.699  1.00  0.00     0.277 HD
ATOM     13  H21 UNL     1      41.892  29.899  16.936  1.00  0.00     0.277 HD
BRANCH  11  14
HETATM   14  C3  UNL     1      43.798  30.289  17.535  1.00  0.00     0.262 C 
BRANCH  14  15
HETATM   15  C2  UNL     1      44.373  29.110  16.792  1.00  0.00     0.304 C 
BRANCH  15  16
HETATM   16  N1  UNL     1      44.388  29.524  15.394  1.00  0.00     0.143 N 
HETATM   17  C1  UNL     1      45.759  29.704  14.947  1.00  0.00     0.315 C 
HETATM   18  C11 UNL     1      43.611  28.724  14.518  1.00  0.00     0.611 C 
HETATM   19  N6  UNL     1      42.219  28.787  14.938  1.00  0.00    -0.024 N 
HETATM   20  N7  UNL     1      43.699  29.164  13.156  1.00  0.00    -0.024 N 
ATOM     21  H63 UNL     1      42.095  28.527  15.917  1.00  0.00     0.279 HD
ATOM     22  H62 UNL     1      41.873  29.745  15.001  1.00  0.00     0.279 HD
ATOM     23  H61 UNL     1      41.660  28.211  14.309  1.00  0.00     0.279 HD
ATOM     24  H73 UNL     1      43.451  30.150  13.070  1.00  0.00     0.279 HD
ATOM     25  H72 UNL     1      44.670  29.212  12.847  1.00  0.00     0.279 HD
ATOM     26  H71 UNL     1      43.140  28.589  12.526  1.00  0.00     0.279 HD
ENDBRANCH  15  16
ENDBRANCH  14  15
ENDBRANCH  11  14
ENDBRANCH  10  11
ENDBRANCH   1  10
BRANCH   2  27
HETATM   27  N3  UNL     1      39.992  27.142  18.689  1.00  0.00    -0.074 N 
ATOM     28  H33 UNL     1      39.233  26.514  18.955  1.00  0.00     0.274 HD
ATOM     29  H32 UNL     1      39.599  27.542  17.836  1.00  0.00     0.274 HD
ATOM     30  H31 UNL     1      40.833  26.607  18.473  1.00  0.00     0.274 HD
ENDBRANCH   2  27
BRANCH   9  31
HETATM   31  N5  UNL     1      40.797  31.857  19.738  1.00  0.00    -0.073 N 
ATOM     32  H53 UNL     1      40.347  32.688  20.119  1.00  0.00     0.274 HD
ATOM     33  H52 UNL     1      41.612  31.829  20.350  1.00  0.00     0.274 HD
ATOM     34  H51 UNL     1      41.063  31.986  18.761  1.00  0.00     0.274 HD
ENDBRANCH   9  31
TORSDOF 7
ENDMDL
MODEL 4
REMARK VINA RESULT: -5.812180099      1.434      6.509
REMARK  7 active torsions:
REMARK  status: ('A' for Active; 'I' for Inactive)
REMARK    1  A    between atoms: N1_2  and  C2_3 
REMARK       I    between atoms: N1_2  and  C11_26 
REMARK    2  A    between atoms: C2_3  and  C3_4 
REMARK    3  A    between atoms: C3_4  and  N2_5 
REMARK    4  A    between atoms: N2_5  and  C4_8 
REMARK    5  A    between atoms: C4_8  and  C5_9 
REMARK    6  A    between atoms: C6_10  and  N3_11 
REMARK    7  A    between atoms: C10_21  and  N5_22 
REMARK       I    between atoms: C11_26  and  N6_27 
REMARK       I    between atoms: C11_26  and  N7_31 
ROOT
HETATM    1  C5  UNL     1      43.035  29.729  15.840  1.00  0.00     0.073 C 
HETATM    2  C6  UNL     1      43.562  29.725  17.234  1.00  0.00     0.192 C 
HETATM    3  C7  UNL     1      44.949  29.114  17.323  1.00  0.00     0.060 C 
HETATM    4  C8  UNL     1      45.920  29.815  16.400  1.00  0.00     0.234 C 
HETATM    5  N4  UNL     1      46.027  29.246  15.098  1.00  0.00    -0.073 N 
ATOM      6  H41 UNL     1      46.247  28.252  15.162  1.00  0.00     0.277 HD
ATOM      7  H42 UNL     1      46.869  29.583  14.632  1.00  0.00     0.277 HD
HETATM    8  C9  UNL     1      44.884  29.449  14.265  1.00  0.00     0.265 C 
HETATM    9  C10 UNL     1      43.692  28.735  14.917  1.00  0.00     0.216 C 
ENDROOT
BRANCH   1  10
HETATM   10  C4  UNL     1      41.531  29.628  15.824  1.00  0.00     0.241 C 
BRANCH  10  11
HETATM   11  N2  UNL     1      41.033  28.961  17.030  1.00  0.00    -0.073 N 
ATOM     12  H22 UNL     1      41.791  28.560  17.581  1.00  0.00     0.277 HD
ATOM     13  H21 UNL     1      40.534  28.099  16.808  1.00  0.00     0.277 HD
BRANCH  11  14
HETATM   14  C3  UNL     1      40.234  29.853  17.798  1.00  0.00     0.262 C 
BRANCH  14  15
HETATM   15  C2  UNL     1      40.451  29.844  19.290  1.00  0.00     0.304 C 
BRANCH  15  16
HETATM   16  N1  UNL     1      39.121  30.029  19.858  1.00  0.00     0.143 N 
HETATM   17  C1  UNL     1      38.642  31.371  19.568  1.00  0.00     0.315 C 
HETATM   18  C11 UNL     1      38.181  29.015  19.541  1.00  0.00     0.611 C 
HETATM   19  N6  UNL     1      38.667  27.747  20.066  1.00  0.00    -0.024 N 
HETATM   20  N7  UNL     1      36.887  29.277  20.101  1.00  0.00    -0.024 N 
ATOM     21  H63 UNL     1      39.607  27.525  19.739  1.00  0.00     0.279 HD
ATOM     22  H62 UNL     1      38.872  27.791  21.064  1.00  0.00     0.279 HD
ATOM     23  H61 UNL     1      37.992  27.018  19.838  1.00  0.00     0.279 HD
ATOM     24  H73 UNL     1      36.944  29.424  21.109  1.00  0.00     0.279 HD
ATOM     25  H72 UNL     1      36.545  30.197  19.821  1.00  0.00     0.279 HD
ATOM     26  H71 UNL     1      36.212  28.548  19.873  1.00  0.00     0.279 HD
ENDBRANCH  15  16
ENDBRANCH  14  15
ENDBRANCH  11  14
ENDBRANCH  10  11
ENDBRANCH   1  10
BRANCH   2  27
HETATM   27  N3  UNL     1      43.609  31.017  17.865  1.00  0.00    -0.074 N 
ATOM     28  H33 UNL     1      43.162  31.717  17.272  1.00  0.00     0.274 HD
ATOM     29  H32 UNL     1      42.982  31.041  18.669  1.00  0.00     0.274 HD
ATOM     30  H31 UNL     1      44.542  31.328  18.134  1.00  0.00     0.274 HD
ENDBRANCH   2  27
BRANCH   9  31
HETATM   31  N5  UNL     1      42.793  28.368  13.828  1.00  0.00    -0.073 N 
ATOM     32  H53 UNL     1      41.822  28.325  14.138  1.00  0.00     0.274 HD
ATOM     33  H52 UNL     1      42.703  29.118  13.143  1.00  0.00     0.274 HD
ATOM     34  H51 UNL     1      43.089  27.494  13.393  1.00  0.00     0.274 HD
ENDBRANCH   9  31
TORSDOF 7
ENDMDL
MODEL 5
REMARK VINA RESULT: -5.790108024      1.486      6.329
REMARK  7 active torsions:
REMARK  status: ('A' for Active; 'I' for Inactive)
REMARK    1  A    between atoms: N1_2  and  C2_3 
REMARK       I    between atoms: N1_2  and  C11_26 
REMARK    2  A    between atoms: C2_3  and  C3_4 
REMARK    3  A    between atoms: C3_4  and  N2_5 
REMARK    4  A    between atoms: N2_5  and  C4_8 
REMARK    5  A    between atoms: C4_8  and  C5_9 
REMARK    6  A    between atoms: C6_10  and  N3_11 
REMARK    7  A    between atoms: C10_21  and  N5_22 
REMARK       I    between atoms: C11_26  and  N6_27 
REMARK       I    between atoms: C11_26  and  N7_31 
ROOT
HETATM    1  C5  UNL     1      43.514  29.884  16.829  1.00  0.00     0.073 C 
HETATM    2  C6  UNL     1      44.783  29.144  17.080  1.00  0.00     0.192 C 
HETATM    3  C7  UNL     1      45.181  28.268  15.905  1.00  0.00     0.060 C 
HETATM    4  C8  UNL     1      45.289  29.073  14.631  1.00  0.00     0.234 C 
HETATM    5  N4  UNL     1      44.095  29.136  13.857  1.00  0.00    -0.073 N 
ATOM      6  H41 UNL     1      43.751  28.196  13.659  1.00  0.00     0.277 HD
ATOM      7  H42 UNL     1      44.303  29.450  12.909  1.00  0.00     0.277 HD
HETATM    8  C9  UNL     1      43.057  29.934  14.428  1.00  0.00     0.265 C 
HETATM    9  C10 UNL     1      42.641  29.287  15.756  1.00  0.00     0.216 C 
ENDROOT
BRANCH   1  10
HETATM   10  C4  UNL     1      42.764  30.134  18.113  1.00  0.00     0.241 C 
BRANCH  10  11
HETATM   11  N2  UNL     1      42.808  28.960  18.988  1.00  0.00    -0.073 N 
ATOM     12  H22 UNL     1      43.639  28.959  19.579  1.00  0.00     0.277 HD
ATOM     13  H21 UNL     1      42.991  28.104  18.465  1.00  0.00     0.277 HD
BRANCH  11  14
HETATM   14  C3  UNL     1      41.613  28.867  19.755  1.00  0.00     0.262 C 
BRANCH  14  15
HETATM   15  C2  UNL     1      40.585  29.948  19.544  1.00  0.00     0.304 C 
BRANCH  15  16
HETATM   16  N1  UNL     1      39.324  29.234  19.381  1.00  0.00     0.143 N 
HETATM   17  C1  UNL     1      39.508  27.828  19.703  1.00  0.00     0.315 C 
HETATM   18  C11 UNL     1      38.208  29.820  20.030  1.00  0.00     0.611 C 
HETATM   19  N6  UNL     1      37.989  31.147  19.477  1.00  0.00    -0.024 N 
HETATM   20  N7  UNL     1      37.011  29.048  19.859  1.00  0.00    -0.024 N 
ATOM     21  H63 UNL     1      38.822  31.734  19.528  1.00  0.00     0.279 HD
ATOM     22  H62 UNL     1      37.887  31.135  18.462  1.00  0.00     0.279 HD
ATOM     23  H61 UNL     1      37.186  31.569  19.944  1.00  0.00     0.279 HD
ATOM     24  H73 UNL     1      36.817  28.883  18.871  1.00  0.00     0.279 HD
ATOM     25  H72 UNL     1      37.149  28.083  20.161  1.00  0.00     0.279 HD
ATOM     26  H71 UNL     1      36.209  29.469  20.326  1.00  0.00     0.279 HD
ENDBRANCH  15  16
ENDBRANCH  14  15
ENDBRANCH  11  14
ENDBRANCH  10  11
ENDBRANCH   1  10
BRANCH   2  27
HETATM   27  N3  UNL     1      45.910  29.975  17.412  1.00  0.00    -0.074 N 
ATOM     28  H33 UNL     1      45.666  30.960  17.307  1.00  0.00     0.274 HD
ATOM     29  H32 UNL     1      46.090  29.943  18.416  1.00  0.00     0.274 HD
ATOM     30  H31 UNL     1      46.763  29.766  16.893  1.00  0.00     0.274 HD
ENDBRANCH   2  27
BRANCH   9  31
HETATM   31  N5  UNL     1      41.243  29.651  15.965  1.00  0.00    -0.073 N 
ATOM     32  H53 UNL     1      41.065  29.927  16.930  1.00  0.00     0.274 HD
ATOM     33  H52 UNL     1      41.010  30.532  15.507  1.00  0.00     0.274 HD
ATOM     34  H51 UNL     1      40.625  28.896  15.667  1.00  0.00     0.274 HD
ENDBRANCH   9  31
TORSDOF 7
ENDMDL
