MODEL 1
REMARK VINA RESULT: -4.996561286      0.000      0.000
REMARK  9 active torsions:
REMARK  status: ('A' for Active; 'I' for Inactive)
REMARK    1  A    between atoms: C4_7  and  N3_8 
REMARK    2  A    between atoms: N3_8  and  C5_10 
REMARK    3  A    between atoms: C5_10  and  C6_11 
REMARK    4  A    between atoms: C6_11  and  N4_12 
REMARK    5  A    between atoms: N4_12  and  C7_15 
REMARK    6  A    between atoms: C7_15  and  C8_16 
REMARK    7  A    between atoms: C8_16  and  N5_17 
REMARK    8  A    between atoms: C9_21  and  N6_22 
REMARK    9  A    between atoms: C10_27  and  N8_28 
ROOT
HETATM    1  C1  UNL     1      37.346  28.417  20.781  1.00  0.00     0.158 C 
HETATM    2  N1  UNL     1      38.506  28.406  19.891  1.00  0.00    -0.331 N 
HETATM    3  C2  UNL     1      39.022  27.338  19.249  1.00  0.00     0.184 A 
HETATM    4  N2  UNL     1      40.093  27.708  18.520  1.00  0.00    -0.347 N 
ATOM      5  H2  UNL     1      40.660  27.087  17.942  1.00  0.00     0.167 HD
HETATM    6  C3  UNL     1      40.291  29.024  18.676  1.00  0.00     0.109 A 
HETATM    7  C4  UNL     1      41.294  29.778  18.092  1.00  0.00     0.107 C 
HETATM    8  C9  UNL     1      41.683  31.016  18.544  1.00  0.00     0.144 C 
HETATM    9  N7  UNL     1      40.898  31.984  19.098  1.00  0.00    -0.175 N 
ATOM     10  H7  UNL     1      41.262  32.936  19.059  1.00  0.00     0.186 HD
HETATM   11  C10 UNL     1      39.681  31.828  19.699  1.00  0.00     0.679 C 
HETATM   12  N9  UNL     1      39.050  30.684  20.011  1.00  0.00    -0.174 N 
ATOM     13  H9  UNL     1      38.297  30.770  20.693  1.00  0.00     0.186 HD
HETATM   14  C11 UNL     1      39.272  29.443  19.549  1.00  0.00     0.153 A 
ENDROOT
BRANCH   7  15
HETATM   15  N3  UNL     1      41.859  29.290  17.112  1.00  0.00    -0.363 N 
ATOM     16  H3  UNL     1      42.534  28.583  17.403  1.00  0.00     0.165 HD
BRANCH  15  17
HETATM   17  C5  UNL     1      41.851  29.416  15.723  1.00  0.00     0.088 C 
BRANCH  17  18
HETATM   18  C6  UNL     1      43.179  29.417  15.044  1.00  0.00     0.276 C 
BRANCH  18  19
HETATM   19  N4  UNL     1      43.857  28.173  15.328  1.00  0.00    -0.069 N 
ATOM     20  H42 UNL     1      43.218  27.504  15.756  1.00  0.00     0.277 HD
ATOM     21  H41 UNL     1      44.073  27.675  14.464  1.00  0.00     0.277 HD
BRANCH  19  22
HETATM   22  C7  UNL     1      45.036  28.333  16.129  1.00  0.00     0.260 C 
BRANCH  22  23
HETATM   23  C8  UNL     1      45.391  29.822  16.221  1.00  0.00     0.257 C 
BRANCH  23  24
HETATM   24  N5  UNL     1      46.410  30.114  15.240  1.00  0.00    -0.078 N 
ATOM     25  H53 UNL     1      46.758  29.275  14.777  1.00  0.00     0.274 HD
ATOM     26  H52 UNL     1      46.036  30.585  14.416  1.00  0.00     0.274 HD
ATOM     27  H51 UNL     1      47.152  30.648  15.692  1.00  0.00     0.274 HD
ENDBRANCH  23  24
ENDBRANCH  22  23
ENDBRANCH  19  22
ENDBRANCH  18  19
ENDBRANCH  17  18
ENDBRANCH  15  17
ENDBRANCH   7  15
BRANCH   8  28
HETATM   28  N6  UNL     1      42.925  31.339  18.456  1.00  0.00    -0.383 N 
ATOM     29  H62 UNL     1      43.542  30.770  19.035  1.00  0.00     0.157 HD
ATOM     30  H61 UNL     1      43.185  32.106  17.836  1.00  0.00     0.157 HD
ENDBRANCH   8  28
BRANCH  11  31
HETATM   31  N8  UNL     1      39.071  32.944  20.001  1.00  0.00    -0.234 N 
ATOM     32  H82 UNL     1      39.658  33.759  20.177  1.00  0.00     0.174 HD
ATOM     33  H81 UNL     1      38.054  32.881  20.030  1.00  0.00     0.174 HD
ENDBRANCH  11  31
TORSDOF 9
ENDMDL
MODEL 2
REMARK VINA RESULT: -4.865704221      1.472      2.157
REMARK  9 active torsions:
REMARK  status: ('A' for Active; 'I' for Inactive)
REMARK    1  A    between atoms: C4_7  and  N3_8 
REMARK    2  A    between atoms: N3_8  and  C5_10 
REMARK    3  A    between atoms: C5_10  and  C6_11 
REMARK    4  A    between atoms: C6_11  and  N4_12 
REMARK    5  A    between atoms: N4_12  and  C7_15 
REMARK    6  A    between atoms: C7_15  and  C8_16 
REMARK    7  A    between atoms: C8_16  and  N5_17 
REMARK    8  A    between atoms: C9_21  and  N6_22 
REMARK    9  A    between atoms: C10_27  and  N8_28 
ROOT
HETATM    1  C1  UNL     1      37.535  28.342  20.702  1.00  0.00     0.158 C 
HETATM    2  N1  UNL     1      38.688  28.359  19.804  1.00  0.00    -0.331 N 
HETATM    3  C2  UNL     1      39.220  27.306  19.150  1.00  0.00     0.184 A 
HETATM    4  N2  UNL     1      40.278  27.702  18.416  1.00  0.00    -0.347 N 
ATOM      5  H2  UNL     1      40.853  27.096  17.830  1.00  0.00     0.167 HD
HETATM    6  C3  UNL     1      40.453  29.020  18.581  1.00  0.00     0.109 A 
HETATM    7  C4  UNL     1      41.437  29.797  17.995  1.00  0.00     0.107 C 
HETATM    8  C9  UNL     1      41.806  31.039  18.455  1.00  0.00     0.144 C 
HETATM    9  N7  UNL     1      41.007  31.988  19.022  1.00  0.00    -0.175 N 
ATOM     10  H7  UNL     1      41.353  32.946  18.988  1.00  0.00     0.186 HD
HETATM   11  C10 UNL     1      39.798  31.804  19.630  1.00  0.00     0.679 C 
HETATM   12  N9  UNL     1      39.191  30.646  19.937  1.00  0.00    -0.174 N 
ATOM     13  H9  UNL     1      38.441  30.712  20.626  1.00  0.00     0.186 HD
HETATM   14  C11 UNL     1      39.433  29.413  19.464  1.00  0.00     0.153 A 
ENDROOT
BRANCH   7  15
HETATM   15  N3  UNL     1      42.004  29.328  17.008  1.00  0.00    -0.363 N 
ATOM     16  H3  UNL     1      42.726  28.664  17.291  1.00  0.00     0.165 HD
BRANCH  15  17
HETATM   17  C5  UNL     1      41.953  29.432  15.618  1.00  0.00     0.088 C 
BRANCH  17  18
HETATM   18  C6  UNL     1      43.209  29.117  14.878  1.00  0.00     0.276 C 
BRANCH  18  19
HETATM   19  N4  UNL     1      42.886  28.327  13.711  1.00  0.00    -0.069 N 
ATOM     20  H42 UNL     1      43.223  27.371  13.817  1.00  0.00     0.277 HD
ATOM     21  H41 UNL     1      41.882  28.149  13.663  1.00  0.00     0.277 HD
BRANCH  19  22
HETATM   22  C7  UNL     1      43.358  28.899  12.483  1.00  0.00     0.260 C 
BRANCH  22  23
HETATM   23  C8  UNL     1      42.939  28.003  11.311  1.00  0.00     0.257 C 
BRANCH  23  24
HETATM   24  N5  UNL     1      42.355  26.793  11.842  1.00  0.00    -0.078 N 
ATOM     25  H53 UNL     1      42.987  25.995  11.781  1.00  0.00     0.274 HD
ATOM     26  H52 UNL     1      42.259  26.818  12.858  1.00  0.00     0.274 HD
ATOM     27  H51 UNL     1      41.467  26.627  11.369  1.00  0.00     0.274 HD
ENDBRANCH  23  24
ENDBRANCH  22  23
ENDBRANCH  19  22
ENDBRANCH  18  19
ENDBRANCH  17  18
ENDBRANCH  15  17
ENDBRANCH   7  15
BRANCH   8  28
HETATM   28  N6  UNL     1      43.041  31.385  18.360  1.00  0.00    -0.383 N 
ATOM     29  H62 UNL     1      43.690  30.599  18.325  1.00  0.00     0.157 HD
ATOM     30  H61 UNL     1      43.265  32.380  18.327  1.00  0.00     0.157 HD
ENDBRANCH   8  28
BRANCH  11  31
HETATM   31  N8  UNL     1      39.170  32.905  19.945  1.00  0.00    -0.234 N 
ATOM     32  H82 UNL     1      38.824  32.984  20.901  1.00  0.00     0.174 HD
ATOM     33  H81 UNL     1      39.089  33.584  19.188  1.00  0.00     0.174 HD
ENDBRANCH  11  31
TORSDOF 9
ENDMDL
MODEL 3
REMARK VINA RESULT: -4.349318574      1.472      1.794
REMARK  9 active torsions:
REMARK  status: ('A' for Active; 'I' for Inactive)
REMARK    1  A    between atoms: C4_7  and  N3_8 
REMARK    2  A    between atoms: N3_8  and  C5_10 
REMARK    3  A    between atoms: C5_10  and  C6_11 
REMARK    4  A    between atoms: C6_11  and  N4_12 
REMARK    5  A    between atoms: N4_12  and  C7_15 
REMARK    6  A    between atoms: C7_15  and  C8_16 
REMARK    7  A    between atoms: C8_16  and  N5_17 
REMARK    8  A    between atoms: C9_21  and  N6_22 
REMARK    9  A    between atoms: C10_27  and  N8_28 
ROOT
HETATM    1  C1  UNL     1      37.350  27.858  19.990  1.00  0.00     0.158 C 
HETATM    2  N1  UNL     1      38.769  28.044  19.693  1.00  0.00    -0.331 N 
HETATM    3  C2  UNL     1      39.694  27.076  19.528  1.00  0.00     0.184 A 
HETATM    4  N2  UNL     1      40.897  27.623  19.268  1.00  0.00    -0.347 N 
ATOM      5  H2  UNL     1      41.761  27.106  19.104  1.00  0.00     0.167 HD
HETATM    6  C3  UNL     1      40.775  28.957  19.261  1.00  0.00     0.109 A 
HETATM    7  C4  UNL     1      41.788  29.873  19.034  1.00  0.00     0.107 C 
HETATM    8  C9  UNL     1      41.712  31.200  19.383  1.00  0.00     0.144 C 
HETATM    9  N7  UNL     1      40.609  32.002  19.374  1.00  0.00    -0.175 N 
ATOM     10  H7  UNL     1      40.783  33.006  19.327  1.00  0.00     0.186 HD
HETATM   11  C10 UNL     1      39.299  31.618  19.420  1.00  0.00     0.679 C 
HETATM   12  N9  UNL     1      38.802  30.388  19.630  1.00  0.00    -0.174 N 
ATOM     13  H9  UNL     1      37.820  30.352  19.903  1.00  0.00     0.186 HD
HETATM   14  C11 UNL     1      39.417  29.198  19.531  1.00  0.00     0.153 A 
ENDROOT
BRANCH   7  15
HETATM   15  N3  UNL     1      42.808  29.451  18.487  1.00  0.00    -0.363 N 
ATOM     16  H3  UNL     1      43.358  28.892  19.139  1.00  0.00     0.165 HD
BRANCH  15  17
HETATM   17  C5  UNL     1      43.436  29.511  17.244  1.00  0.00     0.088 C 
BRANCH  17  18
HETATM   18  C6  UNL     1      42.592  29.933  16.088  1.00  0.00     0.276 C 
BRANCH  18  19
HETATM   19  N4  UNL     1      42.536  28.857  15.125  1.00  0.00    -0.069 N 
ATOM     20  H42 UNL     1      42.409  27.960  15.593  1.00  0.00     0.277 HD
ATOM     21  H41 UNL     1      41.668  28.895  14.591  1.00  0.00     0.277 HD
BRANCH  19  22
HETATM   22  C7  UNL     1      43.670  28.814  14.247  1.00  0.00     0.260 C 
BRANCH  22  23
HETATM   23  C8  UNL     1      43.200  28.487  12.825  1.00  0.00     0.257 C 
BRANCH  23  24
HETATM   24  N5  UNL     1      43.426  29.643  11.988  1.00  0.00    -0.078 N 
ATOM     25  H53 UNL     1      44.417  29.829  11.837  1.00  0.00     0.274 HD
ATOM     26  H52 UNL     1      43.164  29.480  11.016  1.00  0.00     0.274 HD
ATOM     27  H51 UNL     1      42.937  30.440  12.397  1.00  0.00     0.274 HD
ENDBRANCH  23  24
ENDBRANCH  22  23
ENDBRANCH  19  22
ENDBRANCH  18  19
ENDBRANCH  17  18
ENDBRANCH  15  17
ENDBRANCH   7  15
BRANCH   8  28
HETATM   28  N6  UNL     1      42.785  31.793  19.775  1.00  0.00    -0.383 N 
ATOM     29  H62 UNL     1      42.804  32.792  19.569  1.00  0.00     0.157 HD
ATOM     30  H61 UNL     1      43.502  31.239  20.243  1.00  0.00     0.157 HD
ENDBRANCH   8  28
BRANCH  11  31
HETATM   31  N8  UNL     1      38.437  32.582  19.235  1.00  0.00    -0.234 N 
ATOM     32  H82 UNL     1      38.666  33.277  18.524  1.00  0.00     0.174 HD
ATOM     33  H81 UNL     1      37.611  32.539  19.831  1.00  0.00     0.174 HD
ENDBRANCH  11  31
TORSDOF 9
ENDMDL
MODEL 4
REMARK VINA RESULT: -4.091793934      1.457      6.702
REMARK  9 active torsions:
REMARK  status: ('A' for Active; 'I' for Inactive)
REMARK    1  A    between atoms: C4_7  and  N3_8 
REMARK    2  A    between atoms: N3_8  and  C5_10 
REMARK    3  A    between atoms: C5_10  and  C6_11 
REMARK    4  A    between atoms: C6_11  and  N4_12 
REMARK    5  A    between atoms: N4_12  and  C7_15 
REMARK    6  A    between atoms: C7_15  and  C8_16 
REMARK    7  A    between atoms: C8_16  and  N5_17 
REMARK    8  A    between atoms: C9_21  and  N6_22 
REMARK    9  A    between atoms: C10_27  and  N8_28 
ROOT
HETATM    1  C1  UNL     1      47.025  28.540  15.459  1.00  0.00     0.158 C 
HETATM    2  N1  UNL     1      45.954  29.232  16.174  1.00  0.00    -0.331 N 
HETATM    3  C2  UNL     1      46.083  30.000  17.276  1.00  0.00     0.184 A 
HETATM    4  N2  UNL     1      44.880  30.470  17.657  1.00  0.00    -0.347 N 
ATOM      5  H2  UNL     1      44.707  31.075  18.460  1.00  0.00     0.167 HD
HETATM    6  C3  UNL     1      43.947  30.013  16.810  1.00  0.00     0.109 A 
HETATM    7  C4  UNL     1      42.589  30.273  16.869  1.00  0.00     0.107 C 
HETATM    8  C9  UNL     1      41.638  29.518  16.223  1.00  0.00     0.144 C 
HETATM    9  N7  UNL     1      41.748  28.895  15.015  1.00  0.00    -0.175 N 
ATOM     10  H7  UNL     1      40.872  28.679  14.539  1.00  0.00     0.186 HD
HETATM   11  C10 UNL     1      42.893  28.526  14.369  1.00  0.00     0.679 C 
HETATM   12  N9  UNL     1      44.154  28.558  14.832  1.00  0.00    -0.174 N 
ATOM     13  H9  UNL     1      44.826  27.991  14.314  1.00  0.00     0.186 HD
HETATM   14  C11 UNL     1      44.654  29.232  15.880  1.00  0.00     0.153 A 
ENDROOT
BRANCH   7  15
HETATM   15  N3  UNL     1      42.234  31.239  17.545  1.00  0.00    -0.363 N 
ATOM     16  H3  UNL     1      42.007  32.032  16.945  1.00  0.00     0.165 HD
BRANCH  15  17
HETATM   17  C5  UNL     1      42.049  31.572  18.886  1.00  0.00     0.088 C 
BRANCH  17  18
HETATM   18  C6  UNL     1      40.929  30.891  19.597  1.00  0.00     0.276 C 
BRANCH  18  19
HETATM   19  N4  UNL     1      39.779  31.766  19.617  1.00  0.00    -0.069 N 
ATOM     20  H42 UNL     1      39.841  32.425  20.392  1.00  0.00     0.277 HD
ATOM     21  H41 UNL     1      39.810  32.420  18.835  1.00  0.00     0.277 HD
BRANCH  19  22
HETATM   22  C7  UNL     1      38.526  31.067  19.645  1.00  0.00     0.260 C 
BRANCH  22  23
HETATM   23  C8  UNL     1      38.787  29.556  19.642  1.00  0.00     0.257 C 
BRANCH  23  24
HETATM   24  N5  UNL     1      37.516  28.870  19.673  1.00  0.00    -0.078 N 
ATOM     25  H53 UNL     1      36.725  29.507  19.571  1.00  0.00     0.274 HD
ATOM     26  H52 UNL     1      37.353  28.310  18.837  1.00  0.00     0.274 HD
ATOM     27  H51 UNL     1      37.465  28.319  20.530  1.00  0.00     0.274 HD
ENDBRANCH  23  24
ENDBRANCH  22  23
ENDBRANCH  19  22
ENDBRANCH  18  19
ENDBRANCH  17  18
ENDBRANCH  15  17
ENDBRANCH   7  15
BRANCH   8  28
HETATM   28  N6  UNL     1      40.496  29.353  16.794  1.00  0.00    -0.383 N 
ATOM     29  H62 UNL     1      40.063  30.219  17.112  1.00  0.00     0.157 HD
ATOM     30  H61 UNL     1      40.128  28.404  16.877  1.00  0.00     0.157 HD
ENDBRANCH   8  28
BRANCH  11  31
HETATM   31  N8  UNL     1      42.719  28.090  13.150  1.00  0.00    -0.234 N 
ATOM     32  H82 UNL     1      43.397  28.390  12.449  1.00  0.00     0.174 HD
ATOM     33  H81 UNL     1      41.908  27.484  13.024  1.00  0.00     0.174 HD
ENDBRANCH  11  31
TORSDOF 9
ENDMDL
MODEL 5
REMARK VINA RESULT: -3.463686445      1.600      3.509
REMARK  9 active torsions:
REMARK  status: ('A' for Active; 'I' for Inactive)
REMARK    1  A    between atoms: C4_7  and  N3_8 
REMARK    2  A    between atoms: N3_8  and  C5_10 
REMARK    3  A    between atoms: C5_10  and  C6_11 
REMARK    4  A    between atoms: C6_11  and  N4_12 
REMARK    5  A    between atoms: N4_12  and  C7_15 
REMARK    6  A    between atoms: C7_15  and  C8_16 
REMARK    7  A    between atoms: C8_16  and  N5_17 
REMARK    8  A    between atoms: C9_21  and  N6_22 
REMARK    9  A    between atoms: C10_27  and  N8_28 
ROOT
HETATM    1  C1  UNL     1      40.458  33.409  21.273  1.00  0.00     0.158 C 
HETATM    2  N1  UNL     1      41.276  32.585  20.385  1.00  0.00    -0.331 N 
HETATM    3  C2  UNL     1      42.592  32.735  20.128  1.00  0.00     0.184 A 
HETATM    4  N2  UNL     1      43.005  31.793  19.258  1.00  0.00    -0.347 N 
ATOM      5  H2  UNL     1      43.956  31.689  18.904  1.00  0.00     0.167 HD
HETATM    6  C3  UNL     1      41.963  31.014  18.934  1.00  0.00     0.109 A 
HETATM    7  C4  UNL     1      41.983  29.937  18.065  1.00  0.00     0.107 C 
HETATM    8  C9  UNL     1      40.858  29.400  17.488  1.00  0.00     0.144 C 
HETATM    9  N7  UNL     1      39.613  29.291  18.033  1.00  0.00    -0.175 N 
ATOM     10  H7  UNL     1      39.003  28.582  17.625  1.00  0.00     0.186 HD
HETATM   11  C10 UNL     1      39.086  30.020  19.062  1.00  0.00     0.679 C 
HETATM   12  N9  UNL     1      39.612  31.096  19.670  1.00  0.00    -0.174 N 
ATOM     13  H9  UNL     1      38.956  31.657  20.213  1.00  0.00     0.186 HD
HETATM   14  C11 UNL     1      40.880  31.537  19.662  1.00  0.00     0.153 A 
ENDROOT
BRANCH   7  15
HETATM   15  N3  UNL     1      43.084  29.448  17.808  1.00  0.00    -0.363 N 
ATOM     16  H3  UNL     1      43.232  28.596  18.347  1.00  0.00     0.165 HD
BRANCH  15  17
HETATM   17  C5  UNL     1      44.188  29.713  16.999  1.00  0.00     0.088 C 
BRANCH  17  18
HETATM   18  C6  UNL     1      44.866  28.534  16.386  1.00  0.00     0.276 C 
BRANCH  18  19
HETATM   19  N4  UNL     1      44.105  28.094  15.238  1.00  0.00    -0.069 N 
ATOM     20  H42 UNL     1      44.570  27.313  14.776  1.00  0.00     0.277 HD
ATOM     21  H41 UNL     1      43.245  27.631  15.532  1.00  0.00     0.277 HD
BRANCH  19  22
HETATM   22  C7  UNL     1      43.822  29.143  14.301  1.00  0.00     0.260 C 
BRANCH  22  23
HETATM   23  C8  UNL     1      43.222  28.538  13.027  1.00  0.00     0.257 C 
BRANCH  23  24
HETATM   24  N5  UNL     1      43.375  29.489  11.950  1.00  0.00    -0.078 N 
ATOM     25  H53 UNL     1      43.908  30.313  12.229  1.00  0.00     0.274 HD
ATOM     26  H52 UNL     1      44.004  29.155  11.220  1.00  0.00     0.274 HD
ATOM     27  H51 UNL     1      42.449  29.725  11.591  1.00  0.00     0.274 HD
ENDBRANCH  23  24
ENDBRANCH  22  23
ENDBRANCH  19  22
ENDBRANCH  18  19
ENDBRANCH  17  18
ENDBRANCH  15  17
ENDBRANCH   7  15
BRANCH   8  28
HETATM   28  N6  UNL     1      40.945  28.937  16.290  1.00  0.00    -0.383 N 
ATOM     29  H62 UNL     1      41.039  27.922  16.245  1.00  0.00     0.157 HD
ATOM     30  H61 UNL     1      40.912  29.595  15.511  1.00  0.00     0.157 HD
ENDBRANCH   8  28
BRANCH  11  31
HETATM   31  N8  UNL     1      37.926  29.601  19.493  1.00  0.00    -0.234 N 
ATOM     32  H82 UNL     1      37.105  29.879  18.956  1.00  0.00     0.174 HD
ATOM     33  H81 UNL     1      37.964  29.031  20.338  1.00  0.00     0.174 HD
ENDBRANCH  11  31
TORSDOF 9
ENDMDL
