MODEL 1
REMARK VINA RESULT: -8.129107979      0.000      0.000
REMARK  8 active torsions:
REMARK  status: ('A' for Active; 'I' for Inactive)
REMARK    1  A    between atoms: N1_2  and  C2_5 
REMARK    2  A    between atoms: C2_5  and  C3_6 
REMARK    3  A    between atoms: C3_6  and  C4_7 
REMARK    4  A    between atoms: C4_7  and  N2_8 
REMARK    5  A    between atoms: N2_8  and  C5_11 
REMARK    6  A    between atoms: C5_11  and  C6_12 
REMARK    7  A    between atoms: C8_18  and  N5_19 
REMARK    8  A    between atoms: N5_19  and  N6_21 
ROOT
HETATM    1  C6  UNL     1      43.002  29.381  15.149  1.00  0.00     0.109 A 
HETATM    2  N3  UNL     1      41.822  28.954  15.629  1.00  0.00    -0.328 N 
ATOM      3  H3  UNL     1      41.247  28.228  15.200  1.00  0.00     0.168 HD
HETATM    4  C7  UNL     1      41.502  29.621  16.760  1.00  0.00     0.155 A 
HETATM    5  N4  UNL     1      40.468  29.591  17.621  1.00  0.00    -0.173 N 
ATOM      6  H4  UNL     1      39.706  28.936  17.445  1.00  0.00     0.186 HD
HETATM    7  C8  UNL     1      40.395  30.392  18.707  1.00  0.00     0.701 A 
HETATM    8  N7  UNL     1      41.391  31.254  18.940  1.00  0.00    -0.153 N 
ATOM      9  H7  UNL     1      41.354  31.867  19.754  1.00  0.00     0.187 HD
HETATM   10  C9  UNL     1      42.450  31.314  18.097  1.00  0.00     0.290 A 
HETATM   11  O1  UNL     1      43.362  32.139  18.357  1.00  0.00    -0.265 OA
HETATM   12  C10 UNL     1      42.548  30.511  16.986  1.00  0.00     0.148 A 
HETATM   13  N8  UNL     1      43.427  30.334  15.996  1.00  0.00    -0.337 N 
ATOM     14  H8  UNL     1      44.300  30.851  15.897  1.00  0.00     0.167 HD
ENDROOT
BRANCH   1  15
HETATM   15  C5  UNL     1      43.738  28.920  13.914  1.00  0.00     0.308 C 
BRANCH  15  16
HETATM   16  N2  UNL     1      42.874  28.204  13.037  1.00  0.00    -0.069 N 
ATOM     17  H22 UNL     1      41.900  28.361  13.292  1.00  0.00     0.277 HD
ATOM     18  H21 UNL     1      42.943  27.202  13.212  1.00  0.00     0.277 HD
BRANCH  16  19
HETATM   19  C4  UNL     1      43.076  28.482  11.644  1.00  0.00     0.234 C 
BRANCH  19  20
HETATM   20  C3  UNL     1      42.674  27.303  10.821  1.00  0.00     0.055 C 
BRANCH  20  21
HETATM   21  C2  UNL     1      42.534  26.032  11.638  1.00  0.00     0.233 C 
BRANCH  21  22
HETATM   22  N1  UNL     1      41.176  25.564  11.615  1.00  0.00    -0.079 N 
HETATM   23  C1  UNL     1      41.035  24.204  12.075  1.00  0.00     0.266 C 
ATOM     24  H12 UNL     1      40.769  25.676  10.686  1.00  0.00     0.276 HD
ATOM     25  H11 UNL     1      40.568  26.190  12.142  1.00  0.00     0.276 HD
ENDBRANCH  21  22
ENDBRANCH  20  21
ENDBRANCH  19  20
ENDBRANCH  16  19
ENDBRANCH  15  16
ENDBRANCH   1  15
BRANCH   7  26
HETATM   26  N5  UNL     1      39.352  30.253  19.436  1.00  0.00    -0.138 N 
ATOM     27  H5  UNL     1      39.296  29.409  20.006  1.00  0.00     0.205 HD
BRANCH  26  28
HETATM   28  N6  UNL     1      38.304  31.131  19.524  1.00  0.00    -0.331 N 
ATOM     29  H62 UNL     1      38.488  32.078  19.191  1.00  0.00     0.177 HD
ATOM     30  H61 UNL     1      37.373  30.923  19.887  1.00  0.00     0.177 HD
ENDBRANCH  26  28
ENDBRANCH   7  26
TORSDOF 8
ENDMDL
MODEL 2
REMARK VINA RESULT: -8.057618187      1.127      1.270
REMARK  8 active torsions:
REMARK  status: ('A' for Active; 'I' for Inactive)
REMARK    1  A    between atoms: N1_2  and  C2_5 
REMARK    2  A    between atoms: C2_5  and  C3_6 
REMARK    3  A    between atoms: C3_6  and  C4_7 
REMARK    4  A    between atoms: C4_7  and  N2_8 
REMARK    5  A    between atoms: N2_8  and  C5_11 
REMARK    6  A    between atoms: C5_11  and  C6_12 
REMARK    7  A    between atoms: C8_18  and  N5_19 
REMARK    8  A    between atoms: N5_19  and  N6_21 
ROOT
HETATM    1  C6  UNL     1      42.938  29.693  16.125  1.00  0.00     0.109 A 
HETATM    2  N3  UNL     1      41.708  29.187  16.314  1.00  0.00    -0.328 N 
ATOM      3  H3  UNL     1      41.276  28.474  15.726  1.00  0.00     0.168 HD
HETATM    4  C7  UNL     1      41.122  29.756  17.391  1.00  0.00     0.155 A 
HETATM    5  N4  UNL     1      39.934  29.623  18.008  1.00  0.00    -0.173 N 
ATOM      6  H4  UNL     1      39.262  28.954  17.632  1.00  0.00     0.186 HD
HETATM    7  C8  UNL     1      39.592  30.337  19.103  1.00  0.00     0.701 A 
HETATM    8  N7  UNL     1      40.470  31.216  19.598  1.00  0.00    -0.153 N 
ATOM      9  H7  UNL     1      40.229  31.765  20.424  1.00  0.00     0.187 HD
HETATM   10  C9  UNL     1      41.678  31.380  19.007  1.00  0.00     0.290 A 
HETATM   11  O1  UNL     1      42.469  32.217  19.507  1.00  0.00    -0.265 OA
HETATM   12  C10 UNL     1      42.049  30.666  17.892  1.00  0.00     0.148 A 
HETATM   13  N8  UNL     1      43.124  30.596  17.103  1.00  0.00    -0.337 N 
ATOM     14  H8  UNL     1      43.971  31.152  17.226  1.00  0.00     0.167 HD
ENDROOT
BRANCH   1  15
HETATM   15  C5  UNL     1      43.940  29.354  15.048  1.00  0.00     0.308 C 
BRANCH  15  16
HETATM   16  N2  UNL     1      43.371  29.498  13.751  1.00  0.00    -0.069 N 
ATOM     17  H22 UNL     1      43.987  30.047  13.153  1.00  0.00     0.277 HD
ATOM     18  H21 UNL     1      42.561  30.117  13.786  1.00  0.00     0.277 HD
BRANCH  16  19
HETATM   19  C4  UNL     1      43.027  28.261  13.111  1.00  0.00     0.234 C 
BRANCH  19  20
HETATM   20  C3  UNL     1      43.049  28.427  11.627  1.00  0.00     0.055 C 
BRANCH  20  21
HETATM   21  C2  UNL     1      42.690  27.154  10.883  1.00  0.00     0.233 C 
BRANCH  21  22
HETATM   22  N1  UNL     1      42.243  26.143  11.801  1.00  0.00    -0.079 N 
HETATM   23  C1  UNL     1      40.989  25.543  11.418  1.00  0.00     0.266 C 
ATOM     24  H12 UNL     1      42.195  26.510  12.751  1.00  0.00     0.276 HD
ATOM     25  H11 UNL     1      42.961  25.430  11.932  1.00  0.00     0.276 HD
ENDBRANCH  21  22
ENDBRANCH  20  21
ENDBRANCH  19  20
ENDBRANCH  16  19
ENDBRANCH  15  16
ENDBRANCH   1  15
BRANCH   7  26
HETATM   26  N5  UNL     1      38.428  30.105  19.583  1.00  0.00    -0.138 N 
ATOM     27  H5  UNL     1      37.938  30.892  20.008  1.00  0.00     0.205 HD
BRANCH  26  28
HETATM   28  N6  UNL     1      37.778  28.899  19.580  1.00  0.00    -0.331 N 
ATOM     29  H62 UNL     1      37.975  28.286  20.371  1.00  0.00     0.177 HD
ATOM     30  H61 UNL     1      37.126  28.568  18.868  1.00  0.00     0.177 HD
ENDBRANCH  26  28
ENDBRANCH   7  26
TORSDOF 8
ENDMDL
MODEL 3
REMARK VINA RESULT: -7.700602275      1.335      1.674
REMARK  8 active torsions:
REMARK  status: ('A' for Active; 'I' for Inactive)
REMARK    1  A    between atoms: N1_2  and  C2_5 
REMARK    2  A    between atoms: C2_5  and  C3_6 
REMARK    3  A    between atoms: C3_6  and  C4_7 
REMARK    4  A    between atoms: C4_7  and  N2_8 
REMARK    5  A    between atoms: N2_8  and  C5_11 
REMARK    6  A    between atoms: C5_11  and  C6_12 
REMARK    7  A    between atoms: C8_18  and  N5_19 
REMARK    8  A    between atoms: N5_19  and  N6_21 
ROOT
HETATM    1  C6  UNL     1      42.771  29.562  16.182  1.00  0.00     0.109 A 
HETATM    2  N3  UNL     1      41.514  29.140  16.400  1.00  0.00    -0.328 N 
ATOM      3  H3  UNL     1      41.031  28.436  15.841  1.00  0.00     0.168 HD
HETATM    4  C7  UNL     1      40.978  29.780  17.463  1.00  0.00     0.155 A 
HETATM    5  N4  UNL     1      39.791  29.741  18.096  1.00  0.00    -0.173 N 
ATOM      6  H4  UNL     1      39.075  29.103  17.750  1.00  0.00     0.186 HD
HETATM    7  C8  UNL     1      39.507  30.511  19.170  1.00  0.00     0.701 A 
HETATM    8  N7  UNL     1      40.444  31.350  19.626  1.00  0.00    -0.153 N 
ATOM      9  H7  UNL     1      40.249  31.940  20.435  1.00  0.00     0.187 HD
HETATM   10  C9  UNL     1      41.653  31.419  19.017  1.00  0.00     0.290 A 
HETATM   11  O1  UNL     1      42.501  32.221  19.481  1.00  0.00    -0.265 OA
HETATM   12  C10 UNL     1      41.966  30.646  17.924  1.00  0.00     0.148 A 
HETATM   13  N8  UNL     1      43.024  30.484  17.126  1.00  0.00    -0.337 N 
ATOM     14  H8  UNL     1      43.905  30.990  17.222  1.00  0.00     0.167 HD
ENDROOT
BRANCH   1  15
HETATM   15  C5  UNL     1      43.737  29.126  15.107  1.00  0.00     0.308 C 
BRANCH  15  16
HETATM   16  N2  UNL     1      43.051  28.773  13.910  1.00  0.00    -0.069 N 
ATOM     17  H22 UNL     1      42.081  29.083  13.953  1.00  0.00     0.277 HD
ATOM     18  H21 UNL     1      42.911  27.763  13.867  1.00  0.00     0.277 HD
BRANCH  16  19
HETATM   19  C4  UNL     1      43.673  29.242  12.706  1.00  0.00     0.234 C 
BRANCH  19  20
HETATM   20  C3  UNL     1      42.965  28.689  11.513  1.00  0.00     0.055 C 
BRANCH  20  21
HETATM   21  C2  UNL     1      42.585  27.229  11.675  1.00  0.00     0.233 C 
BRANCH  21  22
HETATM   22  N1  UNL     1      42.835  26.505  10.459  1.00  0.00    -0.079 N 
HETATM   23  C1  UNL     1      43.823  27.132   9.617  1.00  0.00     0.266 C 
ATOM     24  H12 UNL     1      41.968  26.347   9.946  1.00  0.00     0.276 HD
ATOM     25  H11 UNL     1      43.091  25.538  10.660  1.00  0.00     0.276 HD
ENDBRANCH  21  22
ENDBRANCH  20  21
ENDBRANCH  19  20
ENDBRANCH  16  19
ENDBRANCH  15  16
ENDBRANCH   1  15
BRANCH   7  26
HETATM   26  N5  UNL     1      38.337  30.368  19.669  1.00  0.00    -0.138 N 
ATOM     27  H5  UNL     1      37.889  31.205  20.043  1.00  0.00     0.205 HD
BRANCH  26  28
HETATM   28  N6  UNL     1      37.630  29.198  19.749  1.00  0.00    -0.331 N 
ATOM     29  H62 UNL     1      37.278  28.954  20.675  1.00  0.00     0.177 HD
ATOM     30  H61 UNL     1      37.429  28.562  18.977  1.00  0.00     0.177 HD
ENDBRANCH  26  28
ENDBRANCH   7  26
TORSDOF 8
ENDMDL
MODEL 4
REMARK VINA RESULT: -7.624413489      2.429      6.545
REMARK  8 active torsions:
REMARK  status: ('A' for Active; 'I' for Inactive)
REMARK    1  A    between atoms: N1_2  and  C2_5 
REMARK    2  A    between atoms: C2_5  and  C3_6 
REMARK    3  A    between atoms: C3_6  and  C4_7 
REMARK    4  A    between atoms: C4_7  and  N2_8 
REMARK    5  A    between atoms: N2_8  and  C5_11 
REMARK    6  A    between atoms: C5_11  and  C6_12 
REMARK    7  A    between atoms: C8_18  and  N5_19 
REMARK    8  A    between atoms: N5_19  and  N6_21 
ROOT
HETATM    1  C6  UNL     1      42.278  30.820  17.891  1.00  0.00     0.109 A 
HETATM    2  N3  UNL     1      41.590  30.109  16.982  1.00  0.00    -0.328 N 
ATOM      3  H3  UNL     1      40.594  29.895  17.043  1.00  0.00     0.168 HD
HETATM    4  C7  UNL     1      42.402  29.717  15.975  1.00  0.00     0.155 A 
HETATM    5  N4  UNL     1      42.239  29.006  14.845  1.00  0.00    -0.173 N 
ATOM      6  H4  UNL     1      41.311  28.644  14.626  1.00  0.00     0.186 HD
HETATM    7  C8  UNL     1      43.251  28.751  13.986  1.00  0.00     0.701 A 
HETATM    8  N7  UNL     1      44.470  29.223  14.269  1.00  0.00    -0.153 N 
ATOM      9  H7  UNL     1      45.247  29.040  13.634  1.00  0.00     0.187 HD
HETATM   10  C9  UNL     1      44.676  29.944  15.398  1.00  0.00     0.290 A 
HETATM   11  O1  UNL     1      45.837  30.366  15.622  1.00  0.00    -0.265 OA
HETATM   12  C10 UNL     1      43.663  30.216  16.287  1.00  0.00     0.148 A 
HETATM   13  N8  UNL     1      43.544  30.872  17.444  1.00  0.00    -0.337 N 
ATOM     14  H8  UNL     1      44.309  31.347  17.923  1.00  0.00     0.167 HD
ENDROOT
BRANCH   1  15
HETATM   15  C5  UNL     1      41.777  31.448  19.169  1.00  0.00     0.308 C 
BRANCH  15  16
HETATM   16  N2  UNL     1      40.854  30.593  19.836  1.00  0.00    -0.069 N 
ATOM     17  H22 UNL     1      39.930  30.668  19.412  1.00  0.00     0.277 HD
ATOM     18  H21 UNL     1      40.649  30.952  20.769  1.00  0.00     0.277 HD
BRANCH  16  19
HETATM   19  C4  UNL     1      41.259  29.218  19.907  1.00  0.00     0.234 C 
BRANCH  19  20
HETATM   20  C3  UNL     1      40.085  28.324  19.679  1.00  0.00     0.055 C 
BRANCH  20  21
HETATM   21  C2  UNL     1      38.856  29.072  19.198  1.00  0.00     0.233 C 
BRANCH  21  22
HETATM   22  N1  UNL     1      37.660  28.449  19.694  1.00  0.00    -0.079 N 
HETATM   23  C1  UNL     1      36.982  29.237  20.695  1.00  0.00     0.266 C 
ATOM     24  H12 UNL     1      37.857  27.511  20.042  1.00  0.00     0.276 HD
ATOM     25  H11 UNL     1      37.028  28.216  18.928  1.00  0.00     0.276 HD
ENDBRANCH  21  22
ENDBRANCH  20  21
ENDBRANCH  19  20
ENDBRANCH  16  19
ENDBRANCH  15  16
ENDBRANCH   1  15
BRANCH   7  26
HETATM   26  N5  UNL     1      42.947  28.061  12.951  1.00  0.00    -0.138 N 
ATOM     27  H5  UNL     1      42.687  27.087  13.104  1.00  0.00     0.205 HD
BRANCH  26  28
HETATM   28  N6  UNL     1      42.939  28.508  11.656  1.00  0.00    -0.331 N 
ATOM     29  H62 UNL     1      43.840  28.813  11.285  1.00  0.00     0.177 HD
ATOM     30  H61 UNL     1      42.126  28.561  11.043  1.00  0.00     0.177 HD
ENDBRANCH  26  28
ENDBRANCH   7  26
TORSDOF 8
ENDMDL
MODEL 5
REMARK VINA RESULT: -7.550157127      2.347      6.473
REMARK  8 active torsions:
REMARK  status: ('A' for Active; 'I' for Inactive)
REMARK    1  A    between atoms: N1_2  and  C2_5 
REMARK    2  A    between atoms: C2_5  and  C3_6 
REMARK    3  A    between atoms: C3_6  and  C4_7 
REMARK    4  A    between atoms: C4_7  and  N2_8 
REMARK    5  A    between atoms: N2_8  and  C5_11 
REMARK    6  A    between atoms: C5_11  and  C6_12 
REMARK    7  A    between atoms: C8_18  and  N5_19 
REMARK    8  A    between atoms: N5_19  and  N6_21 
ROOT
HETATM    1  C6  UNL     1      42.022  30.359  17.952  1.00  0.00     0.109 A 
HETATM    2  N3  UNL     1      41.417  29.648  16.986  1.00  0.00    -0.328 N 
ATOM      3  H3  UNL     1      40.448  29.330  17.016  1.00  0.00     0.168 HD
HETATM    4  C7  UNL     1      42.273  29.412  15.966  1.00  0.00     0.155 A 
HETATM    5  N4  UNL     1      42.192  28.769  14.787  1.00  0.00    -0.173 N 
ATOM      6  H4  UNL     1      41.307  28.331  14.530  1.00  0.00     0.186 HD
HETATM    7  C8  UNL     1      43.231  28.679  13.928  1.00  0.00     0.701 A 
HETATM    8  N7  UNL     1      44.394  29.251  14.261  1.00  0.00    -0.153 N 
ATOM      9  H7  UNL     1      45.190  29.193  13.626  1.00  0.00     0.187 HD
HETATM   10  C9  UNL     1      44.516  29.908  15.440  1.00  0.00     0.290 A 
HETATM   11  O1  UNL     1      45.627  30.429  15.710  1.00  0.00    -0.265 OA
HETATM   12  C10 UNL     1      43.474  30.013  16.331  1.00  0.00     0.148 A 
HETATM   13  N8  UNL     1      43.280  30.570  17.529  1.00  0.00    -0.337 N 
ATOM     14  H8  UNL     1      43.989  31.086  18.051  1.00  0.00     0.167 HD
ENDROOT
BRANCH   1  15
HETATM   15  C5  UNL     1      41.450  30.842  19.263  1.00  0.00     0.308 C 
BRANCH  15  16
HETATM   16  N2  UNL     1      40.316  31.678  19.054  1.00  0.00    -0.069 N 
ATOM     17  H22 UNL     1      40.208  31.887  18.063  1.00  0.00     0.277 HD
ATOM     18  H21 UNL     1      40.497  32.616  19.413  1.00  0.00     0.277 HD
BRANCH  16  19
HETATM   19  C4  UNL     1      39.090  31.165  19.594  1.00  0.00     0.234 C 
BRANCH  19  20
HETATM   20  C3  UNL     1      38.832  29.792  19.068  1.00  0.00     0.055 C 
BRANCH  20  21
HETATM   21  C2  UNL     1      37.999  28.944  20.011  1.00  0.00     0.233 C 
BRANCH  21  22
HETATM   22  N1  UNL     1      38.459  27.582  20.004  1.00  0.00    -0.079 N 
HETATM   23  C1  UNL     1      39.832  27.448  19.585  1.00  0.00     0.266 C 
ATOM     24  H12 UNL     1      37.847  26.995  19.437  1.00  0.00     0.276 HD
ATOM     25  H11 UNL     1      38.313  27.146  20.915  1.00  0.00     0.276 HD
ENDBRANCH  21  22
ENDBRANCH  20  21
ENDBRANCH  19  20
ENDBRANCH  16  19
ENDBRANCH  15  16
ENDBRANCH   1  15
BRANCH   7  26
HETATM   26  N5  UNL     1      43.008  28.037  12.843  1.00  0.00    -0.138 N 
ATOM     27  H5  UNL     1      42.861  27.031  12.923  1.00  0.00     0.205 HD
BRANCH  26  28
HETATM   28  N6  UNL     1      42.947  28.574  11.584  1.00  0.00    -0.331 N 
ATOM     29  H62 UNL     1      42.146  28.290  11.019  1.00  0.00     0.177 HD
ATOM     30  H61 UNL     1      43.620  29.220  11.172  1.00  0.00     0.177 HD
ENDBRANCH  26  28
ENDBRANCH   7  26
TORSDOF 8
ENDMDL
