MODEL 1
REMARK VINA RESULT: -8.903006193      0.000      0.000
REMARK  11 active torsions:
REMARK  status: ('A' for Active; 'I' for Inactive)
REMARK    1  A    between atoms: C2_2  and  C3_3 
REMARK    2  A    between atoms: C3_3  and  C5_5 
REMARK    3  A    between atoms: C5_5  and  N1_6 
REMARK    4  A    between atoms: C5_5  and  C9_16 
REMARK    5  A    between atoms: N1_6  and  C6_8 
REMARK    6  A    between atoms: C6_8  and  C7_10 
REMARK    7  A    between atoms: C7_10  and  N2_11 
REMARK       I    between atoms: N2_11  and  C8_13 
REMARK       I    between atoms: C9_16  and  N4_18 
REMARK    8  A    between atoms: C12_21  and  C13_22 
REMARK    9  A    between atoms: C16_26  and  C17_27 
REMARK   10  A    between atoms: C17_27  and  C18_28 
REMARK   11  A    between atoms: C18_28  and  C19_29 
ROOT
HETATM    1  C9  UNL     1     -19.309 -32.888  16.902  1.00  0.00     0.243 C 
HETATM    2  O2  UNL     1     -18.279 -32.147  17.073  1.00  0.00    -0.271 OA
HETATM    3  N4  UNL     1     -19.935 -33.371  18.075  1.00  0.00    -0.345 N 
HETATM    4  C10 UNL     1     -21.068 -34.270  18.131  1.00  0.00     0.132 C 
HETATM    5  C11 UNL     1     -21.511 -34.045  19.601  1.00  0.00     0.015 C 
HETATM    6  C12 UNL     1     -21.809 -32.593  19.674  1.00  0.00     0.007 C 
HETATM    7  C14 UNL     1     -20.471 -31.919  19.882  1.00  0.00     0.032 C 
HETATM    8  C15 UNL     1     -19.533 -33.028  19.461  1.00  0.00     0.092 C 
HETATM    9  C16 UNL     1     -20.123 -34.208  20.193  1.00  0.00     0.015 C 
ENDROOT
BRANCH   1  10
HETATM   10  C5  UNL     1     -19.747 -33.177  15.509  1.00  0.00     0.178 C 
BRANCH  10  11
HETATM   11  C3  UNL     1     -19.980 -31.930  14.721  1.00  0.00     0.013 C 
HETATM   12  C4  UNL     1     -20.865 -30.892  15.285  1.00  0.00     0.012 C 
BRANCH  11  13
HETATM   13  C2  UNL     1     -20.183 -32.194  13.237  1.00  0.00     0.002 C 
HETATM   14  C1  UNL     1     -21.604 -32.174  12.794  1.00  0.00     0.005 C 
ENDBRANCH  11  13
ENDBRANCH  10  11
BRANCH  10  15
HETATM   15  N1  UNL     1     -18.762 -34.011  14.896  1.00  0.00    -0.369 N 
ATOM     16  H1  UNL     1     -17.841 -33.586  14.797  1.00  0.00     0.161 HD
BRANCH  15  17
HETATM   17  C6  UNL     1     -18.865 -35.316  14.412  1.00  0.00     0.092 C 
HETATM   18  S1  UNL     1     -19.400 -36.549  15.397  1.00  0.00    -0.064 SA
BRANCH  17  19
HETATM   19  C7  UNL     1     -18.512 -35.685  13.031  1.00  0.00     0.193 C 
BRANCH  19  20
HETATM   20  N2  UNL     1     -17.309 -34.932  12.608  1.00  0.00    -0.339 N 
HETATM   21  C8  UNL     1     -16.048 -35.521  12.837  1.00  0.00     0.329 C 
HETATM   22  N3  UNL     1     -14.857 -34.816  12.437  1.00  0.00    -0.040 NA
HETATM   23  O1  UNL     1     -15.959 -36.643  13.380  1.00  0.00    -0.251 OA
ATOM     24  H2  UNL     1     -17.390 -34.017  12.166  1.00  0.00     0.164 HD
ENDBRANCH  19  20
ENDBRANCH  17  19
ENDBRANCH  15  17
ENDBRANCH  10  15
ENDBRANCH   1  10
BRANCH   9  25
HETATM   25  C17 UNL     1     -20.077 -34.110  21.689  1.00  0.00     0.007 C 
BRANCH  25  26
HETATM   26  C18 UNL     1     -18.676 -33.871  22.193  1.00  0.00     0.005 C 
BRANCH  26  27
HETATM   27  C19 UNL     1     -17.715 -34.974  22.031  1.00  0.00    -0.010 C 
HETATM   28  C20 UNL     1     -17.998 -36.007  23.150  1.00  0.00     0.010 C 
HETATM   29  C21 UNL     1     -16.883 -36.041  24.118  1.00  0.00    -0.009 C 
HETATM   30  C22 UNL     1     -17.300 -36.438  25.523  1.00  0.00     0.006 C 
HETATM   31  C27 UNL     1     -16.252 -34.692  24.430  1.00  0.00     0.002 C 
HETATM   32  C23 UNL     1     -16.276 -35.777  26.432  1.00  0.00     0.009 C 
HETATM   33  C24 UNL     1     -15.280 -35.079  25.479  1.00  0.00    -0.043 C 
HETATM   34  C25 UNL     1     -14.683 -33.874  26.199  1.00  0.00     0.015 C 
HETATM   35  C26 UNL     1     -14.249 -36.079  25.139  1.00  0.00     0.015 C 
HETATM   36  C28 UNL     1     -15.844 -33.914  23.297  1.00  0.00    -0.005 C 
HETATM   37  C29 UNL     1     -14.438 -33.568  23.020  1.00  0.00     0.005 C 
HETATM   38  C32 UNL     1     -16.269 -34.707  22.052  1.00  0.00    -0.006 C 
HETATM   39  C30 UNL     1     -14.570 -33.054  21.567  1.00  0.00     0.001 C 
HETATM   40  C31 UNL     1     -15.606 -34.020  20.956  1.00  0.00     0.005 C 
ENDBRANCH  26  27
ENDBRANCH  25  26
ENDBRANCH   9  25
BRANCH   6  41
HETATM   41  C13 UNL     1     -22.875 -32.178  20.632  1.00  0.00     0.119 C 
HETATM   42 CL1  UNL     1     -22.249 -31.208  21.968  1.00  0.00    -0.130 Cl
ENDBRANCH   6  41
TORSDOF 11
ENDMDL
MODEL 2
REMARK VINA RESULT: -8.742704606      1.467      1.611
REMARK  11 active torsions:
REMARK  status: ('A' for Active; 'I' for Inactive)
REMARK    1  A    between atoms: C2_2  and  C3_3 
REMARK    2  A    between atoms: C3_3  and  C5_5 
REMARK    3  A    between atoms: C5_5  and  N1_6 
REMARK    4  A    between atoms: C5_5  and  C9_16 
REMARK    5  A    between atoms: N1_6  and  C6_8 
REMARK    6  A    between atoms: C6_8  and  C7_10 
REMARK    7  A    between atoms: C7_10  and  N2_11 
REMARK       I    between atoms: N2_11  and  C8_13 
REMARK       I    between atoms: C9_16  and  N4_18 
REMARK    8  A    between atoms: C12_21  and  C13_22 
REMARK    9  A    between atoms: C16_26  and  C17_27 
REMARK   10  A    between atoms: C17_27  and  C18_28 
REMARK   11  A    between atoms: C18_28  and  C19_29 
ROOT
HETATM    1  C9  UNL     1     -19.217 -32.871  16.882  1.00  0.00     0.243 C 
HETATM    2  O2  UNL     1     -18.176 -32.145  17.055  1.00  0.00    -0.271 OA
HETATM    3  N4  UNL     1     -19.865 -33.325  18.054  1.00  0.00    -0.345 N 
HETATM    4  C10 UNL     1     -21.015 -34.204  18.109  1.00  0.00     0.132 C 
HETATM    5  C11 UNL     1     -21.470 -33.950  19.571  1.00  0.00     0.015 C 
HETATM    6  C12 UNL     1     -21.743 -32.492  19.620  1.00  0.00     0.007 C 
HETATM    7  C14 UNL     1     -20.396 -31.840  19.835  1.00  0.00     0.032 C 
HETATM    8  C15 UNL     1     -19.473 -32.970  19.440  1.00  0.00     0.092 C 
HETATM    9  C16 UNL     1     -20.092 -34.130  20.181  1.00  0.00     0.015 C 
ENDROOT
BRANCH   1  10
HETATM   10  C5  UNL     1     -19.644 -33.171  15.489  1.00  0.00     0.178 C 
BRANCH  10  11
HETATM   11  C3  UNL     1     -20.207 -31.972  14.800  1.00  0.00     0.013 C 
HETATM   12  C4  UNL     1     -20.855 -30.926  15.616  1.00  0.00     0.012 C 
BRANCH  11  13
HETATM   13  C2  UNL     1     -20.943 -32.314  13.514  1.00  0.00     0.002 C 
HETATM   14  C1  UNL     1     -20.147 -32.111  12.273  1.00  0.00     0.005 C 
ENDBRANCH  11  13
ENDBRANCH  10  11
BRANCH  10  15
HETATM   15  N1  UNL     1     -18.522 -33.705  14.784  1.00  0.00    -0.369 N 
ATOM     16  H1  UNL     1     -17.710 -33.090  14.739  1.00  0.00     0.161 HD
BRANCH  15  17
HETATM   17  C6  UNL     1     -18.364 -34.937  14.147  1.00  0.00     0.092 C 
HETATM   18  S1  UNL     1     -17.529 -35.051  12.709  1.00  0.00    -0.064 SA
BRANCH  17  19
HETATM   19  C7  UNL     1     -18.915 -36.191  14.688  1.00  0.00     0.193 C 
BRANCH  19  20
HETATM   20  N2  UNL     1     -17.876 -37.245  14.652  1.00  0.00    -0.339 N 
HETATM   21  C8  UNL     1     -17.916 -38.246  15.646  1.00  0.00     0.329 C 
HETATM   22  N3  UNL     1     -16.920 -39.287  15.639  1.00  0.00    -0.040 NA
HETATM   23  O1  UNL     1     -18.804 -38.235  16.524  1.00  0.00    -0.251 OA
ATOM     24  H2  UNL     1     -17.154 -37.248  13.932  1.00  0.00     0.164 HD
ENDBRANCH  19  20
ENDBRANCH  17  19
ENDBRANCH  15  17
ENDBRANCH  10  15
ENDBRANCH   1  10
BRANCH   9  25
HETATM   25  C17 UNL     1     -20.062 -34.011  21.676  1.00  0.00     0.007 C 
BRANCH  25  26
HETATM   26  C18 UNL     1     -18.661 -33.801  22.194  1.00  0.00     0.005 C 
BRANCH  26  27
HETATM   27  C19 UNL     1     -17.718 -34.919  22.031  1.00  0.00    -0.010 C 
HETATM   28  C20 UNL     1     -18.013 -35.946  23.154  1.00  0.00     0.010 C 
HETATM   29  C21 UNL     1     -16.895 -35.995  24.117  1.00  0.00    -0.009 C 
HETATM   30  C22 UNL     1     -17.311 -36.382  25.525  1.00  0.00     0.006 C 
HETATM   31  C27 UNL     1     -16.241 -34.655  24.423  1.00  0.00     0.002 C 
HETATM   32  C23 UNL     1     -16.273 -35.735  26.428  1.00  0.00     0.009 C 
HETATM   33  C24 UNL     1     -15.271 -35.054  25.470  1.00  0.00    -0.043 C 
HETATM   34  C25 UNL     1     -14.652 -33.857  26.184  1.00  0.00     0.015 C 
HETATM   35  C26 UNL     1     -14.257 -36.071  25.127  1.00  0.00     0.015 C 
HETATM   36  C28 UNL     1     -15.825 -33.885  23.286  1.00  0.00    -0.005 C 
HETATM   37  C29 UNL     1     -14.415 -33.562  23.003  1.00  0.00     0.005 C 
HETATM   38  C32 UNL     1     -16.268 -34.674  22.045  1.00  0.00    -0.006 C 
HETATM   39  C30 UNL     1     -14.546 -33.050  21.550  1.00  0.00     0.001 C 
HETATM   40  C31 UNL     1     -15.599 -34.000  20.945  1.00  0.00     0.005 C 
ENDBRANCH  26  27
ENDBRANCH  25  26
ENDBRANCH   9  25
BRANCH   6  41
HETATM   41  C13 UNL     1     -22.812 -32.045  20.560  1.00  0.00     0.119 C 
HETATM   42 CL1  UNL     1     -22.191 -31.029  21.863  1.00  0.00    -0.130 Cl
ENDBRANCH   6  41
TORSDOF 11
ENDMDL
MODEL 3
REMARK VINA RESULT: -8.707211928      4.255      6.147
REMARK  11 active torsions:
REMARK  status: ('A' for Active; 'I' for Inactive)
REMARK    1  A    between atoms: C2_2  and  C3_3 
REMARK    2  A    between atoms: C3_3  and  C5_5 
REMARK    3  A    between atoms: C5_5  and  N1_6 
REMARK    4  A    between atoms: C5_5  and  C9_16 
REMARK    5  A    between atoms: N1_6  and  C6_8 
REMARK    6  A    between atoms: C6_8  and  C7_10 
REMARK    7  A    between atoms: C7_10  and  N2_11 
REMARK       I    between atoms: N2_11  and  C8_13 
REMARK       I    between atoms: C9_16  and  N4_18 
REMARK    8  A    between atoms: C12_21  and  C13_22 
REMARK    9  A    between atoms: C16_26  and  C17_27 
REMARK   10  A    between atoms: C17_27  and  C18_28 
REMARK   11  A    between atoms: C18_28  and  C19_29 
ROOT
HETATM    1  C9  UNL     1     -21.839 -35.890  21.234  1.00  0.00     0.243 C 
HETATM    2  O2  UNL     1     -22.863 -35.996  21.996  1.00  0.00    -0.271 OA
HETATM    3  N4  UNL     1     -20.692 -36.623  21.622  1.00  0.00    -0.345 N 
HETATM    4  C10 UNL     1     -19.405 -36.610  20.959  1.00  0.00     0.132 C 
HETATM    5  C11 UNL     1     -18.780 -37.891  21.574  1.00  0.00     0.015 C 
HETATM    6  C12 UNL     1     -19.716 -38.975  21.190  1.00  0.00     0.007 C 
HETATM    7  C14 UNL     1     -20.830 -38.924  22.211  1.00  0.00     0.032 C 
HETATM    8  C15 UNL     1     -20.618 -37.541  22.785  1.00  0.00     0.092 C 
HETATM    9  C16 UNL     1     -19.126 -37.541  23.010  1.00  0.00     0.015 C 
ENDROOT
BRANCH   1  10
HETATM   10  C5  UNL     1     -21.939 -35.017  20.033  1.00  0.00     0.178 C 
BRANCH  10  11
HETATM   11  C3  UNL     1     -22.249 -35.794  18.796  1.00  0.00     0.013 C 
HETATM   12  C4  UNL     1     -22.974 -37.074  18.928  1.00  0.00     0.012 C 
BRANCH  11  13
HETATM   13  C2  UNL     1     -21.097 -35.821  17.805  1.00  0.00     0.002 C 
HETATM   14  C1  UNL     1     -20.491 -34.491  17.524  1.00  0.00     0.005 C 
ENDBRANCH  11  13
ENDBRANCH  10  11
BRANCH  10  15
HETATM   15  N1  UNL     1     -22.927 -34.018  20.289  1.00  0.00    -0.369 N 
ATOM     16  H1  UNL     1     -23.882 -34.288  20.056  1.00  0.00     0.161 HD
BRANCH  15  17
HETATM   17  C6  UNL     1     -22.789 -32.731  20.809  1.00  0.00     0.092 C 
HETATM   18  S1  UNL     1     -23.702 -32.237  22.112  1.00  0.00    -0.064 SA
BRANCH  17  19
HETATM   19  C7  UNL     1     -21.851 -31.741  20.252  1.00  0.00     0.193 C 
BRANCH  19  20
HETATM   20  N2  UNL     1     -20.543 -31.857  20.936  1.00  0.00    -0.339 N 
HETATM   21  C8  UNL     1     -19.375 -31.701  20.161  1.00  0.00     0.329 C 
HETATM   22  N3  UNL     1     -18.087 -31.807  20.796  1.00  0.00    -0.040 NA
HETATM   23  O1  UNL     1     -19.452 -31.472  18.935  1.00  0.00    -0.251 OA
ATOM     24  H2  UNL     1     -20.488 -32.045  21.937  1.00  0.00     0.164 HD
ENDBRANCH  19  20
ENDBRANCH  17  19
ENDBRANCH  15  17
ENDBRANCH  10  15
ENDBRANCH   1  10
BRANCH   9  25
HETATM   25  C17 UNL     1     -18.640 -38.538  24.020  1.00  0.00     0.007 C 
BRANCH  25  26
HETATM   26  C18 UNL     1     -18.075 -37.866  25.245  1.00  0.00     0.005 C 
BRANCH  26  27
HETATM   27  C19 UNL     1     -16.658 -38.121  25.549  1.00  0.00    -0.010 C 
HETATM   28  C20 UNL     1     -16.232 -37.124  26.657  1.00  0.00     0.010 C 
HETATM   29  C21 UNL     1     -15.268 -36.140  26.124  1.00  0.00    -0.009 C 
HETATM   30  C22 UNL     1     -15.310 -34.795  26.827  1.00  0.00     0.006 C 
HETATM   31  C27 UNL     1     -15.535 -35.673  24.701  1.00  0.00     0.002 C 
HETATM   32  C23 UNL     1     -14.830 -33.797  25.785  1.00  0.00     0.009 C 
HETATM   33  C24 UNL     1     -14.477 -34.647  24.545  1.00  0.00    -0.043 C 
HETATM   34  C25 UNL     1     -14.669 -33.791  23.297  1.00  0.00     0.015 C 
HETATM   35  C26 UNL     1     -13.071 -35.068  24.707  1.00  0.00     0.015 C 
HETATM   36  C28 UNL     1     -15.711 -36.707  23.724  1.00  0.00    -0.005 C 
HETATM   37  C29 UNL     1     -14.789 -36.913  22.592  1.00  0.00     0.005 C 
HETATM   38  C32 UNL     1     -15.644 -38.039  24.486  1.00  0.00    -0.006 C 
HETATM   39  C30 UNL     1     -15.262 -38.305  22.113  1.00  0.00     0.001 C 
HETATM   40  C31 UNL     1     -15.559 -39.040  23.436  1.00  0.00     0.005 C 
ENDBRANCH  26  27
ENDBRANCH  25  26
ENDBRANCH   9  25
BRANCH   6  41
HETATM   41  C13 UNL     1     -19.122 -40.327  20.980  1.00  0.00     0.119 C 
HETATM   42 CL1  UNL     1     -17.562 -40.264  20.155  1.00  0.00    -0.130 Cl
ENDBRANCH   6  41
TORSDOF 11
ENDMDL
MODEL 4
REMARK VINA RESULT: -8.685472066      4.369      6.267
REMARK  11 active torsions:
REMARK  status: ('A' for Active; 'I' for Inactive)
REMARK    1  A    between atoms: C2_2  and  C3_3 
REMARK    2  A    between atoms: C3_3  and  C5_5 
REMARK    3  A    between atoms: C5_5  and  N1_6 
REMARK    4  A    between atoms: C5_5  and  C9_16 
REMARK    5  A    between atoms: N1_6  and  C6_8 
REMARK    6  A    between atoms: C6_8  and  C7_10 
REMARK    7  A    between atoms: C7_10  and  N2_11 
REMARK       I    between atoms: N2_11  and  C8_13 
REMARK       I    between atoms: C9_16  and  N4_18 
REMARK    8  A    between atoms: C12_21  and  C13_22 
REMARK    9  A    between atoms: C16_26  and  C17_27 
REMARK   10  A    between atoms: C17_27  and  C18_28 
REMARK   11  A    between atoms: C18_28  and  C19_29 
ROOT
HETATM    1  C9  UNL     1     -22.269 -37.212  19.413  1.00  0.00     0.243 C 
HETATM    2  O2  UNL     1     -21.656 -37.238  18.289  1.00  0.00    -0.271 OA
HETATM    3  N4  UNL     1     -21.901 -36.177  20.304  1.00  0.00    -0.345 N 
HETATM    4  C10 UNL     1     -22.407 -35.984  21.647  1.00  0.00     0.132 C 
HETATM    5  C11 UNL     1     -21.972 -34.513  21.883  1.00  0.00     0.015 C 
HETATM    6  C12 UNL     1     -22.648 -33.754  20.801  1.00  0.00     0.007 C 
HETATM    7  C14 UNL     1     -21.761 -33.913  19.587  1.00  0.00     0.032 C 
HETATM    8  C15 UNL     1     -20.924 -35.100  20.006  1.00  0.00     0.092 C 
HETATM    9  C16 UNL     1     -20.543 -34.711  21.413  1.00  0.00     0.015 C 
ENDROOT
BRANCH   1  10
HETATM   10  C5  UNL     1     -23.295 -38.256  19.682  1.00  0.00     0.178 C 
BRANCH  10  11
HETATM   11  C3  UNL     1     -24.262 -38.401  18.553  1.00  0.00     0.013 C 
HETATM   12  C4  UNL     1     -25.369 -37.430  18.441  1.00  0.00     0.012 C 
BRANCH  11  13
HETATM   13  C2  UNL     1     -24.661 -39.845  18.294  1.00  0.00     0.002 C 
HETATM   14  C1  UNL     1     -24.616 -40.252  16.863  1.00  0.00     0.005 C 
ENDBRANCH  11  13
ENDBRANCH  10  11
BRANCH  10  15
HETATM   15  N1  UNL     1     -22.619 -39.484  19.957  1.00  0.00    -0.369 N 
ATOM     16  H1  UNL     1     -22.828 -40.244  19.310  1.00  0.00     0.161 HD
BRANCH  15  17
HETATM   17  C6  UNL     1     -21.717 -39.806  20.971  1.00  0.00     0.092 C 
HETATM   18  S1  UNL     1     -20.154 -40.257  20.610  1.00  0.00    -0.064 SA
BRANCH  17  19
HETATM   19  C7  UNL     1     -22.077 -39.773  22.399  1.00  0.00     0.193 C 
BRANCH  19  20
HETATM   20  N2  UNL     1     -20.847 -39.720  23.220  1.00  0.00    -0.339 N 
HETATM   21  C8  UNL     1     -20.950 -40.051  24.588  1.00  0.00     0.329 C 
HETATM   22  N3  UNL     1     -19.772 -40.010  25.415  1.00  0.00    -0.040 NA
HETATM   23  O1  UNL     1     -22.050 -40.378  25.081  1.00  0.00    -0.251 OA
ATOM     24  H2  UNL     1     -19.952 -39.451  22.811  1.00  0.00     0.164 HD
ENDBRANCH  19  20
ENDBRANCH  17  19
ENDBRANCH  15  17
ENDBRANCH  10  15
ENDBRANCH   1  10
BRANCH   9  25
HETATM   25  C17 UNL     1     -19.686 -33.484  21.517  1.00  0.00     0.007 C 
BRANCH  25  26
HETATM   26  C18 UNL     1     -18.578 -33.658  22.525  1.00  0.00     0.005 C 
BRANCH  26  27
HETATM   27  C19 UNL     1     -17.684 -34.811  22.338  1.00  0.00    -0.010 C 
HETATM   28  C20 UNL     1     -17.935 -35.792  23.511  1.00  0.00     0.010 C 
HETATM   29  C21 UNL     1     -16.757 -35.849  24.399  1.00  0.00    -0.009 C 
HETATM   30  C22 UNL     1     -17.090 -36.178  25.843  1.00  0.00     0.006 C 
HETATM   31  C27 UNL     1     -16.042 -34.523  24.617  1.00  0.00     0.002 C 
HETATM   32  C23 UNL     1     -15.975 -35.539  26.655  1.00  0.00     0.009 C 
HETATM   33  C24 UNL     1     -15.018 -34.922  25.610  1.00  0.00    -0.043 C 
HETATM   34  C25 UNL     1     -14.315 -33.725  26.242  1.00  0.00     0.015 C 
HETATM   35  C26 UNL     1     -14.061 -35.982  25.236  1.00  0.00     0.015 C 
HETATM   36  C28 UNL     1     -15.680 -33.804  23.431  1.00  0.00    -0.005 C 
HETATM   37  C29 UNL     1     -14.282 -33.537  23.045  1.00  0.00     0.005 C 
HETATM   38  C32 UNL     1     -16.229 -34.615  22.248  1.00  0.00    -0.006 C 
HETATM   39  C30 UNL     1     -14.494 -33.065  21.587  1.00  0.00     0.001 C 
HETATM   40  C31 UNL     1     -15.614 -33.998  21.085  1.00  0.00     0.005 C 
ENDBRANCH  26  27
ENDBRANCH  25  26
ENDBRANCH   9  25
BRANCH   6  41
HETATM   41  C13 UNL     1     -23.036 -32.348  21.114  1.00  0.00     0.119 C 
HETATM   42 CL1  UNL     1     -22.759 -31.926  22.805  1.00  0.00    -0.130 Cl
ENDBRANCH   6  41
TORSDOF 11
ENDMDL
MODEL 5
REMARK VINA RESULT: -8.618478174      4.777      7.204
REMARK  11 active torsions:
REMARK  status: ('A' for Active; 'I' for Inactive)
REMARK    1  A    between atoms: C2_2  and  C3_3 
REMARK    2  A    between atoms: C3_3  and  C5_5 
REMARK    3  A    between atoms: C5_5  and  N1_6 
REMARK    4  A    between atoms: C5_5  and  C9_16 
REMARK    5  A    between atoms: N1_6  and  C6_8 
REMARK    6  A    between atoms: C6_8  and  C7_10 
REMARK    7  A    between atoms: C7_10  and  N2_11 
REMARK       I    between atoms: N2_11  and  C8_13 
REMARK       I    between atoms: C9_16  and  N4_18 
REMARK    8  A    between atoms: C12_21  and  C13_22 
REMARK    9  A    between atoms: C16_26  and  C17_27 
REMARK   10  A    between atoms: C17_27  and  C18_28 
REMARK   11  A    between atoms: C18_28  and  C19_29 
ROOT
HETATM    1  C9  UNL     1     -21.950 -35.791  21.220  1.00  0.00     0.243 C 
HETATM    2  O2  UNL     1     -23.017 -36.218  21.786  1.00  0.00    -0.271 OA
HETATM    3  N4  UNL     1     -20.738 -36.392  21.634  1.00  0.00    -0.345 N 
HETATM    4  C10 UNL     1     -19.409 -36.034  21.185  1.00  0.00     0.132 C 
HETATM    5  C11 UNL     1     -18.628 -37.295  21.641  1.00  0.00     0.015 C 
HETATM    6  C12 UNL     1     -19.292 -38.413  20.928  1.00  0.00     0.007 C 
HETATM    7  C14 UNL     1     -20.506 -38.757  21.762  1.00  0.00     0.032 C 
HETATM    8  C15 UNL     1     -20.626 -37.508  22.606  1.00  0.00     0.092 C 
HETATM    9  C16 UNL     1     -19.197 -37.311  23.049  1.00  0.00     0.015 C 
ENDROOT
BRANCH   1  10
HETATM   10  C5  UNL     1     -22.075 -34.717  20.198  1.00  0.00     0.178 C 
BRANCH  10  11
HETATM   11  C3  UNL     1     -22.123 -35.262  18.809  1.00  0.00     0.013 C 
HETATM   12  C4  UNL     1     -22.557 -36.660  18.612  1.00  0.00     0.012 C 
BRANCH  11  13
HETATM   13  C2  UNL     1     -20.929 -34.848  17.965  1.00  0.00     0.002 C 
HETATM   14  C1  UNL     1     -20.244 -33.610  18.427  1.00  0.00     0.005 C 
ENDBRANCH  11  13
ENDBRANCH  10  11
BRANCH  10  15
HETATM   15  N1  UNL     1     -23.238 -33.945  20.502  1.00  0.00    -0.369 N 
ATOM     16  H1  UNL     1     -24.117 -34.348  20.180  1.00  0.00     0.161 HD
BRANCH  15  17
HETATM   17  C6  UNL     1     -23.359 -32.727  21.171  1.00  0.00     0.092 C 
HETATM   18  S1  UNL     1     -22.544 -31.377  20.635  1.00  0.00    -0.064 SA
BRANCH  17  19
HETATM   19  C7  UNL     1     -24.195 -32.556  22.372  1.00  0.00     0.193 C 
BRANCH  19  20
HETATM   20  N2  UNL     1     -24.232 -31.125  22.751  1.00  0.00    -0.339 N 
HETATM   21  C8  UNL     1     -24.310 -30.807  24.123  1.00  0.00     0.329 C 
HETATM   22  N3  UNL     1     -24.346 -29.425  24.526  1.00  0.00    -0.040 NA
HETATM   23  O1  UNL     1     -24.346 -31.712  24.984  1.00  0.00    -0.251 OA
ATOM     24  H2  UNL     1     -24.202 -30.392  22.042  1.00  0.00     0.164 HD
ENDBRANCH  19  20
ENDBRANCH  17  19
ENDBRANCH  15  17
ENDBRANCH  10  15
ENDBRANCH   1  10
BRANCH   9  25
HETATM   25  C17 UNL     1     -18.651 -38.404  23.919  1.00  0.00     0.007 C 
BRANCH  25  26
HETATM   26  C18 UNL     1     -18.135 -37.871  25.231  1.00  0.00     0.005 C 
BRANCH  26  27
HETATM   27  C19 UNL     1     -16.729 -38.158  25.559  1.00  0.00    -0.010 C 
HETATM   28  C20 UNL     1     -16.300 -37.173  26.675  1.00  0.00     0.010 C 
HETATM   29  C21 UNL     1     -15.305 -36.210  26.160  1.00  0.00    -0.009 C 
HETATM   30  C22 UNL     1     -15.328 -34.865  26.864  1.00  0.00     0.006 C 
HETATM   31  C27 UNL     1     -15.537 -35.736  24.733  1.00  0.00     0.002 C 
HETATM   32  C23 UNL     1     -14.808 -33.878  25.831  1.00  0.00     0.009 C 
HETATM   33  C24 UNL     1     -14.453 -34.735  24.595  1.00  0.00    -0.043 C 
HETATM   34  C25 UNL     1     -14.604 -33.873  23.346  1.00  0.00     0.015 C 
HETATM   35  C26 UNL     1     -13.060 -35.187  24.782  1.00  0.00     0.015 C 
HETATM   36  C28 UNL     1     -15.720 -36.765  23.752  1.00  0.00    -0.005 C 
HETATM   37  C29 UNL     1     -14.783 -36.992  22.636  1.00  0.00     0.005 C 
HETATM   38  C32 UNL     1     -15.696 -38.099  24.514  1.00  0.00    -0.006 C 
HETATM   39  C30 UNL     1     -15.279 -38.373  22.147  1.00  0.00     0.001 C 
HETATM   40  C31 UNL     1     -15.616 -39.101  23.465  1.00  0.00     0.005 C 
ENDBRANCH  26  27
ENDBRANCH  25  26
ENDBRANCH   9  25
BRANCH   6  41
HETATM   41  C13 UNL     1     -18.433 -39.577  20.565  1.00  0.00     0.119 C 
HETATM   42 CL1  UNL     1     -18.681 -40.964  21.628  1.00  0.00    -0.130 Cl
ENDBRANCH   6  41
TORSDOF 11
ENDMDL
