MODEL 1
REMARK VINA RESULT: -9.042042005      0.000      0.000
REMARK  9 active torsions:
REMARK  status: ('A' for Active; 'I' for Inactive)
REMARK    1  A    between atoms: C6_7  and  C7_8 
REMARK    2  A    between atoms: C7_8  and  C8_9 
REMARK    3  A    between atoms: C8_9  and  C9_10 
REMARK    4  A    between atoms: C9_10  and  N1_11 
REMARK       I    between atoms: N1_11  and  C10_13 
REMARK       I    between atoms: C10_13  and  N2_15 
REMARK    5  A    between atoms: N2_15  and  C11_17 
REMARK    6  A    between atoms: C18_26  and  C19_27 
REMARK    7  A    between atoms: C19_27  and  C20_28 
REMARK    8  A    between atoms: C23_31  and  C24_32 
REMARK       I    between atoms: C24_32  and  N4_34 
REMARK    9  A    between atoms: N4_34  and  C25_36 
ROOT
HETATM    1  C9  UNL     1     -16.503 -32.000  20.945  1.00  0.00     0.124 C 
ENDROOT
BRANCH   1   2
HETATM    2  C8  UNL     1     -15.363 -32.739  20.363  1.00  0.00     0.020 C 
BRANCH   2   3
HETATM    3  C7  UNL     1     -14.982 -34.040  20.930  1.00  0.00     0.007 C 
BRANCH   3   4
HETATM    4  C6  UNL     1     -15.345 -34.430  22.302  1.00  0.00     0.003 C 
HETATM    5  C5  UNL     1     -14.568 -33.861  23.436  1.00  0.00     0.007 C 
HETATM    6  C4  UNL     1     -15.370 -34.137  24.724  1.00  0.00     0.021 C 
HETATM    7  C3  UNL     1     -15.190 -35.628  25.039  1.00  0.00     0.086 C 
HETATM    8  C2  UNL     1     -14.804 -36.314  23.757  1.00  0.00    -0.061 C 
HETATM    9 BR1  UNL     1     -13.749 -35.839  26.292  1.00  0.00    -0.086 Br
HETATM   10  C1  UNL     1     -13.865 -37.237  23.719  1.00  0.00     0.016 C 
HETATM   11  C23 UNL     1     -15.517 -35.927  22.502  1.00  0.00     0.111 C 
BRANCH  11  12
HETATM   12  C24 UNL     1     -16.935 -36.347  22.558  1.00  0.00     0.226 C 
HETATM   13  O3  UNL     1     -17.795 -35.435  22.264  1.00  0.00    -0.273 OA
HETATM   14  N4  UNL     1     -17.447 -37.600  22.886  1.00  0.00    -0.356 N 
ATOM     15  H4  UNL     1     -16.791 -38.346  23.122  1.00  0.00     0.162 HD
BRANCH  14  16
HETATM   16  C25 UNL     1     -18.876 -37.899  22.910  1.00  0.00     0.084 C 
HETATM   17  C26 UNL     1     -19.337 -38.525  24.186  1.00  0.00     0.025 C 
HETATM   18  C27 UNL     1     -20.523 -39.469  23.962  1.00  0.00     0.002 C 
HETATM   19  C28 UNL     1     -20.122 -40.671  23.117  1.00  0.00     0.000 C 
HETATM   20  C29 UNL     1     -18.861 -40.289  22.360  1.00  0.00     0.002 C 
HETATM   21  C30 UNL     1     -19.114 -38.917  21.788  1.00  0.00     0.025 C 
ENDBRANCH  14  16
ENDBRANCH  11  12
ENDBRANCH   3   4
ENDBRANCH   2   3
ENDBRANCH   1   2
BRANCH   1  22
HETATM   22  N1  UNL     1     -17.707 -32.811  21.057  1.00  0.00    -0.343 N 
HETATM   23  C10 UNL     1     -19.016 -32.381  20.852  1.00  0.00     0.316 C 
HETATM   24  O1  UNL     1     -19.268 -31.200  20.544  1.00  0.00    -0.247 OA
HETATM   25  N2  UNL     1     -20.097 -33.286  20.991  1.00  0.00    -0.336 N 
ATOM     26  H2  UNL     1     -19.874 -34.249  21.241  1.00  0.00     0.164 HD
ATOM     27  H1  UNL     1     -17.579 -33.791  21.310  1.00  0.00     0.164 HD
BRANCH  25  28
HETATM   28  C11 UNL     1     -21.485 -32.955  20.807  1.00  0.00     0.111 C 
HETATM   29  C12 UNL     1     -21.997 -33.385  19.467  1.00  0.00     0.052 C 
HETATM   30  C13 UNL     1     -22.895 -34.555  19.771  1.00  0.00     0.089 C 
HETATM   31  C14 UNL     1     -22.853 -35.650  18.757  1.00  0.00     0.026 C 
HETATM   32  N3  UNL     1     -22.464 -34.956  21.085  1.00  0.00    -0.341 N 
HETATM   33  C15 UNL     1     -23.088 -37.018  19.341  1.00  0.00     0.011 C 
HETATM   34  C16 UNL     1     -22.130 -37.366  20.429  1.00  0.00     0.103 C 
HETATM   35  C17 UNL     1     -22.189 -36.296  21.460  1.00  0.00     0.220 C 
HETATM   36  O2  UNL     1     -21.982 -36.635  22.661  1.00  0.00    -0.273 OA
HETATM   37  C18 UNL     1     -22.359 -33.717  21.835  1.00  0.00     0.110 C 
BRANCH  37  38
HETATM   38  C19 UNL     1     -23.608 -32.979  22.095  1.00  0.00     0.031 C 
BRANCH  38  39
HETATM   39  C20 UNL     1     -23.600 -31.788  22.953  1.00  0.00    -0.021 C 
HETATM   40  C21 UNL     1     -23.926 -30.558  22.050  1.00  0.00     0.009 C 
HETATM   41  C22 UNL     1     -24.657 -31.802  24.014  1.00  0.00     0.009 C 
ENDBRANCH  38  39
ENDBRANCH  37  38
ENDBRANCH  25  28
ENDBRANCH   1  22
TORSDOF 9
ENDMDL
MODEL 2
REMARK VINA RESULT: -9.028652155      1.135      1.451
REMARK  9 active torsions:
REMARK  status: ('A' for Active; 'I' for Inactive)
REMARK    1  A    between atoms: C6_7  and  C7_8 
REMARK    2  A    between atoms: C7_8  and  C8_9 
REMARK    3  A    between atoms: C8_9  and  C9_10 
REMARK    4  A    between atoms: C9_10  and  N1_11 
REMARK       I    between atoms: N1_11  and  C10_13 
REMARK       I    between atoms: C10_13  and  N2_15 
REMARK    5  A    between atoms: N2_15  and  C11_17 
REMARK    6  A    between atoms: C18_26  and  C19_27 
REMARK    7  A    between atoms: C19_27  and  C20_28 
REMARK    8  A    between atoms: C23_31  and  C24_32 
REMARK       I    between atoms: C24_32  and  N4_34 
REMARK    9  A    between atoms: N4_34  and  C25_36 
ROOT
HETATM    1  C9  UNL     1     -16.299 -32.316  20.562  1.00  0.00     0.124 C 
ENDROOT
BRANCH   1   2
HETATM    2  C8  UNL     1     -15.089 -33.034  21.016  1.00  0.00     0.020 C 
BRANCH   2   3
HETATM    3  C7  UNL     1     -15.203 -34.431  21.458  1.00  0.00     0.007 C 
BRANCH   3   4
HETATM    4  C6  UNL     1     -15.466 -34.786  22.862  1.00  0.00     0.003 C 
HETATM    5  C5  UNL     1     -15.590 -33.695  23.865  1.00  0.00     0.007 C 
HETATM    6  C4  UNL     1     -16.211 -34.310  25.136  1.00  0.00     0.021 C 
HETATM    7  C3  UNL     1     -15.100 -35.127  25.812  1.00  0.00     0.086 C 
HETATM    8  C2  UNL     1     -14.080 -35.456  24.756  1.00  0.00    -0.061 C 
HETATM    9 BR1  UNL     1     -14.252 -34.047  27.155  1.00  0.00    -0.086 Br
HETATM   10  C1  UNL     1     -12.787 -35.378  24.994  1.00  0.00     0.016 C 
HETATM   11  C23 UNL     1     -14.563 -35.881  23.408  1.00  0.00     0.111 C 
BRANCH  11  12
HETATM   12  C24 UNL     1     -15.231 -37.200  23.487  1.00  0.00     0.226 C 
HETATM   13  O3  UNL     1     -14.483 -38.176  23.870  1.00  0.00    -0.273 OA
HETATM   14  N4  UNL     1     -16.558 -37.509  23.202  1.00  0.00    -0.356 N 
ATOM     15  H4  UNL     1     -17.177 -36.757  22.899  1.00  0.00     0.162 HD
BRANCH  14  16
HETATM   16  C25 UNL     1     -17.107 -38.857  23.316  1.00  0.00     0.084 C 
HETATM   17  C26 UNL     1     -18.058 -39.213  22.220  1.00  0.00     0.025 C 
HETATM   18  C27 UNL     1     -19.132 -40.198  22.693  1.00  0.00     0.002 C 
HETATM   19  C28 UNL     1     -20.039 -39.566  23.741  1.00  0.00     0.000 C 
HETATM   20  C29 UNL     1     -19.287 -38.387  24.336  1.00  0.00     0.002 C 
HETATM   21  C30 UNL     1     -17.894 -38.884  24.632  1.00  0.00     0.025 C 
ENDBRANCH  14  16
ENDBRANCH  11  12
ENDBRANCH   3   4
ENDBRANCH   2   3
ENDBRANCH   1   2
BRANCH   1  22
HETATM   22  N1  UNL     1     -17.527 -33.051  20.828  1.00  0.00    -0.343 N 
HETATM   23  C10 UNL     1     -18.827 -32.594  20.618  1.00  0.00     0.316 C 
HETATM   24  O1  UNL     1     -19.045 -31.454  20.164  1.00  0.00    -0.247 OA
HETATM   25  N2  UNL     1     -19.935 -33.424  20.918  1.00  0.00    -0.336 N 
ATOM     26  H2  UNL     1     -19.739 -34.355  21.286  1.00  0.00     0.164 HD
ATOM     27  H1  UNL     1     -17.427 -33.993  21.205  1.00  0.00     0.164 HD
BRANCH  25  28
HETATM   28  C11 UNL     1     -21.316 -33.058  20.744  1.00  0.00     0.111 C 
HETATM   29  C12 UNL     1     -21.851 -33.485  19.413  1.00  0.00     0.052 C 
HETATM   30  C13 UNL     1     -22.776 -34.629  19.734  1.00  0.00     0.089 C 
HETATM   31  C14 UNL     1     -22.772 -35.732  18.727  1.00  0.00     0.026 C 
HETATM   32  N3  UNL     1     -22.343 -35.031  21.046  1.00  0.00    -0.341 N 
HETATM   33  C15 UNL     1     -23.036 -37.090  19.324  1.00  0.00     0.011 C 
HETATM   34  C16 UNL     1     -22.077 -37.455  20.405  1.00  0.00     0.103 C 
HETATM   35  C17 UNL     1     -22.098 -36.376  21.429  1.00  0.00     0.220 C 
HETATM   36  O2  UNL     1     -21.889 -36.711  22.630  1.00  0.00    -0.273 OA
HETATM   37  C18 UNL     1     -22.199 -33.790  21.786  1.00  0.00     0.110 C 
BRANCH  37  38
HETATM   38  C19 UNL     1     -23.427 -33.019  22.052  1.00  0.00     0.031 C 
BRANCH  38  39
HETATM   39  C20 UNL     1     -23.364 -31.767  22.816  1.00  0.00    -0.021 C 
HETATM   40  C21 UNL     1     -23.779 -30.611  21.855  1.00  0.00     0.009 C 
HETATM   41  C22 UNL     1     -24.329 -31.709  23.959  1.00  0.00     0.009 C 
ENDBRANCH  38  39
ENDBRANCH  37  38
ENDBRANCH  25  28
ENDBRANCH   1  22
TORSDOF 9
ENDMDL
MODEL 3
REMARK VINA RESULT: -8.869177588      2.472      4.551
REMARK  9 active torsions:
REMARK  status: ('A' for Active; 'I' for Inactive)
REMARK    1  A    between atoms: C6_7  and  C7_8 
REMARK    2  A    between atoms: C7_8  and  C8_9 
REMARK    3  A    between atoms: C8_9  and  C9_10 
REMARK    4  A    between atoms: C9_10  and  N1_11 
REMARK       I    between atoms: N1_11  and  C10_13 
REMARK       I    between atoms: C10_13  and  N2_15 
REMARK    5  A    between atoms: N2_15  and  C11_17 
REMARK    6  A    between atoms: C18_26  and  C19_27 
REMARK    7  A    between atoms: C19_27  and  C20_28 
REMARK    8  A    between atoms: C23_31  and  C24_32 
REMARK       I    between atoms: C24_32  and  N4_34 
REMARK    9  A    between atoms: N4_34  and  C25_36 
ROOT
HETATM    1  C9  UNL     1     -16.133 -32.557  20.618  1.00  0.00     0.124 C 
ENDROOT
BRANCH   1   2
HETATM    2  C8  UNL     1     -14.958 -33.335  21.063  1.00  0.00     0.020 C 
BRANCH   2   3
HETATM    3  C7  UNL     1     -14.526 -33.250  22.466  1.00  0.00     0.007 C 
BRANCH   3   4
HETATM    4  C6  UNL     1     -14.400 -34.443  23.318  1.00  0.00     0.003 C 
HETATM    5  C5  UNL     1     -15.601 -35.291  23.544  1.00  0.00     0.007 C 
HETATM    6  C4  UNL     1     -15.113 -36.625  24.145  1.00  0.00     0.021 C 
HETATM    7  C3  UNL     1     -14.750 -36.335  25.609  1.00  0.00     0.086 C 
HETATM    8  C2  UNL     1     -14.485 -34.858  25.722  1.00  0.00    -0.061 C 
HETATM    9 BR1  UNL     1     -16.250 -36.765  26.728  1.00  0.00    -0.086 Br
HETATM   10  C1  UNL     1     -14.928 -34.151  26.740  1.00  0.00     0.016 C 
HETATM   11  C23 UNL     1     -13.696 -34.193  24.641  1.00  0.00     0.111 C 
BRANCH  11  12
HETATM   12  C24 UNL     1     -12.294 -34.669  24.654  1.00  0.00     0.226 C 
HETATM   13  O3  UNL     1     -11.397 -33.747  24.697  1.00  0.00    -0.273 OA
HETATM   14  N4  UNL     1     -11.833 -35.983  24.625  1.00  0.00    -0.356 N 
ATOM     15  H4  UNL     1     -12.520 -36.737  24.593  1.00  0.00     0.162 HD
BRANCH  14  16
HETATM   16  C25 UNL     1     -10.416 -36.334  24.640  1.00  0.00     0.084 C 
HETATM   17  C26 UNL     1      -9.902 -36.811  23.321  1.00  0.00     0.025 C 
HETATM   18  C27 UNL     1      -8.763 -37.823  23.484  1.00  0.00     0.002 C 
HETATM   19  C28 UNL     1      -9.253 -39.106  24.144  1.00  0.00     0.000 C 
HETATM   20  C29 UNL     1     -10.542 -38.772  24.876  1.00  0.00     0.002 C 
HETATM   21  C30 UNL     1     -10.278 -37.495  25.633  1.00  0.00     0.025 C 
ENDBRANCH  14  16
ENDBRANCH  11  12
ENDBRANCH   3   4
ENDBRANCH   2   3
ENDBRANCH   1   2
BRANCH   1  22
HETATM   22  N1  UNL     1     -17.390 -33.086  21.128  1.00  0.00    -0.343 N 
HETATM   23  C10 UNL     1     -18.664 -32.583  20.871  1.00  0.00     0.316 C 
HETATM   24  O1  UNL     1     -18.830 -31.582  20.148  1.00  0.00    -0.247 OA
HETATM   25  N2  UNL     1     -19.806 -33.206  21.433  1.00  0.00    -0.336 N 
ATOM     26  H2  UNL     1     -19.653 -34.025  22.021  1.00  0.00     0.164 HD
ATOM     27  H1  UNL     1     -17.332 -33.906  21.732  1.00  0.00     0.164 HD
BRANCH  25  28
HETATM   28  C11 UNL     1     -21.165 -32.774  21.240  1.00  0.00     0.111 C 
HETATM   29  C12 UNL     1     -21.642 -33.016  19.842  1.00  0.00     0.052 C 
HETATM   30  C13 UNL     1     -22.615 -34.158  19.974  1.00  0.00     0.089 C 
HETATM   31  C14 UNL     1     -22.590 -35.129  18.840  1.00  0.00     0.026 C 
HETATM   32  N3  UNL     1     -22.262 -34.733  21.246  1.00  0.00    -0.341 N 
HETATM   33  C15 UNL     1     -22.923 -36.540  19.250  1.00  0.00     0.011 C 
HETATM   34  C16 UNL     1     -22.032 -37.067  20.322  1.00  0.00     0.103 C 
HETATM   35  C17 UNL     1     -22.076 -36.121  21.470  1.00  0.00     0.220 C 
HETATM   36  O2  UNL     1     -21.939 -36.608  22.629  1.00  0.00    -0.273 OA
HETATM   37  C18 UNL     1     -22.121 -33.597  22.140  1.00  0.00     0.110 C 
BRANCH  37  38
HETATM   38  C19 UNL     1     -23.338 -32.822  22.441  1.00  0.00     0.031 C 
BRANCH  38  39
HETATM   39  C20 UNL     1     -23.237 -31.430  22.896  1.00  0.00    -0.021 C 
HETATM   40  C21 UNL     1     -23.779 -30.522  21.749  1.00  0.00     0.009 C 
HETATM   41  C22 UNL     1     -24.086 -31.124  24.090  1.00  0.00     0.009 C 
ENDBRANCH  38  39
ENDBRANCH  37  38
ENDBRANCH  25  28
ENDBRANCH   1  22
TORSDOF 9
ENDMDL
MODEL 4
REMARK VINA RESULT: -8.779158335      1.634      2.410
REMARK  9 active torsions:
REMARK  status: ('A' for Active; 'I' for Inactive)
REMARK    1  A    between atoms: C6_7  and  C7_8 
REMARK    2  A    between atoms: C7_8  and  C8_9 
REMARK    3  A    between atoms: C8_9  and  C9_10 
REMARK    4  A    between atoms: C9_10  and  N1_11 
REMARK       I    between atoms: N1_11  and  C10_13 
REMARK       I    between atoms: C10_13  and  N2_15 
REMARK    5  A    between atoms: N2_15  and  C11_17 
REMARK    6  A    between atoms: C18_26  and  C19_27 
REMARK    7  A    between atoms: C19_27  and  C20_28 
REMARK    8  A    between atoms: C23_31  and  C24_32 
REMARK       I    between atoms: C24_32  and  N4_34 
REMARK    9  A    between atoms: N4_34  and  C25_36 
ROOT
HETATM    1  C9  UNL     1     -14.610 -33.493  22.228  1.00  0.00     0.124 C 
ENDROOT
BRANCH   1   2
HETATM    2  C8  UNL     1     -14.239 -34.063  23.540  1.00  0.00     0.020 C 
BRANCH   2   3
HETATM    3  C7  UNL     1     -15.165 -33.928  24.674  1.00  0.00     0.007 C 
BRANCH   3   4
HETATM    4  C6  UNL     1     -15.938 -35.068  25.190  1.00  0.00     0.003 C 
HETATM    5  C5  UNL     1     -15.638 -35.576  26.556  1.00  0.00     0.007 C 
HETATM    6  C4  UNL     1     -16.805 -36.497  26.968  1.00  0.00     0.021 C 
HETATM    7  C3  UNL     1     -16.624 -37.805  26.184  1.00  0.00     0.086 C 
HETATM    8  C2  UNL     1     -15.775 -37.495  24.982  1.00  0.00    -0.061 C 
HETATM    9 BR1  UNL     1     -15.680 -39.071  27.278  1.00  0.00    -0.086 Br
HETATM   10  C1  UNL     1     -14.809 -38.299  24.590  1.00  0.00     0.016 C 
HETATM   11  C23 UNL     1     -16.049 -36.236  24.224  1.00  0.00     0.111 C 
BRANCH  11  12
HETATM   12  C24 UNL     1     -17.365 -36.312  23.550  1.00  0.00     0.226 C 
HETATM   13  O3  UNL     1     -18.006 -35.199  23.461  1.00  0.00    -0.273 OA
HETATM   14  N4  UNL     1     -17.987 -37.432  23.003  1.00  0.00    -0.356 N 
ATOM     15  H4  UNL     1     -17.503 -38.328  23.055  1.00  0.00     0.162 HD
BRANCH  14  16
HETATM   16  C25 UNL     1     -19.296 -37.385  22.360  1.00  0.00     0.084 C 
HETATM   17  C26 UNL     1     -20.345 -38.173  23.074  1.00  0.00     0.025 C 
HETATM   18  C27 UNL     1     -21.396 -38.731  22.109  1.00  0.00     0.002 C 
HETATM   19  C28 UNL     1     -20.787 -39.754  21.159  1.00  0.00     0.000 C 
HETATM   20  C29 UNL     1     -19.288 -39.507  21.131  1.00  0.00     0.002 C 
HETATM   21  C30 UNL     1     -19.110 -38.018  20.976  1.00  0.00     0.025 C 
ENDBRANCH  14  16
ENDBRANCH  11  12
ENDBRANCH   3   4
ENDBRANCH   2   3
ENDBRANCH   1   2
BRANCH   1  22
HETATM   22  N1  UNL     1     -16.022 -33.665  21.915  1.00  0.00    -0.343 N 
HETATM   23  C10 UNL     1     -16.907 -32.667  21.509  1.00  0.00     0.316 C 
HETATM   24  O1  UNL     1     -16.533 -31.486  21.381  1.00  0.00    -0.247 OA
HETATM   25  N2  UNL     1     -18.260 -32.981  21.230  1.00  0.00    -0.336 N 
ATOM     26  H2  UNL     1     -18.548 -33.953  21.337  1.00  0.00     0.164 HD
ATOM     27  H1  UNL     1     -16.400 -34.608  22.000  1.00  0.00     0.164 HD
BRANCH  25  28
HETATM   28  C11 UNL     1     -19.260 -32.036  20.808  1.00  0.00     0.111 C 
HETATM   29  C12 UNL     1     -19.640 -32.219  19.372  1.00  0.00     0.052 C 
HETATM   30  C13 UNL     1     -21.025 -32.809  19.427  1.00  0.00     0.089 C 
HETATM   31  C14 UNL     1     -21.307 -33.828  18.372  1.00  0.00     0.026 C 
HETATM   32  N3  UNL     1     -21.101 -33.320  20.771  1.00  0.00    -0.341 N 
HETATM   33  C15 UNL     1     -22.270 -34.899  18.815  1.00  0.00     0.011 C 
HETATM   34  C16 UNL     1     -21.825 -35.621  20.040  1.00  0.00     0.103 C 
HETATM   35  C17 UNL     1     -21.571 -34.615  21.107  1.00  0.00     0.220 C 
HETATM   36  O2  UNL     1     -21.790 -34.968  22.301  1.00  0.00    -0.273 OA
HETATM   37  C18 UNL     1     -20.572 -32.254  21.603  1.00  0.00     0.110 C 
BRANCH  37  38
HETATM   38  C19 UNL     1     -21.348 -31.002  21.668  1.00  0.00     0.031 C 
BRANCH  38  39
HETATM   39  C20 UNL     1     -22.767 -31.028  22.043  1.00  0.00    -0.021 C 
HETATM   40  C21 UNL     1     -22.884 -30.420  23.474  1.00  0.00     0.009 C 
HETATM   41  C22 UNL     1     -23.637 -30.179  21.169  1.00  0.00     0.009 C 
ENDBRANCH  38  39
ENDBRANCH  37  38
ENDBRANCH  25  28
ENDBRANCH   1  22
TORSDOF 9
ENDMDL
MODEL 5
REMARK VINA RESULT: -8.697269706      3.077      8.255
REMARK  9 active torsions:
REMARK  status: ('A' for Active; 'I' for Inactive)
REMARK    1  A    between atoms: C6_7  and  C7_8 
REMARK    2  A    between atoms: C7_8  and  C8_9 
REMARK    3  A    between atoms: C8_9  and  C9_10 
REMARK    4  A    between atoms: C9_10  and  N1_11 
REMARK       I    between atoms: N1_11  and  C10_13 
REMARK       I    between atoms: C10_13  and  N2_15 
REMARK    5  A    between atoms: N2_15  and  C11_17 
REMARK    6  A    between atoms: C18_26  and  C19_27 
REMARK    7  A    between atoms: C19_27  and  C20_28 
REMARK    8  A    between atoms: C23_31  and  C24_32 
REMARK       I    between atoms: C24_32  and  N4_34 
REMARK    9  A    between atoms: N4_34  and  C25_36 
ROOT
HETATM    1  C9  UNL     1     -15.360 -32.683  20.242  1.00  0.00     0.124 C 
ENDROOT
BRANCH   1   2
HETATM    2  C8  UNL     1     -16.740 -32.383  19.807  1.00  0.00     0.020 C 
BRANCH   2   3
HETATM    3  C7  UNL     1     -17.785 -32.171  20.819  1.00  0.00     0.007 C 
BRANCH   3   4
HETATM    4  C6  UNL     1     -18.994 -33.008  20.880  1.00  0.00     0.003 C 
HETATM    5  C5  UNL     1     -18.839 -34.481  21.024  1.00  0.00     0.007 C 
HETATM    6  C4  UNL     1     -20.216 -35.049  21.422  1.00  0.00     0.021 C 
HETATM    7  C3  UNL     1     -21.080 -35.026  20.154  1.00  0.00     0.086 C 
HETATM    8  C2  UNL     1     -20.484 -34.005  19.223  1.00  0.00    -0.061 C 
HETATM    9 BR1  UNL     1     -20.992 -36.744  19.298  1.00  0.00    -0.086 Br
HETATM   10  C1  UNL     1     -20.367 -34.229  17.931  1.00  0.00     0.016 C 
HETATM   11  C23 UNL     1     -20.017 -32.706  19.798  1.00  0.00     0.111 C 
BRANCH  11  12
HETATM   12  C24 UNL     1     -21.167 -31.912  20.288  1.00  0.00     0.226 C 
HETATM   13  O3  UNL     1     -21.967 -31.477  19.378  1.00  0.00    -0.273 OA
HETATM   14  N4  UNL     1     -21.485 -31.584  21.603  1.00  0.00    -0.356 N 
ATOM     15  H4  UNL     1     -20.871 -31.916  22.348  1.00  0.00     0.162 HD
BRANCH  14  16
HETATM   16  C25 UNL     1     -22.652 -30.787  21.969  1.00  0.00     0.084 C 
HETATM   17  C26 UNL     1     -22.533 -30.122  23.301  1.00  0.00     0.025 C 
HETATM   18  C27 UNL     1     -23.896 -29.957  23.981  1.00  0.00     0.002 C 
HETATM   19  C28 UNL     1     -24.508 -31.308  24.328  1.00  0.00     0.000 C 
HETATM   20  C29 UNL     1     -23.836 -32.347  23.445  1.00  0.00     0.002 C 
HETATM   21  C30 UNL     1     -23.826 -31.771  22.052  1.00  0.00     0.025 C 
ENDBRANCH  14  16
ENDBRANCH  11  12
ENDBRANCH   3   4
ENDBRANCH   2   3
ENDBRANCH   1   2
BRANCH   1  22
HETATM   22  N1  UNL     1     -15.242 -33.974  20.905  1.00  0.00    -0.343 N 
HETATM   23  C10 UNL     1     -15.333 -34.212  22.275  1.00  0.00     0.316 C 
HETATM   24  O1  UNL     1     -15.529 -33.282  23.080  1.00  0.00    -0.247 OA
HETATM   25  N2  UNL     1     -15.204 -35.528  22.783  1.00  0.00    -0.336 N 
ATOM     26  H2  UNL     1     -15.046 -36.278  22.110  1.00  0.00     0.164 HD
ATOM     27  H1  UNL     1     -15.077 -34.785  20.308  1.00  0.00     0.164 HD
BRANCH  25  28
HETATM   28  C11 UNL     1     -15.278 -35.891  24.174  1.00  0.00     0.111 C 
HETATM   29  C12 UNL     1     -16.131 -37.100  24.399  1.00  0.00     0.052 C 
HETATM   30  C13 UNL     1     -15.149 -38.188  24.745  1.00  0.00     0.089 C 
HETATM   31  C14 UNL     1     -15.500 -39.536  24.206  1.00  0.00     0.026 C 
HETATM   32  N3  UNL     1     -13.903 -37.664  24.248  1.00  0.00    -0.341 N 
HETATM   33  C15 UNL     1     -14.298 -40.383  23.880  1.00  0.00     0.011 C 
HETATM   34  C16 UNL     1     -13.365 -39.735  22.915  1.00  0.00     0.103 C 
HETATM   35  C17 UNL     1     -12.985 -38.404  23.459  1.00  0.00     0.220 C 
HETATM   36  O2  UNL     1     -11.826 -37.975  23.187  1.00  0.00    -0.273 OA
HETATM   37  C18 UNL     1     -13.874 -36.285  24.700  1.00  0.00     0.110 C 
BRANCH  37  38
HETATM   38  C19 UNL     1     -13.786 -36.054  26.153  1.00  0.00     0.031 C 
BRANCH  38  39
HETATM   39  C20 UNL     1     -13.396 -34.738  26.672  1.00  0.00    -0.021 C 
HETATM   40  C21 UNL     1     -12.871 -33.896  25.469  1.00  0.00     0.009 C 
HETATM   41  C22 UNL     1     -14.536 -33.955  27.247  1.00  0.00     0.009 C 
ENDBRANCH  38  39
ENDBRANCH  37  38
ENDBRANCH  25  28
ENDBRANCH   1  22
TORSDOF 9
ENDMDL
