MODEL 1
REMARK VINA RESULT: -8.261493940      0.000      0.000
REMARK  18 active torsions:
REMARK  status: ('A' for Active; 'I' for Inactive)
REMARK    1  A    between atoms: C2_2  and  N1_3 
REMARK    2  A    between atoms: N1_3  and  C3_4 
REMARK    3  A    between atoms: N1_3  and  C5_6 
REMARK    4  A    between atoms: C5_6  and  C7_8 
REMARK    5  A    between atoms: C7_8  and  N2_9 
REMARK    6  A    between atoms: C7_8  and  C28_40 
REMARK    7  A    between atoms: C8_11  and  O1_12 
REMARK    8  A    between atoms: C8_11  and  N3_14 
REMARK    9  A    between atoms: N3_14  and  C9_16 
REMARK   10  A    between atoms: C9_16  and  C10_17 
REMARK   11  A    between atoms: C10_17  and  C11_18 
REMARK   12  A    between atoms: C11_18  and  C12_19 
REMARK   13  A    between atoms: C12_19  and  C14_21 
REMARK   14  A    between atoms: C20_29  and  C21_30 
REMARK   15  A    between atoms: C21_30  and  N5_31 
REMARK   16  A    between atoms: C25_35  and  O2_36 
REMARK   17  A    between atoms: C28_40  and  C29_41 
REMARK       I    between atoms: C29_41  and  N6_43 
REMARK   18  A    between atoms: N6_43  and  C30_45 
ROOT
HETATM    1  N3  UNL     1      17.531  16.949   5.300  1.00  0.00    -0.356 N 
ATOM      2  H3  UNL     1      16.866  16.426   5.870  1.00  0.00     0.163 HD
ENDROOT
BRANCH   1   3
HETATM    3  C8  UNL     1      18.517  17.684   5.999  1.00  0.00     0.216 C 
HETATM    4  N2  UNL     1      19.184  17.187   6.984  1.00  0.00    -0.327 N 
ATOM      5  H2  UNL     1      19.874  17.792   7.429  1.00  0.00     0.169 HD
BRANCH   4   6
HETATM    6  C7  UNL     1      19.046  15.876   7.506  1.00  0.00     0.030 C 
BRANCH   6   7
HETATM    7  C5  UNL     1      19.927  14.833   6.917  1.00  0.00     0.126 C 
HETATM    8  C6  UNL     1      19.068  13.820   6.167  1.00  0.00     0.038 C 
BRANCH   7   9
HETATM    9  N1  UNL     1      21.037  15.171   6.157  1.00  0.00    -0.385 N 
BRANCH   9  10
HETATM   10  C2  UNL     1      21.048  15.157   4.774  1.00  0.00     0.054 C 
HETATM   11  C1  UNL     1      22.402  14.835   4.191  1.00  0.00     0.054 C 
ENDBRANCH   9  10
BRANCH   9  12
HETATM   12  C3  UNL     1      22.258  14.819   6.785  1.00  0.00     0.118 C 
HETATM   13  C4  UNL     1      22.893  15.798   7.705  1.00  0.00     0.026 C 
ENDBRANCH   9  12
ENDBRANCH   7   9
ENDBRANCH   6   7
BRANCH   6  14
HETATM   14  C28 UNL     1      18.908  15.866   8.976  1.00  0.00     0.081 A 
HETATM   15  C34 UNL     1      19.894  15.091   9.795  1.00  0.00     0.025 A 
HETATM   16  C35 UNL     1      18.782  14.175  10.230  1.00  0.00     0.003 A 
HETATM   17  C36 UNL     1      17.772  15.018   9.525  1.00  0.00     0.025 A 
BRANCH  14  18
HETATM   18  C29 UNL     1      18.794  17.234   9.541  1.00  0.00     0.232 C 
HETATM   19  O3  UNL     1      19.791  17.760  10.110  1.00  0.00    -0.272 OA
HETATM   20  N6  UNL     1      17.552  17.944   9.435  1.00  0.00    -0.352 N 
ATOM     21  H6  UNL     1      16.771  17.483   8.968  1.00  0.00     0.163 HD
BRANCH  20  22
HETATM   22  C30 UNL     1      17.349  19.268   9.949  1.00  0.00     0.022 C 
HETATM   23  C31 UNL     1      17.887  19.452  11.346  1.00  0.00     0.037 C 
HETATM   24  C32 UNL     1      15.843  19.555  10.062  1.00  0.00     0.037 C 
HETATM   25  C33 UNL     1      17.931  20.334   9.048  1.00  0.00     0.037 C 
ENDBRANCH  20  22
ENDBRANCH  14  18
ENDBRANCH   6  14
ENDBRANCH   4   6
BRANCH   3  26
HETATM   26  O1  UNL     1      18.776  18.983   5.615  1.00  0.00    -0.333 OA
ATOM     27  H1  UNL     1      18.045  19.583   5.518  1.00  0.00     0.220 HD
ENDBRANCH   3  26
ENDBRANCH   1   3
BRANCH   1  28
HETATM   28  C9  UNL     1      17.367  16.858   3.888  1.00  0.00     0.123 C 
BRANCH  28  29
HETATM   29  C10 UNL     1      16.108  17.488   3.395  1.00  0.00     0.020 C 
BRANCH  29  30
HETATM   30  C11 UNL     1      15.323  18.199   4.446  1.00  0.00     0.006 C 
BRANCH  30  31
HETATM   31  C12 UNL     1      15.318  19.677   4.164  1.00  0.00    -0.014 C 
HETATM   32  C13 UNL     1      14.879  19.872   2.723  1.00  0.00     0.010 C 
BRANCH  31  33
HETATM   33  C14 UNL     1      14.384  20.446   5.113  1.00  0.00    -0.006 C 
HETATM   34  C15 UNL     1      15.219  20.637   6.388  1.00  0.00     0.006 C 
HETATM   35  C16 UNL     1      15.317  22.109   6.632  1.00  0.00     0.005 C 
HETATM   36  C17 UNL     1      14.928  22.802   5.367  1.00  0.00    -0.008 C 
HETATM   37  C18 UNL     1      13.990  23.974   5.579  1.00  0.00     0.030 C 
HETATM   38  C27 UNL     1      14.115  21.775   4.565  1.00  0.00     0.002 C 
HETATM   39  C19 UNL     1      13.052  23.812   4.427  1.00  0.00     0.084 C 
HETATM   40  N4  UNL     1      11.930  24.633   4.368  1.00  0.00    -0.408 N 
HETATM   41  C26 UNL     1      12.752  22.314   4.493  1.00  0.00     0.041 C 
HETATM   42  C20 UNL     1      10.857  24.367   5.262  1.00  0.00     0.117 C 
ATOM     43  H4  UNL     1      11.879  25.405   3.702  1.00  0.00     0.154 HD
HETATM   44  C24 UNL     1      10.939  23.130   6.063  1.00  0.00     0.062 C 
HETATM   45  C25 UNL     1      11.741  21.990   5.490  1.00  0.00     0.126 C 
BRANCH  42  46
HETATM   46  C21 UNL     1       9.534  24.499   4.535  1.00  0.00     0.082 C 
BRANCH  46  47
HETATM   47  N5  UNL     1       9.560  24.142   3.181  1.00  0.00    -0.400 N 
HETATM   48  C22 UNL     1       9.310  22.811   2.795  1.00  0.00     0.148 C 
HETATM   49  C23 UNL     1       9.251  25.118   2.203  1.00  0.00     0.148 C 
ENDBRANCH  46  47
ENDBRANCH  42  46
BRANCH  45  50
HETATM   50  O2  UNL     1      12.159  21.259   6.605  1.00  0.00    -0.395 OA
ATOM     51  H2  UNL     1      11.412  20.713   6.826  1.00  0.00     0.210 HD
ENDBRANCH  45  50
ENDBRANCH  31  33
ENDBRANCH  30  31
ENDBRANCH  29  30
ENDBRANCH  28  29
ENDBRANCH   1  28
TORSDOF 18
ENDMDL
MODEL 2
REMARK VINA RESULT: -8.069395622      4.991     14.404
REMARK  18 active torsions:
REMARK  status: ('A' for Active; 'I' for Inactive)
REMARK    1  A    between atoms: C2_2  and  N1_3 
REMARK    2  A    between atoms: N1_3  and  C3_4 
REMARK    3  A    between atoms: N1_3  and  C5_6 
REMARK    4  A    between atoms: C5_6  and  C7_8 
REMARK    5  A    between atoms: C7_8  and  N2_9 
REMARK    6  A    between atoms: C7_8  and  C28_40 
REMARK    7  A    between atoms: C8_11  and  O1_12 
REMARK    8  A    between atoms: C8_11  and  N3_14 
REMARK    9  A    between atoms: N3_14  and  C9_16 
REMARK   10  A    between atoms: C9_16  and  C10_17 
REMARK   11  A    between atoms: C10_17  and  C11_18 
REMARK   12  A    between atoms: C11_18  and  C12_19 
REMARK   13  A    between atoms: C12_19  and  C14_21 
REMARK   14  A    between atoms: C20_29  and  C21_30 
REMARK   15  A    between atoms: C21_30  and  N5_31 
REMARK   16  A    between atoms: C25_35  and  O2_36 
REMARK   17  A    between atoms: C28_40  and  C29_41 
REMARK       I    between atoms: C29_41  and  N6_43 
REMARK   18  A    between atoms: N6_43  and  C30_45 
ROOT
HETATM    1  N3  UNL     1       6.842  26.542   7.057  1.00  0.00    -0.356 N 
ATOM      2  H3  UNL     1       6.559  25.564   7.127  1.00  0.00     0.163 HD
ENDROOT
BRANCH   1   3
HETATM    3  C8  UNL     1       6.703  27.148   5.787  1.00  0.00     0.216 C 
HETATM    4  N2  UNL     1       5.578  27.188   5.157  1.00  0.00    -0.327 N 
ATOM      5  H2  UNL     1       5.574  27.645   4.245  1.00  0.00     0.169 HD
BRANCH   4   6
HETATM    6  C7  UNL     1       4.347  26.654   5.615  1.00  0.00     0.030 C 
BRANCH   6   7
HETATM    7  C5  UNL     1       3.420  27.608   6.280  1.00  0.00     0.126 C 
HETATM    8  C6  UNL     1       3.271  27.217   7.747  1.00  0.00     0.038 C 
BRANCH   7   9
HETATM    9  N1  UNL     1       3.591  28.978   6.167  1.00  0.00    -0.385 N 
BRANCH   9  10
HETATM   10  C2  UNL     1       4.108  29.769   7.177  1.00  0.00     0.054 C 
HETATM   11  C1  UNL     1       3.590  31.185   7.152  1.00  0.00     0.054 C 
ENDBRANCH   9  10
BRANCH   9  12
HETATM   12  C3  UNL     1       2.601  29.589   5.355  1.00  0.00     0.118 C 
HETATM   13  C4  UNL     1       2.808  29.618   3.884  1.00  0.00     0.026 C 
ENDBRANCH   9  12
ENDBRANCH   7   9
ENDBRANCH   6   7
BRANCH   6  14
HETATM   14  C28 UNL     1       3.744  25.716   4.648  1.00  0.00     0.081 A 
HETATM   15  C34 UNL     1       2.386  26.016   4.093  1.00  0.00     0.025 A 
HETATM   16  C35 UNL     1       1.855  24.789   4.784  1.00  0.00     0.003 A 
HETATM   17  C36 UNL     1       3.228  24.410   5.230  1.00  0.00     0.025 A 
BRANCH  14  18
HETATM   18  C29 UNL     1       4.658  25.403   3.521  1.00  0.00     0.232 C 
HETATM   19  O3  UNL     1       4.461  25.932   2.391  1.00  0.00    -0.272 OA
HETATM   20  N6  UNL     1       5.756  24.503   3.727  1.00  0.00    -0.352 N 
ATOM     21  H6  UNL     1       5.880  24.097   4.655  1.00  0.00     0.163 HD
BRANCH  20  22
HETATM   22  C30 UNL     1       6.690  24.143   2.699  1.00  0.00     0.022 C 
HETATM   23  C31 UNL     1       7.531  22.943   3.055  1.00  0.00     0.037 C 
HETATM   24  C32 UNL     1       7.697  25.285   2.489  1.00  0.00     0.037 C 
HETATM   25  C33 UNL     1       6.018  23.902   1.366  1.00  0.00     0.037 C 
ENDBRANCH  20  22
ENDBRANCH  14  18
ENDBRANCH   6  14
ENDBRANCH   4   6
BRANCH   3  26
HETATM   26  O1  UNL     1       7.811  27.719   5.196  1.00  0.00    -0.333 OA
ATOM     27  H1  UNL     1       8.348  27.183   4.624  1.00  0.00     0.220 HD
ENDBRANCH   3  26
ENDBRANCH   1   3
BRANCH   1  28
HETATM   28  C9  UNL     1       7.333  27.146   8.249  1.00  0.00     0.123 C 
BRANCH  28  29
HETATM   29  C10 UNL     1       8.660  26.620   8.678  1.00  0.00     0.020 C 
BRANCH  29  30
HETATM   30  C11 UNL     1       9.727  26.717   7.640  1.00  0.00     0.006 C 
BRANCH  30  31
HETATM   31  C12 UNL     1      10.943  25.952   8.087  1.00  0.00    -0.014 C 
HETATM   32  C13 UNL     1      10.792  25.670   9.571  1.00  0.00     0.010 C 
BRANCH  31  33
HETATM   33  C14 UNL     1      11.120  24.636   7.310  1.00  0.00    -0.006 C 
HETATM   34  C15 UNL     1      10.036  24.694   6.224  1.00  0.00     0.006 C 
HETATM   35  C16 UNL     1      10.733  24.599   4.904  1.00  0.00     0.005 C 
HETATM   36  C17 UNL     1      12.180  24.887   5.137  1.00  0.00    -0.008 C 
HETATM   37  C18 UNL     1      13.114  23.930   4.421  1.00  0.00     0.030 C 
HETATM   38  C27 UNL     1      12.416  24.637   6.634  1.00  0.00     0.002 C 
HETATM   39  C19 UNL     1      14.170  23.720   5.458  1.00  0.00     0.084 C 
HETATM   40  N4  UNL     1      15.147  22.757   5.220  1.00  0.00    -0.408 N 
HETATM   41  C26 UNL     1      13.321  23.484   6.707  1.00  0.00     0.041 C 
HETATM   42  C20 UNL     1      14.779  21.389   5.336  1.00  0.00     0.117 C 
ATOM     43  H4  UNL     1      16.099  23.026   4.970  1.00  0.00     0.154 HD
HETATM   44  C24 UNL     1      13.437  21.094   5.874  1.00  0.00     0.062 C 
HETATM   45  C25 UNL     1      12.824  22.118   6.795  1.00  0.00     0.126 C 
BRANCH  42  46
HETATM   46  C21 UNL     1      15.871  20.620   6.053  1.00  0.00     0.082 C 
BRANCH  46  47
HETATM   47  N5  UNL     1      16.600  19.734   5.250  1.00  0.00    -0.400 N 
HETATM   48  C22 UNL     1      16.210  19.498   3.919  1.00  0.00     0.148 C 
HETATM   49  C23 UNL     1      17.978  19.536   5.515  1.00  0.00     0.148 C 
ENDBRANCH  46  47
ENDBRANCH  42  46
BRANCH  45  50
HETATM   50  O2  UNL     1      11.446  21.933   6.660  1.00  0.00    -0.395 OA
ATOM     51  H2  UNL     1      11.059  22.618   7.194  1.00  0.00     0.210 HD
ENDBRANCH  45  50
ENDBRANCH  31  33
ENDBRANCH  30  31
ENDBRANCH  29  30
ENDBRANCH  28  29
ENDBRANCH   1  28
TORSDOF 18
ENDMDL
MODEL 3
REMARK VINA RESULT: -8.025968022      4.489     13.166
REMARK  18 active torsions:
REMARK  status: ('A' for Active; 'I' for Inactive)
REMARK    1  A    between atoms: C2_2  and  N1_3 
REMARK    2  A    between atoms: N1_3  and  C3_4 
REMARK    3  A    between atoms: N1_3  and  C5_6 
REMARK    4  A    between atoms: C5_6  and  C7_8 
REMARK    5  A    between atoms: C7_8  and  N2_9 
REMARK    6  A    between atoms: C7_8  and  C28_40 
REMARK    7  A    between atoms: C8_11  and  O1_12 
REMARK    8  A    between atoms: C8_11  and  N3_14 
REMARK    9  A    between atoms: N3_14  and  C9_16 
REMARK   10  A    between atoms: C9_16  and  C10_17 
REMARK   11  A    between atoms: C10_17  and  C11_18 
REMARK   12  A    between atoms: C11_18  and  C12_19 
REMARK   13  A    between atoms: C12_19  and  C14_21 
REMARK   14  A    between atoms: C20_29  and  C21_30 
REMARK   15  A    between atoms: C21_30  and  N5_31 
REMARK   16  A    between atoms: C25_35  and  O2_36 
REMARK   17  A    between atoms: C28_40  and  C29_41 
REMARK       I    between atoms: C29_41  and  N6_43 
REMARK   18  A    between atoms: N6_43  and  C30_45 
ROOT
HETATM    1  N3  UNL     1       7.389  25.622   4.328  1.00  0.00    -0.356 N 
ATOM      2  H3  UNL     1       7.407  25.048   5.171  1.00  0.00     0.163 HD
ENDROOT
BRANCH   1   3
HETATM    3  C8  UNL     1       7.710  26.989   4.490  1.00  0.00     0.216 C 
HETATM    4  N2  UNL     1       7.431  27.645   5.564  1.00  0.00    -0.327 N 
ATOM      5  H2  UNL     1       7.699  28.628   5.590  1.00  0.00     0.169 HD
BRANCH   4   6
HETATM    6  C7  UNL     1       6.785  27.123   6.714  1.00  0.00     0.030 C 
BRANCH   6   7
HETATM    7  C5  UNL     1       7.617  26.997   7.940  1.00  0.00     0.126 C 
HETATM    8  C6  UNL     1       7.368  25.631   8.572  1.00  0.00     0.038 C 
BRANCH   7   9
HETATM    9  N1  UNL     1       8.976  27.272   7.922  1.00  0.00    -0.385 N 
BRANCH   9  10
HETATM   10  C2  UNL     1       9.938  26.349   7.554  1.00  0.00     0.054 C 
HETATM   11  C1  UNL     1      10.945  26.071   8.641  1.00  0.00     0.054 C 
ENDBRANCH   9  10
BRANCH   9  12
HETATM   12  C3  UNL     1       9.361  28.192   8.930  1.00  0.00     0.118 C 
HETATM   13  C4  UNL     1       8.375  28.548   9.984  1.00  0.00     0.026 C 
ENDBRANCH   9  12
ENDBRANCH   7   9
ENDBRANCH   6   7
BRANCH   6  14
HETATM   14  C28 UNL     1       5.427  27.671   6.895  1.00  0.00     0.081 A 
HETATM   15  C34 UNL     1       5.113  29.032   6.352  1.00  0.00     0.025 A 
HETATM   16  C35 UNL     1       4.907  29.523   7.760  1.00  0.00     0.003 A 
HETATM   17  C36 UNL     1       5.088  28.143   8.299  1.00  0.00     0.025 A 
BRANCH  14  18
HETATM   18  C29 UNL     1       4.373  26.727   6.445  1.00  0.00     0.232 C 
HETATM   19  O3  UNL     1       3.695  26.094   7.301  1.00  0.00    -0.272 OA
HETATM   20  N6  UNL     1       4.138  26.544   5.041  1.00  0.00    -0.352 N 
ATOM     21  H6  UNL     1       4.709  27.075   4.383  1.00  0.00     0.163 HD
BRANCH  20  22
HETATM   22  C30 UNL     1       3.143  25.656   4.513  1.00  0.00     0.022 C 
HETATM   23  C31 UNL     1       3.447  24.201   4.774  1.00  0.00     0.037 C 
HETATM   24  C32 UNL     1       3.093  25.783   2.982  1.00  0.00     0.037 C 
HETATM   25  C33 UNL     1       1.755  25.973   5.024  1.00  0.00     0.037 C 
ENDBRANCH  20  22
ENDBRANCH  14  18
ENDBRANCH   6  14
ENDBRANCH   4   6
BRANCH   3  26
HETATM   26  O1  UNL     1       8.345  27.650   3.459  1.00  0.00    -0.333 OA
ATOM     27  H1  UNL     1       8.113  27.428   2.565  1.00  0.00     0.220 HD
ENDBRANCH   3  26
ENDBRANCH   1   3
BRANCH   1  28
HETATM   28  C9  UNL     1       7.042  24.957   3.117  1.00  0.00     0.123 C 
BRANCH  28  29
HETATM   29  C10 UNL     1       7.905  23.779   2.817  1.00  0.00     0.020 C 
BRANCH  29  30
HETATM   30  C11 UNL     1       9.073  23.623   3.732  1.00  0.00     0.006 C 
BRANCH  30  31
HETATM   31  C12 UNL     1       9.854  22.393   3.356  1.00  0.00    -0.014 C 
HETATM   32  C13 UNL     1       9.535  22.069   1.907  1.00  0.00     0.010 C 
BRANCH  31  33
HETATM   33  C14 UNL     1      11.368  22.588   3.537  1.00  0.00    -0.006 C 
HETATM   34  C15 UNL     1      11.614  24.038   3.094  1.00  0.00     0.006 C 
HETATM   35  C16 UNL     1      12.224  24.754   4.256  1.00  0.00     0.005 C 
HETATM   36  C17 UNL     1      11.985  23.922   5.473  1.00  0.00    -0.008 C 
HETATM   37  C18 UNL     1      13.202  23.789   6.368  1.00  0.00     0.030 C 
HETATM   38  C27 UNL     1      11.707  22.503   4.957  1.00  0.00     0.002 C 
HETATM   39  C19 UNL     1      13.113  22.353   6.773  1.00  0.00     0.084 C 
HETATM   40  N4  UNL     1      14.171  21.803   7.492  1.00  0.00    -0.408 N 
HETATM   41  C26 UNL     1      12.826  21.680   5.431  1.00  0.00     0.041 C 
HETATM   42  C20 UNL     1      15.377  21.518   6.795  1.00  0.00     0.117 C 
ATOM     43  H4  UNL     1      14.082  21.609   8.490  1.00  0.00     0.154 HD
HETATM   44  C24 UNL     1      15.357  21.661   5.327  1.00  0.00     0.062 C 
HETATM   45  C25 UNL     1      14.030  21.483   4.635  1.00  0.00     0.126 C 
BRANCH  42  46
HETATM   46  C21 UNL     1      15.925  20.177   7.239  1.00  0.00     0.082 C 
BRANCH  46  47
HETATM   47  N5  UNL     1      16.706  20.207   8.401  1.00  0.00    -0.400 N 
HETATM   48  C22 UNL     1      17.695  21.196   8.564  1.00  0.00     0.148 C 
HETATM   49  C23 UNL     1      16.173  19.689   9.606  1.00  0.00     0.148 C 
ENDBRANCH  46  47
ENDBRANCH  42  46
BRANCH  45  50
HETATM   50  O2  UNL     1      14.144  22.229   3.459  1.00  0.00    -0.395 OA
ATOM     51  H2  UNL     1      14.685  21.695   2.889  1.00  0.00     0.210 HD
ENDBRANCH  45  50
ENDBRANCH  31  33
ENDBRANCH  30  31
ENDBRANCH  29  30
ENDBRANCH  28  29
ENDBRANCH   1  28
TORSDOF 18
ENDMDL
MODEL 4
REMARK VINA RESULT: -7.900833569      2.995      5.756
REMARK  18 active torsions:
REMARK  status: ('A' for Active; 'I' for Inactive)
REMARK    1  A    between atoms: C2_2  and  N1_3 
REMARK    2  A    between atoms: N1_3  and  C3_4 
REMARK    3  A    between atoms: N1_3  and  C5_6 
REMARK    4  A    between atoms: C5_6  and  C7_8 
REMARK    5  A    between atoms: C7_8  and  N2_9 
REMARK    6  A    between atoms: C7_8  and  C28_40 
REMARK    7  A    between atoms: C8_11  and  O1_12 
REMARK    8  A    between atoms: C8_11  and  N3_14 
REMARK    9  A    between atoms: N3_14  and  C9_16 
REMARK   10  A    between atoms: C9_16  and  C10_17 
REMARK   11  A    between atoms: C10_17  and  C11_18 
REMARK   12  A    between atoms: C11_18  and  C12_19 
REMARK   13  A    between atoms: C12_19  and  C14_21 
REMARK   14  A    between atoms: C20_29  and  C21_30 
REMARK   15  A    between atoms: C21_30  and  N5_31 
REMARK   16  A    between atoms: C25_35  and  O2_36 
REMARK   17  A    between atoms: C28_40  and  C29_41 
REMARK       I    between atoms: C29_41  and  N6_43 
REMARK   18  A    between atoms: N6_43  and  C30_45 
ROOT
HETATM    1  N3  UNL     1      13.768  21.359   4.975  1.00  0.00    -0.356 N 
ATOM      2  H3  UNL     1      13.229  21.003   4.185  1.00  0.00     0.163 HD
ENDROOT
BRANCH   1   3
HETATM    3  C8  UNL     1      15.054  21.867   4.683  1.00  0.00     0.216 C 
HETATM    4  N2  UNL     1      16.123  21.153   4.790  1.00  0.00    -0.327 N 
ATOM      5  H2  UNL     1      17.008  21.605   4.559  1.00  0.00     0.169 HD
BRANCH   4   6
HETATM    6  C7  UNL     1      16.180  19.797   5.199  1.00  0.00     0.030 C 
BRANCH   6   7
HETATM    7  C5  UNL     1      15.955  18.776   4.141  1.00  0.00     0.126 C 
HETATM    8  C6  UNL     1      14.621  18.081   4.396  1.00  0.00     0.038 C 
BRANCH   7   9
HETATM    9  N1  UNL     1      16.079  19.090   2.797  1.00  0.00    -0.385 N 
BRANCH   9  10
HETATM   10  C2  UNL     1      15.000  19.225   1.941  1.00  0.00     0.054 C 
HETATM   11  C1  UNL     1      15.383  19.170   0.484  1.00  0.00     0.054 C 
ENDBRANCH   9  10
BRANCH   9  12
HETATM   12  C3  UNL     1      17.260  18.561   2.217  1.00  0.00     0.118 C 
HETATM   13  C4  UNL     1      17.657  17.170   2.556  1.00  0.00     0.026 C 
ENDBRANCH   9  12
ENDBRANCH   7   9
ENDBRANCH   6   7
BRANCH   6  14
HETATM   14  C28 UNL     1      17.290  19.538   6.137  1.00  0.00     0.081 A 
HETATM   15  C34 UNL     1      18.664  20.026   5.792  1.00  0.00     0.025 A 
HETATM   16  C35 UNL     1      19.128  18.598   5.704  1.00  0.00     0.003 A 
HETATM   17  C36 UNL     1      17.800  18.106   6.176  1.00  0.00     0.025 A 
BRANCH  14  18
HETATM   18  C29 UNL     1      16.969  19.964   7.522  1.00  0.00     0.232 C 
HETATM   19  O3  UNL     1      16.684  21.172   7.753  1.00  0.00    -0.272 OA
HETATM   20  N6  UNL     1      16.988  18.999   8.583  1.00  0.00    -0.352 N 
ATOM     21  H6  UNL     1      17.224  18.033   8.354  1.00  0.00     0.163 HD
BRANCH  20  22
HETATM   22  C30 UNL     1      16.691  19.318   9.950  1.00  0.00     0.022 C 
HETATM   23  C31 UNL     1      17.887  19.829  10.714  1.00  0.00     0.037 C 
HETATM   24  C32 UNL     1      16.257  18.047  10.697  1.00  0.00     0.037 C 
HETATM   25  C33 UNL     1      15.557  20.310  10.079  1.00  0.00     0.037 C 
ENDBRANCH  20  22
ENDBRANCH  14  18
ENDBRANCH   6  14
ENDBRANCH   4   6
BRANCH   3  26
HETATM   26  O1  UNL     1      15.175  23.177   4.268  1.00  0.00    -0.333 OA
ATOM     27  H1  UNL     1      15.542  23.350   3.408  1.00  0.00     0.220 HD
ENDBRANCH   3  26
ENDBRANCH   1   3
BRANCH   1  28
HETATM   28  C9  UNL     1      13.140  21.289   6.252  1.00  0.00     0.123 C 
BRANCH  28  29
HETATM   29  C10 UNL     1      12.697  22.616   6.769  1.00  0.00     0.020 C 
BRANCH  29  30
HETATM   30  C11 UNL     1      11.320  23.011   6.352  1.00  0.00     0.006 C 
BRANCH  30  31
HETATM   31  C12 UNL     1      11.293  24.476   6.011  1.00  0.00    -0.014 C 
HETATM   32  C13 UNL     1      12.712  25.005   6.128  1.00  0.00     0.010 C 
BRANCH  31  33
HETATM   33  C14 UNL     1      10.744  24.734   4.598  1.00  0.00    -0.006 C 
HETATM   34  C15 UNL     1      11.890  24.307   3.668  1.00  0.00     0.006 C 
HETATM   35  C16 UNL     1      11.355  23.230   2.779  1.00  0.00     0.005 C 
HETATM   36  C17 UNL     1      10.090  22.726   3.393  1.00  0.00    -0.008 C 
HETATM   37  C18 UNL     1       8.960  22.543   2.398  1.00  0.00     0.030 C 
HETATM   38  C27 UNL     1       9.617  23.839   4.340  1.00  0.00     0.002 C 
HETATM   39  C19 UNL     1       7.792  23.043   3.184  1.00  0.00     0.084 C 
HETATM   40  N4  UNL     1       6.568  23.179   2.535  1.00  0.00    -0.408 N 
HETATM   41  C26 UNL     1       8.357  24.335   3.773  1.00  0.00     0.041 C 
HETATM   42  C20 UNL     1       6.407  24.264   1.631  1.00  0.00     0.117 C 
ATOM     43  H4  UNL     1       5.809  22.518   2.704  1.00  0.00     0.154 HD
HETATM   44  C24 UNL     1       7.488  25.268   1.584  1.00  0.00     0.062 C 
HETATM   45  C25 UNL     1       8.320  25.443   2.828  1.00  0.00     0.126 C 
BRANCH  42  46
HETATM   46  C21 UNL     1       5.041  24.893   1.817  1.00  0.00     0.082 C 
BRANCH  46  47
HETATM   47  N5  UNL     1       4.473  24.719   3.086  1.00  0.00    -0.400 N 
HETATM   48  C22 UNL     1       4.702  25.666   4.101  1.00  0.00     0.148 C 
HETATM   49  C23 UNL     1       3.264  23.991   3.208  1.00  0.00     0.148 C 
ENDBRANCH  46  47
ENDBRANCH  42  46
BRANCH  45  50
HETATM   50  O2  UNL     1       9.548  25.925   2.365  1.00  0.00    -0.395 OA
ATOM     51  H2  UNL     1       9.391  26.845   2.188  1.00  0.00     0.210 HD
ENDBRANCH  45  50
ENDBRANCH  31  33
ENDBRANCH  30  31
ENDBRANCH  29  30
ENDBRANCH  28  29
ENDBRANCH   1  28
TORSDOF 18
ENDMDL
MODEL 5
REMARK VINA RESULT: -7.879265639      4.505     13.235
REMARK  18 active torsions:
REMARK  status: ('A' for Active; 'I' for Inactive)
REMARK    1  A    between atoms: C2_2  and  N1_3 
REMARK    2  A    between atoms: N1_3  and  C3_4 
REMARK    3  A    between atoms: N1_3  and  C5_6 
REMARK    4  A    between atoms: C5_6  and  C7_8 
REMARK    5  A    between atoms: C7_8  and  N2_9 
REMARK    6  A    between atoms: C7_8  and  C28_40 
REMARK    7  A    between atoms: C8_11  and  O1_12 
REMARK    8  A    between atoms: C8_11  and  N3_14 
REMARK    9  A    between atoms: N3_14  and  C9_16 
REMARK   10  A    between atoms: C9_16  and  C10_17 
REMARK   11  A    between atoms: C10_17  and  C11_18 
REMARK   12  A    between atoms: C11_18  and  C12_19 
REMARK   13  A    between atoms: C12_19  and  C14_21 
REMARK   14  A    between atoms: C20_29  and  C21_30 
REMARK   15  A    between atoms: C21_30  and  N5_31 
REMARK   16  A    between atoms: C25_35  and  O2_36 
REMARK   17  A    between atoms: C28_40  and  C29_41 
REMARK       I    between atoms: C29_41  and  N6_43 
REMARK   18  A    between atoms: N6_43  and  C30_45 
ROOT
HETATM    1  N3  UNL     1       7.523  25.648   4.384  1.00  0.00    -0.356 N 
ATOM      2  H3  UNL     1       7.582  25.053   5.210  1.00  0.00     0.163 HD
ENDROOT
BRANCH   1   3
HETATM    3  C8  UNL     1       7.798  27.022   4.576  1.00  0.00     0.216 C 
HETATM    4  N2  UNL     1       7.450  27.657   5.643  1.00  0.00    -0.327 N 
ATOM      5  H2  UNL     1       7.690  28.647   5.693  1.00  0.00     0.169 HD
BRANCH   4   6
HETATM    6  C7  UNL     1       6.765  27.104   6.755  1.00  0.00     0.030 C 
BRANCH   6   7
HETATM    7  C5  UNL     1       7.553  26.946   8.006  1.00  0.00     0.126 C 
HETATM    8  C6  UNL     1       7.435  25.504   8.490  1.00  0.00     0.038 C 
BRANCH   7   9
HETATM    9  N1  UNL     1       8.870  27.369   8.088  1.00  0.00    -0.385 N 
BRANCH   9  10
HETATM   10  C2  UNL     1       9.954  26.515   7.997  1.00  0.00     0.054 C 
HETATM   11  C1  UNL     1      10.872  26.586   9.192  1.00  0.00     0.054 C 
ENDBRANCH   9  10
BRANCH   9  12
HETATM   12  C3  UNL     1       9.036  28.482   8.952  1.00  0.00     0.118 C 
HETATM   13  C4  UNL     1       8.126  28.617  10.119  1.00  0.00     0.026 C 
ENDBRANCH   9  12
ENDBRANCH   7   9
ENDBRANCH   6   7
BRANCH   6  14
HETATM   14  C28 UNL     1       5.400  27.645   6.901  1.00  0.00     0.081 A 
HETATM   15  C34 UNL     1       5.095  29.009   6.363  1.00  0.00     0.025 A 
HETATM   16  C35 UNL     1       4.847  29.486   7.768  1.00  0.00     0.003 A 
HETATM   17  C36 UNL     1       5.018  28.102   8.300  1.00  0.00     0.025 A 
BRANCH  14  18
HETATM   18  C29 UNL     1       4.364  26.701   6.412  1.00  0.00     0.232 C 
HETATM   19  O3  UNL     1       3.635  26.088   7.242  1.00  0.00    -0.272 OA
HETATM   20  N6  UNL     1       4.201  26.494   5.002  1.00  0.00    -0.352 N 
ATOM     21  H6  UNL     1       4.811  27.009   4.366  1.00  0.00     0.163 HD
BRANCH  20  22
HETATM   22  C30 UNL     1       3.229  25.604   4.437  1.00  0.00     0.022 C 
HETATM   23  C31 UNL     1       3.471  24.158   4.790  1.00  0.00     0.037 C 
HETATM   24  C32 UNL     1       3.305  25.656   2.903  1.00  0.00     0.037 C 
HETATM   25  C33 UNL     1       1.813  25.978   4.818  1.00  0.00     0.037 C 
ENDBRANCH  20  22
ENDBRANCH  14  18
ENDBRANCH   6  14
ENDBRANCH   4   6
BRANCH   3  26
HETATM   26  O1  UNL     1       8.463  27.713   3.584  1.00  0.00    -0.333 OA
ATOM     27  H1  UNL     1       8.242  28.626   3.439  1.00  0.00     0.220 HD
ENDBRANCH   3  26
ENDBRANCH   1   3
BRANCH   1  28
HETATM   28  C9  UNL     1       7.172  25.004   3.163  1.00  0.00     0.123 C 
BRANCH  28  29
HETATM   29  C10 UNL     1       8.180  24.004   2.708  1.00  0.00     0.020 C 
BRANCH  29  30
HETATM   30  C11 UNL     1       9.280  23.751   3.684  1.00  0.00     0.006 C 
BRANCH  30  31
HETATM   31  C12 UNL     1      10.577  23.549   2.948  1.00  0.00    -0.014 C 
HETATM   32  C13 UNL     1      10.653  24.596   1.850  1.00  0.00     0.010 C 
BRANCH  31  33
HETATM   33  C14 UNL     1      11.797  23.664   3.877  1.00  0.00    -0.006 C 
HETATM   34  C15 UNL     1      11.310  24.562   5.024  1.00  0.00     0.006 C 
HETATM   35  C16 UNL     1      11.463  23.781   6.289  1.00  0.00     0.005 C 
HETATM   36  C17 UNL     1      11.636  22.345   5.913  1.00  0.00    -0.008 C 
HETATM   37  C18 UNL     1      12.742  21.644   6.679  1.00  0.00     0.030 C 
HETATM   38  C27 UNL     1      12.101  22.354   4.450  1.00  0.00     0.002 C 
HETATM   39  C19 UNL     1      13.360  20.809   5.604  1.00  0.00     0.084 C 
HETATM   40  N4  UNL     1      14.534  20.122   5.895  1.00  0.00    -0.408 N 
HETATM   41  C26 UNL     1      13.470  21.822   4.464  1.00  0.00     0.041 C 
HETATM   42  C20 UNL     1      15.740  20.869   5.990  1.00  0.00     0.117 C 
ATOM     43  H4  UNL     1      14.530  19.111   6.035  1.00  0.00     0.154 HD
HETATM   44  C24 UNL     1      15.686  22.290   5.598  1.00  0.00     0.062 C 
HETATM   45  C25 UNL     1      14.632  22.689   4.596  1.00  0.00     0.126 C 
BRANCH  42  46
HETATM   46  C21 UNL     1      16.866  20.121   5.303  1.00  0.00     0.082 C 
BRANCH  46  47
HETATM   47  N5  UNL     1      17.836  19.587   6.161  1.00  0.00    -0.400 N 
HETATM   48  C22 UNL     1      17.861  19.955   7.519  1.00  0.00     0.148 C 
HETATM   49  C23 UNL     1      18.384  18.313   5.874  1.00  0.00     0.148 C 
ENDBRANCH  46  47
ENDBRANCH  42  46
BRANCH  45  50
HETATM   50  O2  UNL     1      14.392  24.040   4.857  1.00  0.00    -0.395 OA
ATOM     51  H2  UNL     1      14.538  24.132   5.792  1.00  0.00     0.210 HD
ENDBRANCH  45  50
ENDBRANCH  31  33
ENDBRANCH  30  31
ENDBRANCH  29  30
ENDBRANCH  28  29
ENDBRANCH   1  28
TORSDOF 18
ENDMDL
