MODEL 1
REMARK VINA RESULT: -7.714463138      0.000      0.000
REMARK  16 active torsions:
REMARK  status: ('A' for Active; 'I' for Inactive)
REMARK    1  A    between atoms: C2_2  and  C3_3 
REMARK    2  A    between atoms: C3_3  and  C4_4 
REMARK    3  A    between atoms: C4_4  and  C5_5 
REMARK    4  A    between atoms: C5_5  and  C6_6 
REMARK    5  A    between atoms: C6_6  and  C7_7 
REMARK    6  A    between atoms: C7_7  and  C8_8 
REMARK    7  A    between atoms: C8_8  and  C9_10 
REMARK    8  A    between atoms: C9_10  and  C10_11 
REMARK    9  A    between atoms: C10_11  and  C11_12 
REMARK   10  A    between atoms: C11_12  and  C12_13 
REMARK   11  A    between atoms: C12_13  and  C13_14 
REMARK   12  A    between atoms: C13_14  and  C14_15 
REMARK   13  A    between atoms: C15_18  and  O2_19 
REMARK   14  A    between atoms: N3_27  and  C19_28 
REMARK   15  A    between atoms: C28_45  and  C29_46 
REMARK   16  A    between atoms: C29_46  and  C30_47 
ROOT
HETATM    1  C14 UNL     1       6.585  24.445   2.908  1.00  0.00     0.175 C 
HETATM    2  N1  UNL     1       6.644  25.522   3.831  1.00  0.00    -0.359 N 
ATOM      3  H1  UNL     1       5.709  25.785   4.142  1.00  0.00     0.162 HD
HETATM    4  C15 UNL     1       7.594  26.311   4.426  1.00  0.00     0.135 C 
HETATM    5  C16 UNL     1       8.675  26.007   5.394  1.00  0.00     0.156 C 
HETATM    6  C17 UNL     1       9.650  27.158   5.555  1.00  0.00     0.041 C 
HETATM    7  N2  UNL     1       8.114  25.606   6.669  1.00  0.00    -0.331 N 
ATOM      8  H2  UNL     1       7.540  24.763   6.648  1.00  0.00     0.165 HD
HETATM    9  C18 UNL     1       8.244  26.206   7.914  1.00  0.00     0.324 C 
HETATM   10  O3  UNL     1       8.553  25.487   8.937  1.00  0.00    -0.247 OA
HETATM   11  N3  UNL     1       8.069  27.605   8.216  1.00  0.00    -0.288 N 
HETATM   12  C21 UNL     1       7.067  28.448   7.628  1.00  0.00     0.161 C 
HETATM   13  C22 UNL     1       6.134  28.981   8.697  1.00  0.00     0.188 C 
HETATM   14  O4  UNL     1       5.181  29.844   8.252  1.00  0.00    -0.387 OA
HETATM   15  C23 UNL     1       4.529  29.554   7.093  1.00  0.00     0.193 C 
HETATM   16  C24 UNL     1       3.203  28.817   7.289  1.00  0.00     0.193 C 
HETATM   17  O5  UNL     1       3.343  27.462   7.430  1.00  0.00    -0.387 OA
HETATM   18  C25 UNL     1       3.538  26.753   6.269  1.00  0.00     0.187 C 
HETATM   19  C26 UNL     1       2.485  25.721   5.970  1.00  0.00     0.148 C 
HETATM   20  N5  UNL     1       1.876  25.832   4.686  1.00  0.00    -0.357 N 
ATOM     21  H5  UNL     1       1.025  26.389   4.614  1.00  0.00     0.162 HD
HETATM   22  C27 UNL     1       2.372  25.216   3.485  1.00  0.00     0.240 C 
HETATM   23  O6  UNL     1       1.992  25.709   2.401  1.00  0.00    -0.271 OA
HETATM   24  C28 UNL     1       3.279  24.074   3.497  1.00  0.00     0.177 C 
HETATM   25  N6  UNL     1       4.101  24.006   2.300  1.00  0.00    -0.346 N 
ATOM     26  H6  UNL     1       3.703  23.467   1.531  1.00  0.00     0.163 HD
HETATM   27  C33 UNL     1       5.336  24.562   2.048  1.00  0.00     0.241 C 
HETATM   28  O7  UNL     1       5.491  25.265   0.980  1.00  0.00    -0.271 OA
ENDROOT
BRANCH   1  29
HETATM   29  C13 UNL     1       6.687  23.050   3.363  1.00  0.00     0.035 C 
BRANCH  29  30
HETATM   30  C12 UNL     1       7.896  22.259   3.039  1.00  0.00     0.002 C 
BRANCH  30  31
HETATM   31  C11 UNL     1       9.074  23.128   2.641  1.00  0.00     0.000 C 
BRANCH  31  32
HETATM   32  C10 UNL     1      10.367  22.693   3.273  1.00  0.00     0.007 C 
BRANCH  32  33
HETATM   33  C9  UNL     1      11.400  23.778   3.276  1.00  0.00     0.078 C 
BRANCH  33  34
HETATM   34  C8  UNL     1      11.811  24.068   4.671  1.00  0.00     0.127 C 
HETATM   35  O1  UNL     1      12.626  24.946   4.857  1.00  0.00    -0.298 OA
BRANCH  34  36
HETATM   36  C7  UNL     1      11.230  23.292   5.825  1.00  0.00     0.078 C 
BRANCH  36  37
HETATM   37  C6  UNL     1      12.333  22.631   6.625  1.00  0.00     0.007 C 
BRANCH  37  38
HETATM   38  C5  UNL     1      12.740  21.370   5.885  1.00  0.00     0.000 C 
BRANCH  38  39
HETATM   39  C4  UNL     1      14.246  21.270   5.884  1.00  0.00     0.000 C 
BRANCH  39  40
HETATM   40  C3  UNL     1      14.847  21.945   4.683  1.00  0.00    -0.000 C 
BRANCH  40  41
HETATM   41  C2  UNL     1      14.273  21.421   3.382  1.00  0.00    -0.005 C 
HETATM   42  C1  UNL     1      14.915  20.056   3.134  1.00  0.00     0.005 C 
ENDBRANCH  40  41
ENDBRANCH  39  40
ENDBRANCH  38  39
ENDBRANCH  37  38
ENDBRANCH  36  37
ENDBRANCH  34  36
ENDBRANCH  33  34
ENDBRANCH  32  33
ENDBRANCH  31  32
ENDBRANCH  30  31
ENDBRANCH  29  30
ENDBRANCH   1  29
BRANCH   4  43
HETATM   43  O2  UNL     1       7.562  27.580   4.102  1.00  0.00    -0.348 OA
ATOM     44  H2  UNL     1       7.875  27.790   3.230  1.00  0.00     0.219 HD
ENDBRANCH   4  43
BRANCH  24  45
HETATM   45  C29 UNL     1       2.627  22.773   3.750  1.00  0.00     0.038 C 
BRANCH  45  46
HETATM   46  C30 UNL     1       3.276  21.513   3.361  1.00  0.00    -0.020 C 
HETATM   47  C31 UNL     1       2.460  20.424   2.760  1.00  0.00     0.009 C 
HETATM   48  C32 UNL     1       3.974  20.882   4.593  1.00  0.00     0.009 C 
ENDBRANCH  45  46
ENDBRANCH  24  45
BRANCH  11  49
HETATM   49  C19 UNL     1       8.982  28.117   9.194  1.00  0.00     0.076 C 
HETATM   50  C20 UNL     1       8.540  28.526  10.533  1.00  0.00     0.089 C 
HETATM   51  N4  UNL     1      10.206  28.204   8.857  1.00  0.00    -0.389 N 
ATOM     52  H42 UNL     1      10.513  27.919   7.927  1.00  0.00     0.157 HD
ATOM     53  H41 UNL     1      10.856  28.568   9.554  1.00  0.00     0.157 HD
ENDBRANCH  11  49
TORSDOF 16
ENDMDL
MODEL 2
REMARK VINA RESULT: -7.699351635      1.013      1.528
REMARK  16 active torsions:
REMARK  status: ('A' for Active; 'I' for Inactive)
REMARK    1  A    between atoms: C2_2  and  C3_3 
REMARK    2  A    between atoms: C3_3  and  C4_4 
REMARK    3  A    between atoms: C4_4  and  C5_5 
REMARK    4  A    between atoms: C5_5  and  C6_6 
REMARK    5  A    between atoms: C6_6  and  C7_7 
REMARK    6  A    between atoms: C7_7  and  C8_8 
REMARK    7  A    between atoms: C8_8  and  C9_10 
REMARK    8  A    between atoms: C9_10  and  C10_11 
REMARK    9  A    between atoms: C10_11  and  C11_12 
REMARK   10  A    between atoms: C11_12  and  C12_13 
REMARK   11  A    between atoms: C12_13  and  C13_14 
REMARK   12  A    between atoms: C13_14  and  C14_15 
REMARK   13  A    between atoms: C15_18  and  O2_19 
REMARK   14  A    between atoms: N3_27  and  C19_28 
REMARK   15  A    between atoms: C28_45  and  C29_46 
REMARK   16  A    between atoms: C29_46  and  C30_47 
ROOT
HETATM    1  C14 UNL     1       6.606  24.449   2.935  1.00  0.00     0.175 C 
HETATM    2  N1  UNL     1       6.661  25.529   3.855  1.00  0.00    -0.359 N 
ATOM      3  H1  UNL     1       5.723  25.798   4.155  1.00  0.00     0.162 HD
HETATM    4  C15 UNL     1       7.608  26.316   4.457  1.00  0.00     0.135 C 
HETATM    5  C16 UNL     1       8.677  26.010   5.438  1.00  0.00     0.156 C 
HETATM    6  C17 UNL     1       9.656  27.158   5.605  1.00  0.00     0.041 C 
HETATM    7  N2  UNL     1       8.101  25.617   6.708  1.00  0.00    -0.331 N 
ATOM      8  H2  UNL     1       7.524  24.776   6.684  1.00  0.00     0.165 HD
HETATM    9  C18 UNL     1       8.221  26.221   7.952  1.00  0.00     0.324 C 
HETATM   10  O3  UNL     1       8.516  25.505   8.981  1.00  0.00    -0.247 OA
HETATM   11  N3  UNL     1       8.049  27.622   8.247  1.00  0.00    -0.288 N 
HETATM   12  C21 UNL     1       7.057  28.468   7.645  1.00  0.00     0.161 C 
HETATM   13  C22 UNL     1       6.116  29.009   8.703  1.00  0.00     0.188 C 
HETATM   14  O4  UNL     1       5.172  29.874   8.245  1.00  0.00    -0.387 OA
HETATM   15  C23 UNL     1       4.531  29.583   7.080  1.00  0.00     0.193 C 
HETATM   16  C24 UNL     1       3.199  28.853   7.265  1.00  0.00     0.193 C 
HETATM   17  O5  UNL     1       3.332  27.497   7.412  1.00  0.00    -0.387 OA
HETATM   18  C25 UNL     1       3.535  26.783   6.256  1.00  0.00     0.187 C 
HETATM   19  C26 UNL     1       2.480  25.755   5.950  1.00  0.00     0.148 C 
HETATM   20  N5  UNL     1       1.885  25.864   4.659  1.00  0.00    -0.357 N 
ATOM     21  H5  UNL     1       1.038  26.425   4.576  1.00  0.00     0.162 HD
HETATM   22  C27 UNL     1       2.392  25.241   3.465  1.00  0.00     0.240 C 
HETATM   23  O6  UNL     1       2.024  25.731   2.375  1.00  0.00    -0.271 OA
HETATM   24  C28 UNL     1       3.293  24.095   3.491  1.00  0.00     0.177 C 
HETATM   25  N6  UNL     1       4.127  24.019   2.303  1.00  0.00    -0.346 N 
ATOM     26  H6  UNL     1       3.735  23.479   1.532  1.00  0.00     0.163 HD
HETATM   27  C33 UNL     1       5.367  24.568   2.062  1.00  0.00     0.241 C 
HETATM   28  O7  UNL     1       5.536  25.267   0.993  1.00  0.00    -0.271 OA
ENDROOT
BRANCH   1  29
HETATM   29  C13 UNL     1       6.697  23.055   3.396  1.00  0.00     0.035 C 
BRANCH  29  30
HETATM   30  C12 UNL     1       7.879  22.239   3.037  1.00  0.00     0.002 C 
BRANCH  30  31
HETATM   31  C11 UNL     1       9.069  23.084   2.624  1.00  0.00     0.000 C 
BRANCH  31  32
HETATM   32  C10 UNL     1      10.382  22.523   3.098  1.00  0.00     0.007 C 
BRANCH  32  33
HETATM   33  C9  UNL     1      10.793  23.072   4.431  1.00  0.00     0.078 C 
BRANCH  33  34
HETATM   34  C8  UNL     1      11.941  22.293   4.956  1.00  0.00     0.127 C 
HETATM   35  O1  UNL     1      11.750  21.559   5.901  1.00  0.00    -0.298 OA
BRANCH  34  36
HETATM   36  C7  UNL     1      13.306  22.410   4.327  1.00  0.00     0.078 C 
BRANCH  36  37
HETATM   37  C6  UNL     1      14.101  21.142   4.554  1.00  0.00     0.007 C 
BRANCH  37  38
HETATM   38  C5  UNL     1      14.706  20.739   3.222  1.00  0.00     0.000 C 
BRANCH  38  39
HETATM   39  C4  UNL     1      15.156  19.300   3.306  1.00  0.00     0.000 C 
BRANCH  39  40
HETATM   40  C3  UNL     1      14.854  18.549   2.039  1.00  0.00    -0.000 C 
BRANCH  40  41
HETATM   41  C2  UNL     1      16.042  18.508   1.099  1.00  0.00    -0.005 C 
HETATM   42  C1  UNL     1      16.986  17.427   1.627  1.00  0.00     0.005 C 
ENDBRANCH  40  41
ENDBRANCH  39  40
ENDBRANCH  38  39
ENDBRANCH  37  38
ENDBRANCH  36  37
ENDBRANCH  34  36
ENDBRANCH  33  34
ENDBRANCH  32  33
ENDBRANCH  31  32
ENDBRANCH  30  31
ENDBRANCH  29  30
ENDBRANCH   1  29
BRANCH   4  43
HETATM   43  O2  UNL     1       7.585  27.584   4.128  1.00  0.00    -0.348 OA
ATOM     44  H2  UNL     1       7.177  28.166   4.759  1.00  0.00     0.219 HD
ENDBRANCH   4  43
BRANCH  24  45
HETATM   45  C29 UNL     1       2.632  22.798   3.742  1.00  0.00     0.038 C 
BRANCH  45  46
HETATM   46  C30 UNL     1       3.275  21.534   3.355  1.00  0.00    -0.020 C 
HETATM   47  C31 UNL     1       2.458  20.459   2.731  1.00  0.00     0.009 C 
HETATM   48  C32 UNL     1       3.944  20.886   4.594  1.00  0.00     0.009 C 
ENDBRANCH  45  46
ENDBRANCH  24  45
BRANCH  11  49
HETATM   49  C19 UNL     1       8.954  28.133   9.233  1.00  0.00     0.076 C 
HETATM   50  C20 UNL     1       8.500  28.548  10.566  1.00  0.00     0.089 C 
HETATM   51  N4  UNL     1      10.182  28.216   8.907  1.00  0.00    -0.389 N 
ATOM     52  H42 UNL     1      10.497  27.928   7.981  1.00  0.00     0.157 HD
ATOM     53  H41 UNL     1      10.826  28.580   9.609  1.00  0.00     0.157 HD
ENDBRANCH  11  49
TORSDOF 16
ENDMDL
MODEL 3
REMARK VINA RESULT: -7.689399226      7.767     14.678
REMARK  16 active torsions:
REMARK  status: ('A' for Active; 'I' for Inactive)
REMARK    1  A    between atoms: C2_2  and  C3_3 
REMARK    2  A    between atoms: C3_3  and  C4_4 
REMARK    3  A    between atoms: C4_4  and  C5_5 
REMARK    4  A    between atoms: C5_5  and  C6_6 
REMARK    5  A    between atoms: C6_6  and  C7_7 
REMARK    6  A    between atoms: C7_7  and  C8_8 
REMARK    7  A    between atoms: C8_8  and  C9_10 
REMARK    8  A    between atoms: C9_10  and  C10_11 
REMARK    9  A    between atoms: C10_11  and  C11_12 
REMARK   10  A    between atoms: C11_12  and  C12_13 
REMARK   11  A    between atoms: C12_13  and  C13_14 
REMARK   12  A    between atoms: C13_14  and  C14_15 
REMARK   13  A    between atoms: C15_18  and  O2_19 
REMARK   14  A    between atoms: N3_27  and  C19_28 
REMARK   15  A    between atoms: C28_45  and  C29_46 
REMARK   16  A    between atoms: C29_46  and  C30_47 
ROOT
HETATM    1  C14 UNL     1      17.311  19.661   9.611  1.00  0.00     0.175 C 
HETATM    2  N1  UNL     1      17.789  19.134   8.383  1.00  0.00    -0.359 N 
ATOM      3  H1  UNL     1      18.170  18.197   8.514  1.00  0.00     0.162 HD
HETATM    4  C15 UNL     1      17.887  19.519   7.071  1.00  0.00     0.135 C 
HETATM    5  C16 UNL     1      16.861  19.801   6.038  1.00  0.00     0.156 C 
HETATM    6  C17 UNL     1      17.446  20.462   4.804  1.00  0.00     0.041 C 
HETATM    7  N2  UNL     1      16.140  18.591   5.698  1.00  0.00    -0.331 N 
ATOM      8  H2  UNL     1      15.623  18.160   6.465  1.00  0.00     0.165 HD
HETATM    9  C18 UNL     1      16.052  17.933   4.479  1.00  0.00     0.324 C 
HETATM   10  O3  UNL     1      14.899  17.573   4.032  1.00  0.00    -0.247 OA
HETATM   11  N3  UNL     1      17.149  17.588   3.608  1.00  0.00    -0.288 N 
HETATM   12  C21 UNL     1      18.434  17.131   4.055  1.00  0.00     0.161 C 
HETATM   13  C22 UNL     1      18.705  15.733   3.534  1.00  0.00     0.188 C 
HETATM   14  O4  UNL     1      19.928  15.229   3.851  1.00  0.00    -0.387 OA
HETATM   15  C23 UNL     1      20.403  15.414   5.112  1.00  0.00     0.193 C 
HETATM   16  C24 UNL     1      20.120  14.250   6.065  1.00  0.00     0.193 C 
HETATM   17  O5  UNL     1      18.876  14.299   6.636  1.00  0.00    -0.387 OA
HETATM   18  C25 UNL     1      18.731  15.166   7.691  1.00  0.00     0.187 C 
HETATM   19  C26 UNL     1      18.332  14.524   8.992  1.00  0.00     0.148 C 
HETATM   20  N5  UNL     1      19.185  14.812  10.097  1.00  0.00    -0.357 N 
ATOM     21  H5  UNL     1      19.955  14.169  10.279  1.00  0.00     0.162 HD
HETATM   22  C27 UNL     1      19.041  15.944  10.974  1.00  0.00     0.240 C 
HETATM   23  O6  UNL     1      20.054  16.287  11.621  1.00  0.00    -0.271 OA
HETATM   24  C28 UNL     1      17.789  16.678  11.120  1.00  0.00     0.177 C 
HETATM   25  N6  UNL     1      18.000  18.056  11.530  1.00  0.00    -0.346 N 
ATOM     26  H6  UNL     1      18.013  18.212  12.537  1.00  0.00     0.163 HD
HETATM   27  C33 UNL     1      18.186  19.184  10.760  1.00  0.00     0.241 C 
HETATM   28  O7  UNL     1      19.198  19.941  11.007  1.00  0.00    -0.271 OA
ENDROOT
BRANCH   1  29
HETATM   29  C13 UNL     1      15.908  19.491  10.015  1.00  0.00     0.035 C 
BRANCH  29  30
HETATM   30  C12 UNL     1      15.076  20.682  10.300  1.00  0.00     0.002 C 
BRANCH  30  31
HETATM   31  C11 UNL     1      15.445  21.873   9.436  1.00  0.00     0.000 C 
BRANCH  31  32
HETATM   32  C10 UNL     1      14.680  21.921   8.142  1.00  0.00     0.007 C 
BRANCH  32  33
HETATM   33  C9  UNL     1      15.256  22.906   7.170  1.00  0.00     0.078 C 
BRANCH  33  34
HETATM   34  C8  UNL     1      14.589  22.754   5.855  1.00  0.00     0.127 C 
HETATM   35  O1  UNL     1      14.837  23.565   4.990  1.00  0.00    -0.298 OA
BRANCH  34  36
HETATM   36  C7  UNL     1      13.630  21.618   5.602  1.00  0.00     0.078 C 
BRANCH  36  37
HETATM   37  C6  UNL     1      12.296  22.151   5.124  1.00  0.00     0.007 C 
BRANCH  37  38
HETATM   38  C5  UNL     1      11.537  22.643   6.343  1.00  0.00     0.000 C 
BRANCH  38  39
HETATM   39  C4  UNL     1      10.824  23.925   5.989  1.00  0.00     0.000 C 
BRANCH  39  40
HETATM   40  C3  UNL     1      11.708  25.125   6.184  1.00  0.00    -0.000 C 
BRANCH  40  41
HETATM   41  C2  UNL     1      12.290  25.188   7.582  1.00  0.00    -0.005 C 
HETATM   42  C1  UNL     1      11.206  25.776   8.485  1.00  0.00     0.005 C 
ENDBRANCH  40  41
ENDBRANCH  39  40
ENDBRANCH  38  39
ENDBRANCH  37  38
ENDBRANCH  36  37
ENDBRANCH  34  36
ENDBRANCH  33  34
ENDBRANCH  32  33
ENDBRANCH  31  32
ENDBRANCH  30  31
ENDBRANCH  29  30
ENDBRANCH   1  29
BRANCH   4  43
HETATM   43  O2  UNL     1      19.105  19.669   6.612  1.00  0.00    -0.348 OA
ATOM     44  H2  UNL     1      19.229  19.452   5.695  1.00  0.00     0.219 HD
ENDBRANCH   4  43
BRANCH  24  45
HETATM   45  C29 UNL     1      16.793  16.026  11.995  1.00  0.00     0.038 C 
BRANCH  45  46
HETATM   46  C30 UNL     1      17.185  15.441  13.285  1.00  0.00    -0.020 C 
HETATM   47  C31 UNL     1      17.632  14.023  13.340  1.00  0.00     0.009 C 
HETATM   48  C32 UNL     1      16.008  15.548  14.287  1.00  0.00     0.009 C 
ENDBRANCH  45  46
ENDBRANCH  24  45
BRANCH  11  49
HETATM   49  C19 UNL     1      16.856  17.717   2.211  1.00  0.00     0.076 C 
HETATM   50  C20 UNL     1      17.174  16.656   1.248  1.00  0.00     0.089 C 
HETATM   51  N4  UNL     1      16.303  18.798   1.831  1.00  0.00    -0.389 N 
ATOM     52  H42 UNL     1      16.082  19.535   2.500  1.00  0.00     0.157 HD
ATOM     53  H41 UNL     1      16.095  18.889   0.836  1.00  0.00     0.157 HD
ENDBRANCH  11  49
TORSDOF 16
ENDMDL
MODEL 4
REMARK VINA RESULT: -7.642839932      7.668     14.739
REMARK  16 active torsions:
REMARK  status: ('A' for Active; 'I' for Inactive)
REMARK    1  A    between atoms: C2_2  and  C3_3 
REMARK    2  A    between atoms: C3_3  and  C4_4 
REMARK    3  A    between atoms: C4_4  and  C5_5 
REMARK    4  A    between atoms: C5_5  and  C6_6 
REMARK    5  A    between atoms: C6_6  and  C7_7 
REMARK    6  A    between atoms: C7_7  and  C8_8 
REMARK    7  A    between atoms: C8_8  and  C9_10 
REMARK    8  A    between atoms: C9_10  and  C10_11 
REMARK    9  A    between atoms: C10_11  and  C11_12 
REMARK   10  A    between atoms: C11_12  and  C12_13 
REMARK   11  A    between atoms: C12_13  and  C13_14 
REMARK   12  A    between atoms: C13_14  and  C14_15 
REMARK   13  A    between atoms: C15_18  and  O2_19 
REMARK   14  A    between atoms: N3_27  and  C19_28 
REMARK   15  A    between atoms: C28_45  and  C29_46 
REMARK   16  A    between atoms: C29_46  and  C30_47 
ROOT
HETATM    1  C14 UNL     1      17.281  19.895   9.469  1.00  0.00     0.175 C 
HETATM    2  N1  UNL     1      17.751  19.308   8.265  1.00  0.00    -0.359 N 
ATOM      3  H1  UNL     1      18.123  18.374   8.438  1.00  0.00     0.162 HD
HETATM    4  C15 UNL     1      17.848  19.631   6.937  1.00  0.00     0.135 C 
HETATM    5  C16 UNL     1      16.822  19.875   5.895  1.00  0.00     0.156 C 
HETATM    6  C17 UNL     1      17.410  20.474   4.631  1.00  0.00     0.041 C 
HETATM    7  N2  UNL     1      16.090  18.657   5.612  1.00  0.00    -0.331 N 
ATOM      8  H2  UNL     1      15.571  18.266   6.399  1.00  0.00     0.165 HD
HETATM    9  C18 UNL     1      15.993  17.946   4.424  1.00  0.00     0.324 C 
HETATM   10  O3  UNL     1      14.836  17.576   3.996  1.00  0.00    -0.247 OA
HETATM   11  N3  UNL     1      17.084  17.552   3.567  1.00  0.00    -0.288 N 
HETATM   12  C21 UNL     1      18.367  17.104   4.032  1.00  0.00     0.161 C 
HETATM   13  C22 UNL     1      18.624  15.681   3.575  1.00  0.00     0.188 C 
HETATM   14  O4  UNL     1      19.844  15.181   3.911  1.00  0.00    -0.387 OA
HETATM   15  C23 UNL     1      20.324  15.419   5.162  1.00  0.00     0.193 C 
HETATM   16  C24 UNL     1      20.032  14.302   6.167  1.00  0.00     0.193 C 
HETATM   17  O5  UNL     1      18.790  14.389   6.738  1.00  0.00    -0.387 OA
HETATM   18  C25 UNL     1      18.656  15.304   7.754  1.00  0.00     0.187 C 
HETATM   19  C26 UNL     1      18.255  14.726   9.083  1.00  0.00     0.148 C 
HETATM   20  N5  UNL     1      19.113  15.057  10.172  1.00  0.00    -0.357 N 
ATOM     21  H5  UNL     1      19.878  14.415  10.382  1.00  0.00     0.162 HD
HETATM   22  C27 UNL     1      18.981  16.228  10.996  1.00  0.00     0.240 C 
HETATM   23  O6  UNL     1      19.999  16.591  11.625  1.00  0.00    -0.271 OA
HETATM   24  C28 UNL     1      17.737  16.979  11.112  1.00  0.00     0.177 C 
HETATM   25  N6  UNL     1      17.961  18.373  11.457  1.00  0.00    -0.346 N 
ATOM     26  H6  UNL     1      17.978  18.575  12.457  1.00  0.00     0.163 HD
HETATM   27  C33 UNL     1      18.154  19.463  10.637  1.00  0.00     0.241 C 
HETATM   28  O7  UNL     1      19.174  20.221  10.847  1.00  0.00    -0.271 OA
ENDROOT
BRANCH   1  29
HETATM   29  C13 UNL     1      15.877  19.755   9.883  1.00  0.00     0.035 C 
BRANCH  29  30
HETATM   30  C12 UNL     1      15.033  20.963  10.038  1.00  0.00     0.002 C 
BRANCH  30  31
HETATM   31  C11 UNL     1      15.159  21.917   8.866  1.00  0.00     0.000 C 
BRANCH  31  32
HETATM   32  C10 UNL     1      14.310  21.520   7.689  1.00  0.00     0.007 C 
BRANCH  32  33
HETATM   33  C9  UNL     1      13.645  22.694   7.038  1.00  0.00     0.078 C 
BRANCH  33  34
HETATM   34  C8  UNL     1      12.252  22.338   6.675  1.00  0.00     0.127 C 
HETATM   35  O1  UNL     1      11.934  21.169   6.707  1.00  0.00    -0.298 OA
BRANCH  34  36
HETATM   36  C7  UNL     1      11.261  23.402   6.279  1.00  0.00     0.078 C 
BRANCH  36  37
HETATM   37  C6  UNL     1      11.810  24.777   6.596  1.00  0.00     0.007 C 
BRANCH  37  38
HETATM   38  C5  UNL     1      10.751  25.520   7.388  1.00  0.00     0.000 C 
BRANCH  38  39
HETATM   39  C4  UNL     1      11.295  25.826   8.763  1.00  0.00     0.000 C 
BRANCH  39  40
HETATM   40  C3  UNL     1      10.222  26.333   9.685  1.00  0.00    -0.000 C 
BRANCH  40  41
HETATM   41  C2  UNL     1       9.592  27.617   9.182  1.00  0.00    -0.005 C 
HETATM   42  C1  UNL     1       9.039  28.347  10.406  1.00  0.00     0.005 C 
ENDBRANCH  40  41
ENDBRANCH  39  40
ENDBRANCH  38  39
ENDBRANCH  37  38
ENDBRANCH  36  37
ENDBRANCH  34  36
ENDBRANCH  33  34
ENDBRANCH  32  33
ENDBRANCH  31  32
ENDBRANCH  30  31
ENDBRANCH  29  30
ENDBRANCH   1  29
BRANCH   4  43
HETATM   43  O2  UNL     1      19.066  19.749   6.469  1.00  0.00    -0.348 OA
ATOM     44  H2  UNL     1      19.135  19.926   5.538  1.00  0.00     0.219 HD
ENDBRANCH   4  43
BRANCH  24  45
HETATM   45  C29 UNL     1      16.737  16.377  12.018  1.00  0.00     0.038 C 
BRANCH  45  46
HETATM   46  C30 UNL     1      17.141  15.449  13.083  1.00  0.00    -0.020 C 
HETATM   47  C31 UNL     1      16.151  14.482  13.627  1.00  0.00     0.009 C 
HETATM   48  C32 UNL     1      17.659  16.250  14.305  1.00  0.00     0.009 C 
ENDBRANCH  45  46
ENDBRANCH  24  45
BRANCH  11  49
HETATM   49  C19 UNL     1      16.789  17.619   2.167  1.00  0.00     0.076 C 
HETATM   50  C20 UNL     1      17.205  16.566   1.232  1.00  0.00     0.089 C 
HETATM   51  N4  UNL     1      16.145  18.637   1.757  1.00  0.00    -0.389 N 
ATOM     52  H42 UNL     1      15.856  19.368   2.407  1.00  0.00     0.157 HD
ATOM     53  H41 UNL     1      15.935  18.685   0.760  1.00  0.00     0.157 HD
ENDBRANCH  11  49
TORSDOF 16
ENDMDL
MODEL 5
REMARK VINA RESULT: -7.368844293      0.948      1.451
REMARK  16 active torsions:
REMARK  status: ('A' for Active; 'I' for Inactive)
REMARK    1  A    between atoms: C2_2  and  C3_3 
REMARK    2  A    between atoms: C3_3  and  C4_4 
REMARK    3  A    between atoms: C4_4  and  C5_5 
REMARK    4  A    between atoms: C5_5  and  C6_6 
REMARK    5  A    between atoms: C6_6  and  C7_7 
REMARK    6  A    between atoms: C7_7  and  C8_8 
REMARK    7  A    between atoms: C8_8  and  C9_10 
REMARK    8  A    between atoms: C9_10  and  C10_11 
REMARK    9  A    between atoms: C10_11  and  C11_12 
REMARK   10  A    between atoms: C11_12  and  C12_13 
REMARK   11  A    between atoms: C12_13  and  C13_14 
REMARK   12  A    between atoms: C13_14  and  C14_15 
REMARK   13  A    between atoms: C15_18  and  O2_19 
REMARK   14  A    between atoms: N3_27  and  C19_28 
REMARK   15  A    between atoms: C28_45  and  C29_46 
REMARK   16  A    between atoms: C29_46  and  C30_47 
ROOT
HETATM    1  C14 UNL     1       6.547  24.449   2.896  1.00  0.00     0.175 C 
HETATM    2  N1  UNL     1       6.602  25.531   3.814  1.00  0.00    -0.359 N 
ATOM      3  H1  UNL     1       5.665  25.799   4.114  1.00  0.00     0.162 HD
HETATM    4  C15 UNL     1       7.549  26.319   4.414  1.00  0.00     0.135 C 
HETATM    5  C16 UNL     1       8.620  26.015   5.394  1.00  0.00     0.156 C 
HETATM    6  C17 UNL     1       9.598  27.164   5.558  1.00  0.00     0.041 C 
HETATM    7  N2  UNL     1       8.046  25.624   6.665  1.00  0.00    -0.331 N 
ATOM      8  H2  UNL     1       7.469  24.782   6.643  1.00  0.00     0.165 HD
HETATM    9  C18 UNL     1       8.167  26.230   7.908  1.00  0.00     0.324 C 
HETATM   10  O3  UNL     1       8.463  25.514   8.938  1.00  0.00    -0.247 OA
HETATM   11  N3  UNL     1       7.994  27.631   8.201  1.00  0.00    -0.288 N 
HETATM   12  C21 UNL     1       7.001  28.475   7.599  1.00  0.00     0.161 C 
HETATM   13  C22 UNL     1       6.060  29.017   8.657  1.00  0.00     0.188 C 
HETATM   14  O4  UNL     1       5.115  29.881   8.199  1.00  0.00    -0.387 OA
HETATM   15  C23 UNL     1       4.473  29.587   7.035  1.00  0.00     0.193 C 
HETATM   16  C24 UNL     1       3.142  28.857   7.223  1.00  0.00     0.193 C 
HETATM   17  O5  UNL     1       3.276  27.502   7.371  1.00  0.00    -0.387 OA
HETATM   18  C25 UNL     1       3.478  26.786   6.216  1.00  0.00     0.187 C 
HETATM   19  C26 UNL     1       2.424  25.757   5.912  1.00  0.00     0.148 C 
HETATM   20  N5  UNL     1       1.827  25.863   4.622  1.00  0.00    -0.357 N 
ATOM     21  H5  UNL     1       0.979  26.424   4.539  1.00  0.00     0.162 HD
HETATM   22  C27 UNL     1       2.333  25.239   3.429  1.00  0.00     0.240 C 
HETATM   23  O6  UNL     1       1.964  25.728   2.339  1.00  0.00    -0.271 OA
HETATM   24  C28 UNL     1       3.235  24.094   3.455  1.00  0.00     0.177 C 
HETATM   25  N6  UNL     1       4.068  24.017   2.266  1.00  0.00    -0.346 N 
ATOM     26  H6  UNL     1       3.675  23.475   1.497  1.00  0.00     0.163 HD
HETATM   27  C33 UNL     1       5.308  24.566   2.023  1.00  0.00     0.241 C 
HETATM   28  O7  UNL     1       5.475  25.264   0.953  1.00  0.00    -0.271 OA
ENDROOT
BRANCH   1  29
HETATM   29  C13 UNL     1       6.640  23.056   3.359  1.00  0.00     0.035 C 
BRANCH  29  30
HETATM   30  C12 UNL     1       7.950  22.367   3.355  1.00  0.00     0.002 C 
BRANCH  30  31
HETATM   31  C11 UNL     1       8.888  22.900   2.288  1.00  0.00     0.000 C 
BRANCH  31  32
HETATM   32  C10 UNL     1      10.059  23.654   2.856  1.00  0.00     0.007 C 
BRANCH  32  33
HETATM   33  C9  UNL     1      10.931  22.795   3.721  1.00  0.00     0.078 C 
BRANCH  33  34
HETATM   34  C8  UNL     1      11.578  23.632   4.760  1.00  0.00     0.127 C 
HETATM   35  O1  UNL     1      12.171  24.628   4.405  1.00  0.00    -0.298 OA
BRANCH  34  36
HETATM   36  C7  UNL     1      11.498  23.253   6.217  1.00  0.00     0.078 C 
BRANCH  36  37
HETATM   37  C6  UNL     1      11.927  21.814   6.411  1.00  0.00     0.007 C 
BRANCH  37  38
HETATM   38  C5  UNL     1      13.393  21.720   6.031  1.00  0.00     0.000 C 
BRANCH  38  39
HETATM   39  C4  UNL     1      14.204  21.456   7.277  1.00  0.00     0.000 C 
BRANCH  39  40
HETATM   40  C3  UNL     1      14.876  22.704   7.778  1.00  0.00    -0.000 C 
BRANCH  40  41
HETATM   41  C2  UNL     1      15.745  22.440   8.991  1.00  0.00    -0.005 C 
HETATM   42  C1  UNL     1      15.156  21.221   9.699  1.00  0.00     0.005 C 
ENDBRANCH  40  41
ENDBRANCH  39  40
ENDBRANCH  38  39
ENDBRANCH  37  38
ENDBRANCH  36  37
ENDBRANCH  34  36
ENDBRANCH  33  34
ENDBRANCH  32  33
ENDBRANCH  31  32
ENDBRANCH  30  31
ENDBRANCH  29  30
ENDBRANCH   1  29
BRANCH   4  43
HETATM   43  O2  UNL     1       7.526  27.586   4.083  1.00  0.00    -0.348 OA
ATOM     44  H2  UNL     1       7.060  28.159   4.681  1.00  0.00     0.219 HD
ENDBRANCH   4  43
BRANCH  24  45
HETATM   45  C29 UNL     1       2.576  22.797   3.709  1.00  0.00     0.038 C 
BRANCH  45  46
HETATM   46  C30 UNL     1       3.222  21.532   3.330  1.00  0.00    -0.020 C 
HETATM   47  C31 UNL     1       2.410  20.453   2.706  1.00  0.00     0.009 C 
HETATM   48  C32 UNL     1       3.886  20.890   4.575  1.00  0.00     0.009 C 
ENDBRANCH  45  46
ENDBRANCH  24  45
BRANCH  11  49
HETATM   49  C19 UNL     1       8.900  28.144   9.185  1.00  0.00     0.076 C 
HETATM   50  C20 UNL     1       8.447  28.560  10.519  1.00  0.00     0.089 C 
HETATM   51  N4  UNL     1      10.127  28.226   8.859  1.00  0.00    -0.389 N 
ATOM     52  H42 UNL     1      10.442  27.937   7.933  1.00  0.00     0.157 HD
ATOM     53  H41 UNL     1      10.772  28.592   9.560  1.00  0.00     0.157 HD
ENDBRANCH  11  49
TORSDOF 16
ENDMDL
