MODEL 1
REMARK VINA RESULT: -9.611880754      0.000      0.000
REMARK  12 active torsions:
REMARK  status: ('A' for Active; 'I' for Inactive)
REMARK    1  A    between atoms: C11_11  and  N1_12 
REMARK    2  A    between atoms: N1_12  and  C12_14 
REMARK    3  A    between atoms: C16_22  and  O1_23 
REMARK    4  A    between atoms: C22_30  and  C23_31 
REMARK    5  A    between atoms: C23_31  and  C24_32 
REMARK    6  A    between atoms: C26_34  and  O2_35 
REMARK    7  A    between atoms: N4_39  and  C29_40 
REMARK    8  A    between atoms: C29_40  and  C30_41 
REMARK    9  A    between atoms: C30_41  and  O3_42 
REMARK   10  A    between atoms: O3_42  and  C31_43 
REMARK   11  A    between atoms: C31_43  and  C32_44 
REMARK   12  A    between atoms: C32_44  and  N5_45 
ROOT
HETATM    1  C1  UNL     1       5.685   0.111  15.655  1.00  0.00     0.016 C 
HETATM    2  C2  UNL     1       6.090  -0.998  14.703  1.00  0.00    -0.036 C 
HETATM    3  C3  UNL     1       6.938  -2.027  15.413  1.00  0.00     0.010 C 
HETATM    4  C4  UNL     1       6.258  -3.303  15.760  1.00  0.00     0.007 C 
HETATM    5  C5  UNL     1       4.758  -3.222  15.839  1.00  0.00     0.005 C 
HETATM    6  C6  UNL     1       4.132  -2.612  14.634  1.00  0.00    -0.001 C 
HETATM    7  C7  UNL     1       3.626  -3.533  13.584  1.00  0.00     0.033 C 
HETATM    8  C8  UNL     1       2.983  -4.715  14.212  1.00  0.00    -0.023 C 
HETATM    9  C9  UNL     1       3.213  -5.129  15.424  1.00  0.00    -0.070 C 
HETATM   10  C10 UNL     1       2.707  -6.253  16.238  1.00  0.00     0.063 C 
HETATM   11  C11 UNL     1       3.967  -6.718  16.950  1.00  0.00     0.133 C 
HETATM   12  C16 UNL     1       5.014  -5.604  16.731  1.00  0.00     0.154 C 
HETATM   13  C17 UNL     1       4.159  -4.451  16.374  1.00  0.00     0.011 C 
HETATM   14  C18 UNL     1       3.277  -4.135  17.603  1.00  0.00     0.023 C 
HETATM   15  C19 UNL     1       5.017  -1.605  13.918  1.00  0.00    -0.001 C 
HETATM   16  C20 UNL     1       5.783  -2.278  12.794  1.00  0.00     0.006 C 
HETATM   17  C21 UNL     1       6.789  -1.201  12.415  1.00  0.00     0.006 C 
HETATM   18  C22 UNL     1       7.023  -0.344  13.652  1.00  0.00    -0.004 C 
ENDROOT
BRANCH  18  19
HETATM   19  C23 UNL     1       6.675   1.087  13.400  1.00  0.00     0.031 C 
BRANCH  19  20
HETATM   20  C24 UNL     1       7.111   1.612  12.093  1.00  0.00     0.091 C 
HETATM   21  C25 UNL     1       6.950   0.895  10.836  1.00  0.00     0.057 C 
HETATM   22  C26 UNL     1       7.430   1.721   9.650  1.00  0.00     0.124 C 
HETATM   23  C27 UNL     1       8.142   2.982  10.010  1.00  0.00     0.076 C 
HETATM   24  C28 UNL     1       7.505   3.730  11.154  1.00  0.00     0.066 C 
HETATM   25  N4  UNL     1       6.586   2.975  11.895  1.00  0.00    -0.367 N 
BRANCH  22  26
HETATM   26  O2  UNL     1       8.253   0.895   8.887  1.00  0.00    -0.395 OA
ATOM     27  H2  UNL     1       7.696   0.233   8.496  1.00  0.00     0.210 HD
ENDBRANCH  22  26
BRANCH  25  28
HETATM   28  C29 UNL     1       5.214   3.025  11.619  1.00  0.00     0.089 C 
BRANCH  28  29
HETATM   29  C30 UNL     1       4.671   4.265  11.049  1.00  0.00     0.212 C 
BRANCH  29  30
HETATM   30  O3  UNL     1       3.329   4.444  11.286  1.00  0.00    -0.384 OA
BRANCH  30  31
HETATM   31  C31 UNL     1       2.474   4.116  10.254  1.00  0.00     0.198 C 
BRANCH  31  32
HETATM   32  C32 UNL     1       1.209   3.451  10.770  1.00  0.00     0.298 C 
BRANCH  32  33
HETATM   33  N5  UNL     1       1.473   2.417  11.741  1.00  0.00     0.093 N 
HETATM   34  C33 UNL     1       0.166   2.065  12.311  1.00  0.00     0.300 C 
HETATM   35  C34 UNL     1       0.318   0.695  12.935  1.00  0.00     0.262 C 
HETATM   36  N6  UNL     1       1.699   0.420  13.299  1.00  0.00    -0.072 N 
HETATM   37  C35 UNL     1       2.548   0.317  12.134  1.00  0.00     0.262 C 
ATOM     38  H62 UNL     1       2.054   1.113  13.958  1.00  0.00     0.277 HD
ATOM     39  H61 UNL     1       1.770  -0.410  13.887  1.00  0.00     0.277 HD
HETATM   40  C36 UNL     1       1.916   1.199  11.059  1.00  0.00     0.300 C 
ENDBRANCH  32  33
ENDBRANCH  31  32
ENDBRANCH  30  31
ENDBRANCH  29  30
ENDBRANCH  28  29
ENDBRANCH  25  28
ENDBRANCH  19  20
ENDBRANCH  18  19
BRANCH  12  41
HETATM   41  O1  UNL     1       5.678  -5.497  17.947  1.00  0.00    -0.392 OA
ATOM     42  H1  UNL     1       6.399  -4.902  17.778  1.00  0.00     0.210 HD
ENDBRANCH  12  41
BRANCH  11  43
HETATM   43  N1  UNL     1       4.498  -7.921  16.400  1.00  0.00    -0.219 N 
ATOM     44  H1  UNL     1       4.288  -8.086  15.415  1.00  0.00     0.178 HD
BRANCH  43  45
HETATM   45  C12 UNL     1       5.195  -8.813  16.969  1.00  0.00     0.678 A 
HETATM   46  N2  UNL     1       5.590  -9.868  16.247  1.00  0.00    -0.202 N 
HETATM   47  C13 UNL     1       6.329 -10.875  16.734  1.00  0.00     0.107 A 
ATOM     48  H2  UNL     1       5.313  -9.908  15.266  1.00  0.00     0.183 HD
HETATM   49  C14 UNL     1       6.685 -10.786  18.061  1.00  0.00     0.035 A 
HETATM   50  C15 UNL     1       6.284  -9.705  18.814  1.00  0.00     0.107 A 
HETATM   51  N3  UNL     1       5.548  -8.740  18.252  1.00  0.00    -0.202 N 
ATOM     52  H3  UNL     1       5.252  -7.940  18.811  1.00  0.00     0.183 HD
ENDBRANCH  43  45
ENDBRANCH  11  43
TORSDOF 12
ENDMDL
MODEL 2
REMARK VINA RESULT: -9.363573021      2.163      3.675
REMARK  12 active torsions:
REMARK  status: ('A' for Active; 'I' for Inactive)
REMARK    1  A    between atoms: C11_11  and  N1_12 
REMARK    2  A    between atoms: N1_12  and  C12_14 
REMARK    3  A    between atoms: C16_22  and  O1_23 
REMARK    4  A    between atoms: C22_30  and  C23_31 
REMARK    5  A    between atoms: C23_31  and  C24_32 
REMARK    6  A    between atoms: C26_34  and  O2_35 
REMARK    7  A    between atoms: N4_39  and  C29_40 
REMARK    8  A    between atoms: C29_40  and  C30_41 
REMARK    9  A    between atoms: C30_41  and  O3_42 
REMARK   10  A    between atoms: O3_42  and  C31_43 
REMARK   11  A    between atoms: C31_43  and  C32_44 
REMARK   12  A    between atoms: C32_44  and  N5_45 
ROOT
HETATM    1  C1  UNL     1       8.379  -2.230  15.838  1.00  0.00     0.016 C 
HETATM    2  C2  UNL     1       7.694  -3.186  14.880  1.00  0.00    -0.036 C 
HETATM    3  C3  UNL     1       8.583  -4.370  14.582  1.00  0.00     0.010 C 
HETATM    4  C4  UNL     1       8.223  -5.642  15.263  1.00  0.00     0.007 C 
HETATM    5  C5  UNL     1       7.390  -5.482  16.506  1.00  0.00     0.005 C 
HETATM    6  C6  UNL     1       6.180  -4.640  16.306  1.00  0.00    -0.001 C 
HETATM    7  C7  UNL     1       4.899  -5.339  16.022  1.00  0.00     0.033 C 
HETATM    8  C8  UNL     1       4.796  -6.567  16.849  1.00  0.00    -0.023 C 
HETATM    9  C9  UNL     1       5.806  -7.193  17.379  1.00  0.00    -0.070 C 
HETATM   10  C10 UNL     1       5.942  -8.404  18.214  1.00  0.00     0.063 C 
HETATM   11  C11 UNL     1       7.177  -9.059  17.620  1.00  0.00     0.133 C 
HETATM   12  C16 UNL     1       7.831  -7.991  16.716  1.00  0.00     0.154 C 
HETATM   13  C17 UNL     1       7.234  -6.744  17.240  1.00  0.00     0.011 C 
HETATM   14  C18 UNL     1       7.710  -6.585  18.702  1.00  0.00     0.023 C 
HETATM   15  C19 UNL     1       6.331  -3.584  15.223  1.00  0.00    -0.001 C 
HETATM   16  C20 UNL     1       5.806  -4.105  13.898  1.00  0.00     0.006 C 
HETATM   17  C21 UNL     1       6.304  -3.043  12.928  1.00  0.00     0.006 C 
HETATM   18  C22 UNL     1       7.554  -2.424  13.538  1.00  0.00    -0.004 C 
ENDROOT
BRANCH  18  19
HETATM   19  C23 UNL     1       7.393  -0.952  13.737  1.00  0.00     0.031 C 
BRANCH  19  20
HETATM   20  C24 UNL     1       6.040  -0.431  13.463  1.00  0.00     0.091 C 
HETATM   21  C25 UNL     1       5.162   0.122  14.484  1.00  0.00     0.057 C 
HETATM   22  C26 UNL     1       3.862   0.643  13.887  1.00  0.00     0.124 C 
HETATM   23  C27 UNL     1       3.654   0.311  12.447  1.00  0.00     0.076 C 
HETATM   24  C28 UNL     1       4.899   0.453  11.609  1.00  0.00     0.066 C 
HETATM   25  N4  UNL     1       6.086   0.533  12.349  1.00  0.00    -0.367 N 
BRANCH  22  26
HETATM   26  O2  UNL     1       2.824   0.129  14.662  1.00  0.00    -0.395 OA
ATOM     27  H2  UNL     1       2.171  -0.209  14.062  1.00  0.00     0.210 HD
ENDBRANCH  22  26
BRANCH  25  28
HETATM   28  C29 UNL     1       6.651   1.770  12.687  1.00  0.00     0.089 C 
BRANCH  28  29
HETATM   29  C30 UNL     1       6.927   2.719  11.600  1.00  0.00     0.212 C 
BRANCH  29  30
HETATM   30  O3  UNL     1       6.171   3.866  11.660  1.00  0.00    -0.384 OA
BRANCH  30  31
HETATM   31  C31 UNL     1       5.204   4.015  10.687  1.00  0.00     0.198 C 
BRANCH  31  32
HETATM   32  C32 UNL     1       3.808   4.016  11.288  1.00  0.00     0.298 C 
BRANCH  32  33
HETATM   33  N5  UNL     1       2.824   3.410  10.424  1.00  0.00     0.093 N 
HETATM   34  C33 UNL     1       1.695   3.057  11.296  1.00  0.00     0.300 C 
HETATM   35  C34 UNL     1       0.488   2.893  10.399  1.00  0.00     0.262 C 
HETATM   36  N6  UNL     1       0.871   2.556   9.038  1.00  0.00    -0.072 N 
HETATM   37  C35 UNL     1       1.577   3.643   8.397  1.00  0.00     0.262 C 
ATOM     38  H62 UNL     1       1.412   1.692   9.007  1.00  0.00     0.277 HD
ATOM     39  H61 UNL     1       0.066   2.259   8.487  1.00  0.00     0.277 HD
HETATM   40  C36 UNL     1       2.281   4.416   9.510  1.00  0.00     0.300 C 
ENDBRANCH  32  33
ENDBRANCH  31  32
ENDBRANCH  30  31
ENDBRANCH  29  30
ENDBRANCH  28  29
ENDBRANCH  25  28
ENDBRANCH  19  20
ENDBRANCH  18  19
BRANCH  12  41
HETATM   41  O1  UNL     1       9.197  -8.132  16.931  1.00  0.00    -0.392 OA
ATOM     42  H1  UNL     1       9.553  -8.375  16.085  1.00  0.00     0.210 HD
ENDBRANCH  12  41
BRANCH  11  43
HETATM   43  N1  UNL     1       6.865 -10.183  16.801  1.00  0.00    -0.219 N 
ATOM     44  H1  UNL     1       7.665 -10.685  16.416  1.00  0.00     0.178 HD
BRANCH  43  45
HETATM   45  C12 UNL     1       5.727 -10.643  16.487  1.00  0.00     0.678 A 
HETATM   46  N2  UNL     1       5.182 -11.580  17.273  1.00  0.00    -0.202 N 
HETATM   47  C13 UNL     1       3.986 -12.143  17.048  1.00  0.00     0.107 A 
ATOM     48  H2  UNL     1       5.708 -11.883  18.093  1.00  0.00     0.183 HD
HETATM   49  C14 UNL     1       3.305 -11.708  15.934  1.00  0.00     0.035 A 
HETATM   50  C15 UNL     1       3.856 -10.745  15.118  1.00  0.00     0.107 A 
HETATM   51  N3  UNL     1       5.056 -10.232  15.413  1.00  0.00    -0.202 N 
ATOM     52  H3  UNL     1       5.462  -9.518  14.807  1.00  0.00     0.183 HD
ENDBRANCH  43  45
ENDBRANCH  11  43
TORSDOF 12
ENDMDL
MODEL 3
REMARK VINA RESULT: -9.244852249      2.484      4.389
REMARK  12 active torsions:
REMARK  status: ('A' for Active; 'I' for Inactive)
REMARK    1  A    between atoms: C11_11  and  N1_12 
REMARK    2  A    between atoms: N1_12  and  C12_14 
REMARK    3  A    between atoms: C16_22  and  O1_23 
REMARK    4  A    between atoms: C22_30  and  C23_31 
REMARK    5  A    between atoms: C23_31  and  C24_32 
REMARK    6  A    between atoms: C26_34  and  O2_35 
REMARK    7  A    between atoms: N4_39  and  C29_40 
REMARK    8  A    between atoms: C29_40  and  C30_41 
REMARK    9  A    between atoms: C30_41  and  O3_42 
REMARK   10  A    between atoms: O3_42  and  C31_43 
REMARK   11  A    between atoms: C31_43  and  C32_44 
REMARK   12  A    between atoms: C32_44  and  N5_45 
ROOT
HETATM    1  C1  UNL     1       8.543  -2.261  15.788  1.00  0.00     0.016 C 
HETATM    2  C2  UNL     1       7.786  -3.174  14.845  1.00  0.00    -0.036 C 
HETATM    3  C3  UNL     1       8.613  -4.391  14.503  1.00  0.00     0.010 C 
HETATM    4  C4  UNL     1       8.223  -5.655  15.181  1.00  0.00     0.007 C 
HETATM    5  C5  UNL     1       7.440  -5.477  16.454  1.00  0.00     0.005 C 
HETATM    6  C6  UNL     1       6.260  -4.582  16.306  1.00  0.00    -0.001 C 
HETATM    7  C7  UNL     1       4.943  -5.222  16.058  1.00  0.00     0.033 C 
HETATM    8  C8  UNL     1       4.816  -6.455  16.875  1.00  0.00    -0.023 C 
HETATM    9  C9  UNL     1       5.816  -7.130  17.362  1.00  0.00    -0.070 C 
HETATM   10  C10 UNL     1       5.928  -8.356  18.178  1.00  0.00     0.063 C 
HETATM   11  C11 UNL     1       7.113  -9.055  17.534  1.00  0.00     0.133 C 
HETATM   12  C16 UNL     1       7.781  -8.005  16.620  1.00  0.00     0.154 C 
HETATM   13  C17 UNL     1       7.256  -6.740  17.179  1.00  0.00     0.011 C 
HETATM   14  C18 UNL     1       7.787  -6.620  18.625  1.00  0.00     0.023 C 
HETATM   15  C19 UNL     1       6.419  -3.519  15.230  1.00  0.00    -0.001 C 
HETATM   16  C20 UNL     1       5.828  -4.001  13.918  1.00  0.00     0.006 C 
HETATM   17  C21 UNL     1       6.337  -2.949  12.944  1.00  0.00     0.006 C 
HETATM   18  C22 UNL     1       7.633  -2.390  13.516  1.00  0.00    -0.004 C 
ENDROOT
BRANCH  18  19
HETATM   19  C23 UNL     1       7.541  -0.916  13.738  1.00  0.00     0.031 C 
BRANCH  19  20
HETATM   20  C24 UNL     1       6.218  -0.325  13.462  1.00  0.00     0.091 C 
HETATM   21  C25 UNL     1       5.265   0.049  14.497  1.00  0.00     0.057 C 
HETATM   22  C26 UNL     1       4.019   0.698  13.908  1.00  0.00     0.124 C 
HETATM   23  C27 UNL     1       3.924   0.639  12.420  1.00  0.00     0.076 C 
HETATM   24  C28 UNL     1       5.233   0.907  11.720  1.00  0.00     0.066 C 
HETATM   25  N4  UNL     1       6.358   0.825  12.552  1.00  0.00    -0.367 N 
BRANCH  22  26
HETATM   26  O2  UNL     1       2.920   0.072  14.494  1.00  0.00    -0.395 OA
ATOM     27  H2  UNL     1       2.158   0.315  13.982  1.00  0.00     0.210 HD
ENDBRANCH  22  26
BRANCH  25  28
HETATM   28  C29 UNL     1       6.902   1.968  13.153  1.00  0.00     0.089 C 
BRANCH  28  29
HETATM   29  C30 UNL     1       8.034   2.624  12.486  1.00  0.00     0.212 C 
BRANCH  29  30
HETATM   30  O3  UNL     1       8.020   3.995  12.589  1.00  0.00    -0.384 OA
BRANCH  30  31
HETATM   31  C31 UNL     1       7.327   4.677  11.610  1.00  0.00     0.198 C 
BRANCH  31  32
HETATM   32  C32 UNL     1       8.002   4.539  10.254  1.00  0.00     0.298 C 
BRANCH  32  33
HETATM   33  N5  UNL     1       7.096   4.112   9.216  1.00  0.00     0.093 N 
HETATM   34  C33 UNL     1       7.596   2.806   8.765  1.00  0.00     0.300 C 
HETATM   35  C34 UNL     1       6.444   2.116   8.069  1.00  0.00     0.262 C 
HETATM   36  N6  UNL     1       5.476   3.071   7.555  1.00  0.00    -0.072 N 
HETATM   37  C35 UNL     1       4.803   3.776   8.623  1.00  0.00     0.262 C 
ATOM     38  H62 UNL     1       5.907   3.718   6.895  1.00  0.00     0.277 HD
ATOM     39  H61 UNL     1       4.809   2.624   6.926  1.00  0.00     0.277 HD
HETATM   40  C36 UNL     1       5.782   3.821   9.794  1.00  0.00     0.300 C 
ENDBRANCH  32  33
ENDBRANCH  31  32
ENDBRANCH  30  31
ENDBRANCH  29  30
ENDBRANCH  28  29
ENDBRANCH  25  28
ENDBRANCH  19  20
ENDBRANCH  18  19
BRANCH  12  41
HETATM   41  O1  UNL     1       9.146  -8.206  16.786  1.00  0.00    -0.392 OA
ATOM     42  H1  UNL     1       9.552  -7.704  16.089  1.00  0.00     0.210 HD
ENDBRANCH  12  41
BRANCH  11  43
HETATM   43  N1  UNL     1       6.726 -10.155  16.714  1.00  0.00    -0.219 N 
ATOM     44  H1  UNL     1       7.486 -10.643  16.241  1.00  0.00     0.178 HD
BRANCH  43  45
HETATM   45  C12 UNL     1       5.563 -10.607  16.493  1.00  0.00     0.678 A 
HETATM   46  N2  UNL     1       4.916 -10.189  15.398  1.00  0.00    -0.202 N 
HETATM   47  C13 UNL     1       3.684 -10.593  15.056  1.00  0.00     0.107 A 
ATOM     48  H2  UNL     1       5.389  -9.523  14.788  1.00  0.00     0.183 HD
HETATM   49  C14 UNL     1       3.078 -11.492  15.904  1.00  0.00     0.035 A 
HETATM   50  C15 UNL     1       3.734 -11.929  17.034  1.00  0.00     0.107 A 
HETATM   51  N3  UNL     1       4.964 -11.478  17.304  1.00  0.00    -0.202 N 
ATOM     52  H3  UNL     1       5.448 -11.803  18.140  1.00  0.00     0.183 HD
ENDBRANCH  43  45
ENDBRANCH  11  43
TORSDOF 12
ENDMDL
MODEL 4
REMARK VINA RESULT: -9.220274639      2.929     11.707
REMARK  12 active torsions:
REMARK  status: ('A' for Active; 'I' for Inactive)
REMARK    1  A    between atoms: C11_11  and  N1_12 
REMARK    2  A    between atoms: N1_12  and  C12_14 
REMARK    3  A    between atoms: C16_22  and  O1_23 
REMARK    4  A    between atoms: C22_30  and  C23_31 
REMARK    5  A    between atoms: C23_31  and  C24_32 
REMARK    6  A    between atoms: C26_34  and  O2_35 
REMARK    7  A    between atoms: N4_39  and  C29_40 
REMARK    8  A    between atoms: C29_40  and  C30_41 
REMARK    9  A    between atoms: C30_41  and  O3_42 
REMARK   10  A    between atoms: O3_42  and  C31_43 
REMARK   11  A    between atoms: C31_43  and  C32_44 
REMARK   12  A    between atoms: C32_44  and  N5_45 
ROOT
HETATM    1  C1  UNL     1       5.917  -0.086  15.376  1.00  0.00     0.016 C 
HETATM    2  C2  UNL     1       5.800  -0.817  14.053  1.00  0.00    -0.036 C 
HETATM    3  C3  UNL     1       4.650  -0.269  13.241  1.00  0.00     0.010 C 
HETATM    4  C4  UNL     1       5.020   0.618  12.106  1.00  0.00     0.007 C 
HETATM    5  C5  UNL     1       6.378   1.257  12.216  1.00  0.00     0.005 C 
HETATM    6  C6  UNL     1       7.471   0.286  12.493  1.00  0.00    -0.001 C 
HETATM    7  C7  UNL     1       8.246  -0.221  11.331  1.00  0.00     0.033 C 
HETATM    8  C8  UNL     1       8.485   0.878  10.362  1.00  0.00    -0.023 C 
HETATM    9  C9  UNL     1       7.772   1.963  10.279  1.00  0.00    -0.070 C 
HETATM   10  C10 UNL     1       7.818   3.159   9.413  1.00  0.00     0.063 C 
HETATM   11  C11 UNL     1       6.344   3.409   9.142  1.00  0.00     0.133 C 
HETATM   12  C16 UNL     1       5.572   2.531  10.151  1.00  0.00     0.154 C 
HETATM   13  C17 UNL     1       6.606   2.268  11.176  1.00  0.00     0.011 C 
HETATM   14  C18 UNL     1       6.980   3.626  11.811  1.00  0.00     0.023 C 
HETATM   15  C19 UNL     1       7.027  -0.943  13.269  1.00  0.00    -0.001 C 
HETATM   16  C20 UNL     1       6.684  -2.075  12.318  1.00  0.00     0.006 C 
HETATM   17  C21 UNL     1       6.008  -3.070  13.250  1.00  0.00     0.006 C 
HETATM   18  C22 UNL     1       5.404  -2.275  14.400  1.00  0.00    -0.004 C 
ENDROOT
BRANCH  18  19
HETATM   19  C23 UNL     1       5.958  -2.713  15.717  1.00  0.00     0.031 C 
BRANCH  19  20
HETATM   20  C24 UNL     1       7.169  -3.551  15.635  1.00  0.00     0.091 C 
HETATM   21  C25 UNL     1       8.463  -3.161  16.179  1.00  0.00     0.057 C 
HETATM   22  C26 UNL     1       9.501  -4.261  16.005  1.00  0.00     0.124 C 
HETATM   23  C27 UNL     1       9.066  -5.408  15.155  1.00  0.00     0.076 C 
HETATM   24  C28 UNL     1       7.643  -5.841  15.407  1.00  0.00     0.066 C 
HETATM   25  N4  UNL     1       6.876  -4.911  16.121  1.00  0.00    -0.367 N 
BRANCH  22  26
HETATM   26  O2  UNL     1      10.642  -3.663  15.473  1.00  0.00    -0.395 OA
ATOM     27  H2  UNL     1      11.196  -4.363  15.149  1.00  0.00     0.210 HD
ENDBRANCH  22  26
BRANCH  25  28
HETATM   28  C29 UNL     1       6.731  -5.003  17.512  1.00  0.00     0.089 C 
BRANCH  28  29
HETATM   29  C30 UNL     1       6.933  -6.316  18.139  1.00  0.00     0.212 C 
BRANCH  29  30
HETATM   30  O3  UNL     1       8.149  -6.449  18.768  1.00  0.00    -0.384 OA
BRANCH  30  31
HETATM   31  C31 UNL     1       8.911  -7.541  18.406  1.00  0.00     0.198 C 
BRANCH  31  32
HETATM   32  C32 UNL     1       8.065  -8.608  17.729  1.00  0.00     0.298 C 
BRANCH  32  33
HETATM   33  N5  UNL     1       8.834  -9.759  17.321  1.00  0.00     0.093 N 
HETATM   34  C33 UNL     1       9.787 -10.006  18.411  1.00  0.00     0.300 C 
HETATM   35  C34 UNL     1      10.247 -11.440  18.270  1.00  0.00     0.262 C 
HETATM   36  N6  UNL     1      10.113 -11.916  16.902  1.00  0.00    -0.072 N 
HETATM   37  C35 UNL     1       8.728 -12.003  16.501  1.00  0.00     0.262 C 
ATOM     38  H62 UNL     1      10.653 -11.342  16.255  1.00  0.00     0.277 HD
ATOM     39  H61 UNL     1      10.596 -12.804  16.768  1.00  0.00     0.277 HD
HETATM   40  C36 UNL     1       7.977 -10.946  17.308  1.00  0.00     0.300 C 
ENDBRANCH  32  33
ENDBRANCH  31  32
ENDBRANCH  30  31
ENDBRANCH  29  30
ENDBRANCH  28  29
ENDBRANCH  25  28
ENDBRANCH  19  20
ENDBRANCH  18  19
BRANCH  12  41
HETATM   41  O1  UNL     1       4.509   3.322  10.570  1.00  0.00    -0.392 OA
ATOM     42  H1  UNL     1       4.010   2.767  11.158  1.00  0.00     0.210 HD
ENDBRANCH  12  41
BRANCH  11  43
HETATM   43  N1  UNL     1       5.949   3.008   7.833  1.00  0.00    -0.219 N 
ATOM     44  H1  UNL     1       6.499   2.256   7.417  1.00  0.00     0.178 HD
BRANCH  43  45
HETATM   45  C12 UNL     1       5.006   3.459   7.116  1.00  0.00     0.678 A 
HETATM   46  N2  UNL     1       5.255   3.713   5.826  1.00  0.00    -0.202 N 
HETATM   47  C13 UNL     1       4.343   4.192   4.968  1.00  0.00     0.107 A 
ATOM     48  H2  UNL     1       6.195   3.532   5.474  1.00  0.00     0.183 HD
HETATM   49  C14 UNL     1       3.086   4.424   5.478  1.00  0.00     0.035 A 
HETATM   50  C15 UNL     1       2.819   4.166   6.804  1.00  0.00     0.107 A 
HETATM   51  N3  UNL     1       3.785   3.688   7.596  1.00  0.00    -0.202 N 
ATOM     52  H3  UNL     1       3.585   3.497   8.577  1.00  0.00     0.183 HD
ENDBRANCH  43  45
ENDBRANCH  11  43
TORSDOF 12
ENDMDL
MODEL 5
REMARK VINA RESULT: -9.219483350      2.730     10.504
REMARK  12 active torsions:
REMARK  status: ('A' for Active; 'I' for Inactive)
REMARK    1  A    between atoms: C11_11  and  N1_12 
REMARK    2  A    between atoms: N1_12  and  C12_14 
REMARK    3  A    between atoms: C16_22  and  O1_23 
REMARK    4  A    between atoms: C22_30  and  C23_31 
REMARK    5  A    between atoms: C23_31  and  C24_32 
REMARK    6  A    between atoms: C26_34  and  O2_35 
REMARK    7  A    between atoms: N4_39  and  C29_40 
REMARK    8  A    between atoms: C29_40  and  C30_41 
REMARK    9  A    between atoms: C30_41  and  O3_42 
REMARK   10  A    between atoms: O3_42  and  C31_43 
REMARK   11  A    between atoms: C31_43  and  C32_44 
REMARK   12  A    between atoms: C32_44  and  N5_45 
ROOT
HETATM    1  C1  UNL     1       6.102  -0.065  15.401  1.00  0.00     0.016 C 
HETATM    2  C2  UNL     1       5.938  -0.816  14.094  1.00  0.00    -0.036 C 
HETATM    3  C3  UNL     1       4.727  -0.316  13.341  1.00  0.00     0.010 C 
HETATM    4  C4  UNL     1       5.004   0.568  12.178  1.00  0.00     0.007 C 
HETATM    5  C5  UNL     1       6.343   1.254  12.207  1.00  0.00     0.005 C 
HETATM    6  C6  UNL     1       7.482   0.323  12.433  1.00  0.00    -0.001 C 
HETATM    7  C7  UNL     1       8.210  -0.172  11.235  1.00  0.00     0.033 C 
HETATM    8  C8  UNL     1       8.357   0.922  10.242  1.00  0.00    -0.023 C 
HETATM    9  C9  UNL     1       7.604   1.982  10.188  1.00  0.00    -0.070 C 
HETATM   10  C10 UNL     1       7.562   3.168   9.309  1.00  0.00     0.063 C 
HETATM   11  C11 UNL     1       6.068   3.365   9.117  1.00  0.00     0.133 C 
HETATM   12  C16 UNL     1       5.383   2.474  10.176  1.00  0.00     0.154 C 
HETATM   13  C17 UNL     1       6.479   2.259  11.145  1.00  0.00     0.011 C 
HETATM   14  C18 UNL     1       6.841   3.637  11.744  1.00  0.00     0.023 C 
HETATM   15  C19 UNL     1       7.123  -0.910  13.245  1.00  0.00    -0.001 C 
HETATM   16  C20 UNL     1       6.768  -2.065  12.326  1.00  0.00     0.006 C 
HETATM   17  C21 UNL     1       6.178  -3.070  13.305  1.00  0.00     0.006 C 
HETATM   18  C22 UNL     1       5.612  -2.282  14.477  1.00  0.00    -0.004 C 
ENDROOT
BRANCH  18  19
HETATM   19  C23 UNL     1       6.251  -2.684  15.766  1.00  0.00     0.031 C 
BRANCH  19  20
HETATM   20  C24 UNL     1       7.488  -3.477  15.627  1.00  0.00     0.091 C 
HETATM   21  C25 UNL     1       8.788  -3.045  16.121  1.00  0.00     0.057 C 
HETATM   22  C26 UNL     1       9.858  -4.104  15.894  1.00  0.00     0.124 C 
HETATM   23  C27 UNL     1       9.430  -5.258  15.051  1.00  0.00     0.076 C 
HETATM   24  C28 UNL     1       8.036  -5.745  15.356  1.00  0.00     0.066 C 
HETATM   25  N4  UNL     1       7.265  -4.851  16.110  1.00  0.00    -0.367 N 
BRANCH  22  26
HETATM   26  O2  UNL     1      10.952  -3.459  15.322  1.00  0.00    -0.395 OA
ATOM     27  H2  UNL     1      10.610  -2.753  14.787  1.00  0.00     0.210 HD
ENDBRANCH  22  26
BRANCH  25  28
HETATM   28  C29 UNL     1       7.181  -4.960  17.505  1.00  0.00     0.089 C 
BRANCH  28  29
HETATM   29  C30 UNL     1       7.579  -6.233  18.120  1.00  0.00     0.212 C 
BRANCH  29  30
HETATM   30  O3  UNL     1       6.671  -7.248  17.930  1.00  0.00    -0.384 OA
BRANCH  30  31
HETATM   31  C31 UNL     1       5.347  -6.940  18.169  1.00  0.00     0.198 C 
BRANCH  31  32
HETATM   32  C32 UNL     1       4.449  -7.440  17.049  1.00  0.00     0.298 C 
BRANCH  32  33
HETATM   33  N5  UNL     1       3.566  -6.419  16.539  1.00  0.00     0.093 N 
HETATM   34  C33 UNL     1       3.566  -5.353  17.549  1.00  0.00     0.300 C 
HETATM   35  C34 UNL     1       3.081  -4.098  16.858  1.00  0.00     0.262 C 
HETATM   36  N6  UNL     1       2.260  -4.406  15.698  1.00  0.00    -0.072 N 
HETATM   37  C35 UNL     1       3.029  -5.047  14.655  1.00  0.00     0.262 C 
ATOM     38  H62 UNL     1       1.446  -4.963  15.957  1.00  0.00     0.277 HD
ATOM     39  H61 UNL     1       1.781  -3.576  15.351  1.00  0.00     0.277 HD
HETATM   40  C36 UNL     1       4.160  -5.799  15.353  1.00  0.00     0.300 C 
ENDBRANCH  32  33
ENDBRANCH  31  32
ENDBRANCH  30  31
ENDBRANCH  29  30
ENDBRANCH  28  29
ENDBRANCH  25  28
ENDBRANCH  19  20
ENDBRANCH  18  19
BRANCH  12  41
HETATM   41  O1  UNL     1       4.317   3.234  10.644  1.00  0.00    -0.392 OA
ATOM     42  H1  UNL     1       3.637   3.128   9.989  1.00  0.00     0.210 HD
ENDBRANCH  12  41
BRANCH  11  43
HETATM   43  N1  UNL     1       5.615   2.935   7.835  1.00  0.00    -0.219 N 
ATOM     44  H1  UNL     1       6.092   2.119   7.450  1.00  0.00     0.178 HD
BRANCH  43  45
HETATM   45  C12 UNL     1       4.701   3.429   7.110  1.00  0.00     0.678 A 
HETATM   46  N2  UNL     1       3.532   3.737   7.686  1.00  0.00    -0.202 N 
HETATM   47  C13 UNL     1       2.490   4.264   7.028  1.00  0.00     0.107 A 
ATOM     48  H2  UNL     1       3.429   3.561   8.685  1.00  0.00     0.183 HD
HETATM   49  C14 UNL     1       2.667   4.489   5.681  1.00  0.00     0.035 A 
HETATM   50  C15 UNL     1       3.865   4.176   5.079  1.00  0.00     0.107 A 
HETATM   51  N3  UNL     1       4.858   3.653   5.807  1.00  0.00    -0.202 N 
ATOM     52  H3  UNL     1       5.745   3.422   5.359  1.00  0.00     0.183 HD
ENDBRANCH  43  45
ENDBRANCH  11  43
TORSDOF 12
ENDMDL
