MODEL 1
REMARK VINA RESULT: -7.463606303      0.000      0.000
REMARK  9 active torsions:
REMARK  status: ('A' for Active; 'I' for Inactive)
REMARK    1  A    between atoms: O1_2  and  C2_3 
REMARK    2  A    between atoms: C2_3  and  C3_4 
REMARK    3  A    between atoms: C3_4  and  N1_5 
REMARK    4  A    between atoms: N1_5  and  C4_7 
REMARK    5  A    between atoms: C5_10  and  C6_11 
REMARK    6  A    between atoms: C15_24  and  N5_25 
REMARK    7  A    between atoms: N5_25  and  C16_26 
REMARK    8  A    between atoms: C16_26  and  C17_27 
REMARK    9  A    between atoms: C17_27  and  N6_28 
ROOT
HETATM    1  C4  UNL     1      17.120 -17.064  24.621  1.00  0.00     0.680 A 
HETATM    2  N2  UNL     1      18.249 -16.609  25.157  1.00  0.00    -0.190 N 
ATOM      3  H2  UNL     1      18.582 -17.004  26.037  1.00  0.00     0.184 HD
HETATM    4  C5  UNL     1      18.976 -15.614  24.545  1.00  0.00     0.079 A 
HETATM    5  C12 UNL     1      18.525 -15.097  23.372  1.00  0.00     0.105 A 
HETATM    6  C13 UNL     1      19.212 -14.135  22.699  1.00  0.00     0.267 A 
HETATM    7  O2  UNL     1      20.291 -13.696  23.188  1.00  0.00    -0.267 OA
HETATM    8  N4  UNL     1      18.742 -13.674  21.536  1.00  0.00    -0.278 N 
HETATM    9  C14 UNL     1      19.467 -12.658  20.798  1.00  0.00     0.164 C 
HETATM   10  C15 UNL     1      17.583 -14.107  20.945  1.00  0.00     0.264 A 
HETATM   11  N8  UNL     1      16.918 -15.078  21.647  1.00  0.00    -0.301 N 
ATOM     12  H8  UNL     1      16.048 -15.445  21.262  1.00  0.00     0.171 HD
HETATM   13  C24 UNL     1      17.357 -15.565  22.813  1.00  0.00     0.142 A 
HETATM   14  N9  UNL     1      16.686 -16.544  23.465  1.00  0.00    -0.175 N 
ATOM     15  H9  UNL     1      15.819 -16.899  23.062  1.00  0.00     0.186 HD
ENDROOT
BRANCH  10  16
HETATM   16  N5  UNL     1      17.142 -13.680  19.911  1.00  0.00    -0.386 NA
BRANCH  16  17
HETATM   17  C16 UNL     1      16.637 -13.185  18.795  1.00  0.00     0.178 C 
BRANCH  17  18
HETATM   18  C17 UNL     1      15.337 -13.870  18.373  1.00  0.00     0.181 C 
BRANCH  18  19
HETATM   19  N6  UNL     1      14.208 -13.439  19.121  1.00  0.00    -0.384 N 
HETATM   20  C18 UNL     1      14.286 -12.244  19.848  1.00  0.00     0.086 C 
HETATM   21  C19 UNL     1      12.974 -11.967  20.551  1.00  0.00     0.280 C 
HETATM   22  N7  UNL     1      12.671 -13.075  21.403  1.00  0.00    -0.069 N 
HETATM   23  C20 UNL     1      13.788 -13.351  22.277  1.00  0.00     0.272 C 
HETATM   24  C21 UNL     1      11.494 -12.873  22.239  1.00  0.00     0.272 C 
HETATM   25  C22 UNL     1      12.357 -14.219  20.556  1.00  0.00     0.256 C 
HETATM   26  C23 UNL     1      13.516 -14.554  19.648  1.00  0.00     0.150 C 
ENDBRANCH  18  19
ENDBRANCH  17  18
ENDBRANCH  16  17
ENDBRANCH  10  16
BRANCH   4  27
HETATM   27  C6  UNL     1      20.203 -15.226  25.252  1.00  0.00     0.001 A 
HETATM   28  C7  UNL     1      20.240 -14.233  26.212  1.00  0.00     0.031 A 
HETATM   29  C8  UNL     1      21.401 -14.015  26.919  1.00  0.00     0.088 A 
HETATM   30  N3  UNL     1      22.505 -14.772  26.676  1.00  0.00    -0.375 N 
HETATM   31  C9  UNL     1      22.457 -15.748  25.728  1.00  0.00     0.095 A 
ATOM     32  H3  UNL     1      23.364 -14.609  27.203  1.00  0.00     0.164 HD
HETATM   33  C10 UNL     1      21.322 -15.999  24.997  1.00  0.00    -0.034 A 
HETATM   34  C11 UNL     1      21.351 -17.075  23.966  1.00  0.00     0.050 C 
ENDBRANCH   4  27
BRANCH   1  35
HETATM   35  N1  UNL     1      16.503 -17.995  25.272  1.00  0.00    -0.224 N 
ATOM     36  H1  UNL     1      16.275 -17.820  26.251  1.00  0.00     0.177 HD
BRANCH  35  37
HETATM   37  C3  UNL     1      16.119 -19.251  24.717  1.00  0.00     0.164 C 
BRANCH  37  38
HETATM   38  C2  UNL     1      14.640 -19.336  24.523  1.00  0.00     0.187 C 
BRANCH  38  39
HETATM   39  O1  UNL     1      14.029 -18.349  23.840  1.00  0.00    -0.394 OA
HETATM   40  C1  UNL     1      13.761 -18.479  22.508  1.00  0.00     0.201 C 
ENDBRANCH  38  39
ENDBRANCH  37  38
ENDBRANCH  35  37
ENDBRANCH   1  35
TORSDOF 9
ENDMDL
MODEL 2
REMARK VINA RESULT: -7.451032955      2.033      2.392
REMARK  9 active torsions:
REMARK  status: ('A' for Active; 'I' for Inactive)
REMARK    1  A    between atoms: O1_2  and  C2_3 
REMARK    2  A    between atoms: C2_3  and  C3_4 
REMARK    3  A    between atoms: C3_4  and  N1_5 
REMARK    4  A    between atoms: N1_5  and  C4_7 
REMARK    5  A    between atoms: C5_10  and  C6_11 
REMARK    6  A    between atoms: C15_24  and  N5_25 
REMARK    7  A    between atoms: N5_25  and  C16_26 
REMARK    8  A    between atoms: C16_26  and  C17_27 
REMARK    9  A    between atoms: C17_27  and  N6_28 
ROOT
HETATM    1  C4  UNL     1      18.042 -15.571  25.331  1.00  0.00     0.680 A 
HETATM    2  N2  UNL     1      19.370 -15.549  25.405  1.00  0.00    -0.190 N 
ATOM      3  H2  UNL     1      19.833 -15.919  26.236  1.00  0.00     0.184 HD
HETATM    4  C5  UNL     1      20.131 -15.037  24.379  1.00  0.00     0.079 A 
HETATM    5  C12 UNL     1      19.505 -14.551  23.276  1.00  0.00     0.105 A 
HETATM    6  C13 UNL     1      20.198 -14.061  22.214  1.00  0.00     0.267 A 
HETATM    7  O2  UNL     1      21.460 -14.039  22.261  1.00  0.00    -0.267 OA
HETATM    8  N4  UNL     1      19.539 -13.615  21.139  1.00  0.00    -0.278 N 
HETATM    9  C14 UNL     1      20.261 -13.101  19.993  1.00  0.00     0.164 C 
HETATM   10  C15 UNL     1      18.174 -13.612  21.017  1.00  0.00     0.264 A 
HETATM   11  N8  UNL     1      17.507 -14.115  22.103  1.00  0.00    -0.301 N 
ATOM     12  H8  UNL     1      16.488 -14.142  22.077  1.00  0.00     0.171 HD
HETATM   13  C24 UNL     1      18.131 -14.571  23.196  1.00  0.00     0.142 A 
HETATM   14  N9  UNL     1      17.438 -15.086  24.239  1.00  0.00    -0.175 N 
ATOM     15  H9  UNL     1      16.419 -15.105  24.191  1.00  0.00     0.186 HD
ENDROOT
BRANCH  10  16
HETATM   16  N5  UNL     1      17.574 -13.191  20.064  1.00  0.00    -0.386 NA
BRANCH  16  17
HETATM   17  C16 UNL     1      16.882 -12.748  19.029  1.00  0.00     0.178 C 
BRANCH  17  18
HETATM   18  C17 UNL     1      15.699 -13.648  18.672  1.00  0.00     0.181 C 
BRANCH  18  19
HETATM   19  N6  UNL     1      14.490 -13.265  19.314  1.00  0.00    -0.384 N 
HETATM   20  C18 UNL     1      14.477 -12.117  20.117  1.00  0.00     0.086 C 
HETATM   21  C19 UNL     1      13.093 -11.886  20.684  1.00  0.00     0.280 C 
HETATM   22  N7  UNL     1      12.706 -13.045  21.428  1.00  0.00    -0.069 N 
HETATM   23  C20 UNL     1      13.721 -13.372  22.403  1.00  0.00     0.272 C 
HETATM   24  C21 UNL     1      11.442 -12.896  22.138  1.00  0.00     0.272 C 
HETATM   25  C22 UNL     1      12.499 -14.135  20.483  1.00  0.00     0.256 C 
HETATM   26  C23 UNL     1      13.754 -14.411  19.692  1.00  0.00     0.150 C 
ENDBRANCH  18  19
ENDBRANCH  17  18
ENDBRANCH  16  17
ENDBRANCH  10  16
BRANCH   4  27
HETATM   27  C6  UNL     1      21.581 -15.093  24.603  1.00  0.00     0.001 A 
HETATM   28  C7  UNL     1      22.326 -14.002  25.009  1.00  0.00     0.031 A 
HETATM   29  C8  UNL     1      23.656 -14.166  25.319  1.00  0.00     0.088 A 
HETATM   30  N3  UNL     1      24.237 -15.393  25.229  1.00  0.00    -0.375 N 
HETATM   31  C9  UNL     1      23.494 -16.461  24.827  1.00  0.00     0.095 A 
ATOM     32  H3  UNL     1      25.223 -15.512  25.460  1.00  0.00     0.164 HD
HETATM   33  C10 UNL     1      22.163 -16.344  24.506  1.00  0.00    -0.034 A 
HETATM   34  C11 UNL     1      21.420 -17.558  24.062  1.00  0.00     0.050 C 
ENDBRANCH   4  27
BRANCH   1  35
HETATM   35  N1  UNL     1      17.413 -16.065  26.347  1.00  0.00    -0.224 N 
ATOM     36  H1  UNL     1      16.395 -16.114  26.298  1.00  0.00     0.177 HD
BRANCH  35  37
HETATM   37  C3  UNL     1      18.043 -16.547  27.532  1.00  0.00     0.164 C 
BRANCH  37  38
HETATM   38  C2  UNL     1      18.290 -18.019  27.462  1.00  0.00     0.187 C 
BRANCH  38  39
HETATM   39  O1  UNL     1      19.370 -18.452  26.783  1.00  0.00    -0.394 OA
HETATM   40  C1  UNL     1      20.246 -19.332  27.347  1.00  0.00     0.201 C 
ENDBRANCH  38  39
ENDBRANCH  37  38
ENDBRANCH  35  37
ENDBRANCH   1  35
TORSDOF 9
ENDMDL
MODEL 3
REMARK VINA RESULT: -7.417280967      2.640      8.595
REMARK  9 active torsions:
REMARK  status: ('A' for Active; 'I' for Inactive)
REMARK    1  A    between atoms: O1_2  and  C2_3 
REMARK    2  A    between atoms: C2_3  and  C3_4 
REMARK    3  A    between atoms: C3_4  and  N1_5 
REMARK    4  A    between atoms: N1_5  and  C4_7 
REMARK    5  A    between atoms: C5_10  and  C6_11 
REMARK    6  A    between atoms: C15_24  and  N5_25 
REMARK    7  A    between atoms: N5_25  and  C16_26 
REMARK    8  A    between atoms: C16_26  and  C17_27 
REMARK    9  A    between atoms: C17_27  and  N6_28 
ROOT
HETATM    1  C4  UNL     1      15.014 -12.151  17.632  1.00  0.00     0.680 A 
HETATM    2  N2  UNL     1      14.057 -12.096  18.555  1.00  0.00    -0.190 N 
ATOM      3  H2  UNL     1      13.112 -11.822  18.284  1.00  0.00     0.184 HD
HETATM    4  C5  UNL     1      14.320 -12.405  19.870  1.00  0.00     0.079 A 
HETATM    5  C12 UNL     1      15.580 -12.773  20.220  1.00  0.00     0.105 A 
HETATM    6  C13 UNL     1      15.900 -13.121  21.495  1.00  0.00     0.267 A 
HETATM    7  O2  UNL     1      15.004 -13.083  22.384  1.00  0.00    -0.267 OA
HETATM    8  N4  UNL     1      17.148 -13.500  21.786  1.00  0.00    -0.278 N 
HETATM    9  C14 UNL     1      17.504 -13.887  23.137  1.00  0.00     0.164 C 
HETATM   10  C15 UNL     1      18.168 -13.569  20.873  1.00  0.00     0.264 A 
HETATM   11  N8  UNL     1      17.812 -13.215  19.599  1.00  0.00    -0.301 N 
ATOM     12  H8  UNL     1      18.524 -13.244  18.869  1.00  0.00     0.171 HD
HETATM   13  C24 UNL     1      16.573 -12.831  19.267  1.00  0.00     0.142 A 
HETATM   14  N9  UNL     1      16.252 -12.514  17.991  1.00  0.00    -0.175 N 
ATOM     15  H9  UNL     1      16.979 -12.552  17.276  1.00  0.00     0.186 HD
ENDROOT
BRANCH  10  16
HETATM   16  N5  UNL     1      19.298 -13.886  21.133  1.00  0.00    -0.386 NA
BRANCH  16  17
HETATM   17  C16 UNL     1      20.550 -14.230  21.381  1.00  0.00     0.178 C 
BRANCH  17  18
HETATM   18  C17 UNL     1      20.975 -13.937  22.820  1.00  0.00     0.181 C 
BRANCH  18  19
HETATM   19  N6  UNL     1      21.107 -15.107  23.615  1.00  0.00    -0.384 N 
HETATM   20  C18 UNL     1      20.698 -16.340  23.088  1.00  0.00     0.086 C 
HETATM   21  C19 UNL     1      20.943 -17.448  24.089  1.00  0.00     0.280 C 
HETATM   22  N7  UNL     1      20.239 -17.138  25.295  1.00  0.00    -0.069 N 
HETATM   23  C20 UNL     1      18.849 -16.871  25.004  1.00  0.00     0.272 C 
HETATM   24  C21 UNL     1      20.286 -18.196  26.296  1.00  0.00     0.272 C 
HETATM   25  C22 UNL     1      20.888 -15.987  25.910  1.00  0.00     0.256 C 
HETATM   26  C23 UNL     1      20.884 -14.801  24.976  1.00  0.00     0.150 C 
ENDBRANCH  18  19
ENDBRANCH  17  18
ENDBRANCH  16  17
ENDBRANCH  10  16
BRANCH   4  27
HETATM   27  C6  UNL     1      13.162 -12.308  20.767  1.00  0.00     0.001 A 
HETATM   28  C7  UNL     1      12.343 -13.381  21.062  1.00  0.00     0.031 A 
HETATM   29  C8  UNL     1      11.354 -13.240  22.009  1.00  0.00     0.088 A 
HETATM   30  N3  UNL     1      11.183 -12.054  22.652  1.00  0.00    -0.375 N 
HETATM   31  C9  UNL     1      11.995 -11.003  22.353  1.00  0.00     0.095 A 
ATOM     32  H3  UNL     1      10.450 -11.953  23.355  1.00  0.00     0.164 HD
HETATM   33  C10 UNL     1      12.994 -11.097  21.414  1.00  0.00    -0.034 A 
HETATM   34  C11 UNL     1      13.834  -9.898  21.133  1.00  0.00     0.050 C 
ENDBRANCH   4  27
BRANCH   1  35
HETATM   35  N1  UNL     1      14.672 -11.838  16.424  1.00  0.00    -0.224 N 
ATOM     36  H1  UNL     1      13.739 -12.103  16.110  1.00  0.00     0.177 HD
BRANCH  35  37
HETATM   37  C3  UNL     1      15.511 -11.148  15.501  1.00  0.00     0.164 C 
BRANCH  37  38
HETATM   38  C2  UNL     1      16.199 -12.095  14.572  1.00  0.00     0.187 C 
BRANCH  38  39
HETATM   39  O1  UNL     1      17.334 -12.686  14.991  1.00  0.00    -0.394 OA
HETATM   40  C1  UNL     1      17.476 -14.042  14.948  1.00  0.00     0.201 C 
ENDBRANCH  38  39
ENDBRANCH  37  38
ENDBRANCH  35  37
ENDBRANCH   1  35
TORSDOF 9
ENDMDL
MODEL 4
REMARK VINA RESULT: -7.409488789      0.914      1.433
REMARK  9 active torsions:
REMARK  status: ('A' for Active; 'I' for Inactive)
REMARK    1  A    between atoms: O1_2  and  C2_3 
REMARK    2  A    between atoms: C2_3  and  C3_4 
REMARK    3  A    between atoms: C3_4  and  N1_5 
REMARK    4  A    between atoms: N1_5  and  C4_7 
REMARK    5  A    between atoms: C5_10  and  C6_11 
REMARK    6  A    between atoms: C15_24  and  N5_25 
REMARK    7  A    between atoms: N5_25  and  C16_26 
REMARK    8  A    between atoms: C16_26  and  C17_27 
REMARK    9  A    between atoms: C17_27  and  N6_28 
ROOT
HETATM    1  C4  UNL     1      17.658 -16.585  24.948  1.00  0.00     0.680 A 
HETATM    2  N2  UNL     1      18.955 -16.483  25.230  1.00  0.00    -0.190 N 
ATOM      3  H2  UNL     1      19.328 -16.952  26.055  1.00  0.00     0.184 HD
HETATM    4  C5  UNL     1      19.801 -15.755  24.426  1.00  0.00     0.079 A 
HETATM    5  C12 UNL     1      19.295 -15.137  23.327  1.00  0.00     0.105 A 
HETATM    6  C13 UNL     1      20.082 -14.429  22.473  1.00  0.00     0.267 A 
HETATM    7  O2  UNL     1      21.317 -14.327  22.719  1.00  0.00    -0.267 OA
HETATM    8  N4  UNL     1      19.543 -13.858  21.391  1.00  0.00    -0.278 N 
HETATM    9  C14 UNL     1      20.369 -13.111  20.464  1.00  0.00     0.164 C 
HETATM   10  C15 UNL     1      18.215 -13.931  21.060  1.00  0.00     0.264 A 
HETATM   11  N8  UNL     1      17.451 -14.654  21.939  1.00  0.00    -0.301 N 
ATOM     12  H8  UNL     1      16.453 -14.748  21.751  1.00  0.00     0.171 HD
HETATM   13  C24 UNL     1      17.954 -15.240  23.031  1.00  0.00     0.142 A 
HETATM   14  N9  UNL     1      17.172 -15.970  23.862  1.00  0.00    -0.175 N 
ATOM     15  H9  UNL     1      16.177 -16.053  23.655  1.00  0.00     0.186 HD
ENDROOT
BRANCH  10  16
HETATM   16  N5  UNL     1      17.719 -13.401  20.102  1.00  0.00    -0.386 NA
BRANCH  16  17
HETATM   17  C16 UNL     1      17.145 -12.845  19.049  1.00  0.00     0.178 C 
BRANCH  17  18
HETATM   18  C17 UNL     1      16.008 -13.689  18.474  1.00  0.00     0.181 C 
BRANCH  18  19
HETATM   19  N6  UNL     1      14.751 -13.424  19.082  1.00  0.00    -0.384 N 
HETATM   20  C18 UNL     1      14.564 -12.215  19.765  1.00  0.00     0.086 C 
HETATM   21  C19 UNL     1      13.156 -12.132  20.314  1.00  0.00     0.280 C 
HETATM   22  N7  UNL     1      12.934 -13.254  21.173  1.00  0.00    -0.069 N 
HETATM   23  C20 UNL     1      13.978 -13.332  22.169  1.00  0.00     0.272 C 
HETATM   24  C21 UNL     1      11.656 -13.220  21.871  1.00  0.00     0.272 C 
HETATM   25  C22 UNL     1      12.896 -14.452  20.343  1.00  0.00     0.256 C 
HETATM   26  C23 UNL     1      14.185 -14.621  19.576  1.00  0.00     0.150 C 
ENDBRANCH  18  19
ENDBRANCH  17  18
ENDBRANCH  16  17
ENDBRANCH  10  16
BRANCH   4  27
HETATM   27  C6  UNL     1      21.203 -15.744  24.861  1.00  0.00     0.001 A 
HETATM   28  C7  UNL     1      22.125 -16.695  24.465  1.00  0.00     0.031 A 
HETATM   29  C8  UNL     1      23.448 -16.545  24.813  1.00  0.00     0.088 A 
HETATM   30  N3  UNL     1      23.848 -15.468  25.542  1.00  0.00    -0.375 N 
HETATM   31  C9  UNL     1      22.932 -14.538  25.928  1.00  0.00     0.095 A 
ATOM     32  H3  UNL     1      24.830 -15.359  25.798  1.00  0.00     0.164 HD
HETATM   33  C10 UNL     1      21.601 -14.647  25.604  1.00  0.00    -0.034 A 
HETATM   34  C11 UNL     1      20.656 -13.595  26.074  1.00  0.00     0.050 C 
ENDBRANCH   4  27
BRANCH   1  35
HETATM   35  N1  UNL     1      16.941 -17.285  25.765  1.00  0.00    -0.224 N 
ATOM     36  H1  UNL     1      16.551 -16.812  26.580  1.00  0.00     0.177 HD
BRANCH  35  37
HETATM   37  C3  UNL     1      16.658 -18.674  25.606  1.00  0.00     0.164 C 
BRANCH  37  38
HETATM   38  C2  UNL     1      15.393 -18.892  24.841  1.00  0.00     0.187 C 
BRANCH  38  39
HETATM   39  O1  UNL     1      15.389 -18.614  23.524  1.00  0.00    -0.394 OA
HETATM   40  C1  UNL     1      14.281 -18.095  22.919  1.00  0.00     0.201 C 
ENDBRANCH  38  39
ENDBRANCH  37  38
ENDBRANCH  35  37
ENDBRANCH   1  35
TORSDOF 9
ENDMDL
MODEL 5
REMARK VINA RESULT: -7.377238347      1.584      2.258
REMARK  9 active torsions:
REMARK  status: ('A' for Active; 'I' for Inactive)
REMARK    1  A    between atoms: O1_2  and  C2_3 
REMARK    2  A    between atoms: C2_3  and  C3_4 
REMARK    3  A    between atoms: C3_4  and  N1_5 
REMARK    4  A    between atoms: N1_5  and  C4_7 
REMARK    5  A    between atoms: C5_10  and  C6_11 
REMARK    6  A    between atoms: C15_24  and  N5_25 
REMARK    7  A    between atoms: N5_25  and  C16_26 
REMARK    8  A    between atoms: C16_26  and  C17_27 
REMARK    9  A    between atoms: C17_27  and  N6_28 
ROOT
HETATM    1  C4  UNL     1      17.656 -16.582  24.950  1.00  0.00     0.680 A 
HETATM    2  N2  UNL     1      18.953 -16.481  25.232  1.00  0.00    -0.190 N 
ATOM      3  H2  UNL     1      19.325 -16.950  26.058  1.00  0.00     0.184 HD
HETATM    4  C5  UNL     1      19.800 -15.755  24.427  1.00  0.00     0.079 A 
HETATM    5  C12 UNL     1      19.294 -15.137  23.327  1.00  0.00     0.105 A 
HETATM    6  C13 UNL     1      20.083 -14.431  22.473  1.00  0.00     0.267 A 
HETATM    7  O2  UNL     1      21.317 -14.330  22.719  1.00  0.00    -0.267 OA
HETATM    8  N4  UNL     1      19.544 -13.862  21.390  1.00  0.00    -0.278 N 
HETATM    9  C14 UNL     1      20.371 -13.116  20.462  1.00  0.00     0.164 C 
HETATM   10  C15 UNL     1      18.216 -13.934  21.059  1.00  0.00     0.264 A 
HETATM   11  N8  UNL     1      17.452 -14.654  21.938  1.00  0.00    -0.301 N 
ATOM     12  H8  UNL     1      16.454 -14.748  21.750  1.00  0.00     0.171 HD
HETATM   13  C24 UNL     1      17.954 -15.240  23.032  1.00  0.00     0.142 A 
HETATM   14  N9  UNL     1      17.171 -15.967  23.864  1.00  0.00    -0.175 N 
ATOM     15  H9  UNL     1      16.175 -16.050  23.656  1.00  0.00     0.186 HD
ENDROOT
BRANCH  10  16
HETATM   16  N5  UNL     1      17.721 -13.404  20.100  1.00  0.00    -0.386 NA
BRANCH  16  17
HETATM   17  C16 UNL     1      17.146 -12.845  19.050  1.00  0.00     0.178 C 
BRANCH  17  18
HETATM   18  C17 UNL     1      16.007 -13.688  18.474  1.00  0.00     0.181 C 
BRANCH  18  19
HETATM   19  N6  UNL     1      14.750 -13.423  19.082  1.00  0.00    -0.384 N 
HETATM   20  C18 UNL     1      14.564 -12.215  19.765  1.00  0.00     0.086 C 
HETATM   21  C19 UNL     1      13.156 -12.131  20.314  1.00  0.00     0.280 C 
HETATM   22  N7  UNL     1      12.934 -13.254  21.173  1.00  0.00    -0.069 N 
HETATM   23  C20 UNL     1      13.978 -13.332  22.169  1.00  0.00     0.272 C 
HETATM   24  C21 UNL     1      11.656 -13.220  21.872  1.00  0.00     0.272 C 
HETATM   25  C22 UNL     1      12.895 -14.452  20.343  1.00  0.00     0.256 C 
HETATM   26  C23 UNL     1      14.185 -14.620  19.576  1.00  0.00     0.150 C 
ENDBRANCH  18  19
ENDBRANCH  17  18
ENDBRANCH  16  17
ENDBRANCH  10  16
BRANCH   4  27
HETATM   27  C6  UNL     1      21.202 -15.745  24.863  1.00  0.00     0.001 A 
HETATM   28  C7  UNL     1      22.123 -16.696  24.467  1.00  0.00     0.031 A 
HETATM   29  C8  UNL     1      23.446 -16.547  24.816  1.00  0.00     0.088 A 
HETATM   30  N3  UNL     1      23.847 -15.471  25.545  1.00  0.00    -0.375 N 
HETATM   31  C9  UNL     1      22.931 -14.540  25.930  1.00  0.00     0.095 A 
ATOM     32  H3  UNL     1      24.828 -15.362  25.801  1.00  0.00     0.164 HD
HETATM   33  C10 UNL     1      21.600 -14.648  25.606  1.00  0.00    -0.034 A 
HETATM   34  C11 UNL     1      20.656 -13.595  26.075  1.00  0.00     0.050 C 
ENDBRANCH   4  27
BRANCH   1  35
HETATM   35  N1  UNL     1      16.938 -17.281  25.767  1.00  0.00    -0.224 N 
ATOM     36  H1  UNL     1      16.470 -16.788  26.528  1.00  0.00     0.177 HD
BRANCH  35  37
HETATM   37  C3  UNL     1      16.755 -18.692  25.680  1.00  0.00     0.164 C 
BRANCH  37  38
HETATM   38  C2  UNL     1      17.480 -19.408  26.773  1.00  0.00     0.187 C 
BRANCH  38  39
HETATM   39  O1  UNL     1      18.296 -18.693  27.571  1.00  0.00    -0.394 OA
HETATM   40  C1  UNL     1      18.781 -19.220  28.732  1.00  0.00     0.201 C 
ENDBRANCH  38  39
ENDBRANCH  37  38
ENDBRANCH  35  37
ENDBRANCH   1  35
TORSDOF 9
ENDMDL
