MODEL 1
REMARK VINA RESULT: -6.594292143      0.000      0.000
REMARK  12 active torsions:
REMARK  status: ('A' for Active; 'I' for Inactive)
REMARK    1  A    between atoms: C2_2  and  N1_3 
REMARK    2  A    between atoms: C2_2  and  O1_7 
REMARK    3  A    between atoms: N1_3  and  N2_4 
REMARK    4  A    between atoms: O1_7  and  C3_8 
REMARK    5  A    between atoms: C5_15  and  C6_16 
REMARK    6  A    between atoms: C8_23  and  C9_24 
REMARK    7  A    between atoms: C9_24  and  O3_25 
REMARK    8  A    between atoms: C9_24  and  O4_27 
REMARK    9  A    between atoms: C11_33  and  C12_34 
REMARK   10  A    between atoms: C12_34  and  N9_35 
REMARK   11  A    between atoms: C12_34  and  C13_40 
REMARK   12  A    between atoms: N9_35  and  N10_37 
ROOT
HETATM    1  C3  UNL     1      34.953  26.429 -22.481  1.00  0.00     0.177 A 
HETATM    2  N3  UNL     1      35.299  27.365 -23.422  1.00  0.00    -0.319 N 
ATOM      3  H3  UNL     1      34.955  27.260 -24.377  1.00  0.00     0.169 HD
HETATM    4  C4  UNL     1      36.077  28.414 -23.119  1.00  0.00     0.132 A 
HETATM    5  N4  UNL     1      36.379  29.273 -24.039  1.00  0.00    -0.383 N 
ATOM      6  H41 UNL     1      36.971  30.071 -23.809  1.00  0.00     0.157 HD
ATOM      7  H42 UNL     1      36.019  29.139 -24.983  1.00  0.00     0.157 HD
HETATM    8  C5  UNL     1      36.567  28.596 -21.835  1.00  0.00     0.123 A 
HETATM    9  N8  UNL     1      36.216  27.668 -20.925  1.00  0.00    -0.348 N 
ATOM     10  H8  UNL     1      36.555  27.766 -19.968  1.00  0.00     0.166 HD
HETATM   11  C11 UNL     1      35.430  26.609 -21.234  1.00  0.00     0.094 A 
ENDROOT
BRANCH   8  12
HETATM   12  C6  UNL     1      37.411  29.736 -21.500  1.00  0.00     0.160 A 
HETATM   13  N5  UNL     1      38.739  29.813 -21.645  1.00  0.00    -0.280 N 
HETATM   14  N6  UNL     1      39.188  30.976 -21.251  1.00  0.00    -0.263 N 
ATOM     15  H5  UNL     1      39.324  29.063 -22.014  1.00  0.00     0.188 HD
HETATM   16  C7  UNL     1      38.121  31.680 -20.835  1.00  0.00     0.252 A 
ATOM     17  H6  UNL     1      40.158  31.288 -21.258  1.00  0.00     0.190 HD
HETATM   18  O2  UNL     1      37.802  32.841 -20.341  1.00  0.00    -0.276 OA
HETATM   19  N7  UNL     1      37.009  30.902 -20.992  1.00  0.00    -0.267 N 
HETATM   20  C8  UNL     1      36.499  32.895 -20.147  1.00  0.00     0.127 A 
HETATM   21  C10 UNL     1      35.990  31.683 -20.553  1.00  0.00     0.140 A 
BRANCH  20  22
HETATM   22  C9  UNL     1      35.774  34.059 -19.597  1.00  0.00     0.314 C 
BRANCH  22  23
HETATM   23  O3  UNL     1      35.106  33.667 -18.446  1.00  0.00    -0.365 OA
ATOM     24  H3  UNL     1      34.193  33.923 -18.520  1.00  0.00     0.213 HD
ENDBRANCH  22  23
BRANCH  22  25
HETATM   25  O4  UNL     1      36.655  35.130 -19.324  1.00  0.00    -0.365 OA
ATOM     26  H4  UNL     1      36.535  35.842 -19.942  1.00  0.00     0.213 HD
ENDBRANCH  22  25
ENDBRANCH  20  22
ENDBRANCH   8  12
BRANCH  11  27
HETATM   27  C12 UNL     1      35.106  25.633 -20.156  1.00  0.00     0.222 C 
BRANCH  27  28
HETATM   28  N9  UNL     1      35.424  24.312 -20.566  1.00  0.00    -0.325 N 
ATOM     29  H9  UNL     1      34.706  23.683 -20.925  1.00  0.00     0.181 HD
BRANCH  28  30
HETATM   30  N10 UNL     1      36.731  23.913 -20.462  1.00  0.00    -0.348 N 
ATOM     31 2H10 UNL     1      37.478  24.606 -20.410  1.00  0.00     0.176 HD
ATOM     32 1H10 UNL     1      36.918  22.911 -20.440  1.00  0.00     0.176 HD
ENDBRANCH  28  30
ENDBRANCH  27  28
BRANCH  27  33
HETATM   33  C13 UNL     1      33.754  25.861 -19.651  1.00  0.00     0.137 A 
HETATM   34  N11 UNL     1      32.701  25.047 -19.935  1.00  0.00    -0.241 N 
HETATM   35  O5  UNL     1      31.664  25.517 -19.353  1.00  0.00    -0.179 OA
ATOM     36  H11 UNL     1      32.733  24.207 -20.512  1.00  0.00     0.196 HD
HETATM   37  C14 UNL     1      31.994  26.619 -18.691  1.00  0.00     0.388 A 
HETATM   38  O6  UNL     1      31.140  27.261 -18.039  1.00  0.00    -0.236 OA
HETATM   39  N12 UNL     1      33.308  26.853 -18.866  1.00  0.00    -0.287 N 
ATOM     40  H12 UNL     1      33.853  27.624 -18.480  1.00  0.00     0.172 HD
ENDBRANCH  27  33
ENDBRANCH  11  27
BRANCH   1  41
HETATM   41  O1  UNL     1      34.153  25.355 -22.817  1.00  0.00    -0.265 OA
BRANCH  41  42
HETATM   42  C2  UNL     1      33.727  25.310 -24.174  1.00  0.00     0.218 C 
HETATM   43  C1  UNL     1      34.316  24.187 -25.035  1.00  0.00     0.117 C 
BRANCH  42  44
HETATM   44  N1  UNL     1      32.968  26.101 -24.585  1.00  0.00    -0.312 NA
BRANCH  44  45
HETATM   45  N2  UNL     1      32.213  27.016 -25.055  1.00  0.00    -0.278 N 
ATOM     46  H22 UNL     1      33.134  27.455 -25.045  1.00  0.00     0.191 HD
ATOM     47  H21 UNL     1      31.553  27.701 -25.425  1.00  0.00     0.191 HD
ENDBRANCH  44  45
ENDBRANCH  42  44
ENDBRANCH  41  42
ENDBRANCH   1  41
TORSDOF 12
ENDMDL
MODEL 2
REMARK VINA RESULT: -6.573623697      2.333      6.698
REMARK  12 active torsions:
REMARK  status: ('A' for Active; 'I' for Inactive)
REMARK    1  A    between atoms: C2_2  and  N1_3 
REMARK    2  A    between atoms: C2_2  and  O1_7 
REMARK    3  A    between atoms: N1_3  and  N2_4 
REMARK    4  A    between atoms: O1_7  and  C3_8 
REMARK    5  A    between atoms: C5_15  and  C6_16 
REMARK    6  A    between atoms: C8_23  and  C9_24 
REMARK    7  A    between atoms: C9_24  and  O3_25 
REMARK    8  A    between atoms: C9_24  and  O4_27 
REMARK    9  A    between atoms: C11_33  and  C12_34 
REMARK   10  A    between atoms: C12_34  and  N9_35 
REMARK   11  A    between atoms: C12_34  and  C13_40 
REMARK   12  A    between atoms: N9_35  and  N10_37 
ROOT
HETATM    1  C3  UNL     1      35.206  26.538 -21.987  1.00  0.00     0.177 A 
HETATM    2  N3  UNL     1      34.263  25.541 -21.989  1.00  0.00    -0.319 N 
ATOM      3  H3  UNL     1      33.873  25.228 -22.878  1.00  0.00     0.169 HD
HETATM    4  C4  UNL     1      33.841  24.969 -20.852  1.00  0.00     0.132 A 
HETATM    5  N4  UNL     1      32.949  24.032 -20.900  1.00  0.00    -0.383 N 
ATOM      6  H41 UNL     1      32.628  23.597 -20.036  1.00  0.00     0.157 HD
ATOM      7  H42 UNL     1      32.580  23.743 -21.805  1.00  0.00     0.157 HD
HETATM    8  C5  UNL     1      34.344  25.363 -19.621  1.00  0.00     0.123 A 
HETATM    9  N8  UNL     1      35.268  26.341 -19.640  1.00  0.00    -0.348 N 
ATOM     10  H8  UNL     1      35.664  26.660 -18.755  1.00  0.00     0.166 HD
HETATM   11  C11 UNL     1      35.692  26.918 -20.790  1.00  0.00     0.094 A 
ENDROOT
BRANCH   8  12
HETATM   12  C6  UNL     1      33.891  24.743 -18.384  1.00  0.00     0.160 A 
HETATM   13  N5  UNL     1      34.539  23.810 -17.676  1.00  0.00    -0.280 N 
HETATM   14  N6  UNL     1      33.858  23.467 -16.614  1.00  0.00    -0.263 N 
ATOM     15  H5  UNL     1      35.446  23.418 -17.931  1.00  0.00     0.188 HD
HETATM   16  C7  UNL     1      32.730  24.197 -16.628  1.00  0.00     0.252 A 
ATOM     17  H6  UNL     1      34.130  22.780 -15.912  1.00  0.00     0.190 HD
HETATM   18  O2  UNL     1      31.639  24.392 -15.945  1.00  0.00    -0.276 OA
HETATM   19  N7  UNL     1      32.752  24.995 -17.737  1.00  0.00    -0.267 N 
HETATM   20  C8  UNL     1      30.899  25.303 -16.545  1.00  0.00     0.127 A 
HETATM   21  C10 UNL     1      31.588  25.690 -17.672  1.00  0.00     0.140 A 
BRANCH  20  22
HETATM   22  C9  UNL     1      29.589  25.782 -16.059  1.00  0.00     0.314 C 
BRANCH  22  23
HETATM   23  O3  UNL     1      28.936  26.430 -17.098  1.00  0.00    -0.365 OA
ATOM     24  H3  UNL     1      28.929  25.859 -17.858  1.00  0.00     0.213 HD
ENDBRANCH  22  23
BRANCH  22  25
HETATM   25  O4  UNL     1      28.804  24.716 -15.562  1.00  0.00    -0.365 OA
ATOM     26  H4  UNL     1      27.917  24.755 -15.900  1.00  0.00     0.213 HD
ENDBRANCH  22  25
ENDBRANCH  20  22
ENDBRANCH   8  12
BRANCH  11  27
HETATM   27  C12 UNL     1      36.714  27.999 -20.702  1.00  0.00     0.222 C 
BRANCH  27  28
HETATM   28  N9  UNL     1      37.674  27.698 -19.702  1.00  0.00    -0.325 N 
ATOM     29  H9  UNL     1      37.424  27.697 -18.713  1.00  0.00     0.181 HD
BRANCH  28  30
HETATM   30  N10 UNL     1      38.949  27.409 -20.111  1.00  0.00    -0.348 N 
ATOM     31 2H10 UNL     1      39.105  26.849 -20.950  1.00  0.00     0.176 HD
ATOM     32 1H10 UNL     1      39.720  27.772 -19.551  1.00  0.00     0.176 HD
ENDBRANCH  28  30
ENDBRANCH  27  28
BRANCH  27  33
HETATM   33  C13 UNL     1      36.069  29.307 -20.627  1.00  0.00     0.137 A 
HETATM   34  N11 UNL     1      34.944  29.628 -21.322  1.00  0.00    -0.241 N 
HETATM   35  O5  UNL     1      34.635  30.838 -21.048  1.00  0.00    -0.179 OA
ATOM     36  H11 UNL     1      34.434  29.010 -21.953  1.00  0.00     0.196 HD
HETATM   37  C14 UNL     1      35.521  31.333 -20.193  1.00  0.00     0.388 A 
HETATM   38  O6  UNL     1      35.428  32.509 -19.774  1.00  0.00    -0.236 OA
HETATM   39  N12 UNL     1      36.433  30.383 -19.914  1.00  0.00    -0.287 N 
ATOM     40  H12 UNL     1      37.235  30.463 -19.289  1.00  0.00     0.172 HD
ENDBRANCH  27  33
ENDBRANCH  11  27
BRANCH   1  41
HETATM   41  O1  UNL     1      35.622  27.114 -23.170  1.00  0.00    -0.265 OA
BRANCH  41  42
HETATM   42  C2  UNL     1      34.994  26.619 -24.347  1.00  0.00     0.218 C 
HETATM   43  C1  UNL     1      35.829  25.676 -25.220  1.00  0.00     0.117 C 
BRANCH  42  44
HETATM   44  N1  UNL     1      33.897  26.932 -24.611  1.00  0.00    -0.312 NA
BRANCH  44  45
HETATM   45  N2  UNL     1      32.735  27.351 -24.932  1.00  0.00    -0.278 N 
ATOM     46  H22 UNL     1      33.336  27.754 -25.651  1.00  0.00     0.191 HD
ATOM     47  H21 UNL     1      31.780  27.650 -25.131  1.00  0.00     0.191 HD
ENDBRANCH  44  45
ENDBRANCH  42  44
ENDBRANCH  41  42
ENDBRANCH   1  41
TORSDOF 12
ENDMDL
MODEL 3
REMARK VINA RESULT: -6.550844788      1.625      1.930
REMARK  12 active torsions:
REMARK  status: ('A' for Active; 'I' for Inactive)
REMARK    1  A    between atoms: C2_2  and  N1_3 
REMARK    2  A    between atoms: C2_2  and  O1_7 
REMARK    3  A    between atoms: N1_3  and  N2_4 
REMARK    4  A    between atoms: O1_7  and  C3_8 
REMARK    5  A    between atoms: C5_15  and  C6_16 
REMARK    6  A    between atoms: C8_23  and  C9_24 
REMARK    7  A    between atoms: C9_24  and  O3_25 
REMARK    8  A    between atoms: C9_24  and  O4_27 
REMARK    9  A    between atoms: C11_33  and  C12_34 
REMARK   10  A    between atoms: C12_34  and  N9_35 
REMARK   11  A    between atoms: C12_34  and  C13_40 
REMARK   12  A    between atoms: N9_35  and  N10_37 
ROOT
HETATM    1  C3  UNL     1      34.115  25.506 -20.874  1.00  0.00     0.177 A 
HETATM    2  N3  UNL     1      34.692  26.052 -21.992  1.00  0.00    -0.319 N 
ATOM      3  H3  UNL     1      34.416  25.708 -22.912  1.00  0.00     0.169 HD
HETATM    4  C4  UNL     1      35.609  27.028 -21.907  1.00  0.00     0.132 A 
HETATM    5  N4  UNL     1      36.127  27.514 -22.988  1.00  0.00    -0.383 N 
ATOM      6  H41 UNL     1      36.825  28.255 -22.924  1.00  0.00     0.157 HD
ATOM      7  H42 UNL     1      35.830  27.147 -23.892  1.00  0.00     0.157 HD
HETATM    8  C5  UNL     1      36.013  27.526 -20.678  1.00  0.00     0.123 A 
HETATM    9  N8  UNL     1      35.435  26.978 -19.593  1.00  0.00    -0.348 N 
ATOM     10  H8  UNL     1      35.705  27.317 -18.669  1.00  0.00     0.166 HD
HETATM   11  C11 UNL     1      34.510  25.993 -19.682  1.00  0.00     0.094 A 
ENDROOT
BRANCH   8  12
HETATM   12  C6  UNL     1      37.006  28.587 -20.580  1.00  0.00     0.160 A 
HETATM   13  N5  UNL     1      38.336  28.441 -20.636  1.00  0.00    -0.280 N 
HETATM   14  N6  UNL     1      38.941  29.594 -20.518  1.00  0.00    -0.263 N 
ATOM     15  H5  UNL     1      38.814  27.548 -20.755  1.00  0.00     0.188 HD
HETATM   16  C7  UNL     1      37.978  30.522 -20.380  1.00  0.00     0.252 A 
ATOM     17  H6  UNL     1      39.947  29.758 -20.528  1.00  0.00     0.190 HD
HETATM   18  O2  UNL     1      37.821  31.804 -20.224  1.00  0.00    -0.276 OA
HETATM   19  N7  UNL     1      36.768  29.889 -20.419  1.00  0.00    -0.267 N 
HETATM   20  C8  UNL     1      36.534  32.085 -20.152  1.00  0.00     0.127 A 
HETATM   21  C10 UNL     1      35.863  30.890 -20.274  1.00  0.00     0.140 A 
BRANCH  20  22
HETATM   22  C9  UNL     1      35.974  33.441 -19.975  1.00  0.00     0.314 C 
BRANCH  22  23
HETATM   23  O3  UNL     1      35.297  33.491 -18.765  1.00  0.00    -0.365 OA
ATOM     24  H3  UNL     1      34.364  33.423 -18.933  1.00  0.00     0.213 HD
ENDBRANCH  22  23
BRANCH  22  25
HETATM   25  O4  UNL     1      36.987  34.425 -20.023  1.00  0.00    -0.365 OA
ATOM     26  H4  UNL     1      36.733  35.205 -19.544  1.00  0.00     0.213 HD
ENDBRANCH  22  25
ENDBRANCH  20  22
ENDBRANCH   8  12
BRANCH  11  27
HETATM   27  C12 UNL     1      33.936  25.448 -18.419  1.00  0.00     0.222 C 
BRANCH  27  28
HETATM   28  N9  UNL     1      34.075  24.037 -18.376  1.00  0.00    -0.325 N 
ATOM     29  H9  UNL     1      33.290  23.422 -18.588  1.00  0.00     0.181 HD
BRANCH  28  30
HETATM   30  N10 UNL     1      35.303  23.530 -18.039  1.00  0.00    -0.348 N 
ATOM     31 2H10 UNL     1      36.147  23.883 -18.492  1.00  0.00     0.176 HD
ATOM     32 1H10 UNL     1      35.335  22.799 -17.329  1.00  0.00     0.176 HD
ENDBRANCH  28  30
ENDBRANCH  27  28
BRANCH  27  33
HETATM   33  C13 UNL     1      32.597  25.987 -18.193  1.00  0.00     0.137 A 
HETATM   34  N11 UNL     1      32.180  27.188 -18.681  1.00  0.00    -0.241 N 
HETATM   35  O5  UNL     1      30.972  27.374 -18.306  1.00  0.00    -0.179 OA
ATOM     36  H11 UNL     1      32.736  27.828 -19.247  1.00  0.00     0.196 HD
HETATM   37  C14 UNL     1      30.572  26.336 -17.584  1.00  0.00     0.388 A 
HETATM   38  O6  UNL     1      29.416  26.289 -17.104  1.00  0.00    -0.236 OA
HETATM   39  N12 UNL     1      31.582  25.450 -17.500  1.00  0.00    -0.287 N 
ATOM     40  H12 UNL     1      31.577  24.554 -17.013  1.00  0.00     0.172 HD
ENDBRANCH  27  33
ENDBRANCH  11  27
BRANCH   1  41
HETATM   41  O1  UNL     1      33.175  24.501 -20.986  1.00  0.00    -0.265 OA
BRANCH  41  42
HETATM   42  C2  UNL     1      33.018  23.954 -22.291  1.00  0.00     0.218 C 
HETATM   43  C1  UNL     1      33.627  22.567 -22.525  1.00  0.00     0.117 C 
BRANCH  42  44
HETATM   44  N1  UNL     1      32.450  24.552 -23.121  1.00  0.00    -0.312 NA
BRANCH  44  45
HETATM   45  N2  UNL     1      31.892  25.172 -24.087  1.00  0.00    -0.278 N 
ATOM     46  H22 UNL     1      32.723  24.767 -24.518  1.00  0.00     0.191 HD
ATOM     47  H21 UNL     1      31.393  25.687 -24.812  1.00  0.00     0.191 HD
ENDBRANCH  44  45
ENDBRANCH  42  44
ENDBRANCH  41  42
ENDBRANCH   1  41
TORSDOF 12
ENDMDL
MODEL 4
REMARK VINA RESULT: -6.366176537      1.655      1.772
REMARK  12 active torsions:
REMARK  status: ('A' for Active; 'I' for Inactive)
REMARK    1  A    between atoms: C2_2  and  N1_3 
REMARK    2  A    between atoms: C2_2  and  O1_7 
REMARK    3  A    between atoms: N1_3  and  N2_4 
REMARK    4  A    between atoms: O1_7  and  C3_8 
REMARK    5  A    between atoms: C5_15  and  C6_16 
REMARK    6  A    between atoms: C8_23  and  C9_24 
REMARK    7  A    between atoms: C9_24  and  O3_25 
REMARK    8  A    between atoms: C9_24  and  O4_27 
REMARK    9  A    between atoms: C11_33  and  C12_34 
REMARK   10  A    between atoms: C12_34  and  N9_35 
REMARK   11  A    between atoms: C12_34  and  C13_40 
REMARK   12  A    between atoms: N9_35  and  N10_37 
ROOT
HETATM    1  C3  UNL     1      34.535  26.308 -20.889  1.00  0.00     0.177 A 
HETATM    2  N3  UNL     1      34.798  26.710 -22.174  1.00  0.00    -0.319 N 
ATOM      3  H3  UNL     1      34.468  26.138 -22.952  1.00  0.00     0.169 HD
HETATM    4  C4  UNL     1      35.478  27.837 -22.434  1.00  0.00     0.132 A 
HETATM    5  N4  UNL     1      35.703  28.179 -23.662  1.00  0.00    -0.383 N 
ATOM      6  H41 UNL     1      36.220  29.035 -23.860  1.00  0.00     0.157 HD
ATOM      7  H42 UNL     1      35.359  27.584 -24.415  1.00  0.00     0.157 HD
HETATM    8  C5  UNL     1      35.945  28.645 -21.409  1.00  0.00     0.123 A 
HETATM    9  N8  UNL     1      35.677  28.234 -20.156  1.00  0.00    -0.348 N 
ATOM     10  H8  UNL     1      36.003  28.802 -19.373  1.00  0.00     0.166 HD
HETATM   11  C11 UNL     1      34.991  27.096 -19.896  1.00  0.00     0.094 A 
ENDROOT
BRANCH   8  12
HETATM   12  C6  UNL     1      36.681  29.871 -21.687  1.00  0.00     0.160 A 
HETATM   13  N5  UNL     1      37.710  30.009 -22.532  1.00  0.00    -0.280 N 
HETATM   14  N6  UNL     1      38.143  31.243 -22.549  1.00  0.00    -0.263 N 
ATOM     15  H5  UNL     1      38.105  29.251 -23.089  1.00  0.00     0.188 HD
HETATM   16  C7  UNL     1      37.374  31.932 -21.689  1.00  0.00     0.252 A 
ATOM     17  H6  UNL     1      38.913  31.610 -23.106  1.00  0.00     0.190 HD
HETATM   18  O2  UNL     1      37.216  33.131 -21.207  1.00  0.00    -0.276 OA
HETATM   19  N7  UNL     1      36.459  31.072 -21.150  1.00  0.00    -0.267 N 
HETATM   20  C8  UNL     1      36.217  33.132 -20.346  1.00  0.00     0.127 A 
HETATM   21  C10 UNL     1      35.733  31.845 -20.303  1.00  0.00     0.140 A 
BRANCH  20  22
HETATM   22  C9  UNL     1      35.745  34.317 -19.600  1.00  0.00     0.314 C 
BRANCH  22  23
HETATM   23  O3  UNL     1      35.112  33.891 -18.441  1.00  0.00    -0.365 OA
ATOM     24  H3  UNL     1      34.633  33.092 -18.629  1.00  0.00     0.213 HD
ENDBRANCH  22  23
BRANCH  22  25
HETATM   25  O4  UNL     1      36.815  35.189 -19.294  1.00  0.00    -0.365 OA
ATOM     26  H4  UNL     1      36.651  35.667 -18.489  1.00  0.00     0.213 HD
ENDBRANCH  22  25
ENDBRANCH  20  22
ENDBRANCH   8  12
BRANCH  11  27
HETATM   27  C12 UNL     1      34.752  26.725 -18.473  1.00  0.00     0.222 C 
BRANCH  27  28
HETATM   28  N9  UNL     1      35.683  25.741 -18.051  1.00  0.00    -0.325 N 
ATOM     29  H9  UNL     1      35.507  24.748 -18.202  1.00  0.00     0.181 HD
BRANCH  28  30
HETATM   30  N10 UNL     1      36.828  26.172 -17.434  1.00  0.00    -0.348 N 
ATOM     31 2H10 UNL     1      37.249  25.621 -16.686  1.00  0.00     0.176 HD
ATOM     32 1H10 UNL     1      37.233  27.053 -17.751  1.00  0.00     0.176 HD
ENDBRANCH  28  30
ENDBRANCH  27  28
BRANCH  27  33
HETATM   33  C13 UNL     1      33.338  26.436 -18.250  1.00  0.00     0.137 A 
HETATM   34  N11 UNL     1      32.892  25.312 -17.625  1.00  0.00    -0.241 N 
HETATM   35  O5  UNL     1      31.615  25.352 -17.593  1.00  0.00    -0.179 OA
ATOM     36  H11 UNL     1      33.476  24.566 -17.248  1.00  0.00     0.196 HD
HETATM   37  C14 UNL     1      31.196  26.467 -18.178  1.00  0.00     0.388 A 
HETATM   38  O6  UNL     1      29.976  26.731 -18.268  1.00  0.00    -0.236 OA
HETATM   39  N12 UNL     1      32.268  27.165 -18.599  1.00  0.00    -0.287 N 
ATOM     40  H12 UNL     1      32.267  28.063 -19.082  1.00  0.00     0.172 HD
ENDBRANCH  27  33
ENDBRANCH  11  27
BRANCH   1  41
HETATM   41  O1  UNL     1      33.837  25.143 -20.646  1.00  0.00    -0.265 OA
BRANCH  41  42
HETATM   42  C2  UNL     1      33.687  24.274 -21.763  1.00  0.00     0.218 C 
HETATM   43  C1  UNL     1      34.618  23.058 -21.809  1.00  0.00     0.117 C 
BRANCH  42  44
HETATM   44  N1  UNL     1      32.888  24.500 -22.589  1.00  0.00    -0.312 NA
BRANCH  44  45
HETATM   45  N2  UNL     1      32.013  24.656 -23.504  1.00  0.00    -0.278 N 
ATOM     46  H22 UNL     1      31.601  23.940 -22.906  1.00  0.00     0.191 HD
ATOM     47  H21 UNL     1      31.357  24.831 -24.265  1.00  0.00     0.191 HD
ENDBRANCH  44  45
ENDBRANCH  42  44
ENDBRANCH  41  42
ENDBRANCH   1  41
TORSDOF 12
ENDMDL
MODEL 5
REMARK VINA RESULT: -6.183671081      3.052      5.084
REMARK  12 active torsions:
REMARK  status: ('A' for Active; 'I' for Inactive)
REMARK    1  A    between atoms: C2_2  and  N1_3 
REMARK    2  A    between atoms: C2_2  and  O1_7 
REMARK    3  A    between atoms: N1_3  and  N2_4 
REMARK    4  A    between atoms: O1_7  and  C3_8 
REMARK    5  A    between atoms: C5_15  and  C6_16 
REMARK    6  A    between atoms: C8_23  and  C9_24 
REMARK    7  A    between atoms: C9_24  and  O3_25 
REMARK    8  A    between atoms: C9_24  and  O4_27 
REMARK    9  A    between atoms: C11_33  and  C12_34 
REMARK   10  A    between atoms: C12_34  and  N9_35 
REMARK   11  A    between atoms: C12_34  and  C13_40 
REMARK   12  A    between atoms: N9_35  and  N10_37 
ROOT
HETATM    1  C3  UNL     1      36.160  24.867 -17.612  1.00  0.00     0.177 A 
HETATM    2  N3  UNL     1      37.115  25.695 -18.144  1.00  0.00    -0.319 N 
ATOM      3  H3  UNL     1      38.079  25.615 -17.821  1.00  0.00     0.169 HD
HETATM    4  C4  UNL     1      36.813  26.607 -19.081  1.00  0.00     0.132 A 
HETATM    5  N4  UNL     1      37.746  27.368 -19.555  1.00  0.00    -0.383 N 
ATOM      6  H41 UNL     1      37.517  28.062 -20.267  1.00  0.00     0.157 HD
ATOM      7  H42 UNL     1      38.699  27.263 -19.210  1.00  0.00     0.157 HD
HETATM    8  C5  UNL     1      35.517  26.751 -19.550  1.00  0.00     0.123 A 
HETATM    9  N8  UNL     1      34.594  25.929 -19.016  1.00  0.00    -0.348 N 
ATOM     10  H8  UNL     1      33.628  26.002 -19.335  1.00  0.00     0.166 HD
HETATM   11  C11 UNL     1      34.902  25.009 -18.071  1.00  0.00     0.094 A 
ENDROOT
BRANCH   8  12
HETATM   12  C6  UNL     1      35.185  27.738 -20.568  1.00  0.00     0.160 A 
HETATM   13  N5  UNL     1      34.657  27.493 -21.774  1.00  0.00    -0.280 N 
HETATM   14  N6  UNL     1      34.480  28.602 -22.444  1.00  0.00    -0.263 N 
ATOM     15  H5  UNL     1      34.424  26.563 -22.124  1.00  0.00     0.188 HD
HETATM   16  C7  UNL     1      34.904  29.602 -21.653  1.00  0.00     0.252 A 
ATOM     17  H6  UNL     1      34.094  28.690 -23.384  1.00  0.00     0.190 HD
HETATM   18  O2  UNL     1      35.033  30.897 -21.636  1.00  0.00    -0.276 OA
HETATM   19  N7  UNL     1      35.345  29.059 -20.479  1.00  0.00    -0.267 N 
HETATM   20  C8  UNL     1      35.551  31.274 -20.484  1.00  0.00     0.127 A 
HETATM   21  C10 UNL     1      35.751  30.128 -19.749  1.00  0.00     0.140 A 
BRANCH  20  22
HETATM   22  C9  UNL     1      35.840  32.672 -20.105  1.00  0.00     0.314 C 
BRANCH  22  23
HETATM   23  O3  UNL     1      35.312  32.912 -18.844  1.00  0.00    -0.365 OA
ATOM     24  H3  UNL     1      36.028  33.029 -18.230  1.00  0.00     0.213 HD
ENDBRANCH  22  23
BRANCH  22  25
HETATM   25  O4  UNL     1      37.230  32.931 -20.122  1.00  0.00    -0.365 OA
ATOM     26  H4  UNL     1      37.432  33.696 -20.649  1.00  0.00     0.213 HD
ENDBRANCH  22  25
ENDBRANCH  20  22
ENDBRANCH   8  12
BRANCH  11  27
HETATM   27  C12 UNL     1      33.805  24.152 -17.538  1.00  0.00     0.222 C 
BRANCH  27  28
HETATM   28  N9  UNL     1      33.775  22.904 -18.211  1.00  0.00    -0.325 N 
ATOM     29  H9  UNL     1      33.378  22.818 -19.147  1.00  0.00     0.181 HD
BRANCH  28  30
HETATM   30  N10 UNL     1      34.299  21.818 -17.561  1.00  0.00    -0.348 N 
ATOM     31 2H10 UNL     1      35.184  21.413 -17.866  1.00  0.00     0.176 HD
ATOM     32 1H10 UNL     1      33.774  21.440 -16.772  1.00  0.00     0.176 HD
ENDBRANCH  28  30
ENDBRANCH  27  28
BRANCH  27  33
HETATM   33  C13 UNL     1      32.553  24.902 -17.479  1.00  0.00     0.137 A 
HETATM   34  N11 UNL     1      31.739  24.916 -16.388  1.00  0.00    -0.241 N 
HETATM   35  O5  UNL     1      30.729  25.654 -16.653  1.00  0.00    -0.179 OA
ATOM     36  H11 UNL     1      31.905  24.423 -15.512  1.00  0.00     0.196 HD
HETATM   37  C14 UNL     1      30.845  26.132 -17.885  1.00  0.00     0.388 A 
HETATM   38  O6  UNL     1      29.972  26.885 -18.372  1.00  0.00    -0.236 OA
HETATM   39  N12 UNL     1      31.990  25.670 -18.423  1.00  0.00    -0.287 N 
ATOM     40  H12 UNL     1      32.354  25.863 -19.356  1.00  0.00     0.172 HD
ENDBRANCH  27  33
ENDBRANCH  11  27
BRANCH   1  41
HETATM   41  O1  UNL     1      36.494  23.938 -16.647  1.00  0.00    -0.265 OA
BRANCH  41  42
HETATM   42  C2  UNL     1      36.552  24.433 -15.314  1.00  0.00     0.218 C 
HETATM   43  C1  UNL     1      35.689  23.705 -14.278  1.00  0.00     0.117 C 
BRANCH  42  44
HETATM   44  N1  UNL     1      37.232  25.350 -15.051  1.00  0.00    -0.312 NA
BRANCH  44  45
HETATM   45  N2  UNL     1      38.044  26.292 -14.767  1.00  0.00    -0.278 N 
ATOM     46  H22 UNL     1      38.630  25.458 -14.727  1.00  0.00     0.191 HD
ATOM     47  H21 UNL     1      38.638  27.092 -14.548  1.00  0.00     0.191 HD
ENDBRANCH  44  45
ENDBRANCH  42  44
ENDBRANCH  41  42
ENDBRANCH   1  41
TORSDOF 12
ENDMDL
