MODEL 1
REMARK VINA RESULT: -8.381556532      0.000      0.000
REMARK  6 active torsions:
REMARK  status: ('A' for Active; 'I' for Inactive)
REMARK    1  A    between atoms: O1_2  and  C2_3 
REMARK    2  A    between atoms: C6_7  and  C7_8 
REMARK    3  A    between atoms: N1_9  and  N2_11 
REMARK       I    between atoms: C8_13  and  N3_14 
REMARK       I    between atoms: C8_13  and  N8_23 
REMARK    4  A    between atoms: N3_14  and  N4_16 
REMARK    5  A    between atoms: N4_16  and  N5_18 
REMARK       I    between atoms: N8_23  and  C10_25 
REMARK    6  A    between atoms: C11_28  and  O4_29 
ROOT
HETATM    1  N2  UNL     1      63.183  59.829  30.527  1.00  0.00    -0.131 N 
ATOM      2  H2  UNL     1      62.677  58.958  30.688  1.00  0.00     0.205 HD
HETATM    3  C8  UNL     1      63.908  60.311  31.465  1.00  0.00     0.717 C 
HETATM    4  N3  UNL     1      64.608  61.520  31.235  1.00  0.00    -0.116 N 
ATOM      5  H3  UNL     1      65.621  61.514  31.122  1.00  0.00     0.207 HD
HETATM    6  N8  UNL     1      63.986  59.620  32.696  1.00  0.00    -0.131 N 
ATOM      7  H8  UNL     1      63.463  58.752  32.813  1.00  0.00     0.190 HD
HETATM    8  C10 UNL     1      64.769  60.102  33.768  1.00  0.00     0.302 C 
HETATM    9  O2  UNL     1      65.417  61.165  33.644  1.00  0.00    -0.629 OA
HETATM   10  O3  UNL     1      64.824  59.405  34.954  1.00  0.00    -0.629 OA
ENDROOT
BRANCH   1  11
HETATM   11  N1  UNL     1      63.071  60.443  29.332  1.00  0.00    -0.297 N 
HETATM   12  C7  UNL     1      62.646  60.128  28.214  1.00  0.00     0.122 C 
ATOM     13  H1  UNL     1      63.422  61.401  29.356  1.00  0.00     0.186 HD
BRANCH  12  14
HETATM   14  C6  UNL     1      62.068  58.879  27.757  1.00  0.00     0.017 A 
HETATM   15  C5  UNL     1      60.707  58.673  27.661  1.00  0.00     0.016 A 
HETATM   16  C4  UNL     1      60.131  57.483  27.226  1.00  0.00     0.004 A 
HETATM   17  C3  UNL     1      60.986  56.473  26.877  1.00  0.00     0.040 A 
HETATM   18  C2  UNL     1      62.335  56.599  26.945  1.00  0.00     0.102 A 
HETATM   19  C11 UNL     1      62.887  57.812  27.389  1.00  0.00     0.110 A 
BRANCH  18  20
HETATM   20  O1  UNL     1      63.215  55.572  26.591  1.00  0.00    -0.353 OA
HETATM   21  C1  UNL     1      63.463  55.264  25.246  1.00  0.00     0.210 C 
ENDBRANCH  18  20
BRANCH  19  22
HETATM   22  O4  UNL     1      64.242  57.900  27.442  1.00  0.00    -0.357 OA
ATOM     23  H4  UNL     1      64.682  57.439  28.147  1.00  0.00     0.217 HD
ENDBRANCH  19  22
ENDBRANCH  12  14
ENDBRANCH   1  11
BRANCH   4  24
HETATM   24  N4  UNL     1      63.899  62.721  31.166  1.00  0.00    -0.226 N 
ATOM     25  H4  UNL     1      63.234  62.875  30.408  1.00  0.00     0.209 HD
BRANCH  24  26
HETATM   26  N5  UNL     1      64.095  63.707  32.123  1.00  0.00    -0.261 N 
HETATM   27  C9  UNL     1      64.163  64.957  31.850  1.00  0.00     0.216 C 
HETATM   28  N6  UNL     1      64.040  65.427  30.522  1.00  0.00    -0.065 NA
HETATM   29  N7  UNL     1      64.367  65.894  32.889  1.00  0.00    -0.065 NA
ATOM     30  H5  UNL     1      64.190  63.420  33.098  1.00  0.00     0.190 HD
ENDBRANCH  24  26
ENDBRANCH   4  24
TORSDOF 6
ENDMDL
MODEL 2
REMARK VINA RESULT: -8.380860119      1.249      1.859
REMARK  6 active torsions:
REMARK  status: ('A' for Active; 'I' for Inactive)
REMARK    1  A    between atoms: O1_2  and  C2_3 
REMARK    2  A    between atoms: C6_7  and  C7_8 
REMARK    3  A    between atoms: N1_9  and  N2_11 
REMARK       I    between atoms: C8_13  and  N3_14 
REMARK       I    between atoms: C8_13  and  N8_23 
REMARK    4  A    between atoms: N3_14  and  N4_16 
REMARK    5  A    between atoms: N4_16  and  N5_18 
REMARK       I    between atoms: N8_23  and  C10_25 
REMARK    6  A    between atoms: C11_28  and  O4_29 
ROOT
HETATM    1  N2  UNL     1      63.188  59.792  30.554  1.00  0.00    -0.131 N 
ATOM      2  H2  UNL     1      62.689  58.922  30.739  1.00  0.00     0.205 HD
HETATM    3  C8  UNL     1      63.907  60.308  31.479  1.00  0.00     0.717 C 
HETATM    4  N3  UNL     1      64.597  61.515  31.215  1.00  0.00    -0.116 N 
ATOM      5  H3  UNL     1      65.610  61.515  31.103  1.00  0.00     0.207 HD
HETATM    6  N8  UNL     1      63.989  59.653  32.729  1.00  0.00    -0.131 N 
ATOM      7  H8  UNL     1      63.473  58.784  32.870  1.00  0.00     0.190 HD
HETATM    8  C10 UNL     1      64.766  60.173  33.788  1.00  0.00     0.302 C 
HETATM    9  O2  UNL     1      65.405  61.238  33.634  1.00  0.00    -0.629 OA
HETATM   10  O3  UNL     1      64.824  59.511  34.994  1.00  0.00    -0.629 OA
ENDROOT
BRANCH   1  11
HETATM   11  N1  UNL     1      63.073  60.370  29.341  1.00  0.00    -0.297 N 
HETATM   12  C7  UNL     1      62.897  59.969  28.185  1.00  0.00     0.122 C 
ATOM     13  H1  UNL     1      63.149  61.386  29.390  1.00  0.00     0.186 HD
BRANCH  12  14
HETATM   14  C6  UNL     1      62.739  58.616  27.685  1.00  0.00     0.017 A 
HETATM   15  C5  UNL     1      63.784  57.720  27.604  1.00  0.00     0.016 A 
HETATM   16  C4  UNL     1      63.656  56.418  27.127  1.00  0.00     0.004 A 
HETATM   17  C3  UNL     1      62.408  56.029  26.722  1.00  0.00     0.040 A 
HETATM   18  C2  UNL     1      61.332  56.853  26.770  1.00  0.00     0.102 A 
HETATM   19  C11 UNL     1      61.493  58.161  27.255  1.00  0.00     0.110 A 
BRANCH  18  20
HETATM   20  O1  UNL     1      60.054  56.463  26.357  1.00  0.00    -0.353 OA
HETATM   21  C1  UNL     1      59.176  55.815  27.238  1.00  0.00     0.210 C 
ENDBRANCH  18  20
BRANCH  19  22
HETATM   22  O4  UNL     1      60.391  58.956  27.289  1.00  0.00    -0.357 OA
ATOM     23  H4  UNL     1      60.431  59.736  27.828  1.00  0.00     0.217 HD
ENDBRANCH  19  22
ENDBRANCH  12  14
ENDBRANCH   1  11
BRANCH   4  24
HETATM   24  N4  UNL     1      63.877  62.708  31.110  1.00  0.00    -0.226 N 
ATOM     25  H4  UNL     1      63.239  62.848  30.327  1.00  0.00     0.209 HD
BRANCH  24  26
HETATM   26  N5  UNL     1      64.027  63.703  32.066  1.00  0.00    -0.261 N 
HETATM   27  C9  UNL     1      64.147  64.947  31.782  1.00  0.00     0.216 C 
HETATM   28  N6  UNL     1      64.135  65.399  30.442  1.00  0.00    -0.065 NA
HETATM   29  N7  UNL     1      64.297  65.895  32.821  1.00  0.00    -0.065 NA
ATOM     30  H5  UNL     1      64.042  63.429  33.049  1.00  0.00     0.190 HD
ENDBRANCH  24  26
ENDBRANCH   4  24
TORSDOF 6
ENDMDL
MODEL 3
REMARK VINA RESULT: -7.639188831      2.432      4.157
REMARK  6 active torsions:
REMARK  status: ('A' for Active; 'I' for Inactive)
REMARK    1  A    between atoms: O1_2  and  C2_3 
REMARK    2  A    between atoms: C6_7  and  C7_8 
REMARK    3  A    between atoms: N1_9  and  N2_11 
REMARK       I    between atoms: C8_13  and  N3_14 
REMARK       I    between atoms: C8_13  and  N8_23 
REMARK    4  A    between atoms: N3_14  and  N4_16 
REMARK    5  A    between atoms: N4_16  and  N5_18 
REMARK       I    between atoms: N8_23  and  C10_25 
REMARK    6  A    between atoms: C11_28  and  O4_29 
ROOT
HETATM    1  N2  UNL     1      63.797  60.844  30.385  1.00  0.00    -0.131 N 
ATOM      2  H2  UNL     1      63.654  60.956  29.381  1.00  0.00     0.205 HD
HETATM    3  C8  UNL     1      63.885  61.886  31.122  1.00  0.00     0.717 C 
HETATM    4  N3  UNL     1      64.083  61.724  32.514  1.00  0.00    -0.116 N 
ATOM      5  H3  UNL     1      63.327  61.926  33.168  1.00  0.00     0.207 HD
HETATM    6  N8  UNL     1      63.781  63.162  30.521  1.00  0.00    -0.131 N 
ATOM      7  H8  UNL     1      63.637  63.227  29.513  1.00  0.00     0.190 HD
HETATM    8  C10 UNL     1      63.870  64.349  31.283  1.00  0.00     0.302 C 
HETATM    9  O2  UNL     1      64.045  64.290  32.520  1.00  0.00    -0.629 OA
HETATM   10  O3  UNL     1      63.763  65.576  30.667  1.00  0.00    -0.629 OA
ENDROOT
BRANCH   1  11
HETATM   11  N1  UNL     1      63.888  59.602  30.901  1.00  0.00    -0.297 N 
HETATM   12  C7  UNL     1      63.586  58.464  30.522  1.00  0.00     0.122 C 
ATOM     13  H1  UNL     1      64.309  59.601  31.830  1.00  0.00     0.186 HD
BRANCH  12  14
HETATM   14  C6  UNL     1      62.974  58.029  29.281  1.00  0.00     0.017 A 
HETATM   15  C5  UNL     1      63.700  57.785  28.133  1.00  0.00     0.016 A 
HETATM   16  C4  UNL     1      63.135  57.368  26.932  1.00  0.00     0.004 A 
HETATM   17  C3  UNL     1      61.777  57.196  26.914  1.00  0.00     0.040 A 
HETATM   18  C2  UNL     1      60.997  57.416  28.001  1.00  0.00     0.102 A 
HETATM   19  C11 UNL     1      61.596  57.838  29.199  1.00  0.00     0.110 A 
BRANCH  18  20
HETATM   20  O1  UNL     1      59.609  57.244  27.990  1.00  0.00    -0.353 OA
HETATM   21  C1  UNL     1      59.024  56.132  27.367  1.00  0.00     0.210 C 
ENDBRANCH  18  20
BRANCH  19  22
HETATM   22  O4  UNL     1      60.780  58.048  30.266  1.00  0.00    -0.357 OA
ATOM     23  H4  UNL     1      61.192  58.250  31.097  1.00  0.00     0.217 HD
ENDBRANCH  19  22
ENDBRANCH  12  14
ENDBRANCH   1  11
BRANCH   4  24
HETATM   24  N4  UNL     1      65.323  61.286  32.984  1.00  0.00    -0.226 N 
ATOM     25  H4  UNL     1      66.125  61.916  32.963  1.00  0.00     0.209 HD
BRANCH  24  26
HETATM   26  N5  UNL     1      65.469  59.998  33.482  1.00  0.00    -0.261 N 
HETATM   27  C9  UNL     1      64.506  59.323  33.991  1.00  0.00     0.216 C 
HETATM   28  N6  UNL     1      63.200  59.858  34.084  1.00  0.00    -0.065 NA
HETATM   29  N7  UNL     1      64.743  58.016  34.477  1.00  0.00    -0.065 NA
ATOM     30  H5  UNL     1      66.392  59.566  33.439  1.00  0.00     0.190 HD
ENDBRANCH  24  26
ENDBRANCH   4  24
TORSDOF 6
ENDMDL
MODEL 4
REMARK VINA RESULT: -7.592982235      3.276      7.480
REMARK  6 active torsions:
REMARK  status: ('A' for Active; 'I' for Inactive)
REMARK    1  A    between atoms: O1_2  and  C2_3 
REMARK    2  A    between atoms: C6_7  and  C7_8 
REMARK    3  A    between atoms: N1_9  and  N2_11 
REMARK       I    between atoms: C8_13  and  N3_14 
REMARK       I    between atoms: C8_13  and  N8_23 
REMARK    4  A    between atoms: N3_14  and  N4_16 
REMARK    5  A    between atoms: N4_16  and  N5_18 
REMARK       I    between atoms: N8_23  and  C10_25 
REMARK    6  A    between atoms: C11_28  and  O4_29 
ROOT
HETATM    1  N2  UNL     1      61.653  59.387  28.475  1.00  0.00    -0.131 N 
ATOM      2  H2  UNL     1      61.012  59.676  29.215  1.00  0.00     0.205 HD
HETATM    3  C8  UNL     1      61.439  58.287  27.859  1.00  0.00     0.717 C 
HETATM    4  N3  UNL     1      62.331  57.892  26.834  1.00  0.00    -0.116 N 
ATOM      5  H3  UNL     1      62.039  57.927  25.857  1.00  0.00     0.207 HD
HETATM    6  N8  UNL     1      60.319  57.503  28.223  1.00  0.00    -0.131 N 
ATOM      7  H8  UNL     1      59.705  57.830  28.969  1.00  0.00     0.190 HD
HETATM    8  C10 UNL     1      60.030  56.279  27.580  1.00  0.00     0.302 C 
HETATM    9  O2  UNL     1      60.772  55.861  26.663  1.00  0.00    -0.629 OA
HETATM   10  O3  UNL     1      58.932  55.540  27.958  1.00  0.00    -0.629 OA
ENDROOT
BRANCH   1  11
HETATM   11  N1  UNL     1      62.703  60.176  28.171  1.00  0.00    -0.297 N 
HETATM   12  C7  UNL     1      63.668  60.640  28.791  1.00  0.00     0.122 C 
ATOM     13  H1  UNL     1      62.703  60.458  27.191  1.00  0.00     0.186 HD
BRANCH  12  14
HETATM   14  C6  UNL     1      64.039  60.484  30.185  1.00  0.00     0.017 A 
HETATM   15  C5  UNL     1      64.085  61.541  31.071  1.00  0.00     0.016 A 
HETATM   16  C4  UNL     1      64.438  61.416  32.411  1.00  0.00     0.004 A 
HETATM   17  C3  UNL     1      64.753  60.158  32.853  1.00  0.00     0.040 A 
HETATM   18  C2  UNL     1      64.731  59.071  32.042  1.00  0.00     0.102 A 
HETATM   19  C11 UNL     1      64.371  59.230  30.693  1.00  0.00     0.110 A 
BRANCH  18  20
HETATM   20  O1  UNL     1      65.051  57.784  32.485  1.00  0.00    -0.353 OA
HETATM   21  C1  UNL     1      64.416  57.226  33.604  1.00  0.00     0.210 C 
ENDBRANCH  18  20
BRANCH  19  22
HETATM   22  O4  UNL     1      64.360  58.116  29.915  1.00  0.00    -0.357 OA
ATOM     23  H4  UNL     1      63.832  58.140  29.125  1.00  0.00     0.217 HD
ENDBRANCH  19  22
ENDBRANCH  12  14
ENDBRANCH   1  11
BRANCH   4  24
HETATM   24  N4  UNL     1      63.614  57.455  27.170  1.00  0.00    -0.226 N 
ATOM     25  H4  UNL     1      64.343  58.135  27.382  1.00  0.00     0.209 HD
BRANCH  24  26
HETATM   26  N5  UNL     1      63.901  56.097  27.218  1.00  0.00    -0.261 N 
HETATM   27  C9  UNL     1      63.756  55.307  26.219  1.00  0.00     0.216 C 
HETATM   28  N6  UNL     1      63.282  55.776  24.972  1.00  0.00    -0.065 NA
HETATM   29  N7  UNL     1      64.070  53.935  26.356  1.00  0.00    -0.065 NA
ATOM     30  H5  UNL     1      64.245  55.708  28.095  1.00  0.00     0.190 HD
ENDBRANCH  24  26
ENDBRANCH   4  24
TORSDOF 6
ENDMDL
MODEL 5
REMARK VINA RESULT: -7.496813167      1.998      3.705
REMARK  6 active torsions:
REMARK  status: ('A' for Active; 'I' for Inactive)
REMARK    1  A    between atoms: O1_2  and  C2_3 
REMARK    2  A    between atoms: C6_7  and  C7_8 
REMARK    3  A    between atoms: N1_9  and  N2_11 
REMARK       I    between atoms: C8_13  and  N3_14 
REMARK       I    between atoms: C8_13  and  N8_23 
REMARK    4  A    between atoms: N3_14  and  N4_16 
REMARK    5  A    between atoms: N4_16  and  N5_18 
REMARK       I    between atoms: N8_23  and  C10_25 
REMARK    6  A    between atoms: C11_28  and  O4_29 
ROOT
HETATM    1  N2  UNL     1      64.168  60.860  29.990  1.00  0.00    -0.131 N 
ATOM      2  H2  UNL     1      64.140  61.066  28.991  1.00  0.00     0.205 HD
HETATM    3  C8  UNL     1      64.035  61.817  30.828  1.00  0.00     0.717 C 
HETATM    4  N3  UNL     1      64.075  61.523  32.212  1.00  0.00    -0.116 N 
ATOM      5  H3  UNL     1      63.223  61.568  32.772  1.00  0.00     0.207 HD
HETATM    6  N8  UNL     1      63.853  63.133  30.345  1.00  0.00    -0.131 N 
ATOM      7  H8  UNL     1      63.831  63.293  29.337  1.00  0.00     0.190 HD
HETATM    8  C10 UNL     1      63.701  64.230  31.221  1.00  0.00     0.302 C 
HETATM    9  O2  UNL     1      63.725  64.053  32.459  1.00  0.00    -0.629 OA
HETATM   10  O3  UNL     1      63.524  65.499  30.717  1.00  0.00    -0.629 OA
ENDROOT
BRANCH   1  11
HETATM   11  N1  UNL     1      64.344  59.585  30.392  1.00  0.00    -0.297 N 
HETATM   12  C7  UNL     1      63.843  58.491  30.103  1.00  0.00     0.122 C 
ATOM     13  H1  UNL     1      65.065  59.503  31.109  1.00  0.00     0.186 HD
BRANCH  12  14
HETATM   14  C6  UNL     1      62.802  58.168  29.147  1.00  0.00     0.017 A 
HETATM   15  C5  UNL     1      61.464  58.406  29.387  1.00  0.00     0.016 A 
HETATM   16  C4  UNL     1      60.448  58.105  28.485  1.00  0.00     0.004 A 
HETATM   17  C3  UNL     1      60.824  57.541  27.295  1.00  0.00     0.040 A 
HETATM   18  C2  UNL     1      62.118  57.277  26.987  1.00  0.00     0.102 A 
HETATM   19  C11 UNL     1      63.122  57.592  27.919  1.00  0.00     0.110 A 
BRANCH  18  20
HETATM   20  O1  UNL     1      62.510  56.701  25.775  1.00  0.00    -0.353 OA
HETATM   21  C1  UNL     1      63.189  55.475  25.743  1.00  0.00     0.210 C 
ENDBRANCH  18  20
BRANCH  19  22
HETATM   22  O4  UNL     1      64.406  57.313  27.572  1.00  0.00    -0.357 OA
ATOM     23  H4  UNL     1      64.561  56.989  26.693  1.00  0.00     0.217 HD
ENDBRANCH  19  22
ENDBRANCH  12  14
ENDBRANCH   1  11
BRANCH   4  24
HETATM   24  N4  UNL     1      65.290  61.171  32.805  1.00  0.00    -0.226 N 
ATOM     25  H4  UNL     1      66.054  61.846  32.834  1.00  0.00     0.209 HD
BRANCH  24  26
HETATM   26  N5  UNL     1      65.461  59.908  33.355  1.00  0.00    -0.261 N 
HETATM   27  C9  UNL     1      64.523  59.254  33.934  1.00  0.00     0.216 C 
HETATM   28  N6  UNL     1      63.219  59.789  34.053  1.00  0.00    -0.065 NA
HETATM   29  N7  UNL     1      64.785  57.972  34.469  1.00  0.00    -0.065 NA
ATOM     30  H5  UNL     1      66.384  59.478  33.296  1.00  0.00     0.190 HD
ENDBRANCH  24  26
ENDBRANCH   4  24
TORSDOF 6
ENDMDL
