MODEL 1
REMARK VINA RESULT: -7.267828592      0.000      0.000
REMARK  10 active torsions:
REMARK  status: ('A' for Active; 'I' for Inactive)
REMARK    1  A    between atoms: C2_2  and  N1_4 
REMARK    2  A    between atoms: N1_4  and  C4_6 
REMARK    3  A    between atoms: C5_7  and  O1_8 
REMARK    4  A    between atoms: N2_11  and  O2_13 
REMARK    5  A    between atoms: C7_16  and  O4_17 
REMARK    6  A    between atoms: O4_17  and  C8_18 
REMARK    7  A    between atoms: C11_22  and  O6_23 
REMARK    8  A    between atoms: C12_25  and  O7_26 
REMARK    9  A    between atoms: C13_28  and  O8_29 
REMARK   10  A    between atoms: C14_31  and  O9_32 
ROOT
HETATM    1  C4  UNL     1      23.725 -45.575   7.303  1.00  0.00     0.147 C 
HETATM    2  C5  UNL     1      22.942 -44.309   7.352  1.00  0.00     0.219 C 
HETATM    3  C6  UNL     1      22.832 -43.747   5.958  1.00  0.00     0.171 C 
HETATM    4  N2  UNL     1      21.893 -42.883   5.672  1.00  0.00    -0.249 N 
ATOM      5  H2  UNL     1      21.816 -42.500   4.729  1.00  0.00     0.196 HD
HETATM    6  O3  UNL     1      23.723 -44.147   4.988  1.00  0.00    -0.301 OA
HETATM    7  C7  UNL     1      24.062 -45.538   4.824  1.00  0.00     0.301 C 
HETATM    8  C14 UNL     1      23.460 -46.325   5.974  1.00  0.00     0.199 C 
ENDROOT
BRANCH   7   9
HETATM    9  O4  UNL     1      25.427 -45.658   4.891  1.00  0.00    -0.326 OA
BRANCH   9  10
HETATM   10  C8  UNL     1      26.021 -45.822   3.643  1.00  0.00     0.294 C 
HETATM   11  O5  UNL     1      25.026 -45.972   2.690  1.00  0.00    -0.351 OA
HETATM   12  C9  UNL     1      25.510 -45.885   1.394  1.00  0.00     0.152 C 
HETATM   13  C10 UNL     1      24.775 -46.779   0.414  1.00  0.00     0.042 C 
HETATM   14  C11 UNL     1      26.970 -46.078   1.261  1.00  0.00     0.178 C 
HETATM   15  C12 UNL     1      27.627 -46.985   2.242  1.00  0.00     0.183 C 
HETATM   16  C13 UNL     1      26.908 -47.046   3.568  1.00  0.00     0.204 C 
BRANCH  14  17
HETATM   17  O6  UNL     1      27.597 -44.832   1.172  1.00  0.00    -0.390 OA
ATOM     18  H6  UNL     1      28.453 -44.880   1.581  1.00  0.00     0.210 HD
ENDBRANCH  14  17
BRANCH  15  19
HETATM   19  O7  UNL     1      28.900 -46.433   2.525  1.00  0.00    -0.390 OA
ATOM     20  H7  UNL     1      29.526 -47.146   2.480  1.00  0.00     0.210 HD
ENDBRANCH  15  19
BRANCH  16  21
HETATM   21  O8  UNL     1      27.810 -47.022   4.635  1.00  0.00    -0.388 OA
ATOM     22  H8  UNL     1      27.421 -47.466   5.380  1.00  0.00     0.210 HD
ENDBRANCH  16  21
ENDBRANCH   9  10
ENDBRANCH   7   9
BRANCH   8  23
HETATM   23  O9  UNL     1      22.131 -46.605   5.822  1.00  0.00    -0.388 OA
ATOM     24  H9  UNL     1      21.943 -47.507   6.052  1.00  0.00     0.210 HD
ENDBRANCH   8  23
BRANCH   1  25
HETATM   25  N1  UNL     1      23.583 -46.528   8.318  1.00  0.00    -0.408 N 
ATOM     26  H1  UNL     1      23.303 -47.471   8.049  1.00  0.00     0.154 HD
BRANCH  25  27
HETATM   27  C2  UNL     1      23.799 -46.275   9.676  1.00  0.00     0.069 C 
HETATM   28  C1  UNL     1      23.084 -47.176  10.634  1.00  0.00     0.031 C 
HETATM   29  C3  UNL     1      25.306 -46.337  10.018  1.00  0.00     0.031 C 
ENDBRANCH  25  27
ENDBRANCH   1  25
BRANCH   2  30
HETATM   30  O1  UNL     1      23.667 -43.327   8.053  1.00  0.00    -0.385 OA
ATOM     31  H1  UNL     1      23.431 -42.464   7.734  1.00  0.00     0.210 HD
ENDBRANCH   2  30
BRANCH   4  32
HETATM   32  O2  UNL     1      21.010 -42.493   6.655  1.00  0.00    -0.288 OA
ATOM     33  H2  UNL     1      20.708 -41.592   6.681  1.00  0.00     0.244 HD
ENDBRANCH   4  32
TORSDOF 10
ENDMDL
MODEL 2
REMARK VINA RESULT: -6.253453642      3.137      5.964
REMARK  10 active torsions:
REMARK  status: ('A' for Active; 'I' for Inactive)
REMARK    1  A    between atoms: C2_2  and  N1_4 
REMARK    2  A    between atoms: N1_4  and  C4_6 
REMARK    3  A    between atoms: C5_7  and  O1_8 
REMARK    4  A    between atoms: N2_11  and  O2_13 
REMARK    5  A    between atoms: C7_16  and  O4_17 
REMARK    6  A    between atoms: O4_17  and  C8_18 
REMARK    7  A    between atoms: C11_22  and  O6_23 
REMARK    8  A    between atoms: C12_25  and  O7_26 
REMARK    9  A    between atoms: C13_28  and  O8_29 
REMARK   10  A    between atoms: C14_31  and  O9_32 
ROOT
HETATM    1  C4  UNL     1      24.369 -46.859   5.419  1.00  0.00     0.147 C 
HETATM    2  C5  UNL     1      23.521 -48.081   5.358  1.00  0.00     0.219 C 
HETATM    3  C6  UNL     1      22.092 -47.673   5.104  1.00  0.00     0.171 C 
HETATM    4  N2  UNL     1      21.237 -48.541   4.628  1.00  0.00    -0.249 N 
ATOM      5  H2  UNL     1      20.270 -48.269   4.454  1.00  0.00     0.196 HD
HETATM    6  O3  UNL     1      21.691 -46.384   5.374  1.00  0.00    -0.301 OA
HETATM    7  C7  UNL     1      22.497 -45.260   4.972  1.00  0.00     0.301 C 
HETATM    8  C14 UNL     1      23.828 -45.774   4.454  1.00  0.00     0.199 C 
ENDROOT
BRANCH   7   9
HETATM    9  O4  UNL     1      22.738 -44.486   6.079  1.00  0.00    -0.326 OA
BRANCH   9  10
HETATM   10  C8  UNL     1      22.613 -43.123   5.829  1.00  0.00     0.294 C 
HETATM   11  O5  UNL     1      22.695 -42.910   4.462  1.00  0.00    -0.351 OA
HETATM   12  C9  UNL     1      22.327 -41.624   4.099  1.00  0.00     0.152 C 
HETATM   13  C10 UNL     1      23.105 -41.086   2.913  1.00  0.00     0.042 C 
HETATM   14  C11 UNL     1      22.339 -40.639   5.202  1.00  0.00     0.178 C 
HETATM   15  C12 UNL     1      23.332 -40.851   6.291  1.00  0.00     0.183 C 
HETATM   16  C13 UNL     1      23.704 -42.301   6.481  1.00  0.00     0.204 C 
BRANCH  14  17
HETATM   17  O6  UNL     1      21.038 -40.465   5.683  1.00  0.00    -0.390 OA
ATOM     18  H6  UNL     1      21.051 -39.862   6.416  1.00  0.00     0.210 HD
ENDBRANCH  14  17
BRANCH  15  19
HETATM   19  O7  UNL     1      22.708 -40.456   7.499  1.00  0.00    -0.390 OA
ATOM     20  H7  UNL     1      23.400 -40.182   8.090  1.00  0.00     0.210 HD
ENDBRANCH  15  19
BRANCH  16  21
HETATM   21  O8  UNL     1      23.776 -42.633   7.837  1.00  0.00    -0.388 OA
ATOM     22  H8  UNL     1      23.965 -41.848   8.339  1.00  0.00     0.210 HD
ENDBRANCH  16  21
ENDBRANCH   9  10
ENDBRANCH   7   9
BRANCH   8  23
HETATM   23  O9  UNL     1      23.785 -46.236   3.168  1.00  0.00    -0.388 OA
ATOM     24  H9  UNL     1      24.534 -46.787   2.978  1.00  0.00     0.210 HD
ENDBRANCH   8  23
BRANCH   1  25
HETATM   25  N1  UNL     1      25.744 -46.945   5.169  1.00  0.00    -0.408 N 
ATOM     26  H1  UNL     1      26.373 -46.439   5.792  1.00  0.00     0.154 HD
BRANCH  25  27
HETATM   27  C2  UNL     1      26.313 -47.677   4.123  1.00  0.00     0.069 C 
HETATM   28  C1  UNL     1      27.444 -47.017   3.398  1.00  0.00     0.031 C 
HETATM   29  C3  UNL     1      26.819 -49.051   4.621  1.00  0.00     0.031 C 
ENDBRANCH  25  27
ENDBRANCH   1  25
BRANCH   2  30
HETATM   30  O1  UNL     1      23.474 -48.693   6.625  1.00  0.00    -0.385 OA
ATOM     31  H1  UNL     1      22.892 -48.206   7.196  1.00  0.00     0.210 HD
ENDBRANCH   2  30
BRANCH   4  32
HETATM   32  O2  UNL     1      21.656 -49.828   4.363  1.00  0.00    -0.288 OA
ATOM     33  H2  UNL     1      21.467 -50.518   4.988  1.00  0.00     0.244 HD
ENDBRANCH   4  32
TORSDOF 10
ENDMDL
MODEL 3
REMARK VINA RESULT: -6.227065104      2.766      6.925
REMARK  10 active torsions:
REMARK  status: ('A' for Active; 'I' for Inactive)
REMARK    1  A    between atoms: C2_2  and  N1_4 
REMARK    2  A    between atoms: N1_4  and  C4_6 
REMARK    3  A    between atoms: C5_7  and  O1_8 
REMARK    4  A    between atoms: N2_11  and  O2_13 
REMARK    5  A    between atoms: C7_16  and  O4_17 
REMARK    6  A    between atoms: O4_17  and  C8_18 
REMARK    7  A    between atoms: C11_22  and  O6_23 
REMARK    8  A    between atoms: C12_25  and  O7_26 
REMARK    9  A    between atoms: C13_28  and  O8_29 
REMARK   10  A    between atoms: C14_31  and  O9_32 
ROOT
HETATM    1  C4  UNL     1      24.141 -47.411   3.162  1.00  0.00     0.147 C 
HETATM    2  C5  UNL     1      25.583 -47.082   2.992  1.00  0.00     0.219 C 
HETATM    3  C6  UNL     1      26.289 -47.283   4.308  1.00  0.00     0.171 C 
HETATM    4  N2  UNL     1      27.588 -47.440   4.337  1.00  0.00    -0.249 N 
ATOM      5  H2  UNL     1      28.070 -47.576   5.226  1.00  0.00     0.196 HD
HETATM    6  O3  UNL     1      25.564 -47.299   5.478  1.00  0.00    -0.301 OA
HETATM    7  C7  UNL     1      24.336 -48.047   5.574  1.00  0.00     0.301 C 
HETATM    8  C14 UNL     1      23.964 -48.554   4.193  1.00  0.00     0.199 C 
ENDROOT
BRANCH   7   9
HETATM    9  O4  UNL     1      23.347 -47.195   5.999  1.00  0.00    -0.326 OA
BRANCH   9  10
HETATM   10  C8  UNL     1      23.569 -46.698   7.280  1.00  0.00     0.294 C 
HETATM   11  O5  UNL     1      23.063 -47.599   8.204  1.00  0.00    -0.351 OA
HETATM   12  C9  UNL     1      23.463 -47.316   9.500  1.00  0.00     0.152 C 
HETATM   13  C10 UNL     1      22.415 -47.657  10.542  1.00  0.00     0.042 C 
HETATM   14  C11 UNL     1      23.960 -45.939   9.711  1.00  0.00     0.178 C 
HETATM   15  C12 UNL     1      23.372 -44.868   8.861  1.00  0.00     0.183 C 
HETATM   16  C13 UNL     1      22.887 -45.369   7.523  1.00  0.00     0.204 C 
BRANCH  14  17
HETATM   17  O6  UNL     1      25.358 -45.942   9.688  1.00  0.00    -0.390 OA
ATOM     18  H6  UNL     1      25.686 -45.430  10.417  1.00  0.00     0.210 HD
ENDBRANCH  14  17
BRANCH  15  19
HETATM   19  O7  UNL     1      24.414 -43.954   8.571  1.00  0.00    -0.390 OA
ATOM     20  H7  UNL     1      24.799 -44.227   7.746  1.00  0.00     0.210 HD
ENDBRANCH  15  19
BRANCH  16  21
HETATM   21  O8  UNL     1      23.230 -44.486   6.496  1.00  0.00    -0.388 OA
ATOM     22  H8  UNL     1      22.796 -44.758   5.695  1.00  0.00     0.210 HD
ENDBRANCH  16  21
ENDBRANCH   9  10
ENDBRANCH   7   9
BRANCH   8  23
HETATM   23  O9  UNL     1      24.645 -49.674   3.808  1.00  0.00    -0.388 OA
ATOM     24  H9  UNL     1      25.095 -49.534   2.984  1.00  0.00     0.210 HD
ENDBRANCH   8  23
BRANCH   1  25
HETATM   25  N1  UNL     1      23.366 -47.770   2.053  1.00  0.00    -0.408 N 
ATOM     26  H1  UNL     1      23.811 -47.752   1.135  1.00  0.00     0.154 HD
BRANCH  25  27
HETATM   27  C2  UNL     1      22.023 -48.151   2.117  1.00  0.00     0.069 C 
HETATM   28  C1  UNL     1      21.019 -47.058   1.922  1.00  0.00     0.031 C 
HETATM   29  C3  UNL     1      21.711 -49.257   1.082  1.00  0.00     0.031 C 
ENDBRANCH  25  27
ENDBRANCH   1  25
BRANCH   2  30
HETATM   30  O1  UNL     1      25.731 -45.705   2.738  1.00  0.00    -0.385 OA
ATOM     31  H1  UNL     1      25.072 -45.217   3.217  1.00  0.00     0.210 HD
ENDBRANCH   2  30
BRANCH   4  32
HETATM   32  O2  UNL     1      28.299 -47.420   3.157  1.00  0.00    -0.288 OA
ATOM     33  H2  UNL     1      28.510 -48.239   2.725  1.00  0.00     0.244 HD
ENDBRANCH   4  32
TORSDOF 10
ENDMDL
MODEL 4
REMARK VINA RESULT: -6.194667670      3.083      5.462
REMARK  10 active torsions:
REMARK  status: ('A' for Active; 'I' for Inactive)
REMARK    1  A    between atoms: C2_2  and  N1_4 
REMARK    2  A    between atoms: N1_4  and  C4_6 
REMARK    3  A    between atoms: C5_7  and  O1_8 
REMARK    4  A    between atoms: N2_11  and  O2_13 
REMARK    5  A    between atoms: C7_16  and  O4_17 
REMARK    6  A    between atoms: O4_17  and  C8_18 
REMARK    7  A    between atoms: C11_22  and  O6_23 
REMARK    8  A    between atoms: C12_25  and  O7_26 
REMARK    9  A    between atoms: C13_28  and  O8_29 
REMARK   10  A    between atoms: C14_31  and  O9_32 
ROOT
HETATM    1  C4  UNL     1      23.089 -46.975   6.612  1.00  0.00     0.147 C 
HETATM    2  C5  UNL     1      22.877 -47.877   5.446  1.00  0.00     0.219 C 
HETATM    3  C6  UNL     1      22.877 -47.054   4.184  1.00  0.00     0.171 C 
HETATM    4  N2  UNL     1      23.099 -47.626   3.029  1.00  0.00    -0.249 N 
ATOM      5  H2  UNL     1      23.099 -47.073   2.172  1.00  0.00     0.196 HD
HETATM    6  O3  UNL     1      22.642 -45.699   4.251  1.00  0.00    -0.301 OA
HETATM    7  C7  UNL     1      23.289 -44.886   5.248  1.00  0.00     0.301 C 
HETATM    8  C14 UNL     1      24.016 -45.795   6.223  1.00  0.00     0.199 C 
ENDROOT
BRANCH   7   9
HETATM    9  O4  UNL     1      22.321 -44.202   5.940  1.00  0.00    -0.326 OA
BRANCH   9  10
HETATM   10  C8  UNL     1      22.370 -42.827   5.730  1.00  0.00     0.294 C 
HETATM   11  O5  UNL     1      22.518 -42.587   4.372  1.00  0.00    -0.351 OA
HETATM   12  C9  UNL     1      22.320 -41.256   4.041  1.00  0.00     0.152 C 
HETATM   13  C10 UNL     1      23.192 -40.784   2.893  1.00  0.00     0.042 C 
HETATM   14  C11 UNL     1      22.417 -40.311   5.174  1.00  0.00     0.178 C 
HETATM   15  C12 UNL     1      23.344 -40.674   6.282  1.00  0.00     0.183 C 
HETATM   16  C13 UNL     1      23.531 -42.163   6.436  1.00  0.00     0.204 C 
BRANCH  14  17
HETATM   17  O6  UNL     1      21.132 -39.994   5.626  1.00  0.00    -0.390 OA
ATOM     18  H6  UNL     1      20.914 -40.545   6.367  1.00  0.00     0.210 HD
ENDBRANCH  14  17
BRANCH  15  19
HETATM   19  O7  UNL     1      22.736 -40.240   7.485  1.00  0.00    -0.390 OA
ATOM     20  H7  UNL     1      23.430 -40.143   8.126  1.00  0.00     0.210 HD
ENDBRANCH  15  19
BRANCH  16  21
HETATM   21  O8  UNL     1      23.522 -42.539   7.782  1.00  0.00    -0.388 OA
ATOM     22  H8  UNL     1      24.333 -42.258   8.189  1.00  0.00     0.210 HD
ENDBRANCH  16  21
ENDBRANCH   9  10
ENDBRANCH   7   9
BRANCH   8  23
HETATM   23  O9  UNL     1      25.223 -46.247   5.770  1.00  0.00    -0.388 OA
ATOM     24  H9  UNL     1      25.114 -46.991   5.191  1.00  0.00     0.210 HD
ENDBRANCH   8  23
BRANCH   1  25
HETATM   25  N1  UNL     1      23.598 -47.484   7.812  1.00  0.00    -0.408 N 
ATOM     26  H1  UNL     1      24.122 -48.358   7.774  1.00  0.00     0.154 HD
BRANCH  25  27
HETATM   27  C2  UNL     1      23.435 -46.876   9.060  1.00  0.00     0.069 C 
HETATM   28  C1  UNL     1      22.940 -47.759  10.162  1.00  0.00     0.031 C 
HETATM   29  C3  UNL     1      24.758 -46.235   9.539  1.00  0.00     0.031 C 
ENDBRANCH  25  27
ENDBRANCH   1  25
BRANCH   2  30
HETATM   30  O1  UNL     1      21.579 -48.419   5.493  1.00  0.00    -0.385 OA
ATOM     31  H1  UNL     1      21.600 -49.328   5.219  1.00  0.00     0.210 HD
ENDBRANCH   2  30
BRANCH   4  32
HETATM   32  O2  UNL     1      23.332 -48.984   2.979  1.00  0.00    -0.288 OA
ATOM     33  H2  UNL     1      23.429 -49.470   3.790  1.00  0.00     0.244 HD
ENDBRANCH   4  32
TORSDOF 10
ENDMDL
MODEL 5
REMARK VINA RESULT: -6.141109310      1.955      3.147
REMARK  10 active torsions:
REMARK  status: ('A' for Active; 'I' for Inactive)
REMARK    1  A    between atoms: C2_2  and  N1_4 
REMARK    2  A    between atoms: N1_4  and  C4_6 
REMARK    3  A    between atoms: C5_7  and  O1_8 
REMARK    4  A    between atoms: N2_11  and  O2_13 
REMARK    5  A    between atoms: C7_16  and  O4_17 
REMARK    6  A    between atoms: O4_17  and  C8_18 
REMARK    7  A    between atoms: C11_22  and  O6_23 
REMARK    8  A    between atoms: C12_25  and  O7_26 
REMARK    9  A    between atoms: C13_28  and  O8_29 
REMARK   10  A    between atoms: C14_31  and  O9_32 
ROOT
HETATM    1  C4  UNL     1      23.801 -43.812   6.124  1.00  0.00     0.147 C 
HETATM    2  C5  UNL     1      23.547 -42.549   6.870  1.00  0.00     0.219 C 
HETATM    3  C6  UNL     1      23.725 -41.382   5.933  1.00  0.00     0.171 C 
HETATM    4  N2  UNL     1      23.193 -40.223   6.222  1.00  0.00    -0.249 N 
ATOM      5  H2  UNL     1      23.311 -39.430   5.591  1.00  0.00     0.196 HD
HETATM    6  O3  UNL     1      24.449 -41.541   4.773  1.00  0.00    -0.301 OA
HETATM    7  C7  UNL     1      24.251 -42.693   3.931  1.00  0.00     0.301 C 
HETATM    8  C14 UNL     1      23.341 -43.673   4.651  1.00  0.00     0.199 C 
ENDROOT
BRANCH   7   9
HETATM    9  O4  UNL     1      25.467 -43.299   3.738  1.00  0.00    -0.326 OA
BRANCH   9  10
HETATM   10  C8  UNL     1      25.358 -44.647   3.409  1.00  0.00     0.294 C 
HETATM   11  O5  UNL     1      26.236 -45.372   4.200  1.00  0.00    -0.351 OA
HETATM   12  C9  UNL     1      26.017 -46.739   4.125  1.00  0.00     0.152 C 
HETATM   13  C10 UNL     1      27.287 -47.560   4.239  1.00  0.00     0.042 C 
HETATM   14  C11 UNL     1      25.230 -47.180   2.953  1.00  0.00     0.178 C 
HETATM   15  C12 UNL     1      25.362 -46.376   1.707  1.00  0.00     0.183 C 
HETATM   16  C13 UNL     1      25.710 -44.931   1.965  1.00  0.00     0.204 C 
BRANCH  14  17
HETATM   17  O6  UNL     1      23.899 -47.373   3.334  1.00  0.00    -0.390 OA
ATOM     18  H6  UNL     1      23.617 -48.239   3.066  1.00  0.00     0.210 HD
ENDBRANCH  14  17
BRANCH  15  19
HETATM   19  O7  UNL     1      24.086 -46.357   1.093  1.00  0.00    -0.390 OA
ATOM     20  H7  UNL     1      23.461 -46.107   1.763  1.00  0.00     0.210 HD
ENDBRANCH  15  19
BRANCH  16  21
HETATM   21  O8  UNL     1      24.974 -44.077   1.140  1.00  0.00    -0.388 OA
ATOM     22  H8  UNL     1      25.155 -44.291   0.232  1.00  0.00     0.210 HD
ENDBRANCH  16  21
ENDBRANCH   9  10
ENDBRANCH   7   9
BRANCH   8  23
HETATM   23  O9  UNL     1      22.013 -43.358   4.577  1.00  0.00    -0.388 OA
ATOM     24  H9  UNL     1      21.472 -44.110   4.787  1.00  0.00     0.210 HD
ENDBRANCH   8  23
BRANCH   1  25
HETATM   25  N1  UNL     1      23.263 -45.020   6.583  1.00  0.00    -0.408 N 
ATOM     26  H1  UNL     1      22.258 -45.160   6.485  1.00  0.00     0.154 HD
BRANCH  25  27
HETATM   27  C2  UNL     1      24.011 -46.047   7.166  1.00  0.00     0.069 C 
HETATM   28  C1  UNL     1      24.231 -45.942   8.643  1.00  0.00     0.031 C 
HETATM   29  C3  UNL     1      23.367 -47.426   6.890  1.00  0.00     0.031 C 
ENDBRANCH  25  27
ENDBRANCH   1  25
BRANCH   2  30
HETATM   30  O1  UNL     1      24.551 -42.357   7.839  1.00  0.00    -0.385 OA
ATOM     31  H1  UNL     1      24.249 -42.674   8.682  1.00  0.00     0.210 HD
ENDBRANCH   2  30
BRANCH   4  32
HETATM   32  O2  UNL     1      22.472 -40.081   7.388  1.00  0.00    -0.288 OA
ATOM     33  H2  UNL     1      21.524 -40.149   7.362  1.00  0.00     0.244 HD
ENDBRANCH   4  32
TORSDOF 10
ENDMDL
