MODEL 1
REMARK VINA RESULT: -8.045274655      0.000      0.000
REMARK  14 active torsions:
REMARK  status: ('A' for Active; 'I' for Inactive)
REMARK    1  A    between atoms: C2_4  and  C3_5 
REMARK    2  A    between atoms: C3_5  and  O1_7 
REMARK    3  A    between atoms: C3_5  and  C5_9 
REMARK    4  A    between atoms: C6_10  and  C7_11 
REMARK    5  A    between atoms: C8_12  and  C9_13 
REMARK    6  A    between atoms: C11_15  and  O2_16 
REMARK    7  A    between atoms: C14_19  and  O3_20 
REMARK    8  A    between atoms: O3_20  and  C15_21 
REMARK    9  A    between atoms: C16_23  and  C17_24 
REMARK   10  A    between atoms: C17_24  and  O5_25 
REMARK   11  A    between atoms: C18_27  and  O6_28 
REMARK   12  A    between atoms: C19_30  and  O7_31 
REMARK   13  A    between atoms: C20_33  and  O8_34 
REMARK   14  A    between atoms: C21_36  and  O9_37 
ROOT
HETATM    1  C9  UNL     1      21.484  66.488  47.139  1.00  0.00     0.003 A 
HETATM    2  C10 UNL     1      21.083  65.750  48.234  1.00  0.00     0.051 A 
HETATM    3  C11 UNL     1      21.990  65.145  49.087  1.00  0.00     0.071 A 
HETATM    4  C13 UNL     1      23.355  65.284  48.837  1.00  0.00     0.076 A 
HETATM    5  C14 UNL     1      23.807  66.010  47.756  1.00  0.00     0.109 A 
HETATM    6  C21 UNL     1      22.856  66.588  46.945  1.00  0.00     0.112 A 
ENDROOT
BRANCH   5   7
HETATM    7  O3  UNL     1      25.143  66.190  47.447  1.00  0.00    -0.315 OA
BRANCH   7   8
HETATM    8  C15 UNL     1      26.091  65.236  47.144  1.00  0.00     0.298 C 
HETATM    9  O4  UNL     1      26.245  65.027  45.761  1.00  0.00    -0.348 OA
HETATM   10  C16 UNL     1      26.968  63.887  45.529  1.00  0.00     0.179 C 
HETATM   11  C18 UNL     1      28.260  63.762  46.251  1.00  0.00     0.180 C 
HETATM   12  C19 UNL     1      28.301  64.358  47.619  1.00  0.00     0.183 C 
HETATM   13  C20 UNL     1      27.494  65.627  47.620  1.00  0.00     0.205 C 
BRANCH  10  14
HETATM   14  C17 UNL     1      27.281  63.861  44.027  1.00  0.00     0.198 C 
BRANCH  14  15
HETATM   15  O5  UNL     1      28.011  62.707  43.752  1.00  0.00    -0.398 OA
ATOM     16  H5  UNL     1      27.416  62.052  43.409  1.00  0.00     0.209 HD
ENDBRANCH  14  15
ENDBRANCH  10  14
BRANCH  11  17
HETATM   17  O6  UNL     1      29.349  64.256  45.539  1.00  0.00    -0.390 OA
ATOM     18  H6  UNL     1      29.873  64.882  46.026  1.00  0.00     0.210 HD
ENDBRANCH  11  17
BRANCH  12  19
HETATM   19  O7  UNL     1      27.731  63.476  48.541  1.00  0.00    -0.390 OA
ATOM     20  H7  UNL     1      27.782  62.586  48.213  1.00  0.00     0.210 HD
ENDBRANCH  12  19
BRANCH  13  21
HETATM   21  O8  UNL     1      27.471  66.271  48.835  1.00  0.00    -0.388 OA
ATOM     22  H8  UNL     1      28.175  65.986  49.406  1.00  0.00     0.210 HD
ENDBRANCH  13  21
ENDBRANCH   7   8
ENDBRANCH   5   7
BRANCH   6  23
HETATM   23  O9  UNL     1      23.304  67.333  45.837  1.00  0.00    -0.352 OA
HETATM   24  C22 UNL     1      23.480  66.755  44.574  1.00  0.00     0.210 C 
ENDBRANCH   6  23
BRANCH   3  25
HETATM   25  O2  UNL     1      21.539  64.415  50.172  1.00  0.00    -0.356 OA
HETATM   26  C12 UNL     1      20.448  63.551  50.013  1.00  0.00     0.210 C 
ENDBRANCH   3  25
BRANCH   1  27
HETATM   27  C8  UNL     1      20.573  67.143  46.213  1.00  0.00     0.014 C 
HETATM   28  C7  UNL     1      19.376  66.668  45.963  1.00  0.00     0.001 C 
BRANCH  28  29
HETATM   29  C6  UNL     1      18.510  67.362  45.031  1.00  0.00    -0.001 C 
HETATM   30  C5  UNL     1      17.421  66.837  44.526  1.00  0.00     0.016 C 
BRANCH  30  31
HETATM   31  C3  UNL     1      16.855  65.511  44.766  1.00  0.00     0.103 C 
HETATM   32  C4  UNL     1      17.887  64.443  44.630  1.00  0.00     0.056 C 
BRANCH  31  33
HETATM   33  C2  UNL     1      16.257  65.470  46.132  1.00  0.00     0.096 C 
HETATM   34  N1  UNL     1      15.002  65.433  46.322  1.00  0.00    -0.404 N 
HETATM   35  C1  UNL     1      14.474  65.394  47.652  1.00  0.00     0.145 C 
ATOM     36  H1  UNL     1      14.367  65.431  45.524  1.00  0.00     0.158 HD
ENDBRANCH  31  33
BRANCH  31  37
HETATM   37  O1  UNL     1      15.788  65.242  43.891  1.00  0.00    -0.381 OA
ATOM     38  H1  UNL     1      15.007  65.500  44.366  1.00  0.00     0.211 HD
ENDBRANCH  31  37
ENDBRANCH  30  31
ENDBRANCH  28  29
ENDBRANCH   1  27
TORSDOF 14
ENDMDL
MODEL 2
REMARK VINA RESULT: -8.017293832      1.969      3.071
REMARK  14 active torsions:
REMARK  status: ('A' for Active; 'I' for Inactive)
REMARK    1  A    between atoms: C2_4  and  C3_5 
REMARK    2  A    between atoms: C3_5  and  O1_7 
REMARK    3  A    between atoms: C3_5  and  C5_9 
REMARK    4  A    between atoms: C6_10  and  C7_11 
REMARK    5  A    between atoms: C8_12  and  C9_13 
REMARK    6  A    between atoms: C11_15  and  O2_16 
REMARK    7  A    between atoms: C14_19  and  O3_20 
REMARK    8  A    between atoms: O3_20  and  C15_21 
REMARK    9  A    between atoms: C16_23  and  C17_24 
REMARK   10  A    between atoms: C17_24  and  O5_25 
REMARK   11  A    between atoms: C18_27  and  O6_28 
REMARK   12  A    between atoms: C19_30  and  O7_31 
REMARK   13  A    between atoms: C20_33  and  O8_34 
REMARK   14  A    between atoms: C21_36  and  O9_37 
ROOT
HETATM    1  C9  UNL     1      21.873  65.932  46.157  1.00  0.00     0.003 A 
HETATM    2  C10 UNL     1      22.105  66.281  47.471  1.00  0.00     0.051 A 
HETATM    3  C11 UNL     1      23.145  65.737  48.206  1.00  0.00     0.071 A 
HETATM    4  C13 UNL     1      23.989  64.806  47.602  1.00  0.00     0.076 A 
HETATM    5  C14 UNL     1      23.800  64.423  46.291  1.00  0.00     0.109 A 
HETATM    6  C21 UNL     1      22.749  65.000  45.615  1.00  0.00     0.112 A 
ENDROOT
BRANCH   5   7
HETATM    7  O3  UNL     1      24.596  63.507  45.629  1.00  0.00    -0.315 OA
BRANCH   7   8
HETATM    8  C15 UNL     1      25.936  63.599  45.318  1.00  0.00     0.298 C 
HETATM    9  O4  UNL     1      26.778  63.265  46.395  1.00  0.00    -0.348 OA
HETATM   10  C16 UNL     1      28.066  63.650  46.129  1.00  0.00     0.179 C 
HETATM   11  C18 UNL     1      28.634  63.209  44.830  1.00  0.00     0.180 C 
HETATM   12  C19 UNL     1      27.672  63.130  43.692  1.00  0.00     0.183 C 
HETATM   13  C20 UNL     1      26.351  62.628  44.207  1.00  0.00     0.205 C 
BRANCH  10  14
HETATM   14  C17 UNL     1      28.942  63.050  47.237  1.00  0.00     0.198 C 
BRANCH  14  15
HETATM   15  O5  UNL     1      28.377  61.840  47.635  1.00  0.00    -0.398 OA
ATOM     16  H5  UNL     1      28.817  61.139  47.170  1.00  0.00     0.209 HD
ENDBRANCH  14  15
ENDBRANCH  10  14
BRANCH  11  17
HETATM   17  O6  UNL     1      29.313  61.996  44.899  1.00  0.00    -0.390 OA
ATOM     18  H6  UNL     1      29.256  61.480  44.103  1.00  0.00     0.210 HD
ENDBRANCH  11  17
BRANCH  12  19
HETATM   19  O7  UNL     1      27.475  64.401  43.144  1.00  0.00    -0.390 OA
ATOM     20  H7  UNL     1      26.740  64.827  43.570  1.00  0.00     0.210 HD
ENDBRANCH  12  19
BRANCH  13  21
HETATM   21  O8  UNL     1      25.385  62.505  43.236  1.00  0.00    -0.388 OA
ATOM     22  H8  UNL     1      25.311  63.287  42.702  1.00  0.00     0.210 HD
ENDBRANCH  13  21
ENDBRANCH   7   8
ENDBRANCH   5   7
BRANCH   6  23
HETATM   23  O9  UNL     1      22.544  64.619  44.274  1.00  0.00    -0.352 OA
HETATM   24  C22 UNL     1      23.227  65.228  43.214  1.00  0.00     0.210 C 
ENDBRANCH   6  23
BRANCH   3  25
HETATM   25  O2  UNL     1      23.336  66.119  49.522  1.00  0.00    -0.356 OA
HETATM   26  C12 UNL     1      22.994  65.234  50.552  1.00  0.00     0.210 C 
ENDBRANCH   3  25
BRANCH   1  27
HETATM   27  C8  UNL     1      20.797  66.474  45.342  1.00  0.00     0.014 C 
HETATM   28  C7  UNL     1      19.660  66.868  45.866  1.00  0.00     0.001 C 
BRANCH  28  29
HETATM   29  C6  UNL     1      18.621  67.400  45.005  1.00  0.00    -0.001 C 
HETATM   30  C5  UNL     1      17.489  66.784  44.773  1.00  0.00     0.016 C 
BRANCH  30  31
HETATM   31  C3  UNL     1      17.030  65.497  45.291  1.00  0.00     0.103 C 
HETATM   32  C4  UNL     1      15.581  65.535  45.643  1.00  0.00     0.056 C 
BRANCH  31  33
HETATM   33  C2  UNL     1      17.276  64.437  44.270  1.00  0.00     0.096 C 
HETATM   34  N1  UNL     1      16.414  64.131  43.389  1.00  0.00    -0.404 N 
HETATM   35  C1  UNL     1      16.695  63.106  42.429  1.00  0.00     0.145 C 
ATOM     36  H1  UNL     1      15.518  64.617  43.365  1.00  0.00     0.158 HD
ENDBRANCH  31  33
BRANCH  31  37
HETATM   37  O1  UNL     1      17.773  65.100  46.417  1.00  0.00    -0.381 OA
ATOM     38  H1  UNL     1      17.698  65.821  47.030  1.00  0.00     0.211 HD
ENDBRANCH  31  37
ENDBRANCH  30  31
ENDBRANCH  28  29
ENDBRANCH   1  27
TORSDOF 14
ENDMDL
MODEL 3
REMARK VINA RESULT: -7.941441454      3.746      6.172
REMARK  14 active torsions:
REMARK  status: ('A' for Active; 'I' for Inactive)
REMARK    1  A    between atoms: C2_4  and  C3_5 
REMARK    2  A    between atoms: C3_5  and  O1_7 
REMARK    3  A    between atoms: C3_5  and  C5_9 
REMARK    4  A    between atoms: C6_10  and  C7_11 
REMARK    5  A    between atoms: C8_12  and  C9_13 
REMARK    6  A    between atoms: C11_15  and  O2_16 
REMARK    7  A    between atoms: C14_19  and  O3_20 
REMARK    8  A    between atoms: O3_20  and  C15_21 
REMARK    9  A    between atoms: C16_23  and  C17_24 
REMARK   10  A    between atoms: C17_24  and  O5_25 
REMARK   11  A    between atoms: C18_27  and  O6_28 
REMARK   12  A    between atoms: C19_30  and  O7_31 
REMARK   13  A    between atoms: C20_33  and  O8_34 
REMARK   14  A    between atoms: C21_36  and  O9_37 
ROOT
HETATM    1  C9  UNL     1      17.201  65.278  44.776  1.00  0.00     0.003 A 
HETATM    2  C10 UNL     1      16.182  65.316  45.704  1.00  0.00     0.051 A 
HETATM    3  C11 UNL     1      16.379  65.770  46.997  1.00  0.00     0.071 A 
HETATM    4  C13 UNL     1      17.647  66.205  47.378  1.00  0.00     0.076 A 
HETATM    5  C14 UNL     1      18.700  66.187  46.488  1.00  0.00     0.109 A 
HETATM    6  C21 UNL     1      18.440  65.725  45.218  1.00  0.00     0.112 A 
ENDROOT
BRANCH   5   7
HETATM    7  O3  UNL     1      19.983  66.603  46.795  1.00  0.00    -0.315 OA
BRANCH   7   8
HETATM    8  C15 UNL     1      20.820  66.144  47.789  1.00  0.00     0.298 C 
HETATM    9  O4  UNL     1      20.452  64.877  48.281  1.00  0.00    -0.348 OA
HETATM   10  C16 UNL     1      21.125  64.605  49.443  1.00  0.00     0.179 C 
HETATM   11  C18 UNL     1      22.600  64.774  49.410  1.00  0.00     0.180 C 
HETATM   12  C19 UNL     1      23.110  65.877  48.542  1.00  0.00     0.183 C 
HETATM   13  C20 UNL     1      22.260  65.949  47.303  1.00  0.00     0.205 C 
BRANCH  10  14
HETATM   14  C17 UNL     1      20.843  63.135  49.781  1.00  0.00     0.198 C 
BRANCH  14  15
HETATM   15  O5  UNL     1      20.766  62.419  48.588  1.00  0.00    -0.398 OA
ATOM     16  H5  UNL     1      21.567  61.921  48.487  1.00  0.00     0.209 HD
ENDBRANCH  14  15
ENDBRANCH  10  14
BRANCH  11  17
HETATM   17  O6  UNL     1      23.290  63.614  49.073  1.00  0.00    -0.390 OA
ATOM     18  H6  UNL     1      23.654  63.626  48.196  1.00  0.00     0.210 HD
ENDBRANCH  11  17
BRANCH  12  19
HETATM   19  O7  UNL     1      23.010  67.098  49.214  1.00  0.00    -0.390 OA
ATOM     20  H7  UNL     1      22.506  67.713  48.695  1.00  0.00     0.210 HD
ENDBRANCH  12  19
BRANCH  13  21
HETATM   21  O8  UNL     1      22.648  66.930  46.419  1.00  0.00    -0.388 OA
ATOM     22  H8  UNL     1      23.591  66.960  46.307  1.00  0.00     0.210 HD
ENDBRANCH  13  21
ENDBRANCH   7   8
ENDBRANCH   5   7
BRANCH   6  23
HETATM   23  O9  UNL     1      19.505  65.702  44.297  1.00  0.00    -0.352 OA
HETATM   24  C22 UNL     1      20.075  66.875  43.788  1.00  0.00     0.210 C 
ENDBRANCH   6  23
BRANCH   3  25
HETATM   25  O2  UNL     1      15.324  65.788  47.893  1.00  0.00    -0.356 OA
HETATM   26  C12 UNL     1      14.047  65.412  47.459  1.00  0.00     0.210 C 
ENDBRANCH   3  25
BRANCH   1  27
HETATM   27  C8  UNL     1      17.046  64.811  43.406  1.00  0.00     0.014 C 
HETATM   28  C7  UNL     1      17.386  63.597  43.044  1.00  0.00     0.001 C 
BRANCH  28  29
HETATM   29  C6  UNL     1      17.211  63.186  41.665  1.00  0.00    -0.001 C 
HETATM   30  C5  UNL     1      18.186  63.150  40.791  1.00  0.00     0.016 C 
BRANCH  30  31
HETATM   31  C3  UNL     1      19.593  63.493  40.984  1.00  0.00     0.103 C 
HETATM   32  C4  UNL     1      20.470  62.770  40.016  1.00  0.00     0.056 C 
BRANCH  31  33
HETATM   33  C2  UNL     1      19.769  64.965  40.825  1.00  0.00     0.096 C 
HETATM   34  N1  UNL     1      20.774  65.469  40.234  1.00  0.00    -0.404 N 
HETATM   35  C1  UNL     1      20.899  66.890  40.105  1.00  0.00     0.145 C 
ATOM     36  H1  UNL     1      21.494  64.859  39.848  1.00  0.00     0.158 HD
ENDBRANCH  31  33
BRANCH  31  37
HETATM   37  O1  UNL     1      20.017  63.213  42.295  1.00  0.00    -0.381 OA
ATOM     38  H1  UNL     1      19.702  62.335  42.475  1.00  0.00     0.211 HD
ENDBRANCH  31  37
ENDBRANCH  30  31
ENDBRANCH  28  29
ENDBRANCH   1  27
TORSDOF 14
ENDMDL
MODEL 4
REMARK VINA RESULT: -7.857771930      3.664      6.592
REMARK  14 active torsions:
REMARK  status: ('A' for Active; 'I' for Inactive)
REMARK    1  A    between atoms: C2_4  and  C3_5 
REMARK    2  A    between atoms: C3_5  and  O1_7 
REMARK    3  A    between atoms: C3_5  and  C5_9 
REMARK    4  A    between atoms: C6_10  and  C7_11 
REMARK    5  A    between atoms: C8_12  and  C9_13 
REMARK    6  A    between atoms: C11_15  and  O2_16 
REMARK    7  A    between atoms: C14_19  and  O3_20 
REMARK    8  A    between atoms: O3_20  and  C15_21 
REMARK    9  A    between atoms: C16_23  and  C17_24 
REMARK   10  A    between atoms: C17_24  and  O5_25 
REMARK   11  A    between atoms: C18_27  and  O6_28 
REMARK   12  A    between atoms: C19_30  and  O7_31 
REMARK   13  A    between atoms: C20_33  and  O8_34 
REMARK   14  A    between atoms: C21_36  and  O9_37 
ROOT
HETATM    1  C9  UNL     1      17.826  64.282  43.947  1.00  0.00     0.003 A 
HETATM    2  C10 UNL     1      16.644  64.663  44.546  1.00  0.00     0.051 A 
HETATM    3  C11 UNL     1      16.610  65.531  45.624  1.00  0.00     0.071 A 
HETATM    4  C13 UNL     1      17.808  66.038  46.125  1.00  0.00     0.076 A 
HETATM    5  C14 UNL     1      19.017  65.688  45.562  1.00  0.00     0.109 A 
HETATM    6  C21 UNL     1      18.984  64.823  44.492  1.00  0.00     0.112 A 
ENDROOT
BRANCH   5   7
HETATM    7  O3  UNL     1      20.242  66.152  46.005  1.00  0.00    -0.315 OA
BRANCH   7   8
HETATM    8  C15 UNL     1      20.882  65.886  47.197  1.00  0.00     0.298 C 
HETATM    9  O4  UNL     1      20.412  64.720  47.830  1.00  0.00    -0.348 OA
HETATM   10  C16 UNL     1      20.863  64.665  49.122  1.00  0.00     0.179 C 
HETATM   11  C18 UNL     1      22.322  64.849  49.324  1.00  0.00     0.180 C 
HETATM   12  C19 UNL     1      22.996  65.790  48.381  1.00  0.00     0.183 C 
HETATM   13  C20 UNL     1      22.382  65.632  47.016  1.00  0.00     0.205 C 
BRANCH  10  14
HETATM   14  C17 UNL     1      20.501  63.273  49.656  1.00  0.00     0.198 C 
BRANCH  14  15
HETATM   15  O5  UNL     1      20.644  62.355  48.617  1.00  0.00    -0.398 OA
ATOM     16  H5  UNL     1      19.873  61.800  48.602  1.00  0.00     0.209 HD
ENDBRANCH  14  15
ENDBRANCH  10  14
BRANCH  11  17
HETATM   17  O6  UNL     1      23.042  63.658  49.323  1.00  0.00    -0.390 OA
ATOM     18  H6  UNL     1      23.213  63.315  48.453  1.00  0.00     0.210 HD
ENDBRANCH  11  17
BRANCH  12  19
HETATM   19  O7  UNL     1      22.799  67.108  48.800  1.00  0.00    -0.390 OA
ATOM     20  H7  UNL     1      23.284  67.270  49.601  1.00  0.00     0.210 HD
ENDBRANCH  12  19
BRANCH  13  21
HETATM   21  O8  UNL     1      22.937  66.448  46.059  1.00  0.00    -0.388 OA
ATOM     22  H8  UNL     1      22.797  67.369  46.246  1.00  0.00     0.210 HD
ENDBRANCH  13  21
ENDBRANCH   7   8
ENDBRANCH   5   7
BRANCH   6  23
HETATM   23  O9  UNL     1      20.211  64.456  43.907  1.00  0.00    -0.352 OA
HETATM   24  C22 UNL     1      20.952  63.357  44.359  1.00  0.00     0.210 C 
ENDBRANCH   6  23
BRANCH   3  25
HETATM   25  O2  UNL     1      15.398  65.883  46.192  1.00  0.00    -0.356 OA
HETATM   26  C12 UNL     1      15.160  65.592  47.540  1.00  0.00     0.210 C 
ENDBRANCH   3  25
BRANCH   1  27
HETATM   27  C8  UNL     1      17.916  63.375  42.812  1.00  0.00     0.014 C 
HETATM   28  C7  UNL     1      17.828  63.801  41.574  1.00  0.00     0.001 C 
BRANCH  28  29
HETATM   29  C6  UNL     1      17.924  62.853  40.482  1.00  0.00    -0.001 C 
HETATM   30  C5  UNL     1      18.953  62.781  39.675  1.00  0.00     0.016 C 
BRANCH  30  31
HETATM   31  C3  UNL     1      20.172  63.587  39.681  1.00  0.00     0.103 C 
HETATM   32  C4  UNL     1      19.930  64.942  40.257  1.00  0.00     0.056 C 
BRANCH  31  33
HETATM   33  C2  UNL     1      21.226  62.882  40.469  1.00  0.00     0.096 C 
HETATM   34  N1  UNL     1      22.307  63.451  40.817  1.00  0.00    -0.404 N 
HETATM   35  C1  UNL     1      23.289  62.735  41.572  1.00  0.00     0.145 C 
ATOM     36  H1  UNL     1      22.475  64.423  40.558  1.00  0.00     0.158 HD
ENDBRANCH  31  33
BRANCH  31  37
HETATM   37  O1  UNL     1      20.709  63.719  38.388  1.00  0.00    -0.381 OA
ATOM     38  H1  UNL     1      20.141  63.201  37.830  1.00  0.00     0.211 HD
ENDBRANCH  31  37
ENDBRANCH  30  31
ENDBRANCH  28  29
ENDBRANCH   1  27
TORSDOF 14
ENDMDL
MODEL 5
REMARK VINA RESULT: -7.823720743      2.062      3.448
REMARK  14 active torsions:
REMARK  status: ('A' for Active; 'I' for Inactive)
REMARK    1  A    between atoms: C2_4  and  C3_5 
REMARK    2  A    between atoms: C3_5  and  O1_7 
REMARK    3  A    between atoms: C3_5  and  C5_9 
REMARK    4  A    between atoms: C6_10  and  C7_11 
REMARK    5  A    between atoms: C8_12  and  C9_13 
REMARK    6  A    between atoms: C11_15  and  O2_16 
REMARK    7  A    between atoms: C14_19  and  O3_20 
REMARK    8  A    between atoms: O3_20  and  C15_21 
REMARK    9  A    between atoms: C16_23  and  C17_24 
REMARK   10  A    between atoms: C17_24  and  O5_25 
REMARK   11  A    between atoms: C18_27  and  O6_28 
REMARK   12  A    between atoms: C19_30  and  O7_31 
REMARK   13  A    between atoms: C20_33  and  O8_34 
REMARK   14  A    between atoms: C21_36  and  O9_37 
ROOT
HETATM    1  C9  UNL     1      20.145  64.841  46.029  1.00  0.00     0.003 A 
HETATM    2  C10 UNL     1      19.761  64.088  44.939  1.00  0.00     0.051 A 
HETATM    3  C11 UNL     1      20.646  63.746  43.931  1.00  0.00     0.071 A 
HETATM    4  C13 UNL     1      21.970  64.174  44.015  1.00  0.00     0.076 A 
HETATM    5  C14 UNL     1      22.404  64.929  45.084  1.00  0.00     0.109 A 
HETATM    6  C21 UNL     1      21.477  65.236  46.054  1.00  0.00     0.112 A 
ENDROOT
BRANCH   5   7
HETATM    7  O3  UNL     1      23.701  65.387  45.234  1.00  0.00    -0.315 OA
BRANCH   7   8
HETATM    8  C15 UNL     1      24.816  64.690  45.646  1.00  0.00     0.298 C 
HETATM    9  O4  UNL     1      25.672  64.338  44.586  1.00  0.00    -0.348 OA
HETATM   10  C16 UNL     1      26.592  63.412  45.005  1.00  0.00     0.179 C 
HETATM   11  C18 UNL     1      27.351  63.743  46.237  1.00  0.00     0.180 C 
HETATM   12  C19 UNL     1      26.605  64.515  47.274  1.00  0.00     0.183 C 
HETATM   13  C20 UNL     1      25.707  65.508  46.587  1.00  0.00     0.205 C 
BRANCH  10  14
HETATM   14  C17 UNL     1      27.611  63.259  43.868  1.00  0.00     0.198 C 
BRANCH  14  15
HETATM   15  O5  UNL     1      27.629  64.444  43.135  1.00  0.00    -0.398 OA
ATOM     16  H5  UNL     1      28.289  64.364  42.457  1.00  0.00     0.209 HD
ENDBRANCH  14  15
ENDBRANCH  10  14
BRANCH  11  17
HETATM   17  O6  UNL     1      28.551  64.406  45.994  1.00  0.00    -0.390 OA
ATOM     18  H6  UNL     1      29.231  64.209  46.627  1.00  0.00     0.210 HD
ENDBRANCH  11  17
BRANCH  12  19
HETATM   19  O7  UNL     1      25.806  63.652  48.029  1.00  0.00    -0.390 OA
ATOM     20  H7  UNL     1      24.994  63.476  47.569  1.00  0.00     0.210 HD
ENDBRANCH  12  19
BRANCH  13  21
HETATM   21  O8  UNL     1      24.975  66.287  47.451  1.00  0.00    -0.388 OA
ATOM     22  H8  UNL     1      25.354  67.151  47.566  1.00  0.00     0.210 HD
ENDBRANCH  13  21
ENDBRANCH   7   8
ENDBRANCH   5   7
BRANCH   6  23
HETATM   23  O9  UNL     1      21.906  66.006  47.151  1.00  0.00    -0.352 OA
HETATM   24  C22 UNL     1      21.792  67.402  47.171  1.00  0.00     0.210 C 
ENDBRANCH   6  23
BRANCH   3  25
HETATM   25  O2  UNL     1      20.212  62.989  42.857  1.00  0.00    -0.356 OA
HETATM   26  C12 UNL     1      19.650  63.630  41.746  1.00  0.00     0.210 C 
ENDBRANCH   3  25
BRANCH   1  27
HETATM   27  C8  UNL     1      19.255  65.227  47.114  1.00  0.00     0.014 C 
HETATM   28  C7  UNL     1      18.148  65.896  46.900  1.00  0.00     0.001 C 
BRANCH  28  29
HETATM   29  C6  UNL     1      17.299  66.254  48.020  1.00  0.00    -0.001 C 
HETATM   30  C5  UNL     1      16.008  66.041  48.045  1.00  0.00     0.016 C 
BRANCH  30  31
HETATM   31  C3  UNL     1      15.165  65.432  47.018  1.00  0.00     0.103 C 
HETATM   32  C4  UNL     1      13.847  66.123  46.911  1.00  0.00     0.056 C 
BRANCH  31  33
HETATM   33  C2  UNL     1      15.872  65.482  45.705  1.00  0.00     0.096 C 
HETATM   34  N1  UNL     1      15.704  64.597  44.810  1.00  0.00    -0.404 N 
HETATM   35  C1  UNL     1      16.405  64.687  43.565  1.00  0.00     0.145 C 
ATOM     36  H1  UNL     1      15.067  63.819  44.978  1.00  0.00     0.158 HD
ENDBRANCH  31  33
BRANCH  31  37
HETATM   37  O1  UNL     1      14.955  64.064  47.268  1.00  0.00    -0.381 OA
ATOM     38  H1  UNL     1      14.362  64.036  48.009  1.00  0.00     0.211 HD
ENDBRANCH  31  37
ENDBRANCH  30  31
ENDBRANCH  28  29
ENDBRANCH   1  27
TORSDOF 14
ENDMDL
