MODEL 1
REMARK VINA RESULT: -7.931553168      0.000      0.000
REMARK  16 active torsions:
REMARK  status: ('A' for Active; 'I' for Inactive)
REMARK    1  A    between atoms: O1_2  and  C2_3 
REMARK    2  A    between atoms: C2_3  and  C3_5 
REMARK    3  A    between atoms: C3_5  and  C4_6 
REMARK    4  A    between atoms: C4_6  and  C5_7 
REMARK    5  A    between atoms: C5_7  and  C6_8 
REMARK    6  A    between atoms: C7_9  and  C8_10 
REMARK    7  A    between atoms: C8_10  and  C9_11 
REMARK    8  A    between atoms: C10_12  and  O3_13 
REMARK    9  A    between atoms: C12_16  and  O4_17 
REMARK   10  A    between atoms: C12_16  and  C13_19 
REMARK   11  A    between atoms: C13_19  and  O6_21 
REMARK   12  A    between atoms: O6_21  and  C14_22 
REMARK   13  A    between atoms: C16_24  and  O7_25 
REMARK   14  A    between atoms: C17_27  and  O8_28 
REMARK   15  A    between atoms: C20_33  and  C21_34 
REMARK   16  A    between atoms: C22_35  and  O10_36 
ROOT
HETATM    1  C9  UNL     1      18.973  65.201  48.001  1.00  0.00     0.029 C 
HETATM    2  C10 UNL     1      19.956  64.521  48.884  1.00  0.00     0.126 C 
HETATM    3  C11 UNL     1      20.946  63.914  47.908  1.00  0.00     0.081 C 
HETATM    4  C12 UNL     1      20.550  64.396  46.524  1.00  0.00     0.155 C 
HETATM    5  C20 UNL     1      19.850  65.692  46.870  1.00  0.00     0.061 C 
ENDROOT
BRANCH   4   6
HETATM    6  O4  UNL     1      19.664  63.484  45.974  1.00  0.00    -0.379 OA
ATOM      7  H4  UNL     1      19.470  63.749  45.082  1.00  0.00     0.211 HD
ENDBRANCH   4   6
BRANCH   4   8
HETATM    8  C13 UNL     1      21.707  64.565  45.642  1.00  0.00     0.296 C 
HETATM    9  O5  UNL     1      22.267  65.688  45.593  1.00  0.00    -0.262 OA
BRANCH   8  10
HETATM   10  O6  UNL     1      22.238  63.571  44.848  1.00  0.00    -0.287 OA
BRANCH  10  11
HETATM   11  C14 UNL     1      21.969  63.394  43.488  1.00  0.00     0.272 C 
HETATM   12  C15 UNL     1      23.093  62.713  42.736  1.00  0.00     0.095 C 
HETATM   13  C16 UNL     1      22.881  63.074  41.262  1.00  0.00     0.154 C 
HETATM   14  C17 UNL     1      21.491  62.701  40.862  1.00  0.00     0.175 C 
HETATM   15  C18 UNL     1      20.437  62.920  41.890  1.00  0.00     0.151 C 
HETATM   16  C19 UNL     1      19.755  64.260  41.675  1.00  0.00     0.042 C 
HETATM   17  O9  UNL     1      20.814  62.724  43.196  1.00  0.00    -0.353 OA
BRANCH  13  18
HETATM   18  O7  UNL     1      23.808  62.384  40.463  1.00  0.00    -0.393 OA
ATOM     19  H7  UNL     1      23.576  62.476  39.547  1.00  0.00     0.210 HD
ENDBRANCH  13  18
BRANCH  14  20
HETATM   20  O8  UNL     1      21.427  61.399  40.359  1.00  0.00    -0.390 OA
ATOM     21  H8  UNL     1      20.767  60.880  40.804  1.00  0.00     0.210 HD
ENDBRANCH  14  20
ENDBRANCH  10  11
ENDBRANCH   8  10
ENDBRANCH   4   8
BRANCH   5  22
HETATM   22  C21 UNL     1      19.101  66.264  45.759  1.00  0.00     0.006 C 
HETATM   23  C22 UNL     1      19.254  67.541  45.455  1.00  0.00     0.127 C 
BRANCH  23  24
HETATM   24  O10 UNL     1      18.549  68.125  44.392  1.00  0.00    -0.373 OA
ATOM     25  H10 UNL     1      18.821  68.955  44.017  1.00  0.00     0.216 HD
ENDBRANCH  23  24
ENDBRANCH   5  22
BRANCH   2  26
HETATM   26  O3  UNL     1      20.690  65.368  49.709  1.00  0.00    -0.395 OA
ATOM     27  H3  UNL     1      21.499  64.999  50.043  1.00  0.00     0.210 HD
ENDBRANCH   2  26
BRANCH   1  28
HETATM   28  C8  UNL     1      18.131  66.257  48.631  1.00  0.00     0.035 C 
BRANCH  28  29
HETATM   29  C7  UNL     1      16.687  66.160  48.300  1.00  0.00    -0.030 C 
HETATM   30  C6  UNL     1      16.215  65.298  47.436  1.00  0.00    -0.031 C 
BRANCH  30  31
HETATM   31  C5  UNL     1      14.851  65.065  46.992  1.00  0.00     0.027 C 
BRANCH  31  32
HETATM   32  C4  UNL     1      14.601  64.715  45.582  1.00  0.00     0.013 C 
BRANCH  32  33
HETATM   33  C3  UNL     1      15.523  65.264  44.556  1.00  0.00     0.111 C 
BRANCH  33  34
HETATM   34  C2  UNL     1      16.215  64.196  43.782  1.00  0.00     0.258 C 
HETATM   35  O2  UNL     1      17.246  63.654  44.288  1.00  0.00    -0.265 OA
BRANCH  34  36
HETATM   36  O1  UNL     1      15.811  63.766  42.559  1.00  0.00    -0.326 OA
HETATM   37  C1  UNL     1      16.393  62.741  41.791  1.00  0.00     0.213 C 
ENDBRANCH  34  36
ENDBRANCH  33  34
ENDBRANCH  32  33
ENDBRANCH  31  32
ENDBRANCH  30  31
ENDBRANCH  28  29
ENDBRANCH   1  28
TORSDOF 16
ENDMDL
MODEL 2
REMARK VINA RESULT: -7.772505888      0.973      1.704
REMARK  16 active torsions:
REMARK  status: ('A' for Active; 'I' for Inactive)
REMARK    1  A    between atoms: O1_2  and  C2_3 
REMARK    2  A    between atoms: C2_3  and  C3_5 
REMARK    3  A    between atoms: C3_5  and  C4_6 
REMARK    4  A    between atoms: C4_6  and  C5_7 
REMARK    5  A    between atoms: C5_7  and  C6_8 
REMARK    6  A    between atoms: C7_9  and  C8_10 
REMARK    7  A    between atoms: C8_10  and  C9_11 
REMARK    8  A    between atoms: C10_12  and  O3_13 
REMARK    9  A    between atoms: C12_16  and  O4_17 
REMARK   10  A    between atoms: C12_16  and  C13_19 
REMARK   11  A    between atoms: C13_19  and  O6_21 
REMARK   12  A    between atoms: O6_21  and  C14_22 
REMARK   13  A    between atoms: C16_24  and  O7_25 
REMARK   14  A    between atoms: C17_27  and  O8_28 
REMARK   15  A    between atoms: C20_33  and  C21_34 
REMARK   16  A    between atoms: C22_35  and  O10_36 
ROOT
HETATM    1  C9  UNL     1      18.951  65.270  47.963  1.00  0.00     0.029 C 
HETATM    2  C10 UNL     1      19.992  64.614  48.798  1.00  0.00     0.126 C 
HETATM    3  C11 UNL     1      20.968  64.062  47.777  1.00  0.00     0.081 C 
HETATM    4  C12 UNL     1      20.503  64.550  46.417  1.00  0.00     0.155 C 
HETATM    5  C20 UNL     1      19.767  65.812  46.810  1.00  0.00     0.061 C 
ENDROOT
BRANCH   4   6
HETATM    6  O4  UNL     1      19.634  63.613  45.883  1.00  0.00    -0.379 OA
ATOM      7  H4  UNL     1      18.942  64.070  45.420  1.00  0.00     0.211 HD
ENDBRANCH   4   6
BRANCH   4   8
HETATM    8  C13 UNL     1      21.620  64.778  45.497  1.00  0.00     0.296 C 
HETATM    9  O5  UNL     1      22.755  65.023  45.976  1.00  0.00    -0.262 OA
BRANCH   8  10
HETATM   10  O6  UNL     1      21.521  64.744  44.122  1.00  0.00    -0.287 OA
BRANCH  10  11
HETATM   11  C14 UNL     1      22.436  64.130  43.262  1.00  0.00     0.272 C 
HETATM   12  C15 UNL     1      21.780  63.328  42.158  1.00  0.00     0.095 C 
HETATM   13  C16 UNL     1      22.848  62.341  41.676  1.00  0.00     0.154 C 
HETATM   14  C17 UNL     1      24.082  63.097  41.305  1.00  0.00     0.175 C 
HETATM   15  C18 UNL     1      24.414  64.263  42.169  1.00  0.00     0.151 C 
HETATM   16  C19 UNL     1      25.414  63.863  43.239  1.00  0.00     0.042 C 
HETATM   17  O9  UNL     1      23.348  64.965  42.678  1.00  0.00    -0.353 OA
BRANCH  13  18
HETATM   18  O7  UNL     1      22.372  61.631  40.560  1.00  0.00    -0.393 OA
ATOM     19  H7  UNL     1      22.487  60.698  40.699  1.00  0.00     0.210 HD
ENDBRANCH  13  18
BRANCH  14  20
HETATM   20  O8  UNL     1      24.080  63.466  39.957  1.00  0.00    -0.390 OA
ATOM     21  H8  UNL     1      24.549  64.280  39.813  1.00  0.00     0.210 HD
ENDBRANCH  14  20
ENDBRANCH  10  11
ENDBRANCH   8  10
ENDBRANCH   4   8
BRANCH   5  22
HETATM   22  C21 UNL     1      18.957  66.372  45.736  1.00  0.00     0.006 C 
HETATM   23  C22 UNL     1      19.176  67.609  45.328  1.00  0.00     0.127 C 
BRANCH  23  24
HETATM   24  O10 UNL     1      18.415  68.181  44.296  1.00  0.00    -0.373 OA
ATOM     25  H10 UNL     1      18.778  68.306  43.427  1.00  0.00     0.216 HD
ENDBRANCH  23  24
ENDBRANCH   5  22
BRANCH   2  26
HETATM   26  O3  UNL     1      20.722  65.477  49.611  1.00  0.00    -0.395 OA
ATOM     27  H3  UNL     1      21.663  65.451  49.479  1.00  0.00     0.210 HD
ENDBRANCH   2  26
BRANCH   1  28
HETATM   28  C8  UNL     1      18.093  66.283  48.640  1.00  0.00     0.035 C 
BRANCH  28  29
HETATM   29  C7  UNL     1      16.649  66.168  48.316  1.00  0.00    -0.030 C 
HETATM   30  C6  UNL     1      16.186  65.320  47.434  1.00  0.00    -0.031 C 
BRANCH  30  31
HETATM   31  C5  UNL     1      14.823  65.074  46.993  1.00  0.00     0.027 C 
BRANCH  31  32
HETATM   32  C4  UNL     1      14.573  64.719  45.584  1.00  0.00     0.013 C 
BRANCH  32  33
HETATM   33  C3  UNL     1      15.514  65.237  44.560  1.00  0.00     0.111 C 
BRANCH  33  34
HETATM   34  C2  UNL     1      16.194  64.147  43.806  1.00  0.00     0.258 C 
HETATM   35  O2  UNL     1      17.223  63.607  44.318  1.00  0.00    -0.265 OA
BRANCH  34  36
HETATM   36  O1  UNL     1      15.781  63.694  42.595  1.00  0.00    -0.326 OA
HETATM   37  C1  UNL     1      16.560  63.023  41.634  1.00  0.00     0.213 C 
ENDBRANCH  34  36
ENDBRANCH  33  34
ENDBRANCH  32  33
ENDBRANCH  31  32
ENDBRANCH  30  31
ENDBRANCH  28  29
ENDBRANCH   1  28
TORSDOF 16
ENDMDL
MODEL 3
REMARK VINA RESULT: -7.688560769      3.528      5.560
REMARK  16 active torsions:
REMARK  status: ('A' for Active; 'I' for Inactive)
REMARK    1  A    between atoms: O1_2  and  C2_3 
REMARK    2  A    between atoms: C2_3  and  C3_5 
REMARK    3  A    between atoms: C3_5  and  C4_6 
REMARK    4  A    between atoms: C4_6  and  C5_7 
REMARK    5  A    between atoms: C5_7  and  C6_8 
REMARK    6  A    between atoms: C7_9  and  C8_10 
REMARK    7  A    between atoms: C8_10  and  C9_11 
REMARK    8  A    between atoms: C10_12  and  O3_13 
REMARK    9  A    between atoms: C12_16  and  O4_17 
REMARK   10  A    between atoms: C12_16  and  C13_19 
REMARK   11  A    between atoms: C13_19  and  O6_21 
REMARK   12  A    between atoms: O6_21  and  C14_22 
REMARK   13  A    between atoms: C16_24  and  O7_25 
REMARK   14  A    between atoms: C17_27  and  O8_28 
REMARK   15  A    between atoms: C20_33  and  C21_34 
REMARK   16  A    between atoms: C22_35  and  O10_36 
ROOT
HETATM    1  C9  UNL     1      19.324  65.590  47.121  1.00  0.00     0.029 C 
HETATM    2  C10 UNL     1      19.009  65.315  48.547  1.00  0.00     0.126 C 
HETATM    3  C11 UNL     1      20.250  64.606  49.053  1.00  0.00     0.081 C 
HETATM    4  C12 UNL     1      21.264  64.635  47.923  1.00  0.00     0.155 C 
HETATM    5  C20 UNL     1      20.811  65.869  47.174  1.00  0.00     0.061 C 
ENDROOT
BRANCH   4   6
HETATM    6  O4  UNL     1      21.101  63.497  47.152  1.00  0.00    -0.379 OA
ATOM      7  H4  UNL     1      21.405  63.681  46.271  1.00  0.00     0.211 HD
ENDBRANCH   4   6
BRANCH   4   8
HETATM    8  C13 UNL     1      22.641  64.714  48.415  1.00  0.00     0.296 C 
HETATM    9  O5  UNL     1      22.999  65.739  49.046  1.00  0.00    -0.262 OA
BRANCH   8  10
HETATM   10  O6  UNL     1      23.593  63.733  48.235  1.00  0.00    -0.287 OA
BRANCH  10  11
HETATM   11  C14 UNL     1      24.884  63.753  48.770  1.00  0.00     0.272 C 
HETATM   12  C15 UNL     1      24.982  63.101  50.134  1.00  0.00     0.095 C 
HETATM   13  C16 UNL     1      26.257  63.665  50.769  1.00  0.00     0.154 C 
HETATM   14  C17 UNL     1      27.406  63.441  49.842  1.00  0.00     0.175 C 
HETATM   15  C18 UNL     1      27.111  63.594  48.392  1.00  0.00     0.151 C 
HETATM   16  C19 UNL     1      27.469  64.993  47.922  1.00  0.00     0.042 C 
HETATM   17  O9  UNL     1      25.859  63.205  47.982  1.00  0.00    -0.353 OA
BRANCH  13  18
HETATM   18  O7  UNL     1      26.502  63.023  51.995  1.00  0.00    -0.393 OA
ATOM     19  H7  UNL     1      25.684  62.720  52.371  1.00  0.00     0.210 HD
ENDBRANCH  13  18
BRANCH  14  20
HETATM   20  O8  UNL     1      28.044  62.222  50.090  1.00  0.00    -0.390 OA
ATOM     21  H8  UNL     1      28.708  62.302  50.765  1.00  0.00     0.210 HD
ENDBRANCH  14  20
ENDBRANCH  10  11
ENDBRANCH   8  10
ENDBRANCH   4   8
BRANCH   5  22
HETATM   22  C21 UNL     1      21.424  66.011  45.860  1.00  0.00     0.006 C 
HETATM   23  C22 UNL     1      22.191  67.056  45.605  1.00  0.00     0.127 C 
BRANCH  23  24
HETATM   24  O10 UNL     1      22.798  67.224  44.351  1.00  0.00    -0.373 OA
ATOM     25  H10 UNL     1      23.736  67.355  44.271  1.00  0.00     0.216 HD
ENDBRANCH  23  24
ENDBRANCH   5  22
BRANCH   2  26
HETATM   26  O3  UNL     1      18.853  66.446  49.343  1.00  0.00    -0.395 OA
ATOM     27  H3  UNL     1      19.663  66.868  49.603  1.00  0.00     0.210 HD
ENDBRANCH   2  26
BRANCH   1  28
HETATM   28  C8  UNL     1      18.522  66.654  46.453  1.00  0.00     0.035 C 
BRANCH  28  29
HETATM   29  C7  UNL     1      17.690  66.167  45.324  1.00  0.00    -0.030 C 
HETATM   30  C6  UNL     1      16.534  65.580  45.497  1.00  0.00    -0.031 C 
BRANCH  30  31
HETATM   31  C5  UNL     1      15.597  65.045  44.524  1.00  0.00     0.027 C 
BRANCH  31  32
HETATM   32  C4  UNL     1      15.794  63.677  44.008  1.00  0.00     0.013 C 
BRANCH  32  33
HETATM   33  C3  UNL     1      16.232  63.524  42.598  1.00  0.00     0.111 C 
BRANCH  33  34
HETATM   34  C2  UNL     1      17.522  62.789  42.479  1.00  0.00     0.258 C 
HETATM   35  O2  UNL     1      17.947  62.497  41.318  1.00  0.00    -0.265 OA
BRANCH  34  36
HETATM   36  O1  UNL     1      18.276  62.406  43.541  1.00  0.00    -0.326 OA
HETATM   37  C1  UNL     1      19.419  63.055  44.042  1.00  0.00     0.213 C 
ENDBRANCH  34  36
ENDBRANCH  33  34
ENDBRANCH  32  33
ENDBRANCH  31  32
ENDBRANCH  30  31
ENDBRANCH  28  29
ENDBRANCH   1  28
TORSDOF 16
ENDMDL
MODEL 4
REMARK VINA RESULT: -7.636877264      3.027      5.290
REMARK  16 active torsions:
REMARK  status: ('A' for Active; 'I' for Inactive)
REMARK    1  A    between atoms: O1_2  and  C2_3 
REMARK    2  A    between atoms: C2_3  and  C3_5 
REMARK    3  A    between atoms: C3_5  and  C4_6 
REMARK    4  A    between atoms: C4_6  and  C5_7 
REMARK    5  A    between atoms: C5_7  and  C6_8 
REMARK    6  A    between atoms: C7_9  and  C8_10 
REMARK    7  A    between atoms: C8_10  and  C9_11 
REMARK    8  A    between atoms: C10_12  and  O3_13 
REMARK    9  A    between atoms: C12_16  and  O4_17 
REMARK   10  A    between atoms: C12_16  and  C13_19 
REMARK   11  A    between atoms: C13_19  and  O6_21 
REMARK   12  A    between atoms: O6_21  and  C14_22 
REMARK   13  A    between atoms: C16_24  and  O7_25 
REMARK   14  A    between atoms: C17_27  and  O8_28 
REMARK   15  A    between atoms: C20_33  and  C21_34 
REMARK   16  A    between atoms: C22_35  and  O10_36 
ROOT
HETATM    1  C9  UNL     1      19.373  66.618  47.900  1.00  0.00     0.029 C 
HETATM    2  C10 UNL     1      19.670  67.759  46.994  1.00  0.00     0.126 C 
HETATM    3  C11 UNL     1      21.147  67.595  46.693  1.00  0.00     0.081 C 
HETATM    4  C12 UNL     1      21.585  66.290  47.333  1.00  0.00     0.155 C 
HETATM    5  C20 UNL     1      20.274  65.534  47.348  1.00  0.00     0.061 C 
ENDROOT
BRANCH   4   6
HETATM    6  O4  UNL     1      22.022  66.553  48.620  1.00  0.00    -0.379 OA
ATOM      7  H4  UNL     1      21.787  65.820  49.177  1.00  0.00     0.211 HD
ENDBRANCH   4   6
BRANCH   4   8
HETATM    8  C13 UNL     1      22.643  65.624  46.571  1.00  0.00     0.296 C 
HETATM    9  O5  UNL     1      23.010  66.130  45.481  1.00  0.00    -0.262 OA
BRANCH   8  10
HETATM   10  O6  UNL     1      23.280  64.466  46.963  1.00  0.00    -0.287 OA
BRANCH  10  11
HETATM   11  C14 UNL     1      24.472  64.406  47.691  1.00  0.00     0.272 C 
HETATM   12  C15 UNL     1      25.601  65.194  47.062  1.00  0.00     0.095 C 
HETATM   13  C16 UNL     1      26.889  64.608  47.650  1.00  0.00     0.154 C 
HETATM   14  C17 UNL     1      26.806  64.640  49.141  1.00  0.00     0.175 C 
HETATM   15  C18 UNL     1      25.467  64.351  49.723  1.00  0.00     0.151 C 
HETATM   16  C19 UNL     1      25.361  62.886  50.107  1.00  0.00     0.042 C 
HETATM   17  O9  UNL     1      24.384  64.788  49.001  1.00  0.00    -0.353 OA
BRANCH  13  18
HETATM   18  O7  UNL     1      27.995  65.360  47.219  1.00  0.00    -0.393 OA
ATOM     19  H7  UNL     1      28.799  64.888  47.404  1.00  0.00     0.210 HD
ENDBRANCH  13  18
BRANCH  14  20
HETATM   20  O8  UNL     1      27.327  65.826  49.665  1.00  0.00    -0.390 OA
ATOM     21  H8  UNL     1      26.964  66.023  50.521  1.00  0.00     0.210 HD
ENDBRANCH  14  20
ENDBRANCH  10  11
ENDBRANCH   8  10
ENDBRANCH   4   8
BRANCH   5  22
HETATM   22  C21 UNL     1      20.306  64.330  48.167  1.00  0.00     0.006 C 
HETATM   23  C22 UNL     1      20.278  63.143  47.588  1.00  0.00     0.127 C 
BRANCH  23  24
HETATM   24  O10 UNL     1      20.308  61.962  48.346  1.00  0.00    -0.373 OA
ATOM     25  H10 UNL     1      20.370  61.110  47.930  1.00  0.00     0.216 HD
ENDBRANCH  23  24
ENDBRANCH   5  22
BRANCH   2  26
HETATM   26  O3  UNL     1      19.014  67.722  45.768  1.00  0.00    -0.395 OA
ATOM     27  H3  UNL     1      19.488  67.279  45.073  1.00  0.00     0.210 HD
ENDBRANCH   2  26
BRANCH   1  28
HETATM   28  C8  UNL     1      17.942  66.223  48.028  1.00  0.00     0.035 C 
BRANCH  28  29
HETATM   29  C7  UNL     1      17.371  65.608  46.804  1.00  0.00    -0.030 C 
HETATM   30  C6  UNL     1      16.089  65.400  46.648  1.00  0.00    -0.031 C 
BRANCH  30  31
HETATM   31  C5  UNL     1      15.361  64.816  45.534  1.00  0.00     0.027 C 
BRANCH  31  32
HETATM   32  C4  UNL     1      15.991  64.776  44.201  1.00  0.00     0.013 C 
BRANCH  32  33
HETATM   33  C3  UNL     1      16.861  63.618  43.879  1.00  0.00     0.111 C 
BRANCH  33  34
HETATM   34  C2  UNL     1      16.685  63.144  42.478  1.00  0.00     0.258 C 
HETATM   35  O2  UNL     1      15.556  63.311  41.921  1.00  0.00    -0.265 OA
BRANCH  34  36
HETATM   36  O1  UNL     1      17.661  62.537  41.756  1.00  0.00    -0.326 OA
HETATM   37  C1  UNL     1      18.021  62.814  40.425  1.00  0.00     0.213 C 
ENDBRANCH  34  36
ENDBRANCH  33  34
ENDBRANCH  32  33
ENDBRANCH  31  32
ENDBRANCH  30  31
ENDBRANCH  28  29
ENDBRANCH   1  28
TORSDOF 16
ENDMDL
MODEL 5
REMARK VINA RESULT: -7.606883628      2.794      4.615
REMARK  16 active torsions:
REMARK  status: ('A' for Active; 'I' for Inactive)
REMARK    1  A    between atoms: O1_2  and  C2_3 
REMARK    2  A    between atoms: C2_3  and  C3_5 
REMARK    3  A    between atoms: C3_5  and  C4_6 
REMARK    4  A    between atoms: C4_6  and  C5_7 
REMARK    5  A    between atoms: C5_7  and  C6_8 
REMARK    6  A    between atoms: C7_9  and  C8_10 
REMARK    7  A    between atoms: C8_10  and  C9_11 
REMARK    8  A    between atoms: C10_12  and  O3_13 
REMARK    9  A    between atoms: C12_16  and  O4_17 
REMARK   10  A    between atoms: C12_16  and  C13_19 
REMARK   11  A    between atoms: C13_19  and  O6_21 
REMARK   12  A    between atoms: O6_21  and  C14_22 
REMARK   13  A    between atoms: C16_24  and  O7_25 
REMARK   14  A    between atoms: C17_27  and  O8_28 
REMARK   15  A    between atoms: C20_33  and  C21_34 
REMARK   16  A    between atoms: C22_35  and  O10_36 
ROOT
HETATM    1  C9  UNL     1      19.230  64.795  48.036  1.00  0.00     0.029 C 
HETATM    2  C10 UNL     1      19.718  63.683  48.893  1.00  0.00     0.126 C 
HETATM    3  C11 UNL     1      20.807  63.042  48.055  1.00  0.00     0.081 C 
HETATM    4  C12 UNL     1      20.976  63.906  46.819  1.00  0.00     0.155 C 
HETATM    5  C20 UNL     1      20.501  65.243  47.347  1.00  0.00     0.061 C 
ENDROOT
BRANCH   4   6
HETATM    6  O4  UNL     1      20.131  63.434  45.828  1.00  0.00    -0.379 OA
ATOM      7  H4  UNL     1      19.766  62.604  46.111  1.00  0.00     0.211 HD
ENDBRANCH   4   6
BRANCH   4   8
HETATM    8  C13 UNL     1      22.358  63.920  46.335  1.00  0.00     0.296 C 
HETATM    9  O5  UNL     1      22.740  62.993  45.577  1.00  0.00    -0.262 OA
BRANCH   8  10
HETATM   10  O6  UNL     1      23.288  64.887  46.650  1.00  0.00    -0.287 OA
BRANCH  10  11
HETATM   11  C14 UNL     1      24.424  64.687  47.440  1.00  0.00     0.272 C 
HETATM   12  C15 UNL     1      25.659  65.381  46.905  1.00  0.00     0.095 C 
HETATM   13  C16 UNL     1      26.848  64.653  47.541  1.00  0.00     0.154 C 
HETATM   14  C17 UNL     1      26.681  64.644  49.025  1.00  0.00     0.175 C 
HETATM   15  C18 UNL     1      25.289  64.469  49.521  1.00  0.00     0.151 C 
HETATM   16  C19 UNL     1      25.019  63.010  49.843  1.00  0.00     0.042 C 
HETATM   17  O9  UNL     1      24.296  65.033  48.757  1.00  0.00    -0.353 OA
BRANCH  13  18
HETATM   18  O7  UNL     1      28.045  65.306  47.200  1.00  0.00    -0.393 OA
ATOM     19  H7  UNL     1      28.522  65.537  47.988  1.00  0.00     0.210 HD
ENDBRANCH  13  18
BRANCH  14  20
HETATM   20  O8  UNL     1      27.282  65.757  49.622  1.00  0.00    -0.390 OA
ATOM     21  H8  UNL     1      26.640  66.332  50.022  1.00  0.00     0.210 HD
ENDBRANCH  14  20
ENDBRANCH  10  11
ENDBRANCH   8  10
ENDBRANCH   4   8
BRANCH   5  22
HETATM   22  C21 UNL     1      20.278  66.235  46.303  1.00  0.00     0.006 C 
HETATM   23  C22 UNL     1      20.883  67.407  46.375  1.00  0.00     0.127 C 
BRANCH  23  24
HETATM   24  O10 UNL     1      20.692  68.387  45.388  1.00  0.00    -0.373 OA
ATOM     25  H10 UNL     1      20.459  69.279  45.617  1.00  0.00     0.216 HD
ENDBRANCH  23  24
ENDBRANCH   5  22
BRANCH   2  26
HETATM   26  O3  UNL     1      20.322  64.080  50.082  1.00  0.00    -0.395 OA
ATOM     27  H3  UNL     1      21.014  63.506  50.391  1.00  0.00     0.210 HD
ENDBRANCH   2  26
BRANCH   1  28
HETATM   28  C8  UNL     1      18.483  65.887  48.721  1.00  0.00     0.035 C 
BRANCH  28  29
HETATM   29  C7  UNL     1      17.145  66.164  48.140  1.00  0.00    -0.030 C 
HETATM   30  C6  UNL     1      16.427  65.247  47.546  1.00  0.00    -0.031 C 
BRANCH  30  31
HETATM   31  C5  UNL     1      15.116  65.336  46.925  1.00  0.00     0.027 C 
BRANCH  31  32
HETATM   32  C4  UNL     1      14.881  64.664  45.633  1.00  0.00     0.013 C 
BRANCH  32  33
HETATM   33  C3  UNL     1      15.639  65.146  44.452  1.00  0.00     0.111 C 
BRANCH  33  34
HETATM   34  C2  UNL     1      16.462  64.073  43.826  1.00  0.00     0.258 C 
HETATM   35  O2  UNL     1      17.572  63.770  44.364  1.00  0.00    -0.265 OA
BRANCH  34  36
HETATM   36  O1  UNL     1      16.097  63.396  42.707  1.00  0.00    -0.326 OA
HETATM   37  C1  UNL     1      16.950  62.914  41.698  1.00  0.00     0.213 C 
ENDBRANCH  34  36
ENDBRANCH  33  34
ENDBRANCH  32  33
ENDBRANCH  31  32
ENDBRANCH  30  31
ENDBRANCH  28  29
ENDBRANCH   1  28
TORSDOF 16
ENDMDL
