MODEL 1
REMARK VINA RESULT: -9.249863394      0.000      0.000
REMARK  10 active torsions:
REMARK  status: ('A' for Active; 'I' for Inactive)
REMARK    1  A    between atoms: C2_3  and  C3_4 
REMARK    2  A    between atoms: C2_3  and  N7_22 
REMARK    3  A    between atoms: C3_4  and  C4_5 
REMARK    4  A    between atoms: C4_5  and  C5_6 
REMARK    5  A    between atoms: C5_6  and  N2_7 
REMARK    6  A    between atoms: N2_7  and  C6_9 
REMARK    7  A    between atoms: C7_14  and  N5_15 
REMARK    8  A    between atoms: N7_22  and  C9_24 
REMARK    9  A    between atoms: C9_24  and  C10_26 
REMARK   10  A    between atoms: C14_34  and  N11_35 
ROOT
HETATM    1  N1  UNL     1     125.145  40.836  22.335  1.00  0.00    -0.195 NA
HETATM    2  C1  UNL     1     124.854  41.239  21.266  1.00  0.00     0.084 C 
HETATM    3  C2  UNL     1     124.474  41.712  19.949  1.00  0.00     0.190 C 
ENDROOT
BRANCH   3   4
HETATM    4  C3  UNL     1     125.318  41.076  18.898  1.00  0.00     0.042 C 
BRANCH   4   5
HETATM    5  C4  UNL     1     125.004  39.617  18.720  1.00  0.00     0.023 C 
BRANCH   5   6
HETATM    6  C5  UNL     1     126.024  38.896  17.887  1.00  0.00     0.121 C 
BRANCH   6   7
HETATM    7  N2  UNL     1     126.988  38.176  18.655  1.00  0.00    -0.371 N 
ATOM      8  H2  UNL     1     126.706  37.667  19.493  1.00  0.00     0.161 HD
BRANCH   7   9
HETATM    9  C6  UNL     1     128.217  38.178  18.278  1.00  0.00     0.186 A 
HETATM   10  N3  UNL     1     128.924  39.317  18.230  1.00  0.00    -0.267 N 
HETATM   11  N4  UNL     1     130.194  39.336  17.843  1.00  0.00    -0.131 N 
ATOM     12  H3  UNL     1     128.475  40.191  18.499  1.00  0.00     0.189 HD
HETATM   13  C7  UNL     1     130.825  38.211  17.479  1.00  0.00     0.693 A 
ATOM     14  H4  UNL     1     130.698  40.223  17.822  1.00  0.00     0.205 HD
HETATM   15  N6  UNL     1     130.149  37.049  17.512  1.00  0.00    -0.152 N 
HETATM   16  C8  UNL     1     128.857  37.014  17.905  1.00  0.00     0.304 A 
ATOM     17  H6  UNL     1     130.617  36.184  17.238  1.00  0.00     0.188 HD
HETATM   18  O1  UNL     1     128.273  35.902  17.918  1.00  0.00    -0.263 OA
BRANCH  13  19
HETATM   19  N5  UNL     1     132.054  38.277  17.111  1.00  0.00    -0.233 N 
ATOM     20  H52 UNL     1     132.804  37.831  17.639  1.00  0.00     0.174 HD
ATOM     21  H51 UNL     1     132.290  38.792  16.262  1.00  0.00     0.174 HD
ENDBRANCH  13  19
ENDBRANCH   7   9
ENDBRANCH   6   7
ENDBRANCH   5   6
ENDBRANCH   4   5
ENDBRANCH   3   4
BRANCH   3  22
HETATM   22  N7  UNL     1     124.359  43.131  19.905  1.00  0.00    -0.361 N 
ATOM     23  H7  UNL     1     125.258  43.612  19.937  1.00  0.00     0.162 HD
BRANCH  22  24
HETATM   24  C9  UNL     1     123.401  43.893  19.837  1.00  0.00     0.124 C 
HETATM   25  N8  UNL     1     123.510  44.752  18.639  1.00  0.00    -0.082 NA
BRANCH  24  26
HETATM   26  C10 UNL     1     122.231  44.147  20.600  1.00  0.00     0.025 A 
HETATM   27  C11 UNL     1     122.238  45.236  21.510  1.00  0.00     0.033 A 
HETATM   28  C12 UNL     1     121.180  45.574  22.288  1.00  0.00     0.090 A 
HETATM   29  N9  UNL     1     120.061  44.864  22.218  1.00  0.00    -0.351 N 
HETATM   30  C13 UNL     1     120.003  43.824  21.372  1.00  0.00     0.137 A 
ATOM     31  H9  UNL     1     119.257  45.105  22.798  1.00  0.00     0.166 HD
HETATM   32  N10 UNL     1     118.852  43.103  21.304  1.00  0.00    -0.176 N 
HETATM   33  C16 UNL     1     121.057  43.428  20.547  1.00  0.00     0.090 A 
HETATM   34  C14 UNL     1     118.690  42.052  20.495  1.00  0.00     0.680 A 
ATOM     35  H10 UNL     1     118.072  43.379  21.901  1.00  0.00     0.186 HD
HETATM   36  N12 UNL     1     119.712  41.696  19.717  1.00  0.00    -0.155 N 
HETATM   37  C15 UNL     1     120.905  42.356  19.715  1.00  0.00     0.274 A 
ATOM     38  H12 UNL     1     119.596  40.894  19.097  1.00  0.00     0.187 HD
HETATM   39  O2  UNL     1     121.789  41.951  18.960  1.00  0.00    -0.267 OA
BRANCH  34  40
HETATM   40  N11 UNL     1     117.554  41.407  20.484  1.00  0.00    -0.234 N 
ATOM     41 2H11 UNL     1     116.987  41.296  21.324  1.00  0.00     0.174 HD
ATOM     42 1H11 UNL     1     117.210  40.996  19.616  1.00  0.00     0.174 HD
ENDBRANCH  34  40
ENDBRANCH  24  26
ENDBRANCH  22  24
ENDBRANCH   3  22
TORSDOF 10
ENDMDL
MODEL 2
REMARK VINA RESULT: -9.024808757      1.365      2.636
REMARK  10 active torsions:
REMARK  status: ('A' for Active; 'I' for Inactive)
REMARK    1  A    between atoms: C2_3  and  C3_4 
REMARK    2  A    between atoms: C2_3  and  N7_22 
REMARK    3  A    between atoms: C3_4  and  C4_5 
REMARK    4  A    between atoms: C4_5  and  C5_6 
REMARK    5  A    between atoms: C5_6  and  N2_7 
REMARK    6  A    between atoms: N2_7  and  C6_9 
REMARK    7  A    between atoms: C7_14  and  N5_15 
REMARK    8  A    between atoms: N7_22  and  C9_24 
REMARK    9  A    between atoms: C9_24  and  C10_26 
REMARK   10  A    between atoms: C14_34  and  N11_35 
ROOT
HETATM    1  N1  UNL     1     124.923  40.838  21.976  1.00  0.00    -0.195 NA
HETATM    2  C1  UNL     1     124.694  41.016  20.835  1.00  0.00     0.084 C 
HETATM    3  C2  UNL     1     124.397  41.208  19.428  1.00  0.00     0.190 C 
ENDROOT
BRANCH   3   4
HETATM    4  C3  UNL     1     125.515  40.704  18.581  1.00  0.00     0.042 C 
BRANCH   4   5
HETATM    5  C4  UNL     1     125.489  39.208  18.434  1.00  0.00     0.023 C 
BRANCH   5   6
HETATM    6  C5  UNL     1     126.721  38.664  17.769  1.00  0.00     0.121 C 
BRANCH   6   7
HETATM    7  N2  UNL     1     127.549  37.891  18.639  1.00  0.00    -0.371 N 
ATOM      8  H2  UNL     1     127.175  37.516  19.511  1.00  0.00     0.161 HD
BRANCH   7   9
HETATM    9  C6  UNL     1     128.773  37.676  18.310  1.00  0.00     0.186 A 
HETATM   10  N3  UNL     1     129.456  38.561  17.569  1.00  0.00    -0.267 N 
HETATM   11  N4  UNL     1     130.720  38.354  17.220  1.00  0.00    -0.131 N 
ATOM     12  H3  UNL     1     128.992  39.416  17.264  1.00  0.00     0.189 HD
HETATM   13  C7  UNL     1     131.369  37.243  17.596  1.00  0.00     0.693 A 
ATOM     14  H4  UNL     1     131.206  39.053  16.657  1.00  0.00     0.205 HD
HETATM   15  N6  UNL     1     130.718  36.331  18.339  1.00  0.00    -0.152 N 
HETATM   16  C8  UNL     1     129.432  36.529  18.702  1.00  0.00     0.304 A 
ATOM     17  H6  UNL     1     131.200  35.480  18.631  1.00  0.00     0.188 HD
HETATM   18  O1  UNL     1     128.871  35.646  19.396  1.00  0.00    -0.263 OA
BRANCH  13  19
HETATM   19  N5  UNL     1     132.592  37.084  17.235  1.00  0.00    -0.233 N 
ATOM     20  H52 UNL     1     132.884  37.155  16.260  1.00  0.00     0.174 HD
ATOM     21  H51 UNL     1     133.296  36.880  17.945  1.00  0.00     0.174 HD
ENDBRANCH  13  19
ENDBRANCH   7   9
ENDBRANCH   6   7
ENDBRANCH   5   6
ENDBRANCH   4   5
ENDBRANCH   3   4
BRANCH   3  22
HETATM   22  N7  UNL     1     123.933  42.527  19.156  1.00  0.00    -0.361 N 
ATOM     23  H7  UNL     1     124.685  43.204  19.031  1.00  0.00     0.162 HD
BRANCH  22  24
HETATM   24  C9  UNL     1     122.814  43.015  19.043  1.00  0.00     0.124 C 
HETATM   25  N8  UNL     1     122.594  43.481  17.658  1.00  0.00    -0.082 NA
BRANCH  24  26
HETATM   26  C10 UNL     1     121.696  43.235  19.889  1.00  0.00     0.025 A 
HETATM   27  C11 UNL     1     120.564  42.390  19.752  1.00  0.00     0.033 A 
HETATM   28  C12 UNL     1     119.443  42.506  20.506  1.00  0.00     0.090 A 
HETATM   29  N9  UNL     1     119.369  43.453  21.432  1.00  0.00    -0.351 N 
HETATM   30  C13 UNL     1     120.414  44.278  21.603  1.00  0.00     0.137 A 
ATOM     31  H9  UNL     1     118.532  43.553  22.007  1.00  0.00     0.166 HD
HETATM   32  N10 UNL     1     120.333  45.244  22.556  1.00  0.00    -0.176 N 
HETATM   33  C16 UNL     1     121.593  44.209  20.859  1.00  0.00     0.090 A 
HETATM   34  C14 UNL     1     121.315  46.113  22.807  1.00  0.00     0.680 A 
ATOM     35  H10 UNL     1     119.478  45.308  23.108  1.00  0.00     0.186 HD
HETATM   36  N12 UNL     1     122.431  46.025  22.083  1.00  0.00    -0.155 N 
HETATM   37  C15 UNL     1     122.606  45.091  21.105  1.00  0.00     0.274 A 
ATOM     38  H12 UNL     1     123.186  46.686  22.268  1.00  0.00     0.187 HD
HETATM   39  O2  UNL     1     123.673  45.090  20.491  1.00  0.00    -0.267 OA
BRANCH  34  40
HETATM   40  N11 UNL     1     121.166  47.016  23.740  1.00  0.00    -0.234 N 
ATOM     41 2H11 UNL     1     120.620  47.865  23.587  1.00  0.00     0.174 HD
ATOM     42 1H11 UNL     1     121.601  46.883  24.652  1.00  0.00     0.174 HD
ENDBRANCH  34  40
ENDBRANCH  24  26
ENDBRANCH  22  24
ENDBRANCH   3  22
TORSDOF 10
ENDMDL
MODEL 3
REMARK VINA RESULT: -8.968963753      1.243      1.243
REMARK  10 active torsions:
REMARK  status: ('A' for Active; 'I' for Inactive)
REMARK    1  A    between atoms: C2_3  and  C3_4 
REMARK    2  A    between atoms: C2_3  and  N7_22 
REMARK    3  A    between atoms: C3_4  and  C4_5 
REMARK    4  A    between atoms: C4_5  and  C5_6 
REMARK    5  A    between atoms: C5_6  and  N2_7 
REMARK    6  A    between atoms: N2_7  and  C6_9 
REMARK    7  A    between atoms: C7_14  and  N5_15 
REMARK    8  A    between atoms: N7_22  and  C9_24 
REMARK    9  A    between atoms: C9_24  and  C10_26 
REMARK   10  A    between atoms: C14_34  and  N11_35 
ROOT
HETATM    1  N1  UNL     1     125.092  40.850  22.184  1.00  0.00    -0.195 NA
HETATM    2  C1  UNL     1     124.844  41.338  21.141  1.00  0.00     0.084 C 
HETATM    3  C2  UNL     1     124.520  41.914  19.850  1.00  0.00     0.190 C 
ENDROOT
BRANCH   3   4
HETATM    4  C3  UNL     1     125.490  41.461  18.813  1.00  0.00     0.042 C 
BRANCH   4   5
HETATM    5  C4  UNL     1     125.467  39.970  18.622  1.00  0.00     0.023 C 
BRANCH   5   6
HETATM    6  C5  UNL     1     126.812  39.403  18.270  1.00  0.00     0.121 C 
BRANCH   6   7
HETATM    7  N2  UNL     1     126.809  38.614  17.079  1.00  0.00    -0.371 N 
ATOM      8  H2  UNL     1     125.956  38.149  16.770  1.00  0.00     0.161 HD
BRANCH   7   9
HETATM    9  C6  UNL     1     127.896  38.498  16.403  1.00  0.00     0.186 A 
HETATM   10  N3  UNL     1     128.415  39.543  15.742  1.00  0.00    -0.267 N 
HETATM   11  N4  UNL     1     129.536  39.441  15.039  1.00  0.00    -0.131 N 
ATOM     12  H3  UNL     1     127.934  40.442  15.779  1.00  0.00     0.189 HD
HETATM   13  C7  UNL     1     130.200  38.279  14.960  1.00  0.00     0.693 A 
ATOM     14  H4  UNL     1     129.899  40.260  14.552  1.00  0.00     0.205 HD
HETATM   15  N6  UNL     1     129.712  37.207  15.609  1.00  0.00    -0.152 N 
HETATM   16  C8  UNL     1     128.572  37.298  16.328  1.00  0.00     0.304 A 
ATOM     17  H6  UNL     1     130.207  36.316  15.556  1.00  0.00     0.188 HD
HETATM   18  O1  UNL     1     128.159  36.266  16.915  1.00  0.00    -0.263 OA
BRANCH  13  19
HETATM   19  N5  UNL     1     131.282  38.225  14.268  1.00  0.00    -0.233 N 
ATOM     20  H52 UNL     1     131.273  38.080  13.259  1.00  0.00     0.174 HD
ATOM     21  H51 UNL     1     132.179  38.331  14.742  1.00  0.00     0.174 HD
ENDBRANCH  13  19
ENDBRANCH   7   9
ENDBRANCH   6   7
ENDBRANCH   5   6
ENDBRANCH   4   5
ENDBRANCH   3   4
BRANCH   3  22
HETATM   22  N7  UNL     1     124.284  43.316  19.936  1.00  0.00    -0.361 N 
ATOM     23  H7  UNL     1     125.132  43.861  20.092  1.00  0.00     0.162 HD
BRANCH  22  24
HETATM   24  C9  UNL     1     123.271  44.001  19.861  1.00  0.00     0.124 C 
HETATM   25  N8  UNL     1     123.299  44.831  18.639  1.00  0.00    -0.082 NA
BRANCH  24  26
HETATM   26  C10 UNL     1     122.096  44.189  20.635  1.00  0.00     0.025 A 
HETATM   27  C11 UNL     1     122.063  45.254  21.571  1.00  0.00     0.033 A 
HETATM   28  C12 UNL     1     120.996  45.529  22.362  1.00  0.00     0.090 A 
HETATM   29  N9  UNL     1     119.905  44.777  22.278  1.00  0.00    -0.351 N 
HETATM   30  C13 UNL     1     119.885  43.758  21.406  1.00  0.00     0.137 A 
ATOM     31  H9  UNL     1     119.095  44.971  22.867  1.00  0.00     0.166 HD
HETATM   32  N10 UNL     1     118.763  42.993  21.323  1.00  0.00    -0.176 N 
HETATM   33  C16 UNL     1     120.950  43.425  20.567  1.00  0.00     0.090 A 
HETATM   34  C14 UNL     1     118.640  41.958  20.489  1.00  0.00     0.680 A 
ATOM     35  H10 UNL     1     117.976  43.222  21.930  1.00  0.00     0.186 HD
HETATM   36  N12 UNL     1     119.672  41.662  19.699  1.00  0.00    -0.155 N 
HETATM   37  C15 UNL     1     120.838  42.369  19.709  1.00  0.00     0.274 A 
ATOM     38  H12 UNL     1     119.586  40.872  19.059  1.00  0.00     0.187 HD
HETATM   39  O2  UNL     1     121.733  42.019  18.941  1.00  0.00    -0.267 OA
BRANCH  34  40
HETATM   40  N11 UNL     1     117.530  41.267  20.465  1.00  0.00    -0.234 N 
ATOM     41 2H11 UNL     1     116.734  41.545  19.890  1.00  0.00     0.174 HD
ATOM     42 1H11 UNL     1     117.442  40.424  21.032  1.00  0.00     0.174 HD
ENDBRANCH  34  40
ENDBRANCH  24  26
ENDBRANCH  22  24
ENDBRANCH   3  22
TORSDOF 10
ENDMDL
MODEL 4
REMARK VINA RESULT: -8.921459244      3.215     10.194
REMARK  10 active torsions:
REMARK  status: ('A' for Active; 'I' for Inactive)
REMARK    1  A    between atoms: C2_3  and  C3_4 
REMARK    2  A    between atoms: C2_3  and  N7_22 
REMARK    3  A    between atoms: C3_4  and  C4_5 
REMARK    4  A    between atoms: C4_5  and  C5_6 
REMARK    5  A    between atoms: C5_6  and  N2_7 
REMARK    6  A    between atoms: N2_7  and  C6_9 
REMARK    7  A    between atoms: C7_14  and  N5_15 
REMARK    8  A    between atoms: N7_22  and  C9_24 
REMARK    9  A    between atoms: C9_24  and  C10_26 
REMARK   10  A    between atoms: C14_34  and  N11_35 
ROOT
HETATM    1  N1  UNL     1     125.850  38.201  17.784  1.00  0.00    -0.195 NA
HETATM    2  C1  UNL     1     126.217  39.318  17.851  1.00  0.00     0.084 C 
HETATM    3  C2  UNL     1     126.679  40.688  17.964  1.00  0.00     0.190 C 
ENDROOT
BRANCH   3   4
HETATM    4  C3  UNL     1     125.575  41.580  18.420  1.00  0.00     0.042 C 
BRANCH   4   5
HETATM    5  C4  UNL     1     124.619  40.878  19.344  1.00  0.00     0.023 C 
BRANCH   5   6
HETATM    6  C5  UNL     1     124.414  41.609  20.640  1.00  0.00     0.121 C 
BRANCH   6   7
HETATM    7  N2  UNL     1     123.622  42.790  20.514  1.00  0.00    -0.371 N 
ATOM      8  H2  UNL     1     124.065  43.707  20.464  1.00  0.00     0.161 HD
BRANCH   7   9
HETATM    9  C6  UNL     1     122.342  42.682  20.463  1.00  0.00     0.186 A 
HETATM   10  N3  UNL     1     121.629  42.384  21.560  1.00  0.00    -0.267 N 
HETATM   11  N4  UNL     1     120.307  42.270  21.526  1.00  0.00    -0.131 N 
ATOM     12  H3  UNL     1     122.116  42.242  22.445  1.00  0.00     0.189 HD
HETATM   13  C7  UNL     1     119.626  42.446  20.385  1.00  0.00     0.693 A 
ATOM     14  H4  UNL     1     119.801  42.044  22.382  1.00  0.00     0.205 HD
HETATM   15  N6  UNL     1     120.305  42.745  19.264  1.00  0.00    -0.152 N 
HETATM   16  C8  UNL     1     121.650  42.865  19.284  1.00  0.00     0.304 A 
ATOM     17  H6  UNL     1     119.799  42.881  18.388  1.00  0.00     0.188 HD
HETATM   18  O1  UNL     1     122.235  43.146  18.209  1.00  0.00    -0.263 OA
BRANCH  13  19
HETATM   19  N5  UNL     1     118.346  42.324  20.398  1.00  0.00    -0.233 N 
ATOM     20  H52 UNL     1     117.728  43.116  20.575  1.00  0.00     0.174 HD
ATOM     21  H51 UNL     1     117.934  41.407  20.226  1.00  0.00     0.174 HD
ENDBRANCH  13  19
ENDBRANCH   7   9
ENDBRANCH   6   7
ENDBRANCH   5   6
ENDBRANCH   4   5
ENDBRANCH   3   4
BRANCH   3  22
HETATM   22  N7  UNL     1     127.402  41.104  16.809  1.00  0.00    -0.361 N 
ATOM     23  H7  UNL     1     126.814  41.542  16.100  1.00  0.00     0.162 HD
BRANCH  22  24
HETATM   24  C9  UNL     1     128.584  41.043  16.494  1.00  0.00     0.124 C 
HETATM   25  N8  UNL     1     129.284  42.288  16.874  1.00  0.00    -0.082 NA
BRANCH  24  26
HETATM   26  C10 UNL     1     129.437  40.093  15.873  1.00  0.00     0.025 A 
HETATM   27  C11 UNL     1     130.142  39.175  16.693  1.00  0.00     0.033 A 
HETATM   28  C12 UNL     1     130.981  38.224  16.212  1.00  0.00     0.090 A 
HETATM   29  N9  UNL     1     131.173  38.122  14.902  1.00  0.00    -0.351 N 
HETATM   30  C13 UNL     1     130.528  38.965  14.083  1.00  0.00     0.137 A 
ATOM     31  H9  UNL     1     131.802  37.412  14.525  1.00  0.00     0.166 HD
HETATM   32  N10 UNL     1     130.728  38.852  12.742  1.00  0.00    -0.176 N 
HETATM   33  C16 UNL     1     129.654  39.963  14.518  1.00  0.00     0.090 A 
HETATM   34  C14 UNL     1     130.135  39.640  11.842  1.00  0.00     0.680 A 
ATOM     35  H10 UNL     1     131.364  38.129  12.407  1.00  0.00     0.186 HD
HETATM   36  N12 UNL     1     129.304  40.584  12.284  1.00  0.00    -0.155 N 
HETATM   37  C15 UNL     1     129.040  40.775  13.608  1.00  0.00     0.274 A 
ATOM     38  H12 UNL     1     128.847  41.190  11.602  1.00  0.00     0.187 HD
HETATM   39  O2  UNL     1     128.257  41.673  13.918  1.00  0.00    -0.267 OA
BRANCH  34  40
HETATM   40  N11 UNL     1     130.375  39.472  10.568  1.00  0.00    -0.234 N 
ATOM     41 2H11 UNL     1     129.948  38.716  10.033  1.00  0.00     0.174 HD
ATOM     42 1H11 UNL     1     131.007  40.108  10.081  1.00  0.00     0.174 HD
ENDBRANCH  34  40
ENDBRANCH  24  26
ENDBRANCH  22  24
ENDBRANCH   3  22
TORSDOF 10
ENDMDL
MODEL 5
REMARK VINA RESULT: -8.912400499      1.695      2.846
REMARK  10 active torsions:
REMARK  status: ('A' for Active; 'I' for Inactive)
REMARK    1  A    between atoms: C2_3  and  C3_4 
REMARK    2  A    between atoms: C2_3  and  N7_22 
REMARK    3  A    between atoms: C3_4  and  C4_5 
REMARK    4  A    between atoms: C4_5  and  C5_6 
REMARK    5  A    between atoms: C5_6  and  N2_7 
REMARK    6  A    between atoms: N2_7  and  C6_9 
REMARK    7  A    between atoms: C7_14  and  N5_15 
REMARK    8  A    between atoms: N7_22  and  C9_24 
REMARK    9  A    between atoms: C9_24  and  C10_26 
REMARK   10  A    between atoms: C14_34  and  N11_35 
ROOT
HETATM    1  N1  UNL     1     125.168  38.216  18.210  1.00  0.00    -0.195 NA
HETATM    2  C1  UNL     1     125.334  39.355  18.462  1.00  0.00     0.084 C 
HETATM    3  C2  UNL     1     125.517  40.765  18.748  1.00  0.00     0.190 C 
ENDROOT
BRANCH   3   4
HETATM    4  C3  UNL     1     126.648  41.321  17.953  1.00  0.00     0.042 C 
BRANCH   4   5
HETATM    5  C4  UNL     1     127.867  40.442  18.002  1.00  0.00     0.023 C 
BRANCH   5   6
HETATM    6  C5  UNL     1     128.195  39.820  16.676  1.00  0.00     0.121 C 
BRANCH   6   7
HETATM    7  N2  UNL     1     128.300  38.397  16.719  1.00  0.00    -0.371 N 
ATOM      8  H2  UNL     1     127.478  37.813  16.563  1.00  0.00     0.161 HD
BRANCH   7   9
HETATM    9  C6  UNL     1     129.444  37.861  16.957  1.00  0.00     0.186 A 
HETATM   10  N3  UNL     1     130.473  38.021  16.111  1.00  0.00    -0.267 N 
HETATM   11  N4  UNL     1     131.660  37.475  16.342  1.00  0.00    -0.131 N 
ATOM     12  H3  UNL     1     130.339  38.577  15.267  1.00  0.00     0.189 HD
HETATM   13  C7  UNL     1     131.881  36.735  17.437  1.00  0.00     0.693 A 
ATOM     14  H4  UNL     1     132.418  37.622  15.675  1.00  0.00     0.205 HD
HETATM   15  N6  UNL     1     130.875  36.551  18.310  1.00  0.00    -0.152 N 
HETATM   16  C8  UNL     1     129.661  37.101  18.088  1.00  0.00     0.304 A 
ATOM     17  H6  UNL     1     131.029  35.989  19.148  1.00  0.00     0.188 HD
HETATM   18  O1  UNL     1     128.756  36.898  18.935  1.00  0.00    -0.263 OA
BRANCH  13  19
HETATM   19  N5  UNL     1     133.047  36.226  17.620  1.00  0.00    -0.233 N 
ATOM     20  H52 UNL     1     133.808  36.358  16.954  1.00  0.00     0.174 HD
ATOM     21  H51 UNL     1     133.218  35.670  18.459  1.00  0.00     0.174 HD
ENDBRANCH  13  19
ENDBRANCH   7   9
ENDBRANCH   6   7
ENDBRANCH   5   6
ENDBRANCH   4   5
ENDBRANCH   3   4
BRANCH   3  22
HETATM   22  N7  UNL     1     125.530  41.027  20.148  1.00  0.00    -0.361 N 
ATOM     23  H7  UNL     1     125.798  40.219  20.709  1.00  0.00     0.162 HD
BRANCH  22  24
HETATM   24  C9  UNL     1     125.284  42.025  20.816  1.00  0.00     0.124 C 
HETATM   25  N8  UNL     1     125.961  41.946  22.128  1.00  0.00    -0.082 NA
BRANCH  24  26
HETATM   26  C10 UNL     1     124.533  43.218  20.648  1.00  0.00     0.025 A 
HETATM   27  C11 UNL     1     125.203  44.384  20.196  1.00  0.00     0.033 A 
HETATM   28  C12 UNL     1     124.588  45.576  19.998  1.00  0.00     0.090 A 
HETATM   29  N9  UNL     1     123.286  45.690  20.231  1.00  0.00    -0.351 N 
HETATM   30  C13 UNL     1     122.606  44.616  20.659  1.00  0.00     0.137 A 
ATOM     31  H9  UNL     1     122.810  46.581  20.088  1.00  0.00     0.166 HD
HETATM   32  N10 UNL     1     121.272  44.740  20.893  1.00  0.00    -0.176 N 
HETATM   33  C16 UNL     1     123.182  43.364  20.881  1.00  0.00     0.090 A 
HETATM   34  C14 UNL     1     120.505  43.733  21.318  1.00  0.00     0.680 A 
ATOM     35  H10 UNL     1     120.836  45.648  20.736  1.00  0.00     0.186 HD
HETATM   36  N12 UNL     1     121.080  42.548  21.522  1.00  0.00    -0.155 N 
HETATM   37  C15 UNL     1     122.409  42.326  21.315  1.00  0.00     0.274 A 
ATOM     38  H12 UNL     1     120.500  41.774  21.848  1.00  0.00     0.187 HD
HETATM   39  O2  UNL     1     122.847  41.196  21.531  1.00  0.00    -0.267 OA
BRANCH  34  40
HETATM   40  N11 UNL     1     119.228  43.927  21.523  1.00  0.00    -0.234 N 
ATOM     41 2H11 UNL     1     118.545  43.866  20.767  1.00  0.00     0.174 HD
ATOM     42 1H11 UNL     1     118.890  44.146  22.459  1.00  0.00     0.174 HD
ENDBRANCH  34  40
ENDBRANCH  24  26
ENDBRANCH  22  24
ENDBRANCH   3  22
TORSDOF 10
ENDMDL
