MODEL 1
REMARK VINA RESULT: -7.748135787      0.000      0.000
REMARK  11 active torsions:
REMARK  status: ('A' for Active; 'I' for Inactive)
REMARK    1  A    between atoms: C2_2  and  C7_15 
REMARK    2  A    between atoms: C3_3  and  C4_4 
REMARK    3  A    between atoms: C4_4  and  C5_5 
REMARK    4  A    between atoms: C5_5  and  C6_6 
REMARK    5  A    between atoms: C6_6  and  N1_7 
REMARK    6  A    between atoms: C6_6  and  N2_11 
REMARK    7  A    between atoms: C7_15  and  N3_16 
REMARK    8  A    between atoms: N3_16  and  C8_18 
REMARK    9  A    between atoms: C8_18  and  C9_22 
REMARK   10  A    between atoms: C13_31  and  N7_32 
REMARK   11  A    between atoms: C18_44  and  O2_45 
ROOT
HETATM    1  C9  UNL     1     123.723  42.689  20.722  1.00  0.00     0.309 C 
HETATM    2  N5  UNL     1     124.246  43.708  19.860  1.00  0.00    -0.055 N 
ATOM      3  H51 UNL     1     123.554  43.979  19.162  1.00  0.00     0.278 HD
ATOM      4  H52 UNL     1     124.965  43.326  19.246  1.00  0.00     0.278 HD
HETATM    5  C10 UNL     1     124.738  44.864  20.567  1.00  0.00     0.281 C 
HETATM    6  C11 UNL     1     123.685  45.509  21.391  1.00  0.00     0.080 A 
HETATM    7  C12 UNL     1     122.388  45.122  21.679  1.00  0.00     0.136 A 
HETATM    8  N6  UNL     1     121.571  45.860  22.458  1.00  0.00    -0.176 N 
ATOM      9  H6  UNL     1     120.618  45.554  22.658  1.00  0.00     0.186 HD
HETATM   10  C13 UNL     1     122.052  47.011  22.966  1.00  0.00     0.680 A 
HETATM   11  N8  UNL     1     123.304  47.416  22.707  1.00  0.00    -0.156 N 
ATOM     12  H8  UNL     1     123.634  48.293  23.109  1.00  0.00     0.187 HD
HETATM   13  C14 UNL     1     124.145  46.690  21.924  1.00  0.00     0.271 A 
HETATM   14  O1  UNL     1     125.306  47.130  21.723  1.00  0.00    -0.267 OA
HETATM   15  N9  UNL     1     121.727  43.970  21.246  1.00  0.00    -0.304 N 
HETATM   16  C15 UNL     1     120.292  43.851  21.068  1.00  0.00     0.401 C 
HETATM   17  N10 UNL     1     120.122  42.899  19.983  1.00  0.00     0.106 N 
HETATM   18  C16 UNL     1     119.138  41.910  20.334  1.00  0.00     0.312 C 
HETATM   19  C17 UNL     1     121.429  42.318  19.712  1.00  0.00     0.337 C 
HETATM   20  C18 UNL     1     122.256  42.677  20.880  1.00  0.00     0.199 C 
ENDROOT
BRANCH   1  21
HETATM   21  C8  UNL     1     124.238  41.357  20.337  1.00  0.00     0.107 C 
HETATM   22  N4  UNL     1     124.428  40.464  21.246  1.00  0.00    -0.387 N 
ATOM     23  H42 UNL     1     124.782  39.545  20.981  1.00  0.00     0.157 HD
ATOM     24  H41 UNL     1     124.222  40.719  22.212  1.00  0.00     0.157 HD
BRANCH  21  25
HETATM   25  N3  UNL     1     124.524  41.002  18.995  1.00  0.00    -0.374 N 
ATOM     26  H3  UNL     1     124.037  41.522  18.266  1.00  0.00     0.161 HD
BRANCH  25  27
HETATM   27  C7  UNL     1     125.439  39.975  18.565  1.00  0.00     0.154 C 
BRANCH  27  28
HETATM   28  C2  UNL     1     126.598  40.459  17.793  1.00  0.00    -0.070 C 
HETATM   29  C1  UNL     1     126.799  41.947  17.598  1.00  0.00     0.044 C 
HETATM   30  C3  UNL     1     127.470  39.687  17.228  1.00  0.00    -0.023 C 
BRANCH  30  31
HETATM   31  C4  UNL     1     127.468  38.224  17.290  1.00  0.00     0.031 C 
BRANCH  31  32
HETATM   32  C5  UNL     1     128.911  37.723  17.167  1.00  0.00     0.066 C 
BRANCH  32  33
HETATM   33  C6  UNL     1     129.251  37.042  18.476  1.00  0.00     0.378 C 
BRANCH  33  34
HETATM   34  N1  UNL     1     130.560  36.439  18.419  1.00  0.00    -0.051 N 
ATOM     35  H13 UNL     1     130.927  36.426  17.468  1.00  0.00     0.276 HD
ATOM     36  H12 UNL     1     131.268  37.034  18.850  1.00  0.00     0.276 HD
ATOM     37  H11 UNL     1     130.550  35.506  18.832  1.00  0.00     0.276 HD
ENDBRANCH  33  34
BRANCH  33  38
HETATM   38  N2  UNL     1     128.248  36.020  18.730  1.00  0.00    -0.051 N 
ATOM     39  H23 UNL     1     127.557  36.310  19.421  1.00  0.00     0.276 HD
ATOM     40  H22 UNL     1     127.611  35.890  17.944  1.00  0.00     0.276 HD
ATOM     41  H21 UNL     1     128.730  35.160  18.993  1.00  0.00     0.276 HD
ENDBRANCH  33  38
ENDBRANCH  32  33
ENDBRANCH  31  32
ENDBRANCH  30  31
ENDBRANCH  27  28
ENDBRANCH  25  27
ENDBRANCH  21  25
ENDBRANCH   1  21
BRANCH  20  42
HETATM   42  O2  UNL     1     121.951  41.775  21.924  1.00  0.00    -0.367 OA
ATOM     43  H2  UNL     1     122.014  40.896  21.568  1.00  0.00     0.212 HD
ENDBRANCH  20  42
BRANCH  10  44
HETATM   44  N7  UNL     1     121.238  47.697  23.712  1.00  0.00    -0.234 N 
ATOM     45  H72 UNL     1     121.121  48.706  23.611  1.00  0.00     0.174 HD
ATOM     46  H71 UNL     1     120.714  47.171  24.411  1.00  0.00     0.174 HD
ENDBRANCH  10  44
TORSDOF 11
ENDMDL
MODEL 2
REMARK VINA RESULT: -7.728383614      1.026      1.389
REMARK  11 active torsions:
REMARK  status: ('A' for Active; 'I' for Inactive)
REMARK    1  A    between atoms: C2_2  and  C7_15 
REMARK    2  A    between atoms: C3_3  and  C4_4 
REMARK    3  A    between atoms: C4_4  and  C5_5 
REMARK    4  A    between atoms: C5_5  and  C6_6 
REMARK    5  A    between atoms: C6_6  and  N1_7 
REMARK    6  A    between atoms: C6_6  and  N2_11 
REMARK    7  A    between atoms: C7_15  and  N3_16 
REMARK    8  A    between atoms: N3_16  and  C8_18 
REMARK    9  A    between atoms: C8_18  and  C9_22 
REMARK   10  A    between atoms: C13_31  and  N7_32 
REMARK   11  A    between atoms: C18_44  and  O2_45 
ROOT
HETATM    1  C9  UNL     1     123.729  42.747  20.727  1.00  0.00     0.309 C 
HETATM    2  N5  UNL     1     124.240  43.787  19.885  1.00  0.00    -0.055 N 
ATOM      3  H51 UNL     1     123.549  44.058  19.185  1.00  0.00     0.278 HD
ATOM      4  H52 UNL     1     124.971  43.428  19.271  1.00  0.00     0.278 HD
HETATM    5  C10 UNL     1     124.707  44.941  20.613  1.00  0.00     0.281 C 
HETATM    6  C11 UNL     1     123.636  45.556  21.437  1.00  0.00     0.080 A 
HETATM    7  C12 UNL     1     122.344  45.143  21.709  1.00  0.00     0.136 A 
HETATM    8  N6  UNL     1     121.508  45.854  22.493  1.00  0.00    -0.176 N 
ATOM      9  H6  UNL     1     120.559  45.529  22.680  1.00  0.00     0.186 HD
HETATM   10  C13 UNL     1     121.966  47.006  23.021  1.00  0.00     0.680 A 
HETATM   11  N8  UNL     1     123.212  47.436  22.779  1.00  0.00    -0.156 N 
ATOM     12  H8  UNL     1     123.524  48.313  23.196  1.00  0.00     0.187 HD
HETATM   13  C14 UNL     1     124.072  46.736  21.992  1.00  0.00     0.271 A 
HETATM   14  O1  UNL     1     125.226  47.199  21.807  1.00  0.00    -0.267 OA
HETATM   15  N9  UNL     1     121.707  43.985  21.254  1.00  0.00    -0.304 N 
HETATM   16  C15 UNL     1     120.275  43.845  21.062  1.00  0.00     0.401 C 
HETATM   17  N10 UNL     1     120.130  42.907  19.962  1.00  0.00     0.106 N 
HETATM   18  C16 UNL     1     119.161  41.896  20.290  1.00  0.00     0.312 C 
HETATM   19  C17 UNL     1     121.449  42.353  19.693  1.00  0.00     0.337 C 
HETATM   20  C18 UNL     1     122.261  42.708  20.873  1.00  0.00     0.199 C 
ENDROOT
BRANCH   1  21
HETATM   21  C8  UNL     1     124.270  41.430  20.326  1.00  0.00     0.107 C 
HETATM   22  N4  UNL     1     124.437  40.516  21.219  1.00  0.00    -0.387 N 
ATOM     23  H42 UNL     1     124.809  39.607  20.943  1.00  0.00     0.157 HD
ATOM     24  H41 UNL     1     124.196  40.744  22.183  1.00  0.00     0.157 HD
BRANCH  21  25
HETATM   25  N3  UNL     1     124.604  41.112  18.987  1.00  0.00    -0.374 N 
ATOM     26  H3  UNL     1     123.864  41.200  18.292  1.00  0.00     0.161 HD
BRANCH  25  27
HETATM   27  C7  UNL     1     125.895  40.677  18.514  1.00  0.00     0.154 C 
BRANCH  27  28
HETATM   28  C2  UNL     1     125.942  39.285  18.031  1.00  0.00    -0.070 C 
HETATM   29  C1  UNL     1     124.826  38.328  18.395  1.00  0.00     0.044 C 
HETATM   30  C3  UNL     1     126.906  38.793  17.319  1.00  0.00    -0.023 C 
BRANCH  30  31
HETATM   31  C4  UNL     1     128.077  39.539  16.855  1.00  0.00     0.031 C 
BRANCH  31  32
HETATM   32  C5  UNL     1     128.665  38.824  15.635  1.00  0.00     0.066 C 
BRANCH  32  33
HETATM   33  C6  UNL     1     129.598  37.754  16.162  1.00  0.00     0.378 C 
BRANCH  33  34
HETATM   34  N1  UNL     1     130.495  38.294  17.154  1.00  0.00    -0.051 N 
ATOM     35  H13 UNL     1     131.007  39.101  16.799  1.00  0.00     0.276 HD
ATOM     36  H12 UNL     1     129.987  38.753  17.911  1.00  0.00     0.276 HD
ATOM     37  H11 UNL     1     131.126  37.573  17.507  1.00  0.00     0.276 HD
ENDBRANCH  33  34
BRANCH  33  38
HETATM   38  N2  UNL     1     130.362  37.226  15.043  1.00  0.00    -0.051 N 
ATOM     39  H23 UNL     1     129.961  37.476  14.140  1.00  0.00     0.276 HD
ATOM     40  H22 UNL     1     131.263  37.692  14.926  1.00  0.00     0.276 HD
ATOM     41  H21 UNL     1     130.454  36.218  15.167  1.00  0.00     0.276 HD
ENDBRANCH  33  38
ENDBRANCH  32  33
ENDBRANCH  31  32
ENDBRANCH  30  31
ENDBRANCH  27  28
ENDBRANCH  25  27
ENDBRANCH  21  25
ENDBRANCH   1  21
BRANCH  20  42
HETATM   42  O2  UNL     1     121.963  41.785  21.901  1.00  0.00    -0.367 OA
ATOM     43  H2  UNL     1     121.163  42.076  22.321  1.00  0.00     0.212 HD
ENDBRANCH  20  42
BRANCH  10  44
HETATM   44  N7  UNL     1     121.134  47.666  23.771  1.00  0.00    -0.234 N 
ATOM     45  H72 UNL     1     120.123  47.621  23.639  1.00  0.00     0.174 HD
ATOM     46  H71 UNL     1     121.546  48.239  24.507  1.00  0.00     0.174 HD
ENDBRANCH  10  44
TORSDOF 11
ENDMDL
MODEL 3
REMARK VINA RESULT: -7.631972903      1.936      2.332
REMARK  11 active torsions:
REMARK  status: ('A' for Active; 'I' for Inactive)
REMARK    1  A    between atoms: C2_2  and  C7_15 
REMARK    2  A    between atoms: C3_3  and  C4_4 
REMARK    3  A    between atoms: C4_4  and  C5_5 
REMARK    4  A    between atoms: C5_5  and  C6_6 
REMARK    5  A    between atoms: C6_6  and  N1_7 
REMARK    6  A    between atoms: C6_6  and  N2_11 
REMARK    7  A    between atoms: C7_15  and  N3_16 
REMARK    8  A    between atoms: N3_16  and  C8_18 
REMARK    9  A    between atoms: C8_18  and  C9_22 
REMARK   10  A    between atoms: C13_31  and  N7_32 
REMARK   11  A    between atoms: C18_44  and  O2_45 
ROOT
HETATM    1  C9  UNL     1     123.681  42.791  20.716  1.00  0.00     0.309 C 
HETATM    2  N5  UNL     1     124.169  43.834  19.864  1.00  0.00    -0.055 N 
ATOM      3  H51 UNL     1     123.466  44.095  19.174  1.00  0.00     0.278 HD
ATOM      4  H52 UNL     1     124.895  43.480  19.241  1.00  0.00     0.278 HD
HETATM    5  C10 UNL     1     124.635  44.994  20.582  1.00  0.00     0.281 C 
HETATM    6  C11 UNL     1     123.570  45.600  21.420  1.00  0.00     0.080 A 
HETATM    7  C12 UNL     1     122.285  45.175  21.712  1.00  0.00     0.136 A 
HETATM    8  N6  UNL     1     121.454  45.880  22.505  1.00  0.00    -0.176 N 
ATOM      9  H6  UNL     1     120.511  45.546  22.706  1.00  0.00     0.186 HD
HETATM   10  C13 UNL     1     121.907  47.038  23.024  1.00  0.00     0.680 A 
HETATM   11  N8  UNL     1     123.146  47.480  22.762  1.00  0.00    -0.156 N 
ATOM     12  H8  UNL     1     123.454  48.361  23.173  1.00  0.00     0.187 HD
HETATM   13  C14 UNL     1     124.001  46.786  21.965  1.00  0.00     0.271 A 
HETATM   14  O1  UNL     1     125.148  47.261  21.762  1.00  0.00    -0.267 OA
HETATM   15  N9  UNL     1     121.654  44.010  21.268  1.00  0.00    -0.304 N 
HETATM   16  C15 UNL     1     120.221  43.855  21.098  1.00  0.00     0.401 C 
HETATM   17  N10 UNL     1     120.070  42.912  20.002  1.00  0.00     0.106 N 
HETATM   18  C16 UNL     1     119.116  41.892  20.347  1.00  0.00     0.312 C 
HETATM   19  C17 UNL     1     121.390  42.370  19.716  1.00  0.00     0.337 C 
HETATM   20  C18 UNL     1     122.215  42.737  20.883  1.00  0.00     0.199 C 
ENDROOT
BRANCH   1  21
HETATM   21  C8  UNL     1     124.229  41.478  20.312  1.00  0.00     0.107 C 
HETATM   22  N4  UNL     1     124.402  40.562  21.202  1.00  0.00    -0.387 N 
ATOM     23  H42 UNL     1     124.780  39.657  20.923  1.00  0.00     0.157 HD
ATOM     24  H41 UNL     1     124.160  40.786  22.167  1.00  0.00     0.157 HD
BRANCH  21  25
HETATM   25  N3  UNL     1     124.565  41.166  18.971  1.00  0.00    -0.374 N 
ATOM     26  H3  UNL     1     123.800  41.133  18.299  1.00  0.00     0.161 HD
BRANCH  25  27
HETATM   27  C7  UNL     1     125.888  40.892  18.469  1.00  0.00     0.154 C 
BRANCH  27  28
HETATM   28  C2  UNL     1     126.071  39.542  17.904  1.00  0.00    -0.070 C 
HETATM   29  C1  UNL     1     125.155  38.418  18.340  1.00  0.00     0.044 C 
HETATM   30  C3  UNL     1     126.999  39.226  17.059  1.00  0.00    -0.023 C 
BRANCH  30  31
HETATM   31  C4  UNL     1     127.988  40.154  16.505  1.00  0.00     0.031 C 
BRANCH  31  32
HETATM   32  C5  UNL     1     128.520  39.579  15.189  1.00  0.00     0.066 C 
BRANCH  32  33
HETATM   33  C6  UNL     1     128.857  40.758  14.301  1.00  0.00     0.378 C 
BRANCH  33  34
HETATM   34  N1  UNL     1     128.464  42.000  14.920  1.00  0.00    -0.051 N 
ATOM     35  H13 UNL     1     128.307  41.889  15.921  1.00  0.00     0.276 HD
ATOM     36  H12 UNL     1     129.238  42.664  14.957  1.00  0.00     0.276 HD
ATOM     37  H11 UNL     1     127.649  42.399  14.453  1.00  0.00     0.276 HD
ENDBRANCH  33  34
BRANCH  33  38
HETATM   38  N2  UNL     1     128.153  40.592  13.039  1.00  0.00    -0.051 N 
ATOM     39  H23 UNL     1     127.833  39.636  12.890  1.00  0.00     0.276 HD
ATOM     40  H22 UNL     1     127.239  41.045  13.036  1.00  0.00     0.276 HD
ATOM     41  H21 UNL     1     128.760  40.925  12.290  1.00  0.00     0.276 HD
ENDBRANCH  33  38
ENDBRANCH  32  33
ENDBRANCH  31  32
ENDBRANCH  30  31
ENDBRANCH  27  28
ENDBRANCH  25  27
ENDBRANCH  21  25
ENDBRANCH   1  21
BRANCH  20  42
HETATM   42  O2  UNL     1     121.942  41.814  21.918  1.00  0.00    -0.367 OA
ATOM     43  H2  UNL     1     122.468  42.063  22.668  1.00  0.00     0.212 HD
ENDBRANCH  20  42
BRANCH  10  44
HETATM   44  N7  UNL     1     121.079  47.692  23.783  1.00  0.00    -0.234 N 
ATOM     45  H72 UNL     1     120.273  47.248  24.224  1.00  0.00     0.174 HD
ATOM     46  H71 UNL     1     121.277  48.683  23.919  1.00  0.00     0.174 HD
ENDBRANCH  10  44
TORSDOF 11
ENDMDL
MODEL 4
REMARK VINA RESULT: -7.570621876      1.505      1.800
REMARK  11 active torsions:
REMARK  status: ('A' for Active; 'I' for Inactive)
REMARK    1  A    between atoms: C2_2  and  C7_15 
REMARK    2  A    between atoms: C3_3  and  C4_4 
REMARK    3  A    between atoms: C4_4  and  C5_5 
REMARK    4  A    between atoms: C5_5  and  C6_6 
REMARK    5  A    between atoms: C6_6  and  N1_7 
REMARK    6  A    between atoms: C6_6  and  N2_11 
REMARK    7  A    between atoms: C7_15  and  N3_16 
REMARK    8  A    between atoms: N3_16  and  C8_18 
REMARK    9  A    between atoms: C8_18  and  C9_22 
REMARK   10  A    between atoms: C13_31  and  N7_32 
REMARK   11  A    between atoms: C18_44  and  O2_45 
ROOT
HETATM    1  C9  UNL     1     124.736  42.043  20.311  1.00  0.00     0.309 C 
HETATM    2  N5  UNL     1     125.465  42.960  19.486  1.00  0.00    -0.055 N 
ATOM      3  H51 UNL     1     124.846  43.404  18.807  1.00  0.00     0.278 HD
ATOM      4  H52 UNL     1     126.082  42.457  18.848  1.00  0.00     0.278 HD
HETATM    5  C10 UNL     1     126.199  43.951  20.232  1.00  0.00     0.281 C 
HETATM    6  C11 UNL     1     125.313  44.774  21.094  1.00  0.00     0.080 A 
HETATM    7  C12 UNL     1     123.964  44.666  21.382  1.00  0.00     0.136 A 
HETATM    8  N6  UNL     1     123.329  45.529  22.200  1.00  0.00    -0.176 N 
ATOM      9  H6  UNL     1     122.333  45.430  22.398  1.00  0.00     0.186 HD
HETATM   10  C13 UNL     1     124.050  46.527  22.748  1.00  0.00     0.680 A 
HETATM   11  N8  UNL     1     125.360  46.661  22.491  1.00  0.00    -0.156 N 
ATOM     12  H8  UNL     1     125.873  47.428  22.924  1.00  0.00     0.187 HD
HETATM   13  C14 UNL     1     126.021  45.803  21.669  1.00  0.00     0.271 A 
HETATM   14  O1  UNL     1     127.249  45.989  21.472  1.00  0.00    -0.267 OA
HETATM   15  N9  UNL     1     123.067  43.703  20.911  1.00  0.00    -0.304 N 
HETATM   16  C15 UNL     1     121.640  43.907  20.745  1.00  0.00     0.401 C 
HETATM   17  N10 UNL     1     121.265  43.060  19.625  1.00  0.00     0.106 N 
HETATM   18  C16 UNL     1     120.090  42.294  19.948  1.00  0.00     0.312 C 
HETATM   19  C17 UNL     1     122.413  42.222  19.315  1.00  0.00     0.337 C 
HETATM   20  C18 UNL     1     123.302  42.343  20.487  1.00  0.00     0.199 C 
ENDROOT
BRANCH   1  21
HETATM   21  C8  UNL     1     124.948  40.648  19.867  1.00  0.00     0.107 C 
HETATM   22  N4  UNL     1     124.859  39.690  20.724  1.00  0.00    -0.387 N 
ATOM     23  H42 UNL     1     125.005  38.728  20.418  1.00  0.00     0.157 HD
ATOM     24  H41 UNL     1     124.654  39.936  21.692  1.00  0.00     0.157 HD
BRANCH  21  25
HETATM   25  N3  UNL     1     125.234  40.306  18.523  1.00  0.00    -0.374 N 
ATOM     26  H3  UNL     1     124.659  40.742  17.802  1.00  0.00     0.161 HD
BRANCH  25  27
HETATM   27  C7  UNL     1     126.262  39.398  18.077  1.00  0.00     0.154 C 
BRANCH  27  28
HETATM   28  C2  UNL     1     127.278  39.996  17.192  1.00  0.00    -0.070 C 
HETATM   29  C1  UNL     1     127.430  41.501  17.138  1.00  0.00     0.044 C 
HETATM   30  C3  UNL     1     128.056  39.315  16.414  1.00  0.00    -0.023 C 
BRANCH  30  31
HETATM   31  C4  UNL     1     128.079  37.855  16.309  1.00  0.00     0.031 C 
BRANCH  31  32
HETATM   32  C5  UNL     1     129.332  37.330  17.016  1.00  0.00     0.066 C 
BRANCH  32  33
HETATM   33  C6  UNL     1     130.512  37.676  16.130  1.00  0.00     0.378 C 
BRANCH  33  34
HETATM   34  N1  UNL     1     130.406  37.019  14.850  1.00  0.00    -0.051 N 
ATOM     35  H13 UNL     1     130.599  36.021  14.923  1.00  0.00     0.276 HD
ATOM     36  H12 UNL     1     129.438  36.967  14.532  1.00  0.00     0.276 HD
ATOM     37  H11 UNL     1     131.006  37.470  14.159  1.00  0.00     0.276 HD
ENDBRANCH  33  34
BRANCH  33  38
HETATM   38  N2  UNL     1     131.727  37.248  16.805  1.00  0.00    -0.051 N 
ATOM     39  H23 UNL     1     132.568  37.442  16.262  1.00  0.00     0.276 HD
ATOM     40  H22 UNL     1     131.950  37.824  17.617  1.00  0.00     0.276 HD
ATOM     41  H21 UNL     1     131.630  36.260  17.039  1.00  0.00     0.276 HD
ENDBRANCH  33  38
ENDBRANCH  32  33
ENDBRANCH  31  32
ENDBRANCH  30  31
ENDBRANCH  27  28
ENDBRANCH  25  27
ENDBRANCH  21  25
ENDBRANCH   1  21
BRANCH  20  42
HETATM   42  O2  UNL     1     122.811  41.485  21.497  1.00  0.00    -0.367 OA
ATOM     43  H2  UNL     1     122.910  40.594  21.186  1.00  0.00     0.212 HD
ENDBRANCH  20  42
BRANCH  10  44
HETATM   44  N7  UNL     1     123.407  47.341  23.531  1.00  0.00    -0.234 N 
ATOM     45  H72 UNL     1     123.794  47.672  24.415  1.00  0.00     0.174 HD
ATOM     46  H71 UNL     1     122.484  47.638  23.214  1.00  0.00     0.174 HD
ENDBRANCH  10  44
TORSDOF 11
ENDMDL
MODEL 5
REMARK VINA RESULT: -7.558711102      2.218      2.853
REMARK  11 active torsions:
REMARK  status: ('A' for Active; 'I' for Inactive)
REMARK    1  A    between atoms: C2_2  and  C7_15 
REMARK    2  A    between atoms: C3_3  and  C4_4 
REMARK    3  A    between atoms: C4_4  and  C5_5 
REMARK    4  A    between atoms: C5_5  and  C6_6 
REMARK    5  A    between atoms: C6_6  and  N1_7 
REMARK    6  A    between atoms: C6_6  and  N2_11 
REMARK    7  A    between atoms: C7_15  and  N3_16 
REMARK    8  A    between atoms: N3_16  and  C8_18 
REMARK    9  A    between atoms: C8_18  and  C9_22 
REMARK   10  A    between atoms: C13_31  and  N7_32 
REMARK   11  A    between atoms: C18_44  and  O2_45 
ROOT
HETATM    1  C9  UNL     1     125.398  41.528  20.265  1.00  0.00     0.309 C 
HETATM    2  N5  UNL     1     126.345  42.290  19.508  1.00  0.00    -0.055 N 
ATOM      3  H51 UNL     1     125.869  42.950  18.894  1.00  0.00     0.278 HD
ATOM      4  H52 UNL     1     126.800  41.705  18.806  1.00  0.00     0.278 HD
HETATM    5  C10 UNL     1     127.325  42.966  20.321  1.00  0.00     0.281 C 
HETATM    6  C11 UNL     1     126.702  43.908  21.283  1.00  0.00     0.080 A 
HETATM    7  C12 UNL     1     125.375  44.142  21.602  1.00  0.00     0.136 A 
HETATM    8  N6  UNL     1     125.003  45.060  22.517  1.00  0.00    -0.176 N 
ATOM      9  H6  UNL     1     124.019  45.215  22.736  1.00  0.00     0.186 HD
HETATM   10  C13 UNL     1     125.972  45.765  23.134  1.00  0.00     0.680 A 
HETATM   11  N8  UNL     1     127.267  45.564  22.850  1.00  0.00    -0.156 N 
ATOM     12  H8  UNL     1     127.972  46.117  23.337  1.00  0.00     0.187 HD
HETATM   13  C14 UNL     1     127.665  44.645  21.930  1.00  0.00     0.271 A 
HETATM   14  O1  UNL     1     128.897  44.510  21.714  1.00  0.00    -0.267 OA
HETATM   15  N9  UNL     1     124.248  43.510  21.070  1.00  0.00    -0.304 N 
HETATM   16  C15 UNL     1     122.929  44.108  20.969  1.00  0.00     0.401 C 
HETATM   17  N10 UNL     1     122.333  43.510  19.787  1.00  0.00     0.106 N 
HETATM   18  C16 UNL     1     120.995  43.063  20.072  1.00  0.00     0.312 C 
HETATM   19  C17 UNL     1     123.208  42.427  19.364  1.00  0.00     0.337 C 
HETATM   20  C18 UNL     1     124.101  42.187  20.513  1.00  0.00     0.199 C 
ENDROOT
BRANCH   1  21
HETATM   21  C8  UNL     1     125.220  40.179  19.686  1.00  0.00     0.107 C 
HETATM   22  N4  UNL     1     124.873  39.201  20.450  1.00  0.00    -0.387 N 
ATOM     23  H42 UNL     1     124.750  38.271  20.050  1.00  0.00     0.157 HD
ATOM     24  H41 UNL     1     124.744  39.397  21.442  1.00  0.00     0.157 HD
BRANCH  21  25
HETATM   25  N3  UNL     1     125.400  39.906  18.307  1.00  0.00    -0.374 N 
ATOM     26  H3  UNL     1     124.804  40.414  17.654  1.00  0.00     0.161 HD
BRANCH  25  27
HETATM   27  C7  UNL     1     126.347  38.978  17.741  1.00  0.00     0.154 C 
BRANCH  27  28
HETATM   28  C2  UNL     1     127.665  39.555  17.418  1.00  0.00    -0.070 C 
HETATM   29  C1  UNL     1     127.746  40.927  16.785  1.00  0.00     0.044 C 
HETATM   30  C3  UNL     1     128.792  38.949  17.616  1.00  0.00    -0.023 C 
BRANCH  30  31
HETATM   31  C4  UNL     1     128.944  37.622  18.216  1.00  0.00     0.031 C 
BRANCH  31  32
HETATM   32  C5  UNL     1     130.294  37.040  17.788  1.00  0.00     0.066 C 
BRANCH  32  33
HETATM   33  C6  UNL     1     130.678  37.728  16.494  1.00  0.00     0.378 C 
BRANCH  33  34
HETATM   34  N1  UNL     1     130.295  36.933  15.353  1.00  0.00    -0.051 N 
ATOM     35  H13 UNL     1     131.094  36.724  14.755  1.00  0.00     0.276 HD
ATOM     36  H12 UNL     1     130.051  35.980  15.624  1.00  0.00     0.276 HD
ATOM     37  H11 UNL     1     129.542  37.382  14.832  1.00  0.00     0.276 HD
ENDBRANCH  33  34
BRANCH  33  38
HETATM   38  N2  UNL     1     132.119  37.926  16.496  1.00  0.00    -0.051 N 
ATOM     39  H23 UNL     1     132.634  37.069  16.297  1.00  0.00     0.276 HD
ATOM     40  H22 UNL     1     132.442  38.470  15.695  1.00  0.00     0.276 HD
ATOM     41  H21 UNL     1     132.382  38.345  17.388  1.00  0.00     0.276 HD
ENDBRANCH  33  38
ENDBRANCH  32  33
ENDBRANCH  31  32
ENDBRANCH  30  31
ENDBRANCH  27  28
ENDBRANCH  25  27
ENDBRANCH  21  25
ENDBRANCH   1  21
BRANCH  20  42
HETATM   42  O2  UNL     1     123.399  41.398  21.453  1.00  0.00    -0.367 OA
ATOM     43  H2  UNL     1     123.827  41.510  22.294  1.00  0.00     0.212 HD
ENDBRANCH  20  42
BRANCH  10  44
HETATM   44  N7  UNL     1     125.578  46.642  24.009  1.00  0.00    -0.234 N 
ATOM     45  H72 UNL     1     125.139  46.375  24.891  1.00  0.00     0.174 HD
ATOM     46  H71 UNL     1     125.732  47.621  23.769  1.00  0.00     0.174 HD
ENDBRANCH  10  44
TORSDOF 11
ENDMDL
