MODEL 1
REMARK VINA RESULT: -8.085327653      0.000      0.000
REMARK  9 active torsions:
REMARK  status: ('A' for Active; 'I' for Inactive)
REMARK    1  A    between atoms: C4_8  and  N3_9 
REMARK    2  A    between atoms: N3_9  and  C5_11 
REMARK    3  A    between atoms: C5_11  and  C6_12 
REMARK    4  A    between atoms: C6_12  and  N4_13 
REMARK       I    between atoms: N4_13  and  C7_15 
REMARK       I    between atoms: C7_15  and  N5_16 
REMARK    5  A    between atoms: C8_22  and  N8_23 
REMARK    6  A    between atoms: N8_23  and  N9_25 
REMARK    7  A    between atoms: C10_29  and  C11_30 
REMARK    8  A    between atoms: N11_31  and  N12_33 
REMARK    9  A    between atoms: C15_42  and  N16_43 
ROOT
HETATM    1  C1  UNL     1     118.771  43.579  21.498  1.00  0.00     0.072 C 
HETATM    2  C2  UNL     1     120.171  43.500  20.990  1.00  0.00     0.051 A 
HETATM    3  N1  UNL     1     121.178  44.197  21.539  1.00  0.00    -0.341 N 
ATOM      4  H1  UNL     1     120.989  44.807  22.334  1.00  0.00     0.167 HD
HETATM    5  C3  UNL     1     122.443  44.105  21.056  1.00  0.00     0.152 A 
HETATM    6  N2  UNL     1     123.457  44.803  21.602  1.00  0.00    -0.174 N 
ATOM      7  H2  UNL     1     123.230  45.404  22.394  1.00  0.00     0.186 HD
HETATM    8  C4  UNL     1     124.736  44.783  21.204  1.00  0.00     0.685 A 
HETATM    9  N7  UNL     1     124.968  43.944  20.118  1.00  0.00    -0.173 N 
ATOM     10  H7  UNL     1     125.921  43.878  19.757  1.00  0.00     0.186 HD
HETATM   11  C8  UNL     1     124.029  43.227  19.525  1.00  0.00     0.166 A 
HETATM   12  C14 UNL     1     122.733  43.292  19.985  1.00  0.00     0.125 A 
HETATM   13  N15 UNL     1     121.731  42.580  19.418  1.00  0.00    -0.335 N 
ATOM     14  H15 UNL     1     121.922  41.970  18.623  1.00  0.00     0.168 HD
HETATM   15  C15 UNL     1     120.479  42.680  19.907  1.00  0.00     0.122 A 
ENDROOT
BRANCH  11  16
HETATM   16  N8  UNL     1     124.283  42.451  18.511  1.00  0.00    -0.276 N 
ATOM     17  H8  UNL     1     123.801  42.613  17.626  1.00  0.00     0.189 HD
BRANCH  16  18
HETATM   18  N9  UNL     1     125.199  41.401  18.605  1.00  0.00    -0.259 N 
HETATM   19  C9  UNL     1     124.976  40.222  19.234  1.00  0.00     0.206 A 
HETATM   20  N10 UNL     1     126.081  39.458  19.123  1.00  0.00    -0.349 N 
HETATM   21  C10 UNL     1     127.018  40.123  18.430  1.00  0.00     0.067 A 
ATOM     22  H10 UNL     1     126.187  38.519  19.506  1.00  0.00     0.167 HD
HETATM   23  C13 UNL     1     126.446  41.336  18.117  1.00  0.00     0.148 A 
BRANCH  21  24
HETATM   24  C11 UNL     1     128.339  39.628  18.104  1.00  0.00     0.138 C 
HETATM   25  N11 UNL     1     128.684  38.390  18.263  1.00  0.00    -0.308 N 
ATOM     26  H11 UNL     1     127.993  37.737  18.634  1.00  0.00     0.186 HD
BRANCH  25  27
HETATM   27  N12 UNL     1     129.942  37.913  17.955  1.00  0.00    -0.276 N 
HETATM   28  C12 UNL     1     130.246  37.219  16.940  1.00  0.00     0.215 C 
HETATM   29  N13 UNL     1     129.257  36.860  15.991  1.00  0.00    -0.065 NA
HETATM   30  N14 UNL     1     131.578  36.784  16.727  1.00  0.00    -0.065 NA
ATOM     31  H12 UNL     1     130.696  38.141  18.603  1.00  0.00     0.189 HD
ENDBRANCH  25  27
ENDBRANCH  21  24
ENDBRANCH  16  18
ENDBRANCH  11  16
BRANCH   8  32
HETATM   32  N3  UNL     1     125.715  45.393  21.654  1.00  0.00    -0.204 N 
ATOM     33  H3  UNL     1     126.124  45.971  20.920  1.00  0.00     0.183 HD
BRANCH  32  34
HETATM   34  C5  UNL     1     126.428  45.548  22.804  1.00  0.00     0.098 C 
BRANCH  34  35
HETATM   35  C6  UNL     1     127.746  44.858  23.009  1.00  0.00     0.167 C 
BRANCH  35  36
HETATM   36  N4  UNL     1     127.741  43.573  22.300  1.00  0.00    -0.360 N 
HETATM   37  C7  UNL     1     127.065  42.474  22.905  1.00  0.00     0.182 C 
HETATM   38  N5  UNL     1     127.447  42.077  24.071  1.00  0.00    -0.374 N 
HETATM   39  N6  UNL     1     125.995  41.804  22.283  1.00  0.00    -0.064 NA
ATOM     40  H52 UNL     1     128.223  42.562  24.523  1.00  0.00     0.158 HD
ATOM     41  H51 UNL     1     126.963  41.291  24.503  1.00  0.00     0.158 HD
ATOM     42  H4  UNL     1     128.210  43.469  21.400  1.00  0.00     0.162 HD
ENDBRANCH  35  36
ENDBRANCH  34  35
ENDBRANCH  32  34
ENDBRANCH   8  32
BRANCH  15  43
HETATM   43  N16 UNL     1     119.554  41.992  19.347  1.00  0.00    -0.384 N 
ATOM     44 2H16 UNL     1     118.836  41.577  19.941  1.00  0.00     0.157 HD
ATOM     45 1H16 UNL     1     119.554  41.875  18.334  1.00  0.00     0.157 HD
ENDBRANCH  15  43
TORSDOF 9
ENDMDL
MODEL 2
REMARK VINA RESULT: -7.988782986      1.181      1.628
REMARK  9 active torsions:
REMARK  status: ('A' for Active; 'I' for Inactive)
REMARK    1  A    between atoms: C4_8  and  N3_9 
REMARK    2  A    between atoms: N3_9  and  C5_11 
REMARK    3  A    between atoms: C5_11  and  C6_12 
REMARK    4  A    between atoms: C6_12  and  N4_13 
REMARK       I    between atoms: N4_13  and  C7_15 
REMARK       I    between atoms: C7_15  and  N5_16 
REMARK    5  A    between atoms: C8_22  and  N8_23 
REMARK    6  A    between atoms: N8_23  and  N9_25 
REMARK    7  A    between atoms: C10_29  and  C11_30 
REMARK    8  A    between atoms: N11_31  and  N12_33 
REMARK    9  A    between atoms: C15_42  and  N16_43 
ROOT
HETATM    1  C1  UNL     1     119.125  43.782  21.554  1.00  0.00     0.072 C 
HETATM    2  C2  UNL     1     120.528  43.666  21.062  1.00  0.00     0.051 A 
HETATM    3  N1  UNL     1     121.551  44.314  21.640  1.00  0.00    -0.341 N 
ATOM      4  H1  UNL     1     121.373  44.911  22.448  1.00  0.00     0.167 HD
HETATM    5  C3  UNL     1     122.818  44.190  21.172  1.00  0.00     0.152 A 
HETATM    6  N2  UNL     1     123.849  44.839  21.749  1.00  0.00    -0.174 N 
ATOM      7  H2  UNL     1     123.632  45.427  22.552  1.00  0.00     0.186 HD
HETATM    8  C4  UNL     1     125.132  44.784  21.366  1.00  0.00     0.685 A 
HETATM    9  N7  UNL     1     125.350  43.963  20.263  1.00  0.00    -0.173 N 
ATOM     10  H7  UNL     1     126.304  43.873  19.913  1.00  0.00     0.186 HD
HETATM   11  C8  UNL     1     124.394  43.294  19.641  1.00  0.00     0.166 A 
HETATM   12  C14 UNL     1     123.095  43.393  20.085  1.00  0.00     0.125 A 
HETATM   13  N15 UNL     1     122.077  42.731  19.488  1.00  0.00    -0.335 N 
ATOM     14  H15 UNL     1     122.258  42.134  18.681  1.00  0.00     0.168 HD
HETATM   15  C15 UNL     1     120.823  42.863  19.963  1.00  0.00     0.122 A 
ENDROOT
BRANCH  11  16
HETATM   16  N8  UNL     1     124.635  42.535  18.611  1.00  0.00    -0.276 N 
ATOM     17  H8  UNL     1     124.392  42.868  17.678  1.00  0.00     0.189 HD
BRANCH  16  18
HETATM   18  N9  UNL     1     125.219  41.274  18.753  1.00  0.00    -0.259 N 
HETATM   19  C9  UNL     1     124.953  40.397  19.751  1.00  0.00     0.206 A 
HETATM   20  N10 UNL     1     125.701  39.291  19.564  1.00  0.00    -0.349 N 
HETATM   21  C10 UNL     1     126.448  39.437  18.459  1.00  0.00     0.067 A 
ATOM     22  H10 UNL     1     125.698  38.470  20.170  1.00  0.00     0.167 HD
HETATM   23  C13 UNL     1     126.132  40.684  17.969  1.00  0.00     0.148 A 
BRANCH  21  24
HETATM   24  C11 UNL     1     127.379  38.460  17.933  1.00  0.00     0.138 C 
HETATM   25  N11 UNL     1     127.622  38.334  16.668  1.00  0.00    -0.308 N 
ATOM     26  H11 UNL     1     127.137  38.949  16.015  1.00  0.00     0.186 HD
BRANCH  25  27
HETATM   27  N12 UNL     1     128.509  37.404  16.161  1.00  0.00    -0.276 N 
HETATM   28  C12 UNL     1     129.672  37.648  15.723  1.00  0.00     0.215 C 
HETATM   29  N13 UNL     1     130.179  38.970  15.723  1.00  0.00    -0.065 NA
HETATM   30  N14 UNL     1     130.495  36.607  15.225  1.00  0.00    -0.065 NA
ATOM     31  H12 UNL     1     128.199  36.433  16.137  1.00  0.00     0.189 HD
ENDBRANCH  25  27
ENDBRANCH  21  24
ENDBRANCH  16  18
ENDBRANCH  11  16
BRANCH   8  32
HETATM   32  N3  UNL     1     126.125  45.347  21.844  1.00  0.00    -0.204 N 
ATOM     33  H3  UNL     1     126.358  46.164  21.280  1.00  0.00     0.183 HD
BRANCH  32  34
HETATM   34  C5  UNL     1     127.010  45.239  22.873  1.00  0.00     0.098 C 
BRANCH  34  35
HETATM   35  C6  UNL     1     127.517  43.903  23.336  1.00  0.00     0.167 C 
BRANCH  35  36
HETATM   36  N4  UNL     1     128.947  43.788  23.026  1.00  0.00    -0.360 N 
HETATM   37  C7  UNL     1     129.356  43.940  21.670  1.00  0.00     0.182 C 
HETATM   38  N5  UNL     1     128.877  43.133  20.785  1.00  0.00    -0.374 N 
HETATM   39  N6  UNL     1     130.259  44.935  21.255  1.00  0.00    -0.064 NA
ATOM     40  H52 UNL     1     128.222  42.411  21.085  1.00  0.00     0.158 HD
ATOM     41  H51 UNL     1     129.170  43.242  19.814  1.00  0.00     0.158 HD
ATOM     42  H4  UNL     1     129.629  43.605  23.762  1.00  0.00     0.162 HD
ENDBRANCH  35  36
ENDBRANCH  34  35
ENDBRANCH  32  34
ENDBRANCH   8  32
BRANCH  15  43
HETATM   43  N16 UNL     1     119.882  42.222  19.374  1.00  0.00    -0.384 N 
ATOM     44 2H16 UNL     1     119.152  41.802  19.949  1.00  0.00     0.157 HD
ATOM     45 1H16 UNL     1     119.882  42.144  18.357  1.00  0.00     0.157 HD
ENDBRANCH  15  43
TORSDOF 9
ENDMDL
MODEL 3
REMARK VINA RESULT: -7.845401445      3.262      9.260
REMARK  9 active torsions:
REMARK  status: ('A' for Active; 'I' for Inactive)
REMARK    1  A    between atoms: C4_8  and  N3_9 
REMARK    2  A    between atoms: N3_9  and  C5_11 
REMARK    3  A    between atoms: C5_11  and  C6_12 
REMARK    4  A    between atoms: C6_12  and  N4_13 
REMARK       I    between atoms: N4_13  and  C7_15 
REMARK       I    between atoms: C7_15  and  N5_16 
REMARK    5  A    between atoms: C8_22  and  N8_23 
REMARK    6  A    between atoms: N8_23  and  N9_25 
REMARK    7  A    between atoms: C10_29  and  C11_30 
REMARK    8  A    between atoms: N11_31  and  N12_33 
REMARK    9  A    between atoms: C15_42  and  N16_43 
ROOT
HETATM    1  C1  UNL     1     129.990  41.844  10.766  1.00  0.00     0.072 C 
HETATM    2  C2  UNL     1     129.745  41.108  12.038  1.00  0.00     0.051 A 
HETATM    3  N1  UNL     1     130.724  40.482  12.710  1.00  0.00    -0.341 N 
ATOM      4  H1  UNL     1     131.676  40.506  12.345  1.00  0.00     0.167 HD
HETATM    5  C3  UNL     1     130.471  39.819  13.867  1.00  0.00     0.152 A 
HETATM    6  N2  UNL     1     131.451  39.189  14.545  1.00  0.00    -0.174 N 
ATOM      7  H2  UNL     1     132.389  39.233  14.148  1.00  0.00     0.186 HD
HETATM    8  C4  UNL     1     131.309  38.509  15.691  1.00  0.00     0.685 A 
HETATM    9  N7  UNL     1     130.002  38.490  16.169  1.00  0.00    -0.173 N 
ATOM     10  H7  UNL     1     129.816  37.989  17.038  1.00  0.00     0.186 HD
HETATM   11  C8  UNL     1     128.986  39.082  15.564  1.00  0.00     0.166 A 
HETATM   12  C14 UNL     1     129.200  39.766  14.388  1.00  0.00     0.125 A 
HETATM   13  N15 UNL     1     128.199  40.390  13.726  1.00  0.00    -0.335 N 
ATOM     14  H15 UNL     1     127.247  40.365  14.094  1.00  0.00     0.168 HD
HETATM   15  C15 UNL     1     128.462  41.046  12.578  1.00  0.00     0.122 A 
ENDROOT
BRANCH  11  16
HETATM   16  N8  UNL     1     127.775  39.044  16.041  1.00  0.00    -0.276 N 
ATOM     17  H8  UNL     1     127.070  38.478  15.567  1.00  0.00     0.189 HD
BRANCH  16  18
HETATM   18  N9  UNL     1     127.418  39.760  17.186  1.00  0.00    -0.259 N 
HETATM   19  C9  UNL     1     128.225  40.618  17.855  1.00  0.00     0.206 A 
HETATM   20  N10 UNL     1     127.545  41.120  18.905  1.00  0.00    -0.349 N 
HETATM   21  C10 UNL     1     126.308  40.600  18.927  1.00  0.00     0.067 A 
ATOM     22  H10 UNL     1     127.914  41.791  19.578  1.00  0.00     0.167 HD
HETATM   23  C13 UNL     1     126.250  39.752  17.844  1.00  0.00     0.148 A 
BRANCH  21  24
HETATM   24  C11 UNL     1     125.283  40.898  19.906  1.00  0.00     0.138 C 
HETATM   25  N11 UNL     1     124.598  41.997  19.893  1.00  0.00    -0.308 N 
ATOM     26  H11 UNL     1     124.791  42.681  19.161  1.00  0.00     0.186 HD
BRANCH  25  27
HETATM   27  N12 UNL     1     123.620  42.286  20.824  1.00  0.00    -0.276 N 
HETATM   28  C12 UNL     1     122.370  42.274  20.617  1.00  0.00     0.215 C 
HETATM   29  N13 UNL     1     121.856  41.942  19.340  1.00  0.00    -0.065 NA
HETATM   30  N14 UNL     1     121.458  42.590  21.654  1.00  0.00    -0.065 NA
ATOM     31  H12 UNL     1     123.932  42.532  21.763  1.00  0.00     0.189 HD
ENDBRANCH  25  27
ENDBRANCH  21  24
ENDBRANCH  16  18
ENDBRANCH  11  16
BRANCH   8  32
HETATM   32  N3  UNL     1     132.156  37.910  16.366  1.00  0.00    -0.204 N 
ATOM     33  H3  UNL     1     133.088  38.130  16.016  1.00  0.00     0.183 HD
BRANCH  32  34
HETATM   34  C5  UNL     1     132.257  37.055  17.421  1.00  0.00     0.098 C 
BRANCH  34  35
HETATM   35  C6  UNL     1     131.333  37.152  18.601  1.00  0.00     0.167 C 
BRANCH  35  36
HETATM   36  N4  UNL     1     130.350  36.065  18.543  1.00  0.00    -0.360 N 
HETATM   37  C7  UNL     1     128.976  36.409  18.375  1.00  0.00     0.182 C 
HETATM   38  N5  UNL     1     128.414  37.163  19.258  1.00  0.00    -0.374 N 
HETATM   39  N6  UNL     1     128.208  35.961  17.285  1.00  0.00    -0.064 NA
ATOM     40  H52 UNL     1     128.971  37.488  20.048  1.00  0.00     0.158 HD
ATOM     41  H51 UNL     1     127.432  37.409  19.137  1.00  0.00     0.158 HD
ATOM     42  H4  UNL     1     130.640  35.090  18.621  1.00  0.00     0.162 HD
ENDBRANCH  35  36
ENDBRANCH  34  35
ENDBRANCH  32  34
ENDBRANCH   8  32
BRANCH  15  43
HETATM   43  N16 UNL     1     127.491  41.627  11.977  1.00  0.00    -0.384 N 
ATOM     44 2H16 UNL     1     127.676  42.065  11.074  1.00  0.00     0.157 HD
ATOM     45 1H16 UNL     1     126.565  41.639  12.405  1.00  0.00     0.157 HD
ENDBRANCH  15  43
TORSDOF 9
ENDMDL
MODEL 4
REMARK VINA RESULT: -7.837619218      1.406      2.353
REMARK  9 active torsions:
REMARK  status: ('A' for Active; 'I' for Inactive)
REMARK    1  A    between atoms: C4_8  and  N3_9 
REMARK    2  A    between atoms: N3_9  and  C5_11 
REMARK    3  A    between atoms: C5_11  and  C6_12 
REMARK    4  A    between atoms: C6_12  and  N4_13 
REMARK       I    between atoms: N4_13  and  C7_15 
REMARK       I    between atoms: C7_15  and  N5_16 
REMARK    5  A    between atoms: C8_22  and  N8_23 
REMARK    6  A    between atoms: N8_23  and  N9_25 
REMARK    7  A    between atoms: C10_29  and  C11_30 
REMARK    8  A    between atoms: N11_31  and  N12_33 
REMARK    9  A    between atoms: C15_42  and  N16_43 
ROOT
HETATM    1  C1  UNL     1     119.208  43.716  21.524  1.00  0.00     0.072 C 
HETATM    2  C2  UNL     1     120.598  43.548  21.011  1.00  0.00     0.051 A 
HETATM    3  N1  UNL     1     121.651  44.165  21.568  1.00  0.00    -0.341 N 
ATOM      4  H1  UNL     1     121.506  44.774  22.374  1.00  0.00     0.167 HD
HETATM    5  C3  UNL     1     122.906  43.993  21.081  1.00  0.00     0.152 A 
HETATM    6  N2  UNL     1     123.967  44.611  21.636  1.00  0.00    -0.174 N 
ATOM      7  H2  UNL     1     123.784  45.213  22.438  1.00  0.00     0.186 HD
HETATM    8  C4  UNL     1     125.241  44.509  21.234  1.00  0.00     0.685 A 
HETATM    9  N7  UNL     1     125.413  43.674  20.134  1.00  0.00    -0.173 N 
ATOM     10  H7  UNL     1     126.358  43.548  19.770  1.00  0.00     0.186 HD
HETATM   11  C8  UNL     1     124.426  43.032  19.532  1.00  0.00     0.166 A 
HETATM   12  C14 UNL     1     123.138  43.180  19.997  1.00  0.00     0.125 A 
HETATM   13  N15 UNL     1     122.088  42.548  19.421  1.00  0.00    -0.335 N 
ATOM     14  H15 UNL     1     122.236  41.939  18.616  1.00  0.00     0.168 HD
HETATM   15  C15 UNL     1     120.847  42.727  19.914  1.00  0.00     0.122 A 
ENDROOT
BRANCH  11  16
HETATM   16  N8  UNL     1     124.624  42.257  18.505  1.00  0.00    -0.276 N 
ATOM     17  H8  UNL     1     124.310  42.562  17.583  1.00  0.00     0.189 HD
BRANCH  16  18
HETATM   18  N9  UNL     1     125.256  41.019  18.636  1.00  0.00    -0.259 N 
HETATM   19  C9  UNL     1     124.962  40.086  19.574  1.00  0.00     0.206 A 
HETATM   20  N10 UNL     1     125.774  39.025  19.394  1.00  0.00    -0.349 N 
HETATM   21  C10 UNL     1     126.589  39.254  18.353  1.00  0.00     0.067 A 
ATOM     22  H10 UNL     1     125.768  38.178  19.962  1.00  0.00     0.167 HD
HETATM   23  C13 UNL     1     126.249  40.506  17.894  1.00  0.00     0.148 A 
BRANCH  21  24
HETATM   24  C11 UNL     1     127.600  38.345  17.855  1.00  0.00     0.138 C 
HETATM   25  N11 UNL     1     128.591  37.932  18.578  1.00  0.00    -0.308 N 
ATOM     26  H11 UNL     1     128.661  38.263  19.541  1.00  0.00     0.186 HD
BRANCH  25  27
HETATM   27  N12 UNL     1     129.558  37.065  18.108  1.00  0.00    -0.276 N 
HETATM   28  C12 UNL     1     130.717  37.388  17.713  1.00  0.00     0.215 C 
HETATM   29  N13 UNL     1     131.131  38.743  17.728  1.00  0.00    -0.065 NA
HETATM   30  N14 UNL     1     131.628  36.407  17.249  1.00  0.00    -0.065 NA
ATOM     31  H12 UNL     1     129.316  36.075  18.075  1.00  0.00     0.189 HD
ENDBRANCH  25  27
ENDBRANCH  21  24
ENDBRANCH  16  18
ENDBRANCH  11  16
BRANCH   8  32
HETATM   32  N3  UNL     1     126.261  45.042  21.691  1.00  0.00    -0.204 N 
ATOM     33  H3  UNL     1     126.949  45.155  20.948  1.00  0.00     0.183 HD
BRANCH  32  34
HETATM   34  C5  UNL     1     126.768  45.528  22.858  1.00  0.00     0.098 C 
BRANCH  34  35
HETATM   35  C6  UNL     1     126.259  46.804  23.464  1.00  0.00     0.167 C 
BRANCH  35  36
HETATM   36  N4  UNL     1     125.060  46.523  24.261  1.00  0.00    -0.360 N 
HETATM   37  C7  UNL     1     123.880  47.275  23.990  1.00  0.00     0.182 C 
HETATM   38  N5  UNL     1     123.922  48.558  24.110  1.00  0.00    -0.374 N 
HETATM   39  N6  UNL     1     122.669  46.675  23.597  1.00  0.00    -0.064 NA
ATOM     40  H52 UNL     1     124.800  48.994  24.395  1.00  0.00     0.158 HD
ATOM     41  H51 UNL     1     123.078  49.096  23.916  1.00  0.00     0.158 HD
ATOM     42  H4  UNL     1     125.070  45.808  24.989  1.00  0.00     0.162 HD
ENDBRANCH  35  36
ENDBRANCH  34  35
ENDBRANCH  32  34
ENDBRANCH   8  32
BRANCH  15  43
HETATM   43  N16 UNL     1     119.876  42.114  19.345  1.00  0.00    -0.384 N 
ATOM     44 2H16 UNL     1     118.960  42.140  19.794  1.00  0.00     0.157 HD
ATOM     45 1H16 UNL     1     120.035  41.618  18.468  1.00  0.00     0.157 HD
ENDBRANCH  15  43
TORSDOF 9
ENDMDL
MODEL 5
REMARK VINA RESULT: -7.771556895      3.715      9.279
REMARK  9 active torsions:
REMARK  status: ('A' for Active; 'I' for Inactive)
REMARK    1  A    between atoms: C4_8  and  N3_9 
REMARK    2  A    between atoms: N3_9  and  C5_11 
REMARK    3  A    between atoms: C5_11  and  C6_12 
REMARK    4  A    between atoms: C6_12  and  N4_13 
REMARK       I    between atoms: N4_13  and  C7_15 
REMARK       I    between atoms: C7_15  and  N5_16 
REMARK    5  A    between atoms: C8_22  and  N8_23 
REMARK    6  A    between atoms: N8_23  and  N9_25 
REMARK    7  A    between atoms: C10_29  and  C11_30 
REMARK    8  A    between atoms: N11_31  and  N12_33 
REMARK    9  A    between atoms: C15_42  and  N16_43 
ROOT
HETATM    1  C1  UNL     1     130.033  42.235  11.446  1.00  0.00     0.072 C 
HETATM    2  C2  UNL     1     129.787  41.318  12.595  1.00  0.00     0.051 A 
HETATM    3  N1  UNL     1     130.781  40.836  13.358  1.00  0.00    -0.341 N 
ATOM      4  H1  UNL     1     131.744  41.102  13.153  1.00  0.00     0.167 HD
HETATM    5  C3  UNL     1     130.528  40.003  14.399  1.00  0.00     0.152 A 
HETATM    6  N2  UNL     1     131.522  39.516  15.168  1.00  0.00    -0.174 N 
ATOM      7  H2  UNL     1     132.471  39.802  14.932  1.00  0.00     0.186 HD
HETATM    8  C4  UNL     1     131.380  38.691  16.214  1.00  0.00     0.685 A 
HETATM    9  N7  UNL     1     130.058  38.342  16.475  1.00  0.00    -0.173 N 
ATOM     10  H7  UNL     1     129.873  37.715  17.258  1.00  0.00     0.186 HD
HETATM   11  C8  UNL     1     129.028  38.776  15.768  1.00  0.00     0.166 A 
HETATM   12  C14 UNL     1     129.242  39.623  14.704  1.00  0.00     0.125 A 
HETATM   13  N15 UNL     1     128.226  40.098  13.946  1.00  0.00    -0.335 N 
ATOM     14  H15 UNL     1     127.264  39.831  14.155  1.00  0.00     0.168 HD
HETATM   15  C15 UNL     1     128.490  40.926  12.916  1.00  0.00     0.122 A 
ENDROOT
BRANCH  11  16
HETATM   16  N8  UNL     1     127.803  38.429  16.041  1.00  0.00    -0.276 N 
ATOM     17  H8  UNL     1     127.325  37.766  15.430  1.00  0.00     0.189 HD
BRANCH  16  18
HETATM   18  N9  UNL     1     127.128  38.943  17.150  1.00  0.00    -0.259 N 
HETATM   19  C9  UNL     1     126.734  38.224  18.228  1.00  0.00     0.206 A 
HETATM   20  N10 UNL     1     126.113  39.050  19.094  1.00  0.00    -0.349 N 
HETATM   21  C10 UNL     1     126.099  40.295  18.594  1.00  0.00     0.067 A 
ATOM     22  H10 UNL     1     125.716  38.771  19.991  1.00  0.00     0.167 HD
HETATM   23  C13 UNL     1     126.738  40.206  17.378  1.00  0.00     0.148 A 
BRANCH  21  24
HETATM   24  C11 UNL     1     125.521  41.458  19.236  1.00  0.00     0.138 C 
HETATM   25  N11 UNL     1     124.251  41.707  19.224  1.00  0.00    -0.308 N 
ATOM     26  H11 UNL     1     123.632  41.055  18.741  1.00  0.00     0.186 HD
BRANCH  25  27
HETATM   27  N12 UNL     1     123.694  42.813  19.834  1.00  0.00    -0.276 N 
HETATM   28  C12 UNL     1     123.017  42.810  20.905  1.00  0.00     0.215 C 
HETATM   29  N13 UNL     1     122.766  41.598  21.594  1.00  0.00    -0.065 NA
HETATM   30  N14 UNL     1     122.494  44.014  21.439  1.00  0.00    -0.065 NA
ATOM     31  H12 UNL     1     123.843  43.716  19.383  1.00  0.00     0.189 HD
ENDBRANCH  25  27
ENDBRANCH  21  24
ENDBRANCH  16  18
ENDBRANCH  11  16
BRANCH   8  32
HETATM   32  N3  UNL     1     132.240  38.207  16.962  1.00  0.00    -0.204 N 
ATOM     33  H3  UNL     1     133.136  38.174  16.476  1.00  0.00     0.183 HD
BRANCH  32  34
HETATM   34  C5  UNL     1     132.388  37.704  18.219  1.00  0.00     0.098 C 
BRANCH  34  35
HETATM   35  C6  UNL     1     133.713  37.733  18.925  1.00  0.00     0.167 C 
BRANCH  35  36
HETATM   36  N4  UNL     1     133.896  39.038  19.570  1.00  0.00    -0.360 N 
HETATM   37  C7  UNL     1     135.197  39.621  19.553  1.00  0.00     0.182 C 
HETATM   38  N5  UNL     1     136.172  38.973  20.094  1.00  0.00    -0.374 N 
HETATM   39  N6  UNL     1     135.461  40.873  18.969  1.00  0.00    -0.064 NA
ATOM     40  H52 UNL     1     135.981  38.065  20.518  1.00  0.00     0.158 HD
ATOM     41  H51 UNL     1     137.103  39.390  20.081  1.00  0.00     0.158 HD
ATOM     42  H4  UNL     1     133.114  39.515  20.018  1.00  0.00     0.162 HD
ENDBRANCH  35  36
ENDBRANCH  34  35
ENDBRANCH  32  34
ENDBRANCH   8  32
BRANCH  15  43
HETATM   43  N16 UNL     1     127.505  41.357  12.219  1.00  0.00    -0.384 N 
ATOM     44 2H16 UNL     1     127.683  42.096  11.539  1.00  0.00     0.157 HD
ATOM     45 1H16 UNL     1     126.575  40.960  12.356  1.00  0.00     0.157 HD
ENDBRANCH  15  43
TORSDOF 9
ENDMDL
