MODEL 1
REMARK VINA RESULT: -8.995850183      0.000      0.000
REMARK  12 active torsions:
REMARK  status: ('A' for Active; 'I' for Inactive)
REMARK    1  A    between atoms: N1_2  and  C2_3 
REMARK    2  A    between atoms: N1_2  and  C14_20 
REMARK    3  A    between atoms: C2_3  and  C3_4 
REMARK    4  A    between atoms: C3_4  and  C4_5 
REMARK    5  A    between atoms: C4_5  and  C5_6 
REMARK    6  A    between atoms: C5_6  and  C6_7 
REMARK    7  A    between atoms: C6_7  and  C7_8 
REMARK       I    between atoms: C7_8  and  N2_10 
REMARK    8  A    between atoms: N2_10  and  C8_12 
REMARK    9  A    between atoms: C8_12  and  C9_13 
REMARK   10  A    between atoms: C8_12  and  C10_16 
REMARK   11  A    between atoms: C19_25  and  O4_26 
REMARK   12  A    between atoms: C22_30  and  O5_31 
ROOT
HETATM    1  C14 UNL     1     -10.088  14.739  28.886  1.00  0.00     0.227 C 
HETATM    2  C15 UNL     1     -11.451  14.656  29.520  1.00  0.00     0.042 C 
HETATM    3  C16 UNL     1     -11.200  14.923  30.990  1.00  0.00     0.001 C 
HETATM    4  C17 UNL     1     -10.915  16.370  31.162  1.00  0.00     0.001 C 
HETATM    5  C18 UNL     1     -10.172  16.525  32.477  1.00  0.00     0.038 C 
HETATM    6  C19 UNL     1     -10.839  15.695  33.513  1.00  0.00     0.123 C 
HETATM    7  C20 UNL     1     -12.252  15.243  33.161  1.00  0.00     0.025 C 
HETATM    8  C21 UNL     1     -12.808  14.559  34.360  1.00  0.00     0.039 C 
HETATM    9  C22 UNL     1     -13.417  13.235  34.224  1.00  0.00     0.118 C 
HETATM   10  C23 UNL     1     -13.277  12.528  32.910  1.00  0.00     0.032 C 
HETATM   11  C24 UNL     1     -12.081  12.968  32.140  1.00  0.00     0.012 C 
HETATM   12  C25 UNL     1     -12.278  14.464  31.893  1.00  0.00    -0.034 C 
HETATM   13  C26 UNL     1     -13.643  14.586  31.205  1.00  0.00     0.016 C 
HETATM   14  C27 UNL     1     -10.222  17.014  30.013  1.00  0.00    -0.034 C 
HETATM   15  C28 UNL     1     -11.031  18.132  29.372  1.00  0.00     0.016 C 
HETATM   16  C29 UNL     1      -8.823  17.567  30.312  1.00  0.00     0.010 C 
HETATM   17  C30 UNL     1      -8.266  16.316  29.671  1.00  0.00     0.008 C 
HETATM   18  C31 UNL     1      -9.605  16.146  29.011  1.00  0.00     0.027 C 
ENDROOT
BRANCH   1  19
HETATM   19  N1  UNL     1     -10.127  14.283  27.511  1.00  0.00     0.089 N 
HETATM   20  C1  UNL     1     -11.411  13.663  27.217  1.00  0.00     0.310 C 
BRANCH  19  21
HETATM   21  C2  UNL     1      -9.880  15.354  26.581  1.00  0.00     0.272 C 
BRANCH  21  22
HETATM   22  C3  UNL     1     -11.116  15.948  25.975  1.00  0.00     0.030 C 
BRANCH  22  23
HETATM   23  C4  UNL     1     -10.733  16.777  24.781  1.00  0.00     0.002 C 
BRANCH  23  24
HETATM   24  C5  UNL     1     -10.493  15.994  23.525  1.00  0.00     0.009 C 
BRANCH  24  25
HETATM   25  C6  UNL     1      -9.351  16.704  22.800  1.00  0.00     0.103 C 
BRANCH  25  26
HETATM   26  C7  UNL     1      -8.098  16.704  23.559  1.00  0.00     0.218 C 
HETATM   27  O1  UNL     1      -7.536  15.649  23.859  1.00  0.00    -0.274 OA
HETATM   28  N2  UNL     1      -7.551  17.972  23.939  1.00  0.00    -0.346 N 
ATOM     29  H2  UNL     1      -8.043  18.825  23.675  1.00  0.00     0.163 HD
BRANCH  28  30
HETATM   30  C8  UNL     1      -6.314  18.073  24.689  1.00  0.00     0.193 C 
BRANCH  30  31
HETATM   31  C9  UNL     1      -5.437  19.122  24.142  1.00  0.00     0.197 C 
HETATM   32  O2  UNL     1      -5.958  20.002  23.396  1.00  0.00    -0.646 OA
HETATM   33  O3  UNL     1      -4.090  19.183  24.405  1.00  0.00    -0.646 OA
ENDBRANCH  30  31
BRANCH  30  34
HETATM   34  C10 UNL     1      -6.576  18.347  26.149  1.00  0.00    -0.021 C 
HETATM   35  C11 UNL     1      -8.063  18.481  26.413  1.00  0.00     0.017 C 
HETATM   36  C12 UNL     1      -6.102  17.170  26.959  1.00  0.00     0.017 C 
HETATM   37  C13 UNL     1      -5.874  19.568  26.675  1.00  0.00     0.017 C 
ENDBRANCH  30  34
ENDBRANCH  28  30
ENDBRANCH  25  26
ENDBRANCH  24  25
ENDBRANCH  23  24
ENDBRANCH  22  23
ENDBRANCH  21  22
ENDBRANCH  19  21
ENDBRANCH   1  19
BRANCH   6  38
HETATM   38  O4  UNL     1     -10.965  16.475  34.687  1.00  0.00    -0.395 OA
ATOM     39  H4  UNL     1     -10.811  15.910  35.435  1.00  0.00     0.210 HD
ENDBRANCH   6  38
BRANCH   9  40
HETATM   40  O5  UNL     1     -14.805  13.267  34.525  1.00  0.00    -0.396 OA
ATOM     41  H5  UNL     1     -15.305  12.736  33.916  1.00  0.00     0.210 HD
ENDBRANCH   9  40
TORSDOF 12
ENDMDL
MODEL 2
REMARK VINA RESULT: -8.773637697      2.227      9.213
REMARK  12 active torsions:
REMARK  status: ('A' for Active; 'I' for Inactive)
REMARK    1  A    between atoms: N1_2  and  C2_3 
REMARK    2  A    between atoms: N1_2  and  C14_20 
REMARK    3  A    between atoms: C2_3  and  C3_4 
REMARK    4  A    between atoms: C3_4  and  C4_5 
REMARK    5  A    between atoms: C4_5  and  C5_6 
REMARK    6  A    between atoms: C5_6  and  C6_7 
REMARK    7  A    between atoms: C6_7  and  C7_8 
REMARK       I    between atoms: C7_8  and  N2_10 
REMARK    8  A    between atoms: N2_10  and  C8_12 
REMARK    9  A    between atoms: C8_12  and  C9_13 
REMARK   10  A    between atoms: C8_12  and  C10_16 
REMARK   11  A    between atoms: C19_25  and  O4_26 
REMARK   12  A    between atoms: C22_30  and  O5_31 
ROOT
HETATM    1  C14 UNL     1      -8.298  16.145  27.311  1.00  0.00     0.227 C 
HETATM    2  C15 UNL     1      -7.329  17.292  27.199  1.00  0.00     0.042 C 
HETATM    3  C16 UNL     1      -7.073  17.426  25.713  1.00  0.00     0.001 C 
HETATM    4  C17 UNL     1      -8.275  18.031  25.083  1.00  0.00     0.001 C 
HETATM    5  C18 UNL     1      -8.228  17.682  23.607  1.00  0.00     0.038 C 
HETATM    6  C19 UNL     1      -6.848  17.891  23.100  1.00  0.00     0.123 C 
HETATM    7  C20 UNL     1      -5.958  18.744  23.998  1.00  0.00     0.025 C 
HETATM    8  C21 UNL     1      -4.679  18.967  23.268  1.00  0.00     0.039 C 
HETATM    9  C22 UNL     1      -3.405  18.699  23.938  1.00  0.00     0.118 C 
HETATM   10  C23 UNL     1      -3.441  18.017  25.272  1.00  0.00     0.032 C 
HETATM   11  C24 UNL     1      -4.664  17.191  25.468  1.00  0.00     0.012 C 
HETATM   12  C25 UNL     1      -5.839  18.164  25.363  1.00  0.00    -0.034 C 
HETATM   13  C26 UNL     1      -5.555  19.258  26.399  1.00  0.00     0.016 C 
HETATM   14  C27 UNL     1      -9.566  17.682  25.733  1.00  0.00    -0.034 C 
HETATM   15  C28 UNL     1     -10.310  18.889  26.284  1.00  0.00     0.016 C 
HETATM   16  C29 UNL     1     -10.550  16.890  24.861  1.00  0.00     0.010 C 
HETATM   17  C30 UNL     1     -10.092  15.648  25.592  1.00  0.00     0.008 C 
HETATM   18  C31 UNL     1      -9.581  16.559  26.671  1.00  0.00     0.027 C 
ENDROOT
BRANCH   1  19
HETATM   19  N1  UNL     1      -8.468  15.742  28.694  1.00  0.00     0.089 N 
HETATM   20  C1  UNL     1      -8.038  14.363  28.878  1.00  0.00     0.310 C 
BRANCH  19  21
HETATM   21  C2  UNL     1      -7.747  16.600  29.596  1.00  0.00     0.272 C 
BRANCH  21  22
HETATM   22  C3  UNL     1      -8.578  17.180  30.701  1.00  0.00     0.030 C 
BRANCH  22  23
HETATM   23  C4  UNL     1      -8.234  16.494  31.994  1.00  0.00     0.002 C 
BRANCH  23  24
HETATM   24  C5  UNL     1      -8.896  15.164  32.192  1.00  0.00     0.009 C 
BRANCH  24  25
HETATM   25  C6  UNL     1     -10.126  15.432  33.058  1.00  0.00     0.103 C 
BRANCH  25  26
HETATM   26  C7  UNL     1     -11.376  15.443  32.297  1.00  0.00     0.218 C 
HETATM   27  O1  UNL     1     -12.428  15.834  32.807  1.00  0.00    -0.274 OA
HETATM   28  N2  UNL     1     -11.334  14.983  30.941  1.00  0.00    -0.346 N 
ATOM     29  H2  UNL     1     -10.447  14.665  30.551  1.00  0.00     0.163 HD
BRANCH  28  30
HETATM   30  C8  UNL     1     -12.521  14.959  30.108  1.00  0.00     0.193 C 
BRANCH  30  31
HETATM   31  C9  UNL     1     -12.555  16.108  29.186  1.00  0.00     0.197 C 
HETATM   32  O2  UNL     1     -11.601  16.938  29.238  1.00  0.00    -0.646 OA
HETATM   33  O3  UNL     1     -13.568  16.312  28.282  1.00  0.00    -0.646 OA
ENDBRANCH  30  31
BRANCH  30  34
HETATM   34  C10 UNL     1     -12.615  13.678  29.319  1.00  0.00    -0.021 C 
HETATM   35  C11 UNL     1     -11.516  13.605  28.277  1.00  0.00     0.017 C 
HETATM   36  C12 UNL     1     -12.398  12.515  30.250  1.00  0.00     0.017 C 
HETATM   37  C13 UNL     1     -13.943  13.473  28.646  1.00  0.00     0.017 C 
ENDBRANCH  30  34
ENDBRANCH  28  30
ENDBRANCH  25  26
ENDBRANCH  24  25
ENDBRANCH  23  24
ENDBRANCH  22  23
ENDBRANCH  21  22
ENDBRANCH  19  21
ENDBRANCH   1  19
BRANCH   6  38
HETATM   38  O4  UNL     1      -6.931  18.585  21.870  1.00  0.00    -0.395 OA
ATOM     39  H4  UNL     1      -6.098  18.494  21.422  1.00  0.00     0.210 HD
ENDBRANCH   6  38
BRANCH   9  40
HETATM   40  O5  UNL     1      -2.647  19.888  24.107  1.00  0.00    -0.396 OA
ATOM     41  H5  UNL     1      -3.185  20.601  24.430  1.00  0.00     0.210 HD
ENDBRANCH   9  40
TORSDOF 12
ENDMDL
MODEL 3
REMARK VINA RESULT: -8.632776750      1.854      9.272
REMARK  12 active torsions:
REMARK  status: ('A' for Active; 'I' for Inactive)
REMARK    1  A    between atoms: N1_2  and  C2_3 
REMARK    2  A    between atoms: N1_2  and  C14_20 
REMARK    3  A    between atoms: C2_3  and  C3_4 
REMARK    4  A    between atoms: C3_4  and  C4_5 
REMARK    5  A    between atoms: C4_5  and  C5_6 
REMARK    6  A    between atoms: C5_6  and  C6_7 
REMARK    7  A    between atoms: C6_7  and  C7_8 
REMARK       I    between atoms: C7_8  and  N2_10 
REMARK    8  A    between atoms: N2_10  and  C8_12 
REMARK    9  A    between atoms: C8_12  and  C9_13 
REMARK   10  A    between atoms: C8_12  and  C10_16 
REMARK   11  A    between atoms: C19_25  and  O4_26 
REMARK   12  A    between atoms: C22_30  and  O5_31 
ROOT
HETATM    1  C14 UNL     1      -8.458  15.597  26.632  1.00  0.00     0.227 C 
HETATM    2  C15 UNL     1      -7.501  16.744  26.822  1.00  0.00     0.042 C 
HETATM    3  C16 UNL     1      -7.139  17.170  25.414  1.00  0.00     0.001 C 
HETATM    4  C17 UNL     1      -8.301  17.887  24.828  1.00  0.00     0.001 C 
HETATM    5  C18 UNL     1      -8.141  17.837  23.319  1.00  0.00     0.038 C 
HETATM    6  C19 UNL     1      -6.731  18.143  22.969  1.00  0.00     0.123 C 
HETATM    7  C20 UNL     1      -5.922  18.802  24.081  1.00  0.00     0.025 C 
HETATM    8  C21 UNL     1      -4.597  19.165  23.508  1.00  0.00     0.039 C 
HETATM    9  C22 UNL     1      -3.371  18.771  24.204  1.00  0.00     0.118 C 
HETATM   10  C23 UNL     1      -3.494  17.838  25.372  1.00  0.00     0.032 C 
HETATM   11  C24 UNL     1      -4.716  16.989  25.308  1.00  0.00     0.012 C 
HETATM   12  C25 UNL     1      -5.894  17.963  25.310  1.00  0.00    -0.034 C 
HETATM   13  C26 UNL     1      -5.704  18.830  26.560  1.00  0.00     0.016 C 
HETATM   14  C27 UNL     1      -9.631  17.415  25.298  1.00  0.00    -0.034 C 
HETATM   15  C28 UNL     1     -10.431  18.490  26.020  1.00  0.00     0.016 C 
HETATM   16  C29 UNL     1     -10.536  16.811  24.216  1.00  0.00     0.010 C 
HETATM   17  C30 UNL     1     -10.113  15.450  24.719  1.00  0.00     0.008 C 
HETATM   18  C31 UNL     1      -9.697  16.129  25.992  1.00  0.00     0.027 C 
ENDROOT
BRANCH   1  19
HETATM   19  N1  UNL     1      -8.723  14.928  27.891  1.00  0.00     0.089 N 
HETATM   20  C1  UNL     1      -7.878  15.474  28.944  1.00  0.00     0.310 C 
BRANCH  19  21
HETATM   21  C2  UNL     1     -10.106  15.034  28.275  1.00  0.00     0.272 C 
BRANCH  21  22
HETATM   22  C3  UNL     1     -10.930  13.819  27.973  1.00  0.00     0.030 C 
BRANCH  22  23
HETATM   23  C4  UNL     1     -12.388  14.168  28.082  1.00  0.00     0.002 C 
BRANCH  23  24
HETATM   24  C5  UNL     1     -13.222  13.154  28.807  1.00  0.00     0.009 C 
BRANCH  24  25
HETATM   25  C6  UNL     1     -12.494  12.874  30.121  1.00  0.00     0.103 C 
BRANCH  25  26
HETATM   26  C7  UNL     1     -12.492  14.019  31.034  1.00  0.00     0.218 C 
HETATM   27  O1  UNL     1     -13.522  14.660  31.252  1.00  0.00    -0.274 OA
HETATM   28  N2  UNL     1     -11.253  14.366  31.664  1.00  0.00    -0.346 N 
ATOM     29  H2  UNL     1     -10.420  13.814  31.460  1.00  0.00     0.163 HD
BRANCH  28  30
HETATM   30  C8  UNL     1     -11.154  15.482  32.586  1.00  0.00     0.193 C 
BRANCH  30  31
HETATM   31  C9  UNL     1     -11.490  15.076  33.961  1.00  0.00     0.197 C 
HETATM   32  O2  UNL     1     -12.359  15.754  34.583  1.00  0.00    -0.646 OA
HETATM   33  O3  UNL     1     -10.905  14.003  34.588  1.00  0.00    -0.646 OA
ENDBRANCH  30  31
BRANCH  30  34
HETATM   34  C10 UNL     1      -9.776  16.093  32.563  1.00  0.00    -0.021 C 
HETATM   35  C11 UNL     1      -9.665  17.131  31.464  1.00  0.00     0.017 C 
HETATM   36  C12 UNL     1      -9.543  16.819  33.861  1.00  0.00     0.017 C 
HETATM   37  C13 UNL     1      -8.667  15.090  32.404  1.00  0.00     0.017 C 
ENDBRANCH  30  34
ENDBRANCH  28  30
ENDBRANCH  25  26
ENDBRANCH  24  25
ENDBRANCH  23  24
ENDBRANCH  22  23
ENDBRANCH  21  22
ENDBRANCH  19  21
ENDBRANCH   1  19
BRANCH   6  38
HETATM   38  O4  UNL     1      -6.734  19.066  21.897  1.00  0.00    -0.395 OA
ATOM     39  H4  UNL     1      -5.873  19.058  21.496  1.00  0.00     0.210 HD
ENDBRANCH   6  38
BRANCH   9  40
HETATM   40  O5  UNL     1      -2.645  19.903  24.661  1.00  0.00    -0.396 OA
ATOM     41  H5  UNL     1      -3.074  20.316  25.401  1.00  0.00     0.210 HD
ENDBRANCH   9  40
TORSDOF 12
ENDMDL
MODEL 4
REMARK VINA RESULT: -8.631432885      2.141      9.990
REMARK  12 active torsions:
REMARK  status: ('A' for Active; 'I' for Inactive)
REMARK    1  A    between atoms: N1_2  and  C2_3 
REMARK    2  A    between atoms: N1_2  and  C14_20 
REMARK    3  A    between atoms: C2_3  and  C3_4 
REMARK    4  A    between atoms: C3_4  and  C4_5 
REMARK    5  A    between atoms: C4_5  and  C5_6 
REMARK    6  A    between atoms: C5_6  and  C6_7 
REMARK    7  A    between atoms: C6_7  and  C7_8 
REMARK       I    between atoms: C7_8  and  N2_10 
REMARK    8  A    between atoms: N2_10  and  C8_12 
REMARK    9  A    between atoms: C8_12  and  C9_13 
REMARK   10  A    between atoms: C8_12  and  C10_16 
REMARK   11  A    between atoms: C19_25  and  O4_26 
REMARK   12  A    between atoms: C22_30  and  O5_31 
ROOT
HETATM    1  C14 UNL     1      -9.095  15.388  29.578  1.00  0.00     0.227 C 
HETATM    2  C15 UNL     1      -8.623  16.719  29.053  1.00  0.00     0.042 C 
HETATM    3  C16 UNL     1      -8.686  16.574  27.547  1.00  0.00     0.001 C 
HETATM    4  C17 UNL     1     -10.111  16.614  27.130  1.00  0.00     0.001 C 
HETATM    5  C18 UNL     1     -10.194  15.960  25.763  1.00  0.00     0.038 C 
HETATM    6  C19 UNL     1      -9.082  16.461  24.915  1.00  0.00     0.123 C 
HETATM    7  C20 UNL     1      -8.410  17.732  25.425  1.00  0.00     0.025 C 
HETATM    8  C21 UNL     1      -7.433  18.161  24.386  1.00  0.00     0.039 C 
HETATM    9  C22 UNL     1      -6.053  18.464  24.768  1.00  0.00     0.118 C 
HETATM   10  C23 UNL     1      -5.622  18.137  26.166  1.00  0.00     0.032 C 
HETATM   11  C24 UNL     1      -6.426  17.043  26.779  1.00  0.00     0.012 C 
HETATM   12  C25 UNL     1      -7.867  17.553  26.798  1.00  0.00    -0.034 C 
HETATM   13  C26 UNL     1      -7.815  18.891  27.544  1.00  0.00     0.016 C 
HETATM   14  C27 UNL     1     -11.069  16.045  28.116  1.00  0.00    -0.034 C 
HETATM   15  C28 UNL     1     -12.085  17.058  28.624  1.00  0.00     0.016 C 
HETATM   16  C29 UNL     1     -11.843  14.807  27.644  1.00  0.00     0.010 C 
HETATM   17  C30 UNL     1     -10.862  13.975  28.438  1.00  0.00     0.008 C 
HETATM   18  C31 UNL     1     -10.530  15.225  29.202  1.00  0.00     0.027 C 
ENDROOT
BRANCH   1  19
HETATM   19  N1  UNL     1      -8.878  15.288  31.008  1.00  0.00     0.089 N 
HETATM   20  C1  UNL     1      -8.111  16.430  31.487  1.00  0.00     0.310 C 
BRANCH  19  21
HETATM   21  C2  UNL     1     -10.116  15.194  31.734  1.00  0.00     0.272 C 
BRANCH  21  22
HETATM   22  C3  UNL     1     -10.343  16.298  32.724  1.00  0.00     0.030 C 
BRANCH  22  23
HETATM   23  C4  UNL     1     -10.492  15.709  34.099  1.00  0.00     0.002 C 
BRANCH  23  24
HETATM   24  C5  UNL     1     -11.700  14.840  34.280  1.00  0.00     0.009 C 
BRANCH  24  25
HETATM   25  C6  UNL     1     -11.251  13.676  35.162  1.00  0.00     0.103 C 
BRANCH  25  26
HETATM   26  C7  UNL     1     -11.947  12.423  34.862  1.00  0.00     0.218 C 
HETATM   27  O1  UNL     1     -11.870  11.455  35.621  1.00  0.00    -0.274 OA
HETATM   28  N2  UNL     1     -12.720  12.363  33.657  1.00  0.00    -0.346 N 
ATOM     29  H2  UNL     1     -12.762  13.183  33.052  1.00  0.00     0.163 HD
BRANCH  28  30
HETATM   30  C8  UNL     1     -13.446  11.166  33.277  1.00  0.00     0.193 C 
BRANCH  30  31
HETATM   31  C9  UNL     1     -14.776  11.120  33.907  1.00  0.00     0.197 C 
HETATM   32  O2  UNL     1     -15.356  12.220  34.148  1.00  0.00    -0.646 OA
HETATM   33  O3  UNL     1     -15.406   9.947  34.241  1.00  0.00    -0.646 OA
ENDBRANCH  30  31
BRANCH  30  34
HETATM   34  C10 UNL     1     -13.594  11.064  31.780  1.00  0.00    -0.021 C 
HETATM   35  C11 UNL     1     -13.052  12.306  31.099  1.00  0.00     0.017 C 
HETATM   36  C12 UNL     1     -12.765   9.909  31.285  1.00  0.00     0.017 C 
HETATM   37  C13 UNL     1     -15.007  10.832  31.322  1.00  0.00     0.017 C 
ENDBRANCH  30  34
ENDBRANCH  28  30
ENDBRANCH  25  26
ENDBRANCH  24  25
ENDBRANCH  23  24
ENDBRANCH  22  23
ENDBRANCH  21  22
ENDBRANCH  19  21
ENDBRANCH   1  19
BRANCH   6  38
HETATM   38  O4  UNL     1      -9.609  16.787  23.644  1.00  0.00    -0.395 OA
ATOM     39  H4  UNL     1     -10.551  16.668  23.674  1.00  0.00     0.210 HD
ENDBRANCH   6  38
BRANCH   9  40
HETATM   40  O5  UNL     1      -5.744  19.834  24.556  1.00  0.00    -0.396 OA
ATOM     41  H5  UNL     1      -5.252  20.196  25.283  1.00  0.00     0.210 HD
ENDBRANCH   9  40
TORSDOF 12
ENDMDL
MODEL 5
REMARK VINA RESULT: -8.594190237      2.229      9.492
REMARK  12 active torsions:
REMARK  status: ('A' for Active; 'I' for Inactive)
REMARK    1  A    between atoms: N1_2  and  C2_3 
REMARK    2  A    between atoms: N1_2  and  C14_20 
REMARK    3  A    between atoms: C2_3  and  C3_4 
REMARK    4  A    between atoms: C3_4  and  C4_5 
REMARK    5  A    between atoms: C4_5  and  C5_6 
REMARK    6  A    between atoms: C5_6  and  C6_7 
REMARK    7  A    between atoms: C6_7  and  C7_8 
REMARK       I    between atoms: C7_8  and  N2_10 
REMARK    8  A    between atoms: N2_10  and  C8_12 
REMARK    9  A    between atoms: C8_12  and  C9_13 
REMARK   10  A    between atoms: C8_12  and  C10_16 
REMARK   11  A    between atoms: C19_25  and  O4_26 
REMARK   12  A    between atoms: C22_30  and  O5_31 
ROOT
HETATM    1  C14 UNL     1      -7.983  16.849  28.422  1.00  0.00     0.227 C 
HETATM    2  C15 UNL     1      -7.134  17.927  27.800  1.00  0.00     0.042 C 
HETATM    3  C16 UNL     1      -7.015  17.522  26.346  1.00  0.00     0.001 C 
HETATM    4  C17 UNL     1      -8.314  17.788  25.676  1.00  0.00     0.001 C 
HETATM    5  C18 UNL     1      -8.357  16.925  24.428  1.00  0.00     0.038 C 
HETATM    6  C19 UNL     1      -7.048  17.010  23.732  1.00  0.00     0.123 C 
HETATM    7  C20 UNL     1      -6.168  18.179  24.161  1.00  0.00     0.025 C 
HETATM    8  C21 UNL     1      -4.979  18.188  23.265  1.00  0.00     0.039 C 
HETATM    9  C22 UNL     1      -3.635  18.254  23.843  1.00  0.00     0.118 C 
HETATM   10  C23 UNL     1      -3.500  18.107  25.328  1.00  0.00     0.032 C 
HETATM   11  C24 UNL     1      -4.623  17.345  25.940  1.00  0.00     0.012 C 
HETATM   12  C25 UNL     1      -5.886  18.146  25.622  1.00  0.00    -0.034 C 
HETATM   13  C26 UNL     1      -5.618  19.557  26.159  1.00  0.00     0.016 C 
HETATM   14  C27 UNL     1      -9.511  17.630  26.546  1.00  0.00    -0.034 C 
HETATM   15  C28 UNL     1     -10.313  18.914  26.705  1.00  0.00     0.016 C 
HETATM   16  C29 UNL     1     -10.487  16.522  26.129  1.00  0.00     0.010 C 
HETATM   17  C30 UNL     1      -9.860  15.661  27.202  1.00  0.00     0.008 C 
HETATM   18  C31 UNL     1      -9.347  16.931  27.820  1.00  0.00     0.027 C 
ENDROOT
BRANCH   1  19
HETATM   19  N1  UNL     1      -8.002  16.972  29.866  1.00  0.00     0.089 N 
HETATM   20  C1  UNL     1      -8.877  18.064  30.272  1.00  0.00     0.310 C 
BRANCH  19  21
HETATM   21  C2  UNL     1      -8.422  15.751  30.503  1.00  0.00     0.272 C 
BRANCH  21  22
HETATM   22  C3  UNL     1      -8.306  15.758  31.998  1.00  0.00     0.030 C 
BRANCH  22  23
HETATM   23  C4  UNL     1      -9.471  15.016  32.590  1.00  0.00     0.002 C 
BRANCH  23  24
HETATM   24  C5  UNL     1     -10.755  15.790  32.622  1.00  0.00     0.009 C 
BRANCH  24  25
HETATM   25  C6  UNL     1     -11.737  14.942  33.429  1.00  0.00     0.103 C 
BRANCH  25  26
HETATM   26  C7  UNL     1     -12.696  14.216  32.594  1.00  0.00     0.218 C 
HETATM   27  O1  UNL     1     -13.541  13.472  33.095  1.00  0.00    -0.274 OA
HETATM   28  N2  UNL     1     -12.617  14.403  31.176  1.00  0.00    -0.346 N 
ATOM     29  H2  UNL     1     -11.905  15.025  30.795  1.00  0.00     0.163 HD
BRANCH  28  30
HETATM   30  C8  UNL     1     -13.525  13.729  30.267  1.00  0.00     0.193 C 
BRANCH  30  31
HETATM   31  C9  UNL     1     -14.302  14.692  29.469  1.00  0.00     0.197 C 
HETATM   32  O2  UNL     1     -15.564  14.640  29.541  1.00  0.00    -0.646 OA
HETATM   33  O3  UNL     1     -13.718  15.636  28.660  1.00  0.00    -0.646 OA
ENDBRANCH  30  31
BRANCH  30  34
HETATM   34  C10 UNL     1     -12.787  12.791  29.346  1.00  0.00    -0.021 C 
HETATM   35  C11 UNL     1     -11.417  13.341  29.001  1.00  0.00     0.017 C 
HETATM   36  C12 UNL     1     -12.556  11.486  30.061  1.00  0.00     0.017 C 
HETATM   37  C13 UNL     1     -13.525  12.481  28.073  1.00  0.00     0.017 C 
ENDBRANCH  30  34
ENDBRANCH  28  30
ENDBRANCH  25  26
ENDBRANCH  24  25
ENDBRANCH  23  24
ENDBRANCH  22  23
ENDBRANCH  21  22
ENDBRANCH  19  21
ENDBRANCH   1  19
BRANCH   6  38
HETATM   38  O4  UNL     1      -7.294  17.199  22.352  1.00  0.00    -0.395 OA
ATOM     39  H4  UNL     1      -6.458  17.312  21.915  1.00  0.00     0.210 HD
ENDBRANCH   6  38
BRANCH   9  40
HETATM   40  O5  UNL     1      -2.976  19.462  23.490  1.00  0.00    -0.396 OA
ATOM     41  H5  UNL     1      -2.576  19.874  24.246  1.00  0.00     0.210 HD
ENDBRANCH   9  40
TORSDOF 12
ENDMDL
