MODEL 1
REMARK VINA RESULT: -7.811297850      0.000      0.000
REMARK  6 active torsions:
REMARK  status: ('A' for Active; 'I' for Inactive)
REMARK    1  A    between atoms: C2_2  and  C3_3 
REMARK    2  A    between atoms: C3_3  and  C4_4 
REMARK    3  A    between atoms: C4_4  and  C5_5 
REMARK    4  A    between atoms: C5_5  and  C6_6 
REMARK       I    between atoms: C6_6  and  N1_8 
REMARK    5  A    between atoms: C9_11  and  C11_13 
REMARK    6  A    between atoms: C11_13  and  N2_14 
REMARK       I    between atoms: N2_14  and  C12_16 
ROOT
HETATM    1  C6  UNL     1      25.164  56.169  88.609  1.00  0.00     0.219 C 
HETATM    2  O1  UNL     1      26.220  56.196  89.327  1.00  0.00    -0.273 OA
HETATM    3  N1  UNL     1      25.221  56.734  87.321  1.00  0.00    -0.351 N 
HETATM    4  C7  UNL     1      24.137  56.793  86.378  1.00  0.00     0.126 C 
HETATM    5  C8  UNL     1      24.742  56.790  85.015  1.00  0.00     0.032 C 
HETATM    6  C9  UNL     1      26.127  57.311  85.217  1.00  0.00    -0.010 C 
HETATM    7  C10 UNL     1      27.126  56.324  84.638  1.00  0.00     0.018 C 
HETATM    8  C13 UNL     1      26.369  57.355  86.709  1.00  0.00     0.136 C 
ENDROOT
BRANCH   1   9
HETATM    9  C5  UNL     1      23.907  55.576  89.078  1.00  0.00     0.103 C 
BRANCH   9  10
HETATM   10  C4  UNL     1      23.852  55.222  90.518  1.00  0.00     0.009 C 
BRANCH  10  11
HETATM   11  C3  UNL     1      22.640  54.488  90.975  1.00  0.00     0.000 C 
BRANCH  11  12
HETATM   12  C2  UNL     1      21.668  54.457  89.787  1.00  0.00    -0.005 C 
HETATM   13  C1  UNL     1      20.418  53.707  90.197  1.00  0.00     0.005 C 
ENDBRANCH  11  12
ENDBRANCH  10  11
ENDBRANCH   9  10
ENDBRANCH   1   9
BRANCH   6  14
HETATM   14  C11 UNL     1      26.394  58.630  84.555  1.00  0.00     0.134 C 
BRANCH  14  15
HETATM   15  N2  UNL     1      26.755  59.680  85.460  1.00  0.00    -0.345 N 
HETATM   16  C12 UNL     1      28.031  60.291  85.375  1.00  0.00     0.328 C 
HETATM   17  N3  UNL     1      28.417  61.333  86.257  1.00  0.00    -0.040 NA
HETATM   18  O2  UNL     1      28.869  59.928  84.508  1.00  0.00    -0.251 OA
ATOM     19  H2  UNL     1      26.091  59.988  86.170  1.00  0.00     0.163 HD
ENDBRANCH  14  15
ENDBRANCH   6  14
TORSDOF 6
ENDMDL
MODEL 2
REMARK VINA RESULT: -7.705893173      0.886      1.025
REMARK  6 active torsions:
REMARK  status: ('A' for Active; 'I' for Inactive)
REMARK    1  A    between atoms: C2_2  and  C3_3 
REMARK    2  A    between atoms: C3_3  and  C4_4 
REMARK    3  A    between atoms: C4_4  and  C5_5 
REMARK    4  A    between atoms: C5_5  and  C6_6 
REMARK       I    between atoms: C6_6  and  N1_8 
REMARK    5  A    between atoms: C9_11  and  C11_13 
REMARK    6  A    between atoms: C11_13  and  N2_14 
REMARK       I    between atoms: N2_14  and  C12_16 
ROOT
HETATM    1  C6  UNL     1      26.153  56.647  88.815  1.00  0.00     0.219 C 
HETATM    2  O1  UNL     1      27.325  56.708  89.316  1.00  0.00    -0.273 OA
HETATM    3  N1  UNL     1      25.970  57.092  87.492  1.00  0.00    -0.351 N 
HETATM    4  C7  UNL     1      24.728  57.097  86.767  1.00  0.00     0.126 C 
HETATM    5  C8  UNL     1      25.064  56.956  85.321  1.00  0.00     0.032 C 
HETATM    6  C9  UNL     1      26.467  57.455  85.211  1.00  0.00    -0.010 C 
HETATM    7  C10 UNL     1      27.330  56.393  84.549  1.00  0.00     0.018 C 
HETATM    8  C13 UNL     1      26.988  57.625  86.620  1.00  0.00     0.136 C 
ENDROOT
BRANCH   1   9
HETATM    9  C5  UNL     1      25.001  56.132  89.563  1.00  0.00     0.103 C 
BRANCH   9  10
HETATM   10  C4  UNL     1      25.279  55.664  90.944  1.00  0.00     0.009 C 
BRANCH  10  11
HETATM   11  C3  UNL     1      24.214  54.858  91.599  1.00  0.00     0.000 C 
BRANCH  11  12
HETATM   12  C2  UNL     1      23.041  54.789  90.610  1.00  0.00    -0.005 C 
HETATM   13  C1  UNL     1      21.915  53.997  91.241  1.00  0.00     0.005 C 
ENDBRANCH  11  12
ENDBRANCH  10  11
ENDBRANCH   9  10
ENDBRANCH   1   9
BRANCH   6  14
HETATM   14  C11 UNL     1      26.617  58.702  84.391  1.00  0.00     0.134 C 
BRANCH  14  15
HETATM   15  N2  UNL     1      26.844  59.888  85.162  1.00  0.00    -0.345 N 
HETATM   16  C12 UNL     1      28.097  60.547  85.108  1.00  0.00     0.328 C 
HETATM   17  N3  UNL     1      28.352  61.724  85.860  1.00  0.00    -0.040 NA
HETATM   18  O2  UNL     1      29.032  60.108  84.389  1.00  0.00    -0.251 OA
ATOM     19  H2  UNL     1      26.100  60.259  85.752  1.00  0.00     0.163 HD
ENDBRANCH  14  15
ENDBRANCH   6  14
TORSDOF 6
ENDMDL
MODEL 3
REMARK VINA RESULT: -7.687525234      0.729      1.353
REMARK  6 active torsions:
REMARK  status: ('A' for Active; 'I' for Inactive)
REMARK    1  A    between atoms: C2_2  and  C3_3 
REMARK    2  A    between atoms: C3_3  and  C4_4 
REMARK    3  A    between atoms: C4_4  and  C5_5 
REMARK    4  A    between atoms: C5_5  and  C6_6 
REMARK       I    between atoms: C6_6  and  N1_8 
REMARK    5  A    between atoms: C9_11  and  C11_13 
REMARK    6  A    between atoms: C11_13  and  N2_14 
REMARK       I    between atoms: N2_14  and  C12_16 
ROOT
HETATM    1  C6  UNL     1      25.236  56.231  88.605  1.00  0.00     0.219 C 
HETATM    2  O1  UNL     1      26.302  56.267  89.308  1.00  0.00    -0.273 OA
HETATM    3  N1  UNL     1      25.275  56.783  87.311  1.00  0.00    -0.351 N 
HETATM    4  C7  UNL     1      24.179  56.831  86.382  1.00  0.00     0.126 C 
HETATM    5  C8  UNL     1      24.765  56.816  85.011  1.00  0.00     0.032 C 
HETATM    6  C9  UNL     1      26.152  57.341  85.190  1.00  0.00    -0.010 C 
HETATM    7  C10 UNL     1      27.145  56.349  84.607  1.00  0.00     0.018 C 
HETATM    8  C13 UNL     1      26.414  57.400  86.677  1.00  0.00     0.136 C 
ENDROOT
BRANCH   1   9
HETATM    9  C5  UNL     1      23.986  55.641  89.096  1.00  0.00     0.103 C 
BRANCH   9  10
HETATM   10  C4  UNL     1      23.975  55.238  90.525  1.00  0.00     0.009 C 
BRANCH  10  11
HETATM   11  C3  UNL     1      22.760  54.523  91.003  1.00  0.00     0.000 C 
BRANCH  11  12
HETATM   12  C2  UNL     1      23.014  54.154  92.471  1.00  0.00    -0.005 C 
HETATM   13  C1  UNL     1      24.438  54.523  92.829  1.00  0.00     0.005 C 
ENDBRANCH  11  12
ENDBRANCH  10  11
ENDBRANCH   9  10
ENDBRANCH   1   9
BRANCH   6  14
HETATM   14  C11 UNL     1      26.408  58.654  84.510  1.00  0.00     0.134 C 
BRANCH  14  15
HETATM   15  N2  UNL     1      26.761  59.717  85.403  1.00  0.00    -0.345 N 
HETATM   16  C12 UNL     1      28.036  60.330  85.316  1.00  0.00     0.328 C 
HETATM   17  N3  UNL     1      28.414  61.386  86.186  1.00  0.00    -0.040 NA
HETATM   18  O2  UNL     1      28.880  59.956  84.461  1.00  0.00    -0.251 OA
ATOM     19  H2  UNL     1      26.092  60.035  86.104  1.00  0.00     0.163 HD
ENDBRANCH  14  15
ENDBRANCH   6  14
TORSDOF 6
ENDMDL
MODEL 4
REMARK VINA RESULT: -7.567113371      1.034      1.034
REMARK  6 active torsions:
REMARK  status: ('A' for Active; 'I' for Inactive)
REMARK    1  A    between atoms: C2_2  and  C3_3 
REMARK    2  A    between atoms: C3_3  and  C4_4 
REMARK    3  A    between atoms: C4_4  and  C5_5 
REMARK    4  A    between atoms: C5_5  and  C6_6 
REMARK       I    between atoms: C6_6  and  N1_8 
REMARK    5  A    between atoms: C9_11  and  C11_13 
REMARK    6  A    between atoms: C11_13  and  N2_14 
REMARK       I    between atoms: N2_14  and  C12_16 
ROOT
HETATM    1  C6  UNL     1      24.869  55.919  88.977  1.00  0.00     0.219 C 
HETATM    2  O1  UNL     1      25.979  55.981  89.604  1.00  0.00    -0.273 OA
HETATM    3  N1  UNL     1      24.796  56.496  87.696  1.00  0.00    -0.351 N 
HETATM    4  C7  UNL     1      23.635  56.521  86.847  1.00  0.00     0.126 C 
HETATM    5  C8  UNL     1      24.123  56.553  85.438  1.00  0.00     0.032 C 
HETATM    6  C9  UNL     1      25.499  57.125  85.530  1.00  0.00    -0.010 C 
HETATM    7  C10 UNL     1      26.483  56.182  84.858  1.00  0.00     0.018 C 
HETATM    8  C13 UNL     1      25.864  57.166  86.996  1.00  0.00     0.136 C 
ENDROOT
BRANCH   1   9
HETATM    9  C5  UNL     1      23.678  55.274  89.542  1.00  0.00     0.103 C 
BRANCH   9  10
HETATM   10  C4  UNL     1      23.719  54.998  91.000  1.00  0.00     0.009 C 
BRANCH  10  11
HETATM   11  C3  UNL     1      22.580  54.220  91.560  1.00  0.00     0.000 C 
BRANCH  11  12
HETATM   12  C2  UNL     1      21.537  54.097  90.440  1.00  0.00    -0.005 C 
HETATM   13  C1  UNL     1      20.376  53.263  90.942  1.00  0.00     0.005 C 
ENDBRANCH  11  12
ENDBRANCH  10  11
ENDBRANCH   9  10
ENDBRANCH   1   9
BRANCH   6  14
HETATM   14  C11 UNL     1      25.659  58.459  84.863  1.00  0.00     0.134 C 
BRANCH  14  15
HETATM   15  N2  UNL     1      26.885  59.130  85.177  1.00  0.00    -0.345 N 
HETATM   16  C12 UNL     1      27.846  59.378  84.165  1.00  0.00     0.328 C 
HETATM   17  N3  UNL     1      29.069  60.041  84.447  1.00  0.00    -0.040 NA
HETATM   18  O2  UNL     1      27.645  59.017  82.976  1.00  0.00    -0.251 OA
ATOM     19  H2  UNL     1      27.068  59.430  86.135  1.00  0.00     0.163 HD
ENDBRANCH  14  15
ENDBRANCH   6  14
TORSDOF 6
ENDMDL
MODEL 5
REMARK VINA RESULT: -7.453241166      2.237      2.926
REMARK  6 active torsions:
REMARK  status: ('A' for Active; 'I' for Inactive)
REMARK    1  A    between atoms: C2_2  and  C3_3 
REMARK    2  A    between atoms: C3_3  and  C4_4 
REMARK    3  A    between atoms: C4_4  and  C5_5 
REMARK    4  A    between atoms: C5_5  and  C6_6 
REMARK       I    between atoms: C6_6  and  N1_8 
REMARK    5  A    between atoms: C9_11  and  C11_13 
REMARK    6  A    between atoms: C11_13  and  N2_14 
REMARK       I    between atoms: N2_14  and  C12_16 
ROOT
HETATM    1  C6  UNL     1      22.905  56.385  86.882  1.00  0.00     0.219 C 
HETATM    2  O1  UNL     1      22.183  56.402  85.829  1.00  0.00    -0.273 OA
HETATM    3  N1  UNL     1      24.287  56.608  86.744  1.00  0.00    -0.351 N 
HETATM    4  C7  UNL     1      25.250  56.625  87.812  1.00  0.00     0.126 C 
HETATM    5  C8  UNL     1      26.354  57.535  87.393  1.00  0.00     0.032 C 
HETATM    6  C9  UNL     1      26.284  57.548  85.901  1.00  0.00    -0.010 C 
HETATM    7  C10 UNL     1      26.181  58.983  85.413  1.00  0.00     0.018 C 
HETATM    8  C13 UNL     1      24.995  56.860  85.513  1.00  0.00     0.136 C 
ENDROOT
BRANCH   1   9
HETATM    9  C5  UNL     1      22.347  56.142  88.217  1.00  0.00     0.103 C 
BRANCH   9  10
HETATM   10  C4  UNL     1      21.112  55.320  88.266  1.00  0.00     0.009 C 
BRANCH  10  11
HETATM   11  C3  UNL     1      21.012  54.339  89.381  1.00  0.00     0.000 C 
BRANCH  11  12
HETATM   12  C2  UNL     1      22.308  54.462  90.195  1.00  0.00    -0.005 C 
HETATM   13  C1  UNL     1      22.049  53.975  91.605  1.00  0.00     0.005 C 
ENDBRANCH  11  12
ENDBRANCH  10  11
ENDBRANCH   9  10
ENDBRANCH   1   9
BRANCH   6  14
HETATM   14  C11 UNL     1      27.480  56.948  85.221  1.00  0.00     0.134 C 
BRANCH  14  15
HETATM   15  N2  UNL     1      27.376  56.889  83.794  1.00  0.00    -0.345 N 
HETATM   16  C12 UNL     1      28.098  57.801  82.985  1.00  0.00     0.328 C 
HETATM   17  N3  UNL     1      28.015  57.767  81.568  1.00  0.00    -0.040 NA
HETATM   18  O2  UNL     1      28.841  58.678  83.499  1.00  0.00    -0.251 OA
ATOM     19  H2  UNL     1      26.779  56.187  83.358  1.00  0.00     0.163 HD
ENDBRANCH  14  15
ENDBRANCH   6  14
TORSDOF 6
ENDMDL
