MODEL 1
REMARK VINA RESULT: -7.888198451      0.000      0.000
REMARK  6 active torsions:
REMARK  status: ('A' for Active; 'I' for Inactive)
REMARK    1  A    between atoms: C2_2  and  C3_3 
REMARK       I    between atoms: C3_3  and  N1_5 
REMARK    2  A    between atoms: N1_5  and  C4_7 
REMARK    3  A    between atoms: C4_7  and  C5_8 
REMARK    4  A    between atoms: C5_8  and  C6_9 
REMARK    5  A    between atoms: C6_9  and  C7_10 
REMARK    6  A    between atoms: C7_10  and  N2_11 
REMARK       I    between atoms: N2_11  and  C8_13 
REMARK       I    between atoms: C8_13  and  N3_15 
ROOT
HETATM    1  C7  UNL     1      25.277  57.353  85.482  1.00  0.00     0.124 C 
ENDROOT
BRANCH   1   2
HETATM    2  C6  UNL     1      26.222  58.486  85.183  1.00  0.00     0.021 C 
BRANCH   2   3
HETATM    3  C5  UNL     1      27.175  58.832  86.268  1.00  0.00     0.021 C 
BRANCH   3   4
HETATM    4  C4  UNL     1      28.408  59.470  85.681  1.00  0.00     0.122 C 
BRANCH   4   5
HETATM    5  N1  UNL     1      28.057  60.411  84.628  1.00  0.00    -0.361 N 
HETATM    6  C3  UNL     1      28.170  61.795  84.880  1.00  0.00     0.217 C 
HETATM    7  O1  UNL     1      28.566  62.215  85.995  1.00  0.00    -0.274 OA
ATOM      8  H1  UNL     1      27.734  60.076  83.721  1.00  0.00     0.162 HD
BRANCH   6   9
HETATM    9  C2  UNL     1      27.813  62.771  83.809  1.00  0.00     0.098 C 
HETATM   10  C1  UNL     1      26.712  62.209  82.935  1.00  0.00     0.014 C 
ENDBRANCH   6   9
ENDBRANCH   4   5
ENDBRANCH   3   4
ENDBRANCH   2   3
ENDBRANCH   1   2
BRANCH   1  11
HETATM   11  N2  UNL     1      25.379  57.052  86.906  1.00  0.00    -0.343 N 
HETATM   12  C8  UNL     1      24.537  56.065  87.518  1.00  0.00     0.318 C 
HETATM   13  O2  UNL     1      23.714  55.483  86.755  1.00  0.00    -0.247 OA
HETATM   14  N3  UNL     1      24.624  55.762  88.898  1.00  0.00    -0.334 N 
HETATM   15  C9  UNL     1      23.740  54.755  89.445  1.00  0.00     0.127 C 
HETATM   16  C13 UNL     1      25.576  56.456  89.698  1.00  0.00     0.127 C 
HETATM   17  C10 UNL     1      23.470  55.035  90.920  1.00  0.00     0.020 C 
HETATM   18  C11 UNL     1      24.723  55.179  91.707  1.00  0.00     0.003 C 
HETATM   19  C12 UNL     1      25.873  55.814  91.010  1.00  0.00     0.020 C 
ATOM     20  H2  UNL     1      26.061  57.553  87.477  1.00  0.00     0.164 HD
ENDBRANCH   1  11
TORSDOF 6
ENDMDL
MODEL 2
REMARK VINA RESULT: -7.809628986      1.833      2.603
REMARK  6 active torsions:
REMARK  status: ('A' for Active; 'I' for Inactive)
REMARK    1  A    between atoms: C2_2  and  C3_3 
REMARK       I    between atoms: C3_3  and  N1_5 
REMARK    2  A    between atoms: N1_5  and  C4_7 
REMARK    3  A    between atoms: C4_7  and  C5_8 
REMARK    4  A    between atoms: C5_8  and  C6_9 
REMARK    5  A    between atoms: C6_9  and  C7_10 
REMARK    6  A    between atoms: C7_10  and  N2_11 
REMARK       I    between atoms: N2_11  and  C8_13 
REMARK       I    between atoms: C8_13  and  N3_15 
ROOT
HETATM    1  C7  UNL     1      27.167  57.121  88.516  1.00  0.00     0.124 C 
ENDROOT
BRANCH   1   2
HETATM    2  C6  UNL     1      27.725  57.535  87.180  1.00  0.00     0.021 C 
BRANCH   2   3
HETATM    3  C5  UNL     1      28.841  58.513  87.224  1.00  0.00     0.021 C 
BRANCH   3   4
HETATM    4  C4  UNL     1      28.293  59.916  87.165  1.00  0.00     0.122 C 
BRANCH   4   5
HETATM    5  N1  UNL     1      27.733  60.202  85.852  1.00  0.00    -0.361 N 
HETATM    6  C3  UNL     1      27.973  61.462  85.264  1.00  0.00     0.217 C 
HETATM    7  O1  UNL     1      28.659  62.329  85.860  1.00  0.00    -0.274 OA
ATOM      8  H1  UNL     1      27.175  59.502  85.364  1.00  0.00     0.162 HD
BRANCH   6   9
HETATM    9  C2  UNL     1      27.405  61.769  83.918  1.00  0.00     0.098 C 
HETATM   10  C1  UNL     1      27.811  63.161  83.484  1.00  0.00     0.014 C 
ENDBRANCH   6   9
ENDBRANCH   4   5
ENDBRANCH   3   4
ENDBRANCH   2   3
ENDBRANCH   1   2
BRANCH   1  11
HETATM   11  N2  UNL     1      25.775  56.734  88.315  1.00  0.00    -0.343 N 
HETATM   12  C8  UNL     1      25.057  56.000  89.318  1.00  0.00     0.318 C 
HETATM   13  O2  UNL     1      25.701  55.716  90.369  1.00  0.00    -0.247 OA
HETATM   14  N3  UNL     1      23.706  55.617  89.139  1.00  0.00    -0.334 N 
HETATM   15  C9  UNL     1      23.048  54.877  90.194  1.00  0.00     0.127 C 
HETATM   16  C13 UNL     1      23.043  55.973  87.930  1.00  0.00     0.127 C 
HETATM   17  C10 UNL     1      21.949  53.994  89.613  1.00  0.00     0.020 C 
HETATM   18  C11 UNL     1      20.991  54.761  88.774  1.00  0.00     0.003 C 
HETATM   19  C12 UNL     1      21.556  55.889  87.987  1.00  0.00     0.020 C 
ATOM     20  H2  UNL     1      25.304  56.988  87.447  1.00  0.00     0.164 HD
ENDBRANCH   1  11
TORSDOF 6
ENDMDL
MODEL 3
REMARK VINA RESULT: -7.799227404      1.051      1.178
REMARK  6 active torsions:
REMARK  status: ('A' for Active; 'I' for Inactive)
REMARK    1  A    between atoms: C2_2  and  C3_3 
REMARK       I    between atoms: C3_3  and  N1_5 
REMARK    2  A    between atoms: N1_5  and  C4_7 
REMARK    3  A    between atoms: C4_7  and  C5_8 
REMARK    4  A    between atoms: C5_8  and  C6_9 
REMARK    5  A    between atoms: C6_9  and  C7_10 
REMARK    6  A    between atoms: C7_10  and  N2_11 
REMARK       I    between atoms: N2_11  and  C8_13 
REMARK       I    between atoms: C8_13  and  N3_15 
ROOT
HETATM    1  C7  UNL     1      25.574  57.135  86.603  1.00  0.00     0.124 C 
ENDROOT
BRANCH   1   2
HETATM    2  C6  UNL     1      27.005  57.546  86.383  1.00  0.00     0.021 C 
BRANCH   2   3
HETATM    3  C5  UNL     1      27.657  58.243  87.521  1.00  0.00     0.021 C 
BRANCH   3   4
HETATM    4  C4  UNL     1      28.334  59.497  87.031  1.00  0.00     0.122 C 
BRANCH   4   5
HETATM    5  N1  UNL     1      27.797  59.912  85.743  1.00  0.00    -0.361 N 
HETATM    6  C3  UNL     1      27.949  61.254  85.337  1.00  0.00     0.217 C 
HETATM    7  O1  UNL     1      28.538  62.086  86.071  1.00  0.00    -0.274 OA
ATOM      8  H1  UNL     1      27.317  59.241  85.143  1.00  0.00     0.162 HD
BRANCH   6   9
HETATM    9  C2  UNL     1      27.402  61.692  84.019  1.00  0.00     0.098 C 
HETATM   10  C1  UNL     1      27.915  63.074  83.673  1.00  0.00     0.014 C 
ENDBRANCH   6   9
ENDBRANCH   4   5
ENDBRANCH   3   4
ENDBRANCH   2   3
ENDBRANCH   1   2
BRANCH   1  11
HETATM   11  N2  UNL     1      25.443  56.707  87.992  1.00  0.00    -0.343 N 
HETATM   12  C8  UNL     1      24.479  55.716  88.375  1.00  0.00     0.318 C 
HETATM   13  O2  UNL     1      23.761  55.247  87.446  1.00  0.00    -0.247 OA
HETATM   14  N3  UNL     1      24.340  55.289  89.718  1.00  0.00    -0.334 N 
HETATM   15  C9  UNL     1      23.344  54.287  90.029  1.00  0.00     0.127 C 
HETATM   16  C13 UNL     1      25.183  55.859  90.714  1.00  0.00     0.127 C 
HETATM   17  C10 UNL     1      22.861  54.450  91.466  1.00  0.00     0.020 C 
HETATM   18  C11 UNL     1      23.983  54.459  92.442  1.00  0.00     0.003 C 
HETATM   19  C12 UNL     1      25.250  55.091  91.989  1.00  0.00     0.020 C 
ATOM     20  H2  UNL     1      26.047  57.119  88.703  1.00  0.00     0.164 HD
ENDBRANCH   1  11
TORSDOF 6
ENDMDL
MODEL 4
REMARK VINA RESULT: -7.762893132      4.522      6.348
REMARK  6 active torsions:
REMARK  status: ('A' for Active; 'I' for Inactive)
REMARK    1  A    between atoms: C2_2  and  C3_3 
REMARK       I    between atoms: C3_3  and  N1_5 
REMARK    2  A    between atoms: N1_5  and  C4_7 
REMARK    3  A    between atoms: C4_7  and  C5_8 
REMARK    4  A    between atoms: C5_8  and  C6_9 
REMARK    5  A    between atoms: C6_9  and  C7_10 
REMARK    6  A    between atoms: C7_10  and  N2_11 
REMARK       I    between atoms: N2_11  and  C8_13 
REMARK       I    between atoms: C8_13  and  N3_15 
ROOT
HETATM    1  C7  UNL     1      25.292  56.563  88.457  1.00  0.00     0.124 C 
ENDROOT
BRANCH   1   2
HETATM    2  C6  UNL     1      26.031  57.617  89.237  1.00  0.00     0.021 C 
BRANCH   2   3
HETATM    3  C5  UNL     1      27.512  57.522  89.203  1.00  0.00     0.021 C 
BRANCH   3   4
HETATM    4  C4  UNL     1      27.976  56.433  90.136  1.00  0.00     0.122 C 
BRANCH   4   5
HETATM    5  N1  UNL     1      27.592  56.725  91.510  1.00  0.00    -0.361 N 
HETATM    6  C3  UNL     1      26.647  55.895  92.149  1.00  0.00     0.217 C 
HETATM    7  O1  UNL     1      26.139  54.916  91.547  1.00  0.00    -0.274 OA
ATOM      8  H1  UNL     1      28.000  57.519  92.003  1.00  0.00     0.162 HD
BRANCH   6   9
HETATM    9  C2  UNL     1      26.245  56.183  93.557  1.00  0.00     0.098 C 
HETATM   10  C1  UNL     1      25.287  55.122  94.055  1.00  0.00     0.014 C 
ENDBRANCH   6   9
ENDBRANCH   4   5
ENDBRANCH   3   4
ENDBRANCH   2   3
ENDBRANCH   1   2
BRANCH   1  11
HETATM   11  N2  UNL     1      24.393  55.877  89.380  1.00  0.00    -0.343 N 
HETATM   12  C8  UNL     1      23.227  55.190  88.906  1.00  0.00     0.318 C 
HETATM   13  O2  UNL     1      23.032  55.218  87.656  1.00  0.00    -0.247 OA
HETATM   14  N3  UNL     1      22.345  54.519  89.787  1.00  0.00    -0.334 N 
HETATM   15  C9  UNL     1      21.187  53.849  89.235  1.00  0.00     0.127 C 
HETATM   16  C13 UNL     1      22.627  54.527  91.183  1.00  0.00     0.127 C 
HETATM   17  C10 UNL     1      20.061  53.807  90.264  1.00  0.00     0.020 C 
HETATM   18  C11 UNL     1      20.498  53.216  91.556  1.00  0.00     0.003 C 
HETATM   19  C12 UNL     1      21.898  53.494  91.972  1.00  0.00     0.020 C 
ATOM     20  H2  UNL     1      24.597  55.887  90.379  1.00  0.00     0.164 HD
ENDBRANCH   1  11
TORSDOF 6
ENDMDL
MODEL 5
REMARK VINA RESULT: -7.750280631      1.557      1.980
REMARK  6 active torsions:
REMARK  status: ('A' for Active; 'I' for Inactive)
REMARK    1  A    between atoms: C2_2  and  C3_3 
REMARK       I    between atoms: C3_3  and  N1_5 
REMARK    2  A    between atoms: N1_5  and  C4_7 
REMARK    3  A    between atoms: C4_7  and  C5_8 
REMARK    4  A    between atoms: C5_8  and  C6_9 
REMARK    5  A    between atoms: C6_9  and  C7_10 
REMARK    6  A    between atoms: C7_10  and  N2_11 
REMARK       I    between atoms: N2_11  and  C8_13 
REMARK       I    between atoms: C8_13  and  N3_15 
ROOT
HETATM    1  C7  UNL     1      25.992  57.066  87.854  1.00  0.00     0.124 C 
ENDROOT
BRANCH   1   2
HETATM    2  C6  UNL     1      27.139  57.902  88.355  1.00  0.00     0.021 C 
BRANCH   2   3
HETATM    3  C5  UNL     1      28.305  58.006  87.442  1.00  0.00     0.021 C 
BRANCH   3   4
HETATM    4  C4  UNL     1      28.573  59.454  87.119  1.00  0.00     0.122 C 
BRANCH   4   5
HETATM    5  N1  UNL     1      27.964  59.826  85.851  1.00  0.00    -0.361 N 
HETATM    6  C3  UNL     1      27.996  61.177  85.445  1.00  0.00     0.217 C 
HETATM    7  O1  UNL     1      28.540  62.052  86.164  1.00  0.00    -0.274 OA
ATOM      8  H1  UNL     1      27.520  59.121  85.263  1.00  0.00     0.162 HD
BRANCH   6   9
HETATM    9  C2  UNL     1      27.374  61.572  84.147  1.00  0.00     0.098 C 
HETATM   10  C1  UNL     1      27.843  62.954  83.743  1.00  0.00     0.014 C 
ENDBRANCH   6   9
ENDBRANCH   4   5
ENDBRANCH   3   4
ENDBRANCH   2   3
ENDBRANCH   1   2
BRANCH   1  11
HETATM   11  N2  UNL     1      25.355  56.446  89.012  1.00  0.00    -0.343 N 
HETATM   12  C8  UNL     1      24.264  55.528  88.856  1.00  0.00     0.318 C 
HETATM   13  O2  UNL     1      23.896  55.296  87.668  1.00  0.00    -0.247 OA
HETATM   14  N3  UNL     1      23.636  54.918  89.968  1.00  0.00    -0.334 N 
HETATM   15  C9  UNL     1      22.540  54.003  89.733  1.00  0.00     0.127 C 
HETATM   16  C13 UNL     1      24.104  55.224  91.278  1.00  0.00     0.127 C 
HETATM   17  C10 UNL     1      21.591  53.998  90.926  1.00  0.00     0.020 C 
HETATM   18  C11 UNL     1      22.294  53.725  92.207  1.00  0.00     0.003 C 
HETATM   19  C12 UNL     1      23.673  54.265  92.334  1.00  0.00     0.020 C 
ATOM     20  H2  UNL     1      25.692  56.670  89.949  1.00  0.00     0.164 HD
ENDBRANCH   1  11
TORSDOF 6
ENDMDL
