MODEL 1
REMARK VINA RESULT: -5.472865907      0.000      0.000
REMARK  8 active torsions:
REMARK  status: ('A' for Active; 'I' for Inactive)
REMARK    1  A    between atoms: S1_2  and  C2_3 
REMARK    2  A    between atoms: C2_3  and  C3_4 
REMARK    3  A    between atoms: C3_4  and  O1_5 
REMARK    4  A    between atoms: O1_5  and  C4_6 
REMARK    5  A    between atoms: C4_6  and  N3_13 
REMARK    6  A    between atoms: N1_7  and  O2_9 
REMARK    7  A    between atoms: O2_9  and  C5_10 
REMARK    8  A    between atoms: N3_13  and  C6_15 
ROOT
HETATM    1  C4  UNL     1       1.463  28.953   8.129  1.00  0.00     0.240 C 
HETATM    2  N1  UNL     1       0.589  29.806   7.769  1.00  0.00    -0.220 N 
ATOM      3  H1  UNL     1       0.539  30.078   6.787  1.00  0.00     0.198 HD
ENDROOT
BRANCH   1   4
HETATM    4  O1  UNL     1       1.516  28.596   9.459  1.00  0.00    -0.320 OA
BRANCH   4   5
HETATM    5  C3  UNL     1       1.226  27.330   9.968  1.00  0.00     0.189 C 
BRANCH   5   6
HETATM    6  C2  UNL     1      -0.084  26.754   9.408  1.00  0.00     0.100 C 
BRANCH   6   7
HETATM    7  S1  UNL     1       0.121  25.059   8.868  1.00  0.00    -0.171 SA
HETATM    8  C1  UNL     1      -0.549  23.955  10.128  1.00  0.00     0.089 C 
ENDBRANCH   6   7
ENDBRANCH   5   6
ENDBRANCH   4   5
ENDBRANCH   1   4
BRANCH   1   9
HETATM    9  N3  UNL     1       2.378  28.374   7.163  1.00  0.00    -0.347 N 
ATOM     10  H3  UNL     1       1.991  27.759   6.446  1.00  0.00     0.163 HD
BRANCH   9  11
HETATM   11  C6  UNL     1       3.779  28.611   7.156  1.00  0.00     0.022 C 
HETATM   12  C7  UNL     1       4.279  28.378   5.732  1.00  0.00     0.037 C 
HETATM   13  C8  UNL     1       4.154  30.019   7.569  1.00  0.00     0.037 C 
HETATM   14  C9  UNL     1       4.445  27.675   8.140  1.00  0.00     0.037 C 
ENDBRANCH   9  11
ENDBRANCH   1   9
BRANCH   2  15
HETATM   15  O2  UNL     1      -0.270  30.361   8.641  1.00  0.00    -0.180 OA
BRANCH  15  16
HETATM   16  C5  UNL     1      -0.523  31.700   8.788  1.00  0.00     0.394 C 
HETATM   17  N2  UNL     1      -1.447  32.223   9.730  1.00  0.00    -0.031 NA
HETATM   18  O3  UNL     1       0.089  32.514   8.057  1.00  0.00    -0.240 OA
ENDBRANCH  15  16
ENDBRANCH   2  15
TORSDOF 8
ENDMDL
MODEL 2
REMARK VINA RESULT: -5.411097335      3.457      5.772
REMARK  8 active torsions:
REMARK  status: ('A' for Active; 'I' for Inactive)
REMARK    1  A    between atoms: S1_2  and  C2_3 
REMARK    2  A    between atoms: C2_3  and  C3_4 
REMARK    3  A    between atoms: C3_4  and  O1_5 
REMARK    4  A    between atoms: O1_5  and  C4_6 
REMARK    5  A    between atoms: C4_6  and  N3_13 
REMARK    6  A    between atoms: N1_7  and  O2_9 
REMARK    7  A    between atoms: O2_9  and  C5_10 
REMARK    8  A    between atoms: N3_13  and  C6_15 
ROOT
HETATM    1  C4  UNL     1       2.479  26.526  10.050  1.00  0.00     0.240 C 
HETATM    2  N1  UNL     1       3.401  26.369   9.186  1.00  0.00    -0.220 N 
ATOM      3  H1  UNL     1       3.915  25.488   9.167  1.00  0.00     0.198 HD
ENDROOT
BRANCH   1   4
HETATM    4  O1  UNL     1       1.793  27.722  10.061  1.00  0.00    -0.320 OA
BRANCH   4   5
HETATM    5  C3  UNL     1       0.448  27.885   9.734  1.00  0.00     0.189 C 
BRANCH   5   6
HETATM    6  C2  UNL     1       0.235  28.185   8.242  1.00  0.00     0.100 C 
BRANCH   6   7
HETATM    7  S1  UNL     1       0.479  29.921   7.879  1.00  0.00    -0.171 SA
HETATM    8  C1  UNL     1       1.971  30.111   6.882  1.00  0.00     0.089 C 
ENDBRANCH   6   7
ENDBRANCH   5   6
ENDBRANCH   4   5
ENDBRANCH   1   4
BRANCH   1   9
HETATM    9  N3  UNL     1       2.160  25.474  10.996  1.00  0.00    -0.347 N 
ATOM     10  H3  UNL     1       2.387  25.628  11.979  1.00  0.00     0.163 HD
BRANCH   9  11
HETATM   11  C6  UNL     1       1.551  24.241  10.636  1.00  0.00     0.022 C 
HETATM   12  C7  UNL     1       0.508  23.913  11.702  1.00  0.00     0.037 C 
HETATM   13  C8  UNL     1       0.859  24.282   9.289  1.00  0.00     0.037 C 
HETATM   14  C9  UNL     1       2.614  23.169  10.548  1.00  0.00     0.037 C 
ENDBRANCH   9  11
ENDBRANCH   1   9
BRANCH   2  15
HETATM   15  O2  UNL     1       3.720  27.326   8.298  1.00  0.00    -0.180 OA
BRANCH  15  16
HETATM   16  C5  UNL     1       4.862  27.381   7.541  1.00  0.00     0.394 C 
HETATM   17  N2  UNL     1       5.843  26.355   7.530  1.00  0.00    -0.031 NA
HETATM   18  O3  UNL     1       5.058  28.385   6.816  1.00  0.00    -0.240 OA
ENDBRANCH  15  16
ENDBRANCH   2  15
TORSDOF 8
ENDMDL
MODEL 3
REMARK VINA RESULT: -5.341403299      4.766      6.294
REMARK  8 active torsions:
REMARK  status: ('A' for Active; 'I' for Inactive)
REMARK    1  A    between atoms: S1_2  and  C2_3 
REMARK    2  A    between atoms: C2_3  and  C3_4 
REMARK    3  A    between atoms: C3_4  and  O1_5 
REMARK    4  A    between atoms: O1_5  and  C4_6 
REMARK    5  A    between atoms: C4_6  and  N3_13 
REMARK    6  A    between atoms: N1_7  and  O2_9 
REMARK    7  A    between atoms: O2_9  and  C5_10 
REMARK    8  A    between atoms: N3_13  and  C6_15 
ROOT
HETATM    1  C4  UNL     1       0.965  25.065  11.696  1.00  0.00     0.240 C 
HETATM    2  N1  UNL     1       0.079  25.194  12.602  1.00  0.00    -0.220 N 
ATOM      3  H1  UNL     1      -0.181  26.132  12.907  1.00  0.00     0.198 HD
ENDROOT
BRANCH   1   4
HETATM    4  O1  UNL     1       1.304  23.791  11.294  1.00  0.00    -0.320 OA
BRANCH   4   5
HETATM    5  C3  UNL     1       2.534  23.414  10.757  1.00  0.00     0.189 C 
BRANCH   5   6
HETATM    6  C2  UNL     1       2.426  22.969   9.290  1.00  0.00     0.100 C 
BRANCH   6   7
HETATM    7  S1  UNL     1       2.521  21.188   9.134  1.00  0.00    -0.171 SA
HETATM    8  C1  UNL     1       1.192  20.440  10.098  1.00  0.00     0.089 C 
ENDBRANCH   6   7
ENDBRANCH   5   6
ENDBRANCH   4   5
ENDBRANCH   1   4
BRANCH   1   9
HETATM    9  N3  UNL     1       1.597  26.228  11.104  1.00  0.00    -0.347 N 
ATOM     10  H3  UNL     1       2.417  26.617  11.570  1.00  0.00     0.163 HD
BRANCH   9  11
HETATM   11  C6  UNL     1       1.143  26.858   9.914  1.00  0.00     0.022 C 
HETATM   12  C7  UNL     1       2.364  27.121   9.035  1.00  0.00     0.037 C 
HETATM   13  C8  UNL     1       0.160  26.018   9.125  1.00  0.00     0.037 C 
HETATM   14  C9  UNL     1       0.429  28.143  10.274  1.00  0.00     0.037 C 
ENDBRANCH   9  11
ENDBRANCH   1   9
BRANCH   2  15
HETATM   15  O2  UNL     1      -0.523  24.135  13.171  1.00  0.00    -0.180 OA
BRANCH  15  16
HETATM   16  C5  UNL     1      -1.582  24.176  14.040  1.00  0.00     0.394 C 
HETATM   17  N2  UNL     1      -1.892  23.129  14.946  1.00  0.00    -0.031 NA
HETATM   18  O3  UNL     1      -2.322  25.189  14.043  1.00  0.00    -0.240 OA
ENDBRANCH  15  16
ENDBRANCH   2  15
TORSDOF 8
ENDMDL
MODEL 4
REMARK VINA RESULT: -5.335819901      4.391      5.968
REMARK  8 active torsions:
REMARK  status: ('A' for Active; 'I' for Inactive)
REMARK    1  A    between atoms: S1_2  and  C2_3 
REMARK    2  A    between atoms: C2_3  and  C3_4 
REMARK    3  A    between atoms: C3_4  and  O1_5 
REMARK    4  A    between atoms: O1_5  and  C4_6 
REMARK    5  A    between atoms: C4_6  and  N3_13 
REMARK    6  A    between atoms: N1_7  and  O2_9 
REMARK    7  A    between atoms: O2_9  and  C5_10 
REMARK    8  A    between atoms: N3_13  and  C6_15 
ROOT
HETATM    1  C4  UNL     1      -0.615  25.859  11.223  1.00  0.00     0.240 C 
HETATM    2  N1  UNL     1      -0.436  26.177  12.443  1.00  0.00    -0.220 N 
ATOM      3  H1  UNL     1      -0.223  27.147  12.674  1.00  0.00     0.198 HD
ENDROOT
BRANCH   1   4
HETATM    4  O1  UNL     1      -0.903  24.544  10.928  1.00  0.00    -0.320 OA
BRANCH   4   5
HETATM    5  C3  UNL     1      -0.128  23.707  10.126  1.00  0.00     0.189 C 
BRANCH   5   6
HETATM    6  C2  UNL     1       0.946  22.952  10.925  1.00  0.00     0.100 C 
BRANCH   6   7
HETATM    7  S1  UNL     1       2.510  22.915  10.054  1.00  0.00    -0.171 SA
HETATM    8  C1  UNL     1       2.635  21.370   9.131  1.00  0.00     0.089 C 
ENDBRANCH   6   7
ENDBRANCH   5   6
ENDBRANCH   4   5
ENDBRANCH   1   4
BRANCH   1   9
HETATM    9  N3  UNL     1      -0.518  26.856  10.174  1.00  0.00    -0.347 N 
ATOM     10  H3  UNL     1      -1.354  27.057   9.625  1.00  0.00     0.163 HD
BRANCH   9  11
HETATM   11  C6  UNL     1       0.672  27.569   9.865  1.00  0.00     0.022 C 
HETATM   12  C7  UNL     1       0.723  28.797  10.772  1.00  0.00     0.037 C 
HETATM   13  C8  UNL     1       1.934  26.760  10.086  1.00  0.00     0.037 C 
HETATM   14  C9  UNL     1       0.653  27.957   8.403  1.00  0.00     0.037 C 
ENDBRANCH   9  11
ENDBRANCH   1   9
BRANCH   2  15
HETATM   15  O2  UNL     1      -0.518  25.275  13.437  1.00  0.00    -0.180 OA
BRANCH  15  16
HETATM   16  C5  UNL     1      -1.603  25.058  14.246  1.00  0.00     0.394 C 
HETATM   17  N2  UNL     1      -2.095  23.765  14.565  1.00  0.00    -0.031 NA
HETATM   18  O3  UNL     1      -2.198  26.047  14.737  1.00  0.00    -0.240 OA
ENDBRANCH  15  16
ENDBRANCH   2  15
TORSDOF 8
ENDMDL
MODEL 5
REMARK VINA RESULT: -5.328407540      3.426      6.100
REMARK  8 active torsions:
REMARK  status: ('A' for Active; 'I' for Inactive)
REMARK    1  A    between atoms: S1_2  and  C2_3 
REMARK    2  A    between atoms: C2_3  and  C3_4 
REMARK    3  A    between atoms: C3_4  and  O1_5 
REMARK    4  A    between atoms: O1_5  and  C4_6 
REMARK    5  A    between atoms: C4_6  and  N3_13 
REMARK    6  A    between atoms: N1_7  and  O2_9 
REMARK    7  A    between atoms: O2_9  and  C5_10 
REMARK    8  A    between atoms: N3_13  and  C6_15 
ROOT
HETATM    1  C4  UNL     1       2.047  26.401   9.808  1.00  0.00     0.240 C 
HETATM    2  N1  UNL     1       3.098  25.847   9.351  1.00  0.00    -0.220 N 
ATOM      3  H1  UNL     1       3.554  25.122   9.905  1.00  0.00     0.198 HD
ENDROOT
BRANCH   1   4
HETATM    4  O1  UNL     1       1.442  27.378   9.047  1.00  0.00    -0.320 OA
BRANCH   4   5
HETATM    5  C3  UNL     1       0.673  28.429   9.544  1.00  0.00     0.189 C 
BRANCH   5   6
HETATM    6  C2  UNL     1       0.358  29.488   8.475  1.00  0.00     0.100 C 
BRANCH   6   7
HETATM    7  S1  UNL     1       1.657  29.588   7.247  1.00  0.00    -0.171 SA
HETATM    8  C1  UNL     1       1.810  31.297   6.688  1.00  0.00     0.089 C 
ENDBRANCH   6   7
ENDBRANCH   5   6
ENDBRANCH   4   5
ENDBRANCH   1   4
BRANCH   1   9
HETATM    9  N3  UNL     1       1.502  26.014  11.096  1.00  0.00    -0.347 N 
ATOM     10  H3  UNL     1       1.821  26.520  11.923  1.00  0.00     0.163 HD
BRANCH   9  11
HETATM   11  C6  UNL     1       0.552  24.972  11.275  1.00  0.00     0.022 C 
HETATM   12  C7  UNL     1      -0.168  25.227  12.597  1.00  0.00     0.037 C 
HETATM   13  C8  UNL     1      -0.484  24.906  10.171  1.00  0.00     0.037 C 
HETATM   14  C9  UNL     1       1.271  23.641  11.279  1.00  0.00     0.037 C 
ENDBRANCH   9  11
ENDBRANCH   1   9
BRANCH   2  15
HETATM   15  O2  UNL     1       3.627  26.185   8.163  1.00  0.00    -0.180 OA
BRANCH  15  16
HETATM   16  C5  UNL     1       4.793  26.877   7.962  1.00  0.00     0.394 C 
HETATM   17  N2  UNL     1       5.989  26.274   7.492  1.00  0.00    -0.031 NA
HETATM   18  O3  UNL     1       4.815  28.107   8.202  1.00  0.00    -0.240 OA
ENDBRANCH  15  16
ENDBRANCH   2  15
TORSDOF 8
ENDMDL
