MODEL 1
REMARK VINA RESULT: -6.525937723      0.000      0.000
REMARK  5 active torsions:
REMARK  status: ('A' for Active; 'I' for Inactive)
REMARK    1  A    between atoms: C2_3  and  C6_12 
REMARK    2  A    between atoms: N2_4  and  C3_6 
REMARK    3  A    between atoms: C6_12  and  C8_15 
REMARK    4  A    between atoms: C8_15  and  O1_16 
REMARK    5  A    between atoms: N5_18  and  O2_20 
ROOT
HETATM    1  N1  UNL     1      -1.014  27.470  12.396  1.00  0.00    -0.190 NA
HETATM    2  C1  UNL     1      -0.883  26.319  12.512  1.00  0.00     0.115 C 
HETATM    3  C2  UNL     1      -0.698  24.889  12.646  1.00  0.00     0.118 C 
HETATM    4  N2  UNL     1       0.085  24.222  11.899  1.00  0.00    -0.330 N 
ATOM      5  H2  UNL     1       0.175  23.216  12.044  1.00  0.00     0.168 HD
ENDROOT
BRANCH   3   6
HETATM    6  C6  UNL     1      -1.470  24.225  13.711  1.00  0.00     0.229 C 
HETATM    7  C7  UNL     1      -0.783  22.987  14.091  1.00  0.00     0.079 C 
HETATM    8  N4  UNL     1      -0.251  21.998  14.390  1.00  0.00    -0.196 NA
BRANCH   6   9
HETATM    9  C8  UNL     1      -1.663  25.097  14.894  1.00  0.00     0.160 C 
HETATM   10  N5  UNL     1      -2.781  25.708  15.052  1.00  0.00    -0.250 N 
ATOM     11  H5  UNL     1      -3.518  25.580  14.357  1.00  0.00     0.196 HD
BRANCH   9  12
HETATM   12  O1  UNL     1      -0.672  25.270  15.830  1.00  0.00    -0.347 OA
ATOM     13  H1  UNL     1      -0.815  25.073  16.748  1.00  0.00     0.219 HD
ENDBRANCH   9  12
BRANCH  10  14
HETATM   14  O2  UNL     1      -3.016  26.528  16.129  1.00  0.00    -0.288 OA
ATOM     15  H2  UNL     1      -3.790  27.076  16.184  1.00  0.00     0.244 HD
ENDBRANCH  10  14
ENDBRANCH   6   9
ENDBRANCH   3   6
BRANCH   4  16
HETATM   16  C3  UNL     1       0.853  24.855  10.847  1.00  0.00     0.149 A 
HETATM   17  N3  UNL     1       2.126  25.223  10.865  1.00  0.00    -0.346 N 
HETATM   18  C4  UNL     1       2.652  25.781   9.826  1.00  0.00     0.097 A 
ATOM     19  H3  UNL     1       2.691  25.067  11.700  1.00  0.00     0.167 HD
HETATM   20  C5  UNL     1       1.856  25.971   8.726  1.00  0.00     0.070 A 
HETATM   21  S1  UNL     1       0.369  25.319   9.273  1.00  0.00    -0.064 SA
ENDBRANCH   4  16
TORSDOF 5
ENDMDL
MODEL 2
REMARK VINA RESULT: -6.396882187      6.185      7.559
REMARK  5 active torsions:
REMARK  status: ('A' for Active; 'I' for Inactive)
REMARK    1  A    between atoms: C2_3  and  C6_12 
REMARK    2  A    between atoms: N2_4  and  C3_6 
REMARK    3  A    between atoms: C6_12  and  C8_15 
REMARK    4  A    between atoms: C8_15  and  O1_16 
REMARK    5  A    between atoms: N5_18  and  O2_20 
ROOT
HETATM    1  N1  UNL     1       2.431  25.909   9.114  1.00  0.00    -0.190 NA
HETATM    2  C1  UNL     1       2.304  26.782   8.355  1.00  0.00     0.115 C 
HETATM    3  C2  UNL     1       2.159  27.857   7.395  1.00  0.00     0.118 C 
HETATM    4  N2  UNL     1       2.995  28.063   6.459  1.00  0.00    -0.330 N 
ATOM      5  H2  UNL     1       2.837  28.836   5.812  1.00  0.00     0.168 HD
ENDROOT
BRANCH   3   6
HETATM    6  C6  UNL     1       0.975  28.719   7.550  1.00  0.00     0.229 C 
HETATM    7  C7  UNL     1       0.438  28.547   8.903  1.00  0.00     0.079 C 
HETATM    8  N4  UNL     1      -0.000  28.406   9.970  1.00  0.00    -0.196 NA
BRANCH   6   9
HETATM    9  C8  UNL     1       1.279  30.146   7.290  1.00  0.00     0.160 C 
HETATM   10  N5  UNL     1       1.051  31.017   8.206  1.00  0.00    -0.250 N 
ATOM     11  H5  UNL     1       0.664  30.708   9.098  1.00  0.00     0.196 HD
BRANCH   9  12
HETATM   12  O1  UNL     1       1.800  30.563   6.089  1.00  0.00    -0.347 OA
ATOM     13  H1  UNL     1       1.269  31.021   5.448  1.00  0.00     0.219 HD
ENDBRANCH   9  12
BRANCH  10  14
HETATM   14  O2  UNL     1       1.314  32.353   8.019  1.00  0.00    -0.288 OA
ATOM     15  H2  UNL     1       2.061  32.779   8.423  1.00  0.00     0.244 HD
ENDBRANCH  10  14
ENDBRANCH   6   9
ENDBRANCH   3   6
BRANCH   4  16
HETATM   16  C3  UNL     1       4.165  27.228   6.289  1.00  0.00     0.149 A 
HETATM   17  N3  UNL     1       5.013  26.801   7.214  1.00  0.00    -0.346 N 
HETATM   18  C4  UNL     1       6.013  26.055   6.879  1.00  0.00     0.097 A 
ATOM     19  H3  UNL     1       4.876  27.062   8.191  1.00  0.00     0.167 HD
HETATM   20  C5  UNL     1       6.158  25.730   5.556  1.00  0.00     0.070 A 
HETATM   21  S1  UNL     1       4.814  26.537   4.864  1.00  0.00    -0.064 SA
ENDBRANCH   4  16
TORSDOF 5
ENDMDL
MODEL 3
REMARK VINA RESULT: -6.383059317      4.577      6.624
REMARK  5 active torsions:
REMARK  status: ('A' for Active; 'I' for Inactive)
REMARK    1  A    between atoms: C2_3  and  C6_12 
REMARK    2  A    between atoms: N2_4  and  C3_6 
REMARK    3  A    between atoms: C6_12  and  C8_15 
REMARK    4  A    between atoms: C8_15  and  O1_16 
REMARK    5  A    between atoms: N5_18  and  O2_20 
ROOT
HETATM    1  N1  UNL     1      -0.239  27.946  11.661  1.00  0.00    -0.190 NA
HETATM    2  C1  UNL     1       0.007  27.662  10.559  1.00  0.00     0.115 C 
HETATM    3  C2  UNL     1       0.307  27.287   9.193  1.00  0.00     0.118 C 
HETATM    4  N2  UNL     1       0.668  26.113   8.864  1.00  0.00    -0.330 N 
ATOM      5  H2  UNL     1       0.864  25.909   7.883  1.00  0.00     0.168 HD
ENDROOT
BRANCH   3   6
HETATM    6  C6  UNL     1       0.172  28.346   8.178  1.00  0.00     0.229 C 
HETATM    7  C7  UNL     1      -0.251  29.584   8.839  1.00  0.00     0.079 C 
HETATM    8  N4  UNL     1      -0.598  30.566   9.354  1.00  0.00    -0.196 NA
BRANCH   6   9
HETATM    9  C8  UNL     1       1.426  28.564   7.420  1.00  0.00     0.160 C 
HETATM   10  N5  UNL     1       1.663  29.718   6.911  1.00  0.00    -0.250 N 
ATOM     11  H5  UNL     1       0.980  30.465   7.038  1.00  0.00     0.196 HD
BRANCH   9  12
HETATM   12  O1  UNL     1       2.347  27.558   7.247  1.00  0.00    -0.347 OA
ATOM     13  H1  UNL     1       2.978  27.578   6.538  1.00  0.00     0.219 HD
ENDBRANCH   9  12
BRANCH  10  14
HETATM   14  O2  UNL     1       2.810  29.977   6.199  1.00  0.00    -0.288 OA
ATOM     15  H2  UNL     1       3.627  30.204   6.627  1.00  0.00     0.244 HD
ENDBRANCH  10  14
ENDBRANCH   6   9
ENDBRANCH   3   6
BRANCH   4  16
HETATM   16  C3  UNL     1       0.808  25.059   9.846  1.00  0.00     0.149 A 
HETATM   17  N3  UNL     1       1.848  24.788  10.621  1.00  0.00    -0.346 N 
HETATM   18  C4  UNL     1       1.797  23.798  11.448  1.00  0.00     0.097 A 
ATOM     19  H3  UNL     1       2.690  25.362  10.564  1.00  0.00     0.167 HD
HETATM   20  C5  UNL     1       0.647  23.054  11.491  1.00  0.00     0.070 A 
HETATM   21  S1  UNL     1      -0.308  23.848  10.311  1.00  0.00    -0.064 SA
ENDBRANCH   4  16
TORSDOF 5
ENDMDL
MODEL 4
REMARK VINA RESULT: -6.376760515      1.163      1.809
REMARK  5 active torsions:
REMARK  status: ('A' for Active; 'I' for Inactive)
REMARK    1  A    between atoms: C2_3  and  C6_12 
REMARK    2  A    between atoms: N2_4  and  C3_6 
REMARK    3  A    between atoms: C6_12  and  C8_15 
REMARK    4  A    between atoms: C8_15  and  O1_16 
REMARK    5  A    between atoms: N5_18  and  O2_20 
ROOT
HETATM    1  N1  UNL     1      -0.017  22.704  10.234  1.00  0.00    -0.190 NA
HETATM    2  C1  UNL     1      -0.235  23.453  11.098  1.00  0.00     0.115 C 
HETATM    3  C2  UNL     1      -0.504  24.404  12.157  1.00  0.00     0.118 C 
HETATM    4  N2  UNL     1      -0.149  25.623  12.096  1.00  0.00    -0.330 N 
ATOM      5  H2  UNL     1      -0.369  26.245  12.875  1.00  0.00     0.168 HD
ENDROOT
BRANCH   3   6
HETATM    6  C6  UNL     1      -1.226  23.887  13.333  1.00  0.00     0.229 C 
HETATM    7  C7  UNL     1      -0.510  22.718  13.852  1.00  0.00     0.079 C 
HETATM    8  N4  UNL     1       0.046  21.784  14.262  1.00  0.00    -0.196 NA
BRANCH   6   9
HETATM    9  C8  UNL     1      -1.384  24.912  14.391  1.00  0.00     0.160 C 
HETATM   10  N5  UNL     1      -2.548  25.401  14.627  1.00  0.00    -0.250 N 
ATOM     11  H5  UNL     1      -3.343  25.073  14.079  1.00  0.00     0.196 HD
BRANCH   9  12
HETATM   12  O1  UNL     1      -0.314  25.355  15.130  1.00  0.00    -0.347 OA
ATOM     13  H1  UNL     1       0.572  25.324  14.790  1.00  0.00     0.219 HD
ENDBRANCH   9  12
BRANCH  10  14
HETATM   14  O2  UNL     1      -2.753  26.354  15.596  1.00  0.00    -0.288 OA
ATOM     15  H2  UNL     1      -2.995  26.122  16.485  1.00  0.00     0.244 HD
ENDBRANCH  10  14
ENDBRANCH   6   9
ENDBRANCH   3   6
BRANCH   4  16
HETATM   16  C3  UNL     1       0.561  26.150  10.951  1.00  0.00     0.149 A 
HETATM   17  N3  UNL     1       1.857  26.077  10.680  1.00  0.00    -0.346 N 
HETATM   18  C4  UNL     1       2.322  26.610   9.599  1.00  0.00     0.097 A 
ATOM     19  H3  UNL     1       2.487  25.600  11.324  1.00  0.00     0.167 HD
HETATM   20  C5  UNL     1       1.439  27.241   8.762  1.00  0.00     0.070 A 
HETATM   21  S1  UNL     1      -0.036  27.020   9.604  1.00  0.00    -0.064 SA
ENDBRANCH   4  16
TORSDOF 5
ENDMDL
MODEL 5
REMARK VINA RESULT: -6.317995477      2.302      3.684
REMARK  5 active torsions:
REMARK  status: ('A' for Active; 'I' for Inactive)
REMARK    1  A    between atoms: C2_3  and  C6_12 
REMARK    2  A    between atoms: N2_4  and  C3_6 
REMARK    3  A    between atoms: C6_12  and  C8_15 
REMARK    4  A    between atoms: C8_15  and  O1_16 
REMARK    5  A    between atoms: N5_18  and  O2_20 
ROOT
HETATM    1  N1  UNL     1      -0.866  22.617  14.310  1.00  0.00    -0.190 NA
HETATM    2  C1  UNL     1      -0.677  23.554  13.645  1.00  0.00     0.115 C 
HETATM    3  C2  UNL     1      -0.438  24.705  12.799  1.00  0.00     0.118 C 
HETATM    4  N2  UNL     1       0.262  24.649  11.739  1.00  0.00    -0.330 N 
ATOM      5  H2  UNL     1       0.393  25.494  11.184  1.00  0.00     0.168 HD
ENDROOT
BRANCH   3   6
HETATM    6  C6  UNL     1      -1.056  25.972  13.227  1.00  0.00     0.229 C 
HETATM    7  C7  UNL     1      -0.625  27.039  12.319  1.00  0.00     0.079 C 
HETATM    8  N4  UNL     1      -0.278  27.892  11.610  1.00  0.00    -0.196 NA
BRANCH   6   9
HETATM    9  C8  UNL     1      -2.535  25.891  13.268  1.00  0.00     0.160 C 
HETATM   10  N5  UNL     1      -3.215  26.236  12.235  1.00  0.00    -0.250 N 
ATOM     11  H5  UNL     1      -2.722  26.559  11.403  1.00  0.00     0.196 HD
BRANCH   9  12
HETATM   12  O1  UNL     1      -3.201  25.455  14.388  1.00  0.00    -0.347 OA
ATOM     13  H1  UNL     1      -3.974  25.902  14.713  1.00  0.00     0.219 HD
ENDBRANCH   9  12
BRANCH  10  14
HETATM   14  O2  UNL     1      -4.588  26.181  12.217  1.00  0.00    -0.288 OA
ATOM     15  H2  UNL     1      -5.098  26.590  11.528  1.00  0.00     0.244 HD
ENDBRANCH  10  14
ENDBRANCH   6   9
ENDBRANCH   3   6
BRANCH   4  16
HETATM   16  C3  UNL     1       0.878  23.414  11.301  1.00  0.00     0.149 A 
HETATM   17  N3  UNL     1       0.296  22.342  10.783  1.00  0.00    -0.346 N 
HETATM   18  C4  UNL     1       1.008  21.319  10.446  1.00  0.00     0.097 A 
ATOM     19  H3  UNL     1      -0.716  22.325  10.651  1.00  0.00     0.167 HD
HETATM   20  C5  UNL     1       2.363  21.387  10.641  1.00  0.00     0.070 A 
HETATM   21  S1  UNL     1       2.526  22.955  11.313  1.00  0.00    -0.064 SA
ENDBRANCH   4  16
TORSDOF 5
ENDMDL
