MODEL 1
REMARK VINA RESULT: -6.951898188      0.000      0.000
REMARK  5 active torsions:
REMARK  status: ('A' for Active; 'I' for Inactive)
REMARK    1  A    between atoms: S1_2  and  C2_3 
REMARK    2  A    between atoms: C2_3  and  C9_17 
REMARK    3  A    between atoms: N1_4  and  N2_6 
REMARK    4  A    between atoms: N2_6  and  C3_8 
REMARK    5  A    between atoms: C6_11  and  N3_12 
ROOT
HETATM    1  N2  UNL     1       4.376  28.116   5.554  1.00  0.00    -0.300 N 
ATOM      2  H2  UNL     1       4.394  28.693   4.712  1.00  0.00     0.187 HD
ENDROOT
BRANCH   1   3
HETATM    3  N1  UNL     1       5.409  27.277   5.831  1.00  0.00    -0.288 N 
HETATM    4  C2  UNL     1       5.771  26.266   5.209  1.00  0.00     0.161 C 
ATOM      5  H1  UNL     1       5.957  27.508   6.659  1.00  0.00     0.188 HD
BRANCH   4   6
HETATM    6  S1  UNL     1       5.009  25.648   3.759  1.00  0.00    -0.108 SA
HETATM    7  C1  UNL     1       5.843  25.980   2.215  1.00  0.00     0.097 C 
ENDBRANCH   4   6
BRANCH   4   8
HETATM    8  C9  UNL     1       6.939  25.518   5.728  1.00  0.00     0.235 C 
HETATM    9  O3  UNL     1       7.695  24.854   4.961  1.00  0.00    -0.642 OA
HETATM   10  O4  UNL     1       7.201  25.557   7.088  1.00  0.00    -0.642 OA
ENDBRANCH   4   8
ENDBRANCH   1   3
BRANCH   1  11
HETATM   11  C3  UNL     1       3.258  28.186   6.459  1.00  0.00     0.048 A 
HETATM   12  C4  UNL     1       2.342  29.226   6.362  1.00  0.00     0.033 A 
HETATM   13  C5  UNL     1       1.294  29.256   7.240  1.00  0.00     0.038 A 
HETATM   14  C6  UNL     1       1.131  28.283   8.210  1.00  0.00     0.103 A 
HETATM   15  C7  UNL     1       2.060  27.267   8.276  1.00  0.00     0.038 A 
HETATM   16  C8  UNL     1       3.132  27.198   7.410  1.00  0.00     0.033 A 
BRANCH  14  17
HETATM   17  N3  UNL     1       0.031  28.335   9.114  1.00  0.00    -0.116 N 
HETATM   18  O1  UNL     1      -0.631  27.326   9.355  1.00  0.00    -0.532 OA
HETATM   19  O2  UNL     1      -0.284  29.530   9.714  1.00  0.00    -0.532 OA
ENDBRANCH  14  17
ENDBRANCH   1  11
TORSDOF 5
ENDMDL
MODEL 2
REMARK VINA RESULT: -6.837522348      5.170      7.048
REMARK  5 active torsions:
REMARK  status: ('A' for Active; 'I' for Inactive)
REMARK    1  A    between atoms: S1_2  and  C2_3 
REMARK    2  A    between atoms: C2_3  and  C9_17 
REMARK    3  A    between atoms: N1_4  and  N2_6 
REMARK    4  A    between atoms: N2_6  and  C3_8 
REMARK    5  A    between atoms: C6_11  and  N3_12 
ROOT
HETATM    1  N2  UNL     1      -0.081  25.519   9.664  1.00  0.00    -0.300 N 
ATOM      2  H2  UNL     1      -0.060  24.708   9.045  1.00  0.00     0.187 HD
ENDROOT
BRANCH   1   3
HETATM    3  N1  UNL     1      -0.402  25.370  10.976  1.00  0.00    -0.288 N 
HETATM    4  C2  UNL     1      -0.074  24.461  11.754  1.00  0.00     0.161 C 
ATOM      5  H1  UNL     1      -0.990  26.102  11.374  1.00  0.00     0.188 HD
BRANCH   4   6
HETATM    6  S1  UNL     1       0.927  23.088  11.334  1.00  0.00    -0.108 SA
HETATM    7  C1  UNL     1       2.687  23.382  11.237  1.00  0.00     0.097 C 
ENDBRANCH   4   6
BRANCH   4   8
HETATM    8  C9  UNL     1      -0.565  24.536  13.150  1.00  0.00     0.235 C 
HETATM    9  O3  UNL     1      -0.892  25.639  13.679  1.00  0.00    -0.642 OA
HETATM   10  O4  UNL     1      -0.665  23.365  13.882  1.00  0.00    -0.642 OA
ENDBRANCH   4   8
ENDBRANCH   1   3
BRANCH   1  11
HETATM   11  C3  UNL     1       0.227  26.830   9.154  1.00  0.00     0.048 A 
HETATM   12  C4  UNL     1       0.867  26.973   7.929  1.00  0.00     0.033 A 
HETATM   13  C5  UNL     1       1.142  28.235   7.480  1.00  0.00     0.038 A 
HETATM   14  C6  UNL     1       0.799  29.357   8.214  1.00  0.00     0.103 A 
HETATM   15  C7  UNL     1       0.165  29.176   9.425  1.00  0.00     0.038 A 
HETATM   16  C8  UNL     1      -0.131  27.921   9.915  1.00  0.00     0.033 A 
BRANCH  14  17
HETATM   17  N3  UNL     1       1.097  30.663   7.726  1.00  0.00    -0.116 N 
HETATM   18  O1  UNL     1       0.904  31.654   8.429  1.00  0.00    -0.532 OA
HETATM   19  O2  UNL     1       1.600  30.802   6.456  1.00  0.00    -0.532 OA
ENDBRANCH  14  17
ENDBRANCH   1  11
TORSDOF 5
ENDMDL
MODEL 3
REMARK VINA RESULT: -6.837063235      5.181      7.008
REMARK  5 active torsions:
REMARK  status: ('A' for Active; 'I' for Inactive)
REMARK    1  A    between atoms: S1_2  and  C2_3 
REMARK    2  A    between atoms: C2_3  and  C9_17 
REMARK    3  A    between atoms: N1_4  and  N2_6 
REMARK    4  A    between atoms: N2_6  and  C3_8 
REMARK    5  A    between atoms: C6_11  and  N3_12 
ROOT
HETATM    1  N2  UNL     1      -0.062  25.517   9.674  1.00  0.00    -0.300 N 
ATOM      2  H2  UNL     1      -0.021  24.713   9.047  1.00  0.00     0.187 HD
ENDROOT
BRANCH   1   3
HETATM    3  N1  UNL     1      -0.391  25.349  10.982  1.00  0.00    -0.288 N 
HETATM    4  C2  UNL     1      -0.055  24.437  11.753  1.00  0.00     0.161 C 
ATOM      5  H1  UNL     1      -0.994  26.067  11.383  1.00  0.00     0.188 HD
BRANCH   4   6
HETATM    6  S1  UNL     1       0.971  23.084  11.325  1.00  0.00    -0.108 SA
HETATM    7  C1  UNL     1       2.722  23.418  11.199  1.00  0.00     0.097 C 
ENDBRANCH   4   6
BRANCH   4   8
HETATM    8  C9  UNL     1      -0.558  24.489  13.145  1.00  0.00     0.235 C 
HETATM    9  O3  UNL     1      -0.828  25.588  13.711  1.00  0.00    -0.642 OA
HETATM   10  O4  UNL     1      -0.735  23.298  13.832  1.00  0.00    -0.642 OA
ENDBRANCH   4   8
ENDBRANCH   1   3
BRANCH   1  11
HETATM   11  C3  UNL     1       0.228  26.839   9.181  1.00  0.00     0.048 A 
HETATM   12  C4  UNL     1      -0.123  27.958   9.925  1.00  0.00     0.033 A 
HETATM   13  C5  UNL     1       0.170  29.195   9.421  1.00  0.00     0.038 A 
HETATM   14  C6  UNL     1       0.802  29.350   8.200  1.00  0.00     0.103 A 
HETATM   15  C7  UNL     1       1.136  28.217   7.490  1.00  0.00     0.038 A 
HETATM   16  C8  UNL     1       0.858  26.950   7.961  1.00  0.00     0.033 A 
BRANCH  14  17
HETATM   17  N3  UNL     1       1.097  30.650   7.695  1.00  0.00    -0.116 N 
HETATM   18  O1  UNL     1       1.531  30.795   6.553  1.00  0.00    -0.532 OA
HETATM   19  O2  UNL     1       0.893  31.742   8.502  1.00  0.00    -0.532 OA
ENDBRANCH  14  17
ENDBRANCH   1  11
TORSDOF 5
ENDMDL
MODEL 4
REMARK VINA RESULT: -6.820724770      5.169      7.023
REMARK  5 active torsions:
REMARK  status: ('A' for Active; 'I' for Inactive)
REMARK    1  A    between atoms: S1_2  and  C2_3 
REMARK    2  A    between atoms: C2_3  and  C9_17 
REMARK    3  A    between atoms: N1_4  and  N2_6 
REMARK    4  A    between atoms: N2_6  and  C3_8 
REMARK    5  A    between atoms: C6_11  and  N3_12 
ROOT
HETATM    1  N2  UNL     1      -0.029  25.446   9.691  1.00  0.00    -0.300 N 
ATOM      2  H2  UNL     1       0.035  24.645   9.062  1.00  0.00     0.187 HD
ENDROOT
BRANCH   1   3
HETATM    3  N1  UNL     1      -0.372  25.267  10.994  1.00  0.00    -0.288 N 
HETATM    4  C2  UNL     1      -0.029  24.358  11.766  1.00  0.00     0.161 C 
ATOM      5  H1  UNL     1      -0.993  25.973  11.389  1.00  0.00     0.188 HD
BRANCH   4   6
HETATM    6  S1  UNL     1       1.027  23.026  11.348  1.00  0.00    -0.108 SA
HETATM    7  C1  UNL     1       2.772  23.393  11.244  1.00  0.00     0.097 C 
ENDBRANCH   4   6
BRANCH   4   8
HETATM    8  C9  UNL     1      -0.552  24.396  13.152  1.00  0.00     0.235 C 
HETATM    9  O3  UNL     1      -0.708  23.339  13.830  1.00  0.00    -0.642 OA
HETATM   10  O4  UNL     1      -0.873  25.624  13.707  1.00  0.00    -0.642 OA
ENDBRANCH   4   8
ENDBRANCH   1   3
BRANCH   1  11
HETATM   11  C3  UNL     1       0.244  26.774   9.206  1.00  0.00     0.048 A 
HETATM   12  C4  UNL     1      -0.104  27.884   9.966  1.00  0.00     0.033 A 
HETATM   13  C5  UNL     1       0.172  29.128   9.470  1.00  0.00     0.038 A 
HETATM   14  C6  UNL     1       0.783  29.299   8.240  1.00  0.00     0.103 A 
HETATM   15  C7  UNL     1       1.115  28.175   7.514  1.00  0.00     0.038 A 
HETATM   16  C8  UNL     1       0.854  26.902   7.978  1.00  0.00     0.033 A 
BRANCH  14  17
HETATM   17  N3  UNL     1       1.061  30.606   7.743  1.00  0.00    -0.116 N 
HETATM   18  O1  UNL     1       0.851  31.599   8.440  1.00  0.00    -0.532 OA
HETATM   19  O2  UNL     1       1.566  30.745   6.474  1.00  0.00    -0.532 OA
ENDBRANCH  14  17
ENDBRANCH   1  11
TORSDOF 5
ENDMDL
MODEL 5
REMARK VINA RESULT: -6.819043944      0.317      1.411
REMARK  5 active torsions:
REMARK  status: ('A' for Active; 'I' for Inactive)
REMARK    1  A    between atoms: S1_2  and  C2_3 
REMARK    2  A    between atoms: C2_3  and  C9_17 
REMARK    3  A    between atoms: N1_4  and  N2_6 
REMARK    4  A    between atoms: N2_6  and  C3_8 
REMARK    5  A    between atoms: C6_11  and  N3_12 
ROOT
HETATM    1  N2  UNL     1       4.165  28.145   5.558  1.00  0.00    -0.300 N 
ATOM      2  H2  UNL     1       4.156  28.652   4.672  1.00  0.00     0.187 HD
ENDROOT
BRANCH   1   3
HETATM    3  N1  UNL     1       5.207  27.331   5.869  1.00  0.00    -0.288 N 
HETATM    4  C2  UNL     1       5.613  26.328   5.262  1.00  0.00     0.161 C 
ATOM      5  H1  UNL     1       5.724  27.576   6.713  1.00  0.00     0.188 HD
BRANCH   4   6
HETATM    6  S1  UNL     1       4.912  25.689   3.790  1.00  0.00    -0.108 SA
HETATM    7  C1  UNL     1       5.777  26.053   2.270  1.00  0.00     0.097 C 
ENDBRANCH   4   6
BRANCH   4   8
HETATM    8  C9  UNL     1       6.781  25.608   5.820  1.00  0.00     0.235 C 
HETATM    9  O3  UNL     1       7.562  24.939   5.082  1.00  0.00    -0.642 OA
HETATM   10  O4  UNL     1       7.015  25.680   7.184  1.00  0.00    -0.642 OA
ENDBRANCH   4   8
ENDBRANCH   1   3
BRANCH   1  11
HETATM   11  C3  UNL     1       3.074  28.287   6.488  1.00  0.00     0.048 A 
HETATM   12  C4  UNL     1       2.802  27.283   7.408  1.00  0.00     0.033 A 
HETATM   13  C5  UNL     1       1.758  27.457   8.274  1.00  0.00     0.038 A 
HETATM   14  C6  UNL     1       0.977  28.599   8.250  1.00  0.00     0.103 A 
HETATM   15  C7  UNL     1       1.277  29.574   7.323  1.00  0.00     0.038 A 
HETATM   16  C8  UNL     1       2.322  29.440   6.431  1.00  0.00     0.033 A 
BRANCH  14  17
HETATM   17  N3  UNL     1      -0.106  28.758   9.162  1.00  0.00    -0.116 N 
HETATM   18  O1  UNL     1      -0.595  29.868   9.367  1.00  0.00    -0.532 OA
HETATM   19  O2  UNL     1      -0.598  27.653   9.812  1.00  0.00    -0.532 OA
ENDBRANCH  14  17
ENDBRANCH   1  11
TORSDOF 5
ENDMDL
