MODEL 1
REMARK VINA RESULT: -4.819823645      0.000      0.000
REMARK  4 active torsions:
REMARK  status: ('A' for Active; 'I' for Inactive)
REMARK    1  A    between atoms: N2_3  and  C2_5 
REMARK    2  A    between atoms: C2_5  and  N3_7 
REMARK       I    between atoms: N3_7  and  C3_9 
REMARK    3  A    between atoms: C3_9  and  C4_11 
REMARK    4  A    between atoms: N4_12  and  N5_14 
ROOT
HETATM    1  N1  UNL     1      53.953  39.948  -0.625  1.00  0.00    -0.172 NA
HETATM    2  C1  UNL     1      53.296  38.998  -0.529  1.00  0.00     0.184 C 
HETATM    3  N2  UNL     1      52.488  37.859  -0.432  1.00  0.00    -0.270 N 
ATOM      4  H2  UNL     1      52.515  37.150  -1.165  1.00  0.00     0.180 HD
ENDROOT
BRANCH   3   5
HETATM    5  C2  UNL     1      51.633  37.689   0.683  1.00  0.00     0.187 C 
HETATM    6  S1  UNL     1      51.833  38.655   1.988  1.00  0.00    -0.040 SA
BRANCH   5   7
HETATM    7  N3  UNL     1      50.617  36.686   0.650  1.00  0.00    -0.298 N 
HETATM    8  C3  UNL     1      50.841  35.447  -0.004  1.00  0.00     0.264 C 
HETATM    9  O1  UNL     1      51.945  35.195  -0.574  1.00  0.00    -0.267 OA
ATOM     10  H3  UNL     1      49.720  36.863   1.101  1.00  0.00     0.171 HD
BRANCH   8  11
HETATM   11  C4  UNL     1      49.815  34.429  -0.041  1.00  0.00     0.181 C 
HETATM   12  N4  UNL     1      48.621  34.744  -0.380  1.00  0.00    -0.309 N 
ATOM     13  H4  UNL     1      48.426  35.718  -0.617  1.00  0.00     0.186 HD
BRANCH  12  14
HETATM   14  N5  UNL     1      47.569  33.823  -0.442  1.00  0.00    -0.326 N 
HETATM   15  C5  UNL     1      47.658  32.950  -1.596  1.00  0.00     0.144 C 
HETATM   16  C6  UNL     1      46.941  31.647  -1.388  1.00  0.00     0.049 C 
HETATM   17  C7  UNL     1      45.445  31.876  -1.351  1.00  0.00     0.234 C 
HETATM   18  N6  UNL     1      45.084  32.132   0.026  1.00  0.00    -0.073 N 
HETATM   19  C8  UNL     1      45.238  33.530   0.276  1.00  0.00     0.253 C 
ATOM     20  H62 UNL     1      44.150  31.792   0.257  1.00  0.00     0.277 HD
ATOM     21  H61 UNL     1      45.608  31.556   0.683  1.00  0.00     0.277 HD
HETATM   22  C9  UNL     1      46.640  33.940   0.633  1.00  0.00     0.170 C 
ENDBRANCH  12  14
ENDBRANCH   8  11
ENDBRANCH   5   7
ENDBRANCH   3   5
TORSDOF 4
ENDMDL
MODEL 2
REMARK VINA RESULT: -4.660227662      0.714      1.552
REMARK  4 active torsions:
REMARK  status: ('A' for Active; 'I' for Inactive)
REMARK    1  A    between atoms: N2_3  and  C2_5 
REMARK    2  A    between atoms: C2_5  and  N3_7 
REMARK       I    between atoms: N3_7  and  C3_9 
REMARK    3  A    between atoms: C3_9  and  C4_11 
REMARK    4  A    between atoms: N4_12  and  N5_14 
ROOT
HETATM    1  N1  UNL     1      54.069  40.210  -1.158  1.00  0.00    -0.172 NA
HETATM    2  C1  UNL     1      53.522  39.244  -0.824  1.00  0.00     0.184 C 
HETATM    3  N2  UNL     1      52.845  38.081  -0.439  1.00  0.00    -0.270 N 
ATOM      4  H2  UNL     1      52.943  37.228  -0.990  1.00  0.00     0.180 HD
ENDROOT
BRANCH   3   5
HETATM    5  C2  UNL     1      52.025  38.085   0.715  1.00  0.00     0.187 C 
HETATM    6  S1  UNL     1      52.368  39.132   1.925  1.00  0.00    -0.040 SA
BRANCH   5   7
HETATM    7  N3  UNL     1      50.921  37.184   0.802  1.00  0.00    -0.298 N 
HETATM    8  C3  UNL     1      51.007  35.876   0.262  1.00  0.00     0.264 C 
HETATM    9  O1  UNL     1      52.063  35.469  -0.311  1.00  0.00    -0.267 OA
ATOM     10  H3  UNL     1      50.059  37.486   1.257  1.00  0.00     0.171 HD
BRANCH   8  11
HETATM   11  C4  UNL     1      49.890  34.960   0.347  1.00  0.00     0.181 C 
HETATM   12  N4  UNL     1      49.008  34.948  -0.582  1.00  0.00    -0.309 N 
ATOM     13  H4  UNL     1      49.121  35.593  -1.364  1.00  0.00     0.186 HD
BRANCH  12  14
HETATM   14  N5  UNL     1      47.898  34.096  -0.579  1.00  0.00    -0.326 N 
HETATM   15  C5  UNL     1      47.059  34.275   0.589  1.00  0.00     0.144 C 
HETATM   16  C6  UNL     1      45.640  33.845   0.350  1.00  0.00     0.049 C 
HETATM   17  C7  UNL     1      45.569  32.339   0.208  1.00  0.00     0.234 C 
HETATM   18  N6  UNL     1      45.751  32.031  -1.193  1.00  0.00    -0.073 N 
HETATM   19  C8  UNL     1      47.152  31.924  -1.452  1.00  0.00     0.253 C 
ATOM     20  H62 UNL     1      45.233  31.201  -1.483  1.00  0.00     0.277 HD
ATOM     21  H61 UNL     1      45.289  32.703  -1.806  1.00  0.00     0.277 HD
HETATM   22  C9  UNL     1      47.830  33.240  -1.717  1.00  0.00     0.170 C 
ENDBRANCH  12  14
ENDBRANCH   8  11
ENDBRANCH   5   7
ENDBRANCH   3   5
TORSDOF 4
ENDMDL
MODEL 3
REMARK VINA RESULT: -4.221529333      2.315      3.176
REMARK  4 active torsions:
REMARK  status: ('A' for Active; 'I' for Inactive)
REMARK    1  A    between atoms: N2_3  and  C2_5 
REMARK    2  A    between atoms: C2_5  and  N3_7 
REMARK       I    between atoms: N3_7  and  C3_9 
REMARK    3  A    between atoms: C3_9  and  C4_11 
REMARK    4  A    between atoms: N4_12  and  N5_14 
ROOT
HETATM    1  N1  UNL     1      57.145  39.488  -0.109  1.00  0.00    -0.172 NA
HETATM    2  C1  UNL     1      56.029  39.391   0.191  1.00  0.00     0.184 C 
HETATM    3  N2  UNL     1      54.686  39.251   0.561  1.00  0.00    -0.270 N 
ATOM      4  H2  UNL     1      54.432  39.195   1.547  1.00  0.00     0.180 HD
ENDROOT
BRANCH   3   5
HETATM    5  C2  UNL     1      53.680  39.187  -0.432  1.00  0.00     0.187 C 
HETATM    6  S1  UNL     1      53.570  40.399  -1.526  1.00  0.00    -0.040 SA
BRANCH   5   7
HETATM    7  N3  UNL     1      52.786  38.074  -0.463  1.00  0.00    -0.298 N 
HETATM    8  C3  UNL     1      51.881  37.840   0.604  1.00  0.00     0.264 C 
HETATM    9  O1  UNL     1      51.840  38.609   1.611  1.00  0.00    -0.267 OA
ATOM     10  H3  UNL     1      52.798  37.440  -1.262  1.00  0.00     0.171 HD
BRANCH   8  11
HETATM   11  C4  UNL     1      50.974  36.714   0.577  1.00  0.00     0.181 C 
HETATM   12  N4  UNL     1      51.289  35.662  -0.081  1.00  0.00    -0.309 N 
ATOM     13  H4  UNL     1      52.182  35.649  -0.575  1.00  0.00     0.186 HD
BRANCH  12  14
HETATM   14  N5  UNL     1      50.472  34.528  -0.160  1.00  0.00    -0.326 N 
HETATM   15  C5  UNL     1      50.736  33.730  -1.341  1.00  0.00     0.144 C 
HETATM   16  C6  UNL     1      50.337  32.293  -1.165  1.00  0.00     0.049 C 
HETATM   17  C7  UNL     1      48.829  32.175  -1.103  1.00  0.00     0.234 C 
HETATM   18  N6  UNL     1      48.444  32.305   0.285  1.00  0.00    -0.073 N 
HETATM   19  C8  UNL     1      48.282  33.694   0.577  1.00  0.00     0.253 C 
ATOM     20  H62 UNL     1      47.617  31.755   0.516  1.00  0.00     0.277 HD
ATOM     21  H61 UNL     1      49.098  31.844   0.918  1.00  0.00     0.277 HD
HETATM   22  C9  UNL     1      49.562  34.401   0.929  1.00  0.00     0.170 C 
ENDBRANCH  12  14
ENDBRANCH   8  11
ENDBRANCH   5   7
ENDBRANCH   3   5
TORSDOF 4
ENDMDL
MODEL 4
REMARK VINA RESULT: -4.151987392      2.537      3.539
REMARK  4 active torsions:
REMARK  status: ('A' for Active; 'I' for Inactive)
REMARK    1  A    between atoms: N2_3  and  C2_5 
REMARK    2  A    between atoms: C2_5  and  N3_7 
REMARK       I    between atoms: N3_7  and  C3_9 
REMARK    3  A    between atoms: C3_9  and  C4_11 
REMARK    4  A    between atoms: N4_12  and  N5_14 
ROOT
HETATM    1  N1  UNL     1      57.142  39.471  -0.117  1.00  0.00    -0.172 NA
HETATM    2  C1  UNL     1      56.026  39.386   0.187  1.00  0.00     0.184 C 
HETATM    3  N2  UNL     1      54.683  39.262   0.562  1.00  0.00    -0.270 N 
ATOM      4  H2  UNL     1      54.431  39.217   1.549  1.00  0.00     0.180 HD
ENDROOT
BRANCH   3   5
HETATM    5  C2  UNL     1      53.674  39.197  -0.428  1.00  0.00     0.187 C 
HETATM    6  S1  UNL     1      53.550  40.417  -1.512  1.00  0.00    -0.040 SA
BRANCH   5   7
HETATM    7  N3  UNL     1      52.788  38.078  -0.465  1.00  0.00    -0.298 N 
HETATM    8  C3  UNL     1      51.893  37.825   0.606  1.00  0.00     0.264 C 
HETATM    9  O1  UNL     1      51.852  38.584   1.621  1.00  0.00    -0.267 OA
ATOM     10  H3  UNL     1      52.800  37.452  -1.270  1.00  0.00     0.171 HD
BRANCH   8  11
HETATM   11  C4  UNL     1      50.995  36.692   0.573  1.00  0.00     0.181 C 
HETATM   12  N4  UNL     1      51.307  35.655  -0.111  1.00  0.00    -0.309 N 
ATOM     13  H4  UNL     1      52.191  35.660  -0.619  1.00  0.00     0.186 HD
BRANCH  12  14
HETATM   14  N5  UNL     1      50.498  34.516  -0.196  1.00  0.00    -0.326 N 
HETATM   15  C5  UNL     1      49.623  34.364   0.950  1.00  0.00     0.144 C 
HETATM   16  C6  UNL     1      48.399  33.553   0.636  1.00  0.00     0.049 C 
HETATM   17  C7  UNL     1      48.779  32.105   0.405  1.00  0.00     0.234 C 
HETATM   18  N6  UNL     1      49.067  31.957  -1.005  1.00  0.00    -0.073 N 
HETATM   19  C8  UNL     1      50.441  32.283  -1.218  1.00  0.00     0.253 C 
ATOM     20  H62 UNL     1      48.823  31.032  -1.360  1.00  0.00     0.277 HD
ATOM     21  H61 UNL     1      48.438  32.502  -1.594  1.00  0.00     0.277 HD
HETATM   22  C9  UNL     1      50.705  33.754  -1.383  1.00  0.00     0.170 C 
ENDBRANCH  12  14
ENDBRANCH   8  11
ENDBRANCH   5   7
ENDBRANCH   3   5
TORSDOF 4
ENDMDL
MODEL 5
REMARK VINA RESULT: -4.065852381      1.544      1.544
REMARK  4 active torsions:
REMARK  status: ('A' for Active; 'I' for Inactive)
REMARK    1  A    between atoms: N2_3  and  C2_5 
REMARK    2  A    between atoms: C2_5  and  N3_7 
REMARK       I    between atoms: N3_7  and  C3_9 
REMARK    3  A    between atoms: C3_9  and  C4_11 
REMARK    4  A    between atoms: N4_12  and  N5_14 
ROOT
HETATM    1  N1  UNL     1      52.787  39.991   2.147  1.00  0.00    -0.172 NA
HETATM    2  C1  UNL     1      52.127  39.047   2.011  1.00  0.00     0.184 C 
HETATM    3  N2  UNL     1      51.346  37.896   1.861  1.00  0.00    -0.270 N 
ATOM      4  H2  UNL     1      50.814  37.534   2.652  1.00  0.00     0.180 HD
ENDROOT
BRANCH   3   5
HETATM    5  C2  UNL     1      51.294  37.232   0.612  1.00  0.00     0.187 C 
HETATM    6  S1  UNL     1      52.416  37.593  -0.523  1.00  0.00    -0.040 SA
BRANCH   5   7
HETATM    7  N3  UNL     1      50.272  36.266   0.366  1.00  0.00    -0.298 N 
HETATM    8  C3  UNL     1      50.434  34.917   0.774  1.00  0.00     0.264 C 
HETATM    9  O1  UNL     1      51.486  34.533   1.368  1.00  0.00    -0.267 OA
ATOM     10  H3  UNL     1      49.415  36.549  -0.110  1.00  0.00     0.171 HD
BRANCH   8  11
HETATM   11  C4  UNL     1      49.401  33.935   0.526  1.00  0.00     0.181 C 
HETATM   12  N4  UNL     1      48.318  34.288  -0.059  1.00  0.00    -0.309 N 
ATOM     13  H4  UNL     1      48.214  35.265  -0.336  1.00  0.00     0.186 HD
BRANCH  12  14
HETATM   14  N5  UNL     1      47.270  33.404  -0.339  1.00  0.00    -0.326 N 
HETATM   15  C5  UNL     1      47.475  32.664  -1.569  1.00  0.00     0.144 C 
HETATM   16  C6  UNL     1      46.727  31.363  -1.589  1.00  0.00     0.049 C 
HETATM   17  C7  UNL     1      45.237  31.619  -1.685  1.00  0.00     0.234 C 
HETATM   18  N6  UNL     1      44.732  31.727  -0.335  1.00  0.00    -0.073 N 
HETATM   19  C8  UNL     1      44.872  33.084   0.090  1.00  0.00     0.253 C 
ATOM     20  H62 UNL     1      43.775  31.384  -0.245  1.00  0.00     0.277 HD
ATOM     21  H61 UNL     1      45.176  31.068   0.305  1.00  0.00     0.277 HD
HETATM   22  C9  UNL     1      46.232  33.419   0.638  1.00  0.00     0.170 C 
ENDBRANCH  12  14
ENDBRANCH   8  11
ENDBRANCH   5   7
ENDBRANCH   3   5
TORSDOF 4
ENDMDL
