MODEL 1
REMARK VINA RESULT: -9.204669081      0.000      0.000
REMARK  1 active torsions:
REMARK  status: ('A' for Active; 'I' for Inactive)
REMARK    1  A    between atoms: O1_1  and  N1_3 
ROOT
HETATM    1  N1  UNL     1      -0.296  31.850   4.101  1.00  0.00    -0.220 N 
HETATM    2  C1  UNL     1      -0.828  33.118   3.972  1.00  0.00     0.089 A 
HETATM    3  C2  UNL     1      -2.182  33.327   3.831  1.00  0.00     0.034 A 
HETATM    4  C3  UNL     1      -2.722  34.611   3.700  1.00  0.00     0.002 A 
HETATM    5  C4  UNL     1      -1.884  35.697   3.712  1.00  0.00     0.002 A 
HETATM    6  C5  UNL     1      -0.531  35.481   3.854  1.00  0.00     0.032 A 
HETATM    7  C6  UNL     1      -0.003  34.207   3.983  1.00  0.00     0.062 A 
HETATM    8  N2  UNL     1       1.317  34.063   4.117  1.00  0.00    -0.352 N 
ATOM      9  H2  UNL     1       1.920  34.886   4.123  1.00  0.00     0.166 HD
HETATM   10  C7  UNL     1       1.858  32.828   4.245  1.00  0.00     0.063 A 
HETATM   11  C8  UNL     1       3.234  32.753   4.381  1.00  0.00     0.034 A 
HETATM   12  C9  UNL     1       3.766  31.512   4.508  1.00  0.00     0.033 A 
HETATM   13  C10 UNL     1       2.998  30.376   4.506  1.00  0.00     0.046 A 
HETATM   14  N3  UNL     1       3.318  29.077   4.617  1.00  0.00    -0.355 N 
ATOM     15  H3  UNL     1       4.262  28.705   4.729  1.00  0.00     0.166 HD
HETATM   16  C11 UNL     1       2.194  28.348   4.555  1.00  0.00     0.043 A 
HETATM   17  C12 UNL     1       2.099  26.971   4.631  1.00  0.00     0.030 A 
HETATM   18  C13 UNL     1       0.851  26.404   4.548  1.00  0.00     0.002 A 
HETATM   19  C14 UNL     1      -0.246  27.203   4.394  1.00  0.00     0.001 A 
HETATM   20  C15 UNL     1      -0.100  28.588   4.322  1.00  0.00     0.014 A 
HETATM   21  C16 UNL     1       1.104  29.188   4.399  1.00  0.00     0.005 A 
HETATM   22  C17 UNL     1       1.599  30.460   4.368  1.00  0.00     0.035 A 
HETATM   23  C18 UNL     1       1.016  31.721   4.234  1.00  0.00     0.103 A 
ENDROOT
BRANCH   1  24
HETATM   24  O1  UNL     1      -1.235  30.903   4.071  1.00  0.00    -0.282 OA
ATOM     25  H1  UNL     1      -1.673  30.807   4.908  1.00  0.00     0.245 HD
ENDBRANCH   1  24
TORSDOF 1
ENDMDL
MODEL 2
REMARK VINA RESULT: -8.661487120      0.785      5.779
REMARK  1 active torsions:
REMARK  status: ('A' for Active; 'I' for Inactive)
REMARK    1  A    between atoms: O1_1  and  N1_3 
ROOT
HETATM    1  N1  UNL     1       0.137  30.498   4.264  1.00  0.00    -0.220 N 
HETATM    2  C1  UNL     1       0.582  29.194   4.362  1.00  0.00     0.089 A 
HETATM    3  C2  UNL     1      -0.290  28.131   4.447  1.00  0.00     0.034 A 
HETATM    4  C3  UNL     1       0.160  26.811   4.547  1.00  0.00     0.002 A 
HETATM    5  C4  UNL     1       1.508  26.560   4.560  1.00  0.00     0.002 A 
HETATM    6  C5  UNL     1       2.376  27.626   4.473  1.00  0.00     0.032 A 
HETATM    7  C6  UNL     1       1.923  28.932   4.376  1.00  0.00     0.062 A 
HETATM    8  N2  UNL     1       2.814  29.921   4.295  1.00  0.00    -0.352 N 
ATOM      9  H2  UNL     1       3.812  29.709   4.307  1.00  0.00     0.166 HD
HETATM   10  C7  UNL     1       2.398  31.207   4.198  1.00  0.00     0.063 A 
HETATM   11  C8  UNL     1       3.376  32.184   4.119  1.00  0.00     0.034 A 
HETATM   12  C9  UNL     1       2.949  33.467   4.023  1.00  0.00     0.033 A 
HETATM   13  C10 UNL     1       1.619  33.803   4.003  1.00  0.00     0.046 A 
HETATM   14  N3  UNL     1       0.995  34.987   3.915  1.00  0.00    -0.355 N 
ATOM     15  H3  UNL     1       1.453  35.896   3.843  1.00  0.00     0.166 HD
HETATM   16  C11 UNL     1      -0.330  34.781   3.937  1.00  0.00     0.043 A 
HETATM   17  C12 UNL     1      -1.317  35.746   3.869  1.00  0.00     0.030 A 
HETATM   18  C13 UNL     1      -2.627  35.335   3.906  1.00  0.00     0.002 A 
HETATM   19  C14 UNL     1      -2.916  34.004   4.010  1.00  0.00     0.001 A 
HETATM   20  C15 UNL     1      -1.885  33.067   4.076  1.00  0.00     0.014 A 
HETATM   21  C16 UNL     1      -0.587  33.423   4.043  1.00  0.00     0.005 A 
HETATM   22  C17 UNL     1       0.629  32.804   4.084  1.00  0.00     0.035 A 
HETATM   23  C18 UNL     1       1.032  31.471   4.185  1.00  0.00     0.103 A 
ENDROOT
BRANCH   1  24
HETATM   24  O1  UNL     1      -1.194  30.577   4.264  1.00  0.00    -0.282 OA
ATOM     25  H1  UNL     1      -1.500  31.474   4.326  1.00  0.00     0.245 HD
ENDBRANCH   1  24
TORSDOF 1
ENDMDL
MODEL 3
REMARK VINA RESULT: -8.492970474      1.823      6.542
REMARK  1 active torsions:
REMARK  status: ('A' for Active; 'I' for Inactive)
REMARK    1  A    between atoms: O1_1  and  N1_3 
ROOT
HETATM    1  N1  UNL     1       1.359  30.694   4.528  1.00  0.00    -0.220 N 
HETATM    2  C1  UNL     1       1.657  29.345   4.528  1.00  0.00     0.089 A 
HETATM    3  C2  UNL     1       2.950  28.886   4.406  1.00  0.00     0.034 A 
HETATM    4  C3  UNL     1       3.253  27.520   4.406  1.00  0.00     0.002 A 
HETATM    5  C4  UNL     1       2.237  26.607   4.531  1.00  0.00     0.002 A 
HETATM    6  C5  UNL     1       0.946  27.072   4.654  1.00  0.00     0.032 A 
HETATM    7  C6  UNL     1       0.654  28.426   4.653  1.00  0.00     0.062 A 
HETATM    8  N2  UNL     1      -0.617  28.814   4.775  1.00  0.00    -0.352 N 
ATOM      9  H2  UNL     1      -1.355  28.115   4.867  1.00  0.00     0.166 HD
HETATM   10  C7  UNL     1      -0.930  30.131   4.778  1.00  0.00     0.063 A 
HETATM   11  C8  UNL     1      -2.268  30.463   4.908  1.00  0.00     0.034 A 
HETATM   12  C9  UNL     1      -2.571  31.784   4.909  1.00  0.00     0.033 A 
HETATM   13  C10 UNL     1      -1.616  32.761   4.788  1.00  0.00     0.046 A 
HETATM   14  N3  UNL     1      -1.700  34.100   4.766  1.00  0.00    -0.355 N 
ATOM     15  H3  UNL     1      -2.561  34.642   4.843  1.00  0.00     0.166 HD
HETATM   16  C11 UNL     1      -0.467  34.609   4.627  1.00  0.00     0.043 A 
HETATM   17  C12 UNL     1      -0.129  35.947   4.561  1.00  0.00     0.030 A 
HETATM   18  C13 UNL     1       1.197  36.273   4.417  1.00  0.00     0.002 A 
HETATM   19  C14 UNL     1       2.133  35.281   4.343  1.00  0.00     0.001 A 
HETATM   20  C15 UNL     1       1.744  33.944   4.414  1.00  0.00     0.014 A 
HETATM   21  C16 UNL     1       0.456  33.577   4.555  1.00  0.00     0.005 A 
HETATM   22  C17 UNL     1      -0.256  32.417   4.656  1.00  0.00     0.035 A 
HETATM   23  C18 UNL     1       0.093  31.065   4.650  1.00  0.00     0.103 A 
ENDROOT
BRANCH   1  24
HETATM   24  O1  UNL     1       2.449  31.451   4.399  1.00  0.00    -0.282 OA
ATOM     25  H1  UNL     1       2.389  32.043   3.659  1.00  0.00     0.245 HD
ENDBRANCH   1  24
TORSDOF 1
ENDMDL
MODEL 4
REMARK VINA RESULT: -7.354949347      1.824      3.196
REMARK  1 active torsions:
REMARK  status: ('A' for Active; 'I' for Inactive)
REMARK    1  A    between atoms: O1_1  and  N1_3 
ROOT
HETATM    1  N1  UNL     1       1.233  32.370   4.518  1.00  0.00    -0.220 N 
HETATM    2  C1  UNL     1       1.006  33.732   4.485  1.00  0.00     0.089 A 
HETATM    3  C2  UNL     1       2.036  34.638   4.361  1.00  0.00     0.034 A 
HETATM    4  C3  UNL     1       1.807  36.018   4.328  1.00  0.00     0.002 A 
HETATM    5  C4  UNL     1       0.522  36.488   4.420  1.00  0.00     0.002 A 
HETATM    6  C5  UNL     1      -0.504  35.577   4.543  1.00  0.00     0.032 A 
HETATM    7  C6  UNL     1      -0.270  34.212   4.576  1.00  0.00     0.062 A 
HETATM    8  N2  UNL     1      -1.306  33.380   4.697  1.00  0.00    -0.352 N 
ATOM      9  H2  UNL     1      -2.253  33.754   4.764  1.00  0.00     0.166 HD
HETATM   10  C7  UNL     1      -1.105  32.041   4.731  1.00  0.00     0.063 A 
HETATM   11  C8  UNL     1      -2.224  31.236   4.858  1.00  0.00     0.034 A 
HETATM   12  C9  UNL     1      -2.012  29.898   4.892  1.00  0.00     0.033 A 
HETATM   13  C10 UNL     1      -0.759  29.347   4.805  1.00  0.00     0.046 A 
HETATM   14  N3  UNL     1      -0.336  28.073   4.817  1.00  0.00    -0.355 N 
ATOM     15  H3  UNL     1      -0.934  27.250   4.900  1.00  0.00     0.166 HD
HETATM   16  C11 UNL     1       1.000  28.059   4.704  1.00  0.00     0.043 A 
HETATM   17  C12 UNL     1       1.814  26.943   4.677  1.00  0.00     0.030 A 
HETATM   18  C13 UNL     1       3.169  27.134   4.554  1.00  0.00     0.002 A 
HETATM   19  C14 UNL     1       3.668  28.402   4.462  1.00  0.00     0.001 A 
HETATM   20  C15 UNL     1       2.806  29.497   4.493  1.00  0.00     0.014 A 
HETATM   21  C16 UNL     1       1.472  29.359   4.613  1.00  0.00     0.005 A 
HETATM   22  C17 UNL     1       0.376  30.171   4.676  1.00  0.00     0.035 A 
HETATM   23  C18 UNL     1       0.196  31.555   4.638  1.00  0.00     0.103 A 
ENDROOT
BRANCH   1  24
HETATM   24  O1  UNL     1       2.530  32.072   4.418  1.00  0.00    -0.282 OA
ATOM     25  H1  UNL     1       2.681  31.310   3.872  1.00  0.00     0.245 HD
ENDBRANCH   1  24
TORSDOF 1
ENDMDL
MODEL 5
REMARK VINA RESULT: -6.384807471      1.537      3.251
REMARK  1 active torsions:
REMARK  status: ('A' for Active; 'I' for Inactive)
REMARK    1  A    between atoms: O1_1  and  N1_3 
ROOT
HETATM    1  N1  UNL     1       0.502  32.753   4.277  1.00  0.00    -0.220 N 
HETATM    2  C1  UNL     1      -0.408  33.784   4.144  1.00  0.00     0.089 A 
HETATM    3  C2  UNL     1      -0.007  35.094   3.997  1.00  0.00     0.034 A 
HETATM    4  C3  UNL     1      -0.928  36.139   3.863  1.00  0.00     0.002 A 
HETATM    5  C4  UNL     1      -2.269  35.857   3.876  1.00  0.00     0.002 A 
HETATM    6  C5  UNL     1      -2.665  34.545   4.021  1.00  0.00     0.032 A 
HETATM    7  C6  UNL     1      -1.748  33.516   4.155  1.00  0.00     0.062 A 
HETATM    8  N2  UNL     1      -2.193  32.266   4.293  1.00  0.00    -0.352 N 
ATOM      9  H2  UNL     1      -3.197  32.082   4.300  1.00  0.00     0.166 HD
HETATM   10  C7  UNL     1      -1.318  31.241   4.424  1.00  0.00     0.063 A 
HETATM   11  C8  UNL     1      -1.849  29.970   4.564  1.00  0.00     0.034 A 
HETATM   12  C9  UNL     1      -0.964  28.951   4.695  1.00  0.00     0.033 A 
HETATM   13  C10 UNL     1       0.393  29.147   4.692  1.00  0.00     0.046 A 
HETATM   14  N3  UNL     1       1.423  28.294   4.806  1.00  0.00    -0.355 N 
ATOM     15  H3  UNL     1       1.347  27.283   4.922  1.00  0.00     0.166 HD
HETATM   16  C11 UNL     1       2.569  28.988   4.742  1.00  0.00     0.043 A 
HETATM   17  C12 UNL     1       3.850  28.475   4.822  1.00  0.00     0.030 A 
HETATM   18  C13 UNL     1       4.904  29.351   4.735  1.00  0.00     0.002 A 
HETATM   19  C14 UNL     1       4.663  30.686   4.577  1.00  0.00     0.001 A 
HETATM   20  C15 UNL     1       3.352  31.157   4.503  1.00  0.00     0.014 A 
HETATM   21  C16 UNL     1       2.288  30.335   4.583  1.00  0.00     0.005 A 
HETATM   22  C17 UNL     1       0.927  30.443   4.550  1.00  0.00     0.035 A 
HETATM   23  C18 UNL     1       0.046  31.517   4.413  1.00  0.00     0.103 A 
ENDROOT
BRANCH   1  24
HETATM   24  O1  UNL     1       1.763  33.186   4.244  1.00  0.00    -0.282 OA
ATOM     25  H1  UNL     1       1.824  34.092   3.966  1.00  0.00     0.245 HD
ENDBRANCH   1  24
TORSDOF 1
ENDMDL
