MODEL 1
REMARK VINA RESULT: -9.317811842      0.000      0.000
REMARK  5 active torsions:
REMARK  status: ('A' for Active; 'I' for Inactive)
REMARK    1  A    between atoms: N1_1  and  S1_4 
REMARK    2  A    between atoms: S1_4  and  C1_7 
REMARK    3  A    between atoms: C5_11  and  N2_12 
REMARK    4  A    between atoms: N2_12  and  C6_14 
REMARK    5  A    between atoms: C6_14  and  C7_15 
ROOT
HETATM    1  C7  UNL     1       0.051  -6.599  87.627  1.00  0.00    -0.040 A 
HETATM    2  C8  UNL     1       0.577  -5.658  86.770  1.00  0.00     0.011 A 
HETATM    3  C9  UNL     1       1.244  -6.113  85.654  1.00  0.00     0.031 A 
HETATM    4  C10 UNL     1       1.397  -7.455  85.374  1.00  0.00     0.043 A 
HETATM    5  N3  UNL     1       2.008  -8.111  84.348  1.00  0.00    -0.354 N 
ATOM      6  H3  UNL     1       2.484  -7.660  83.566  1.00  0.00     0.166 HD
HETATM    7  C11 UNL     1       1.891  -9.439  84.516  1.00  0.00     0.055 A 
HETATM    8  C12 UNL     1       2.340 -10.501  83.751  1.00  0.00     0.002 A 
HETATM    9  C13 UNL     1       3.046 -10.343  82.581  1.00  0.00     0.014 A 
HETATM   10  C14 UNL     1       3.490 -11.410  81.824  1.00  0.00     0.001 A 
HETATM   11  C15 UNL     1       3.192 -12.677  82.294  1.00  0.00     0.001 A 
HETATM   12  C16 UNL     1       2.489 -12.885  83.458  1.00  0.00     0.012 A 
HETATM   13  C17 UNL     1       2.069 -11.776  84.175  1.00  0.00    -0.024 A 
HETATM   14  C18 UNL     1       1.365 -11.975  85.342  1.00  0.00     0.013 A 
HETATM   15  C19 UNL     1       0.913 -10.903  86.111  1.00  0.00     0.015 A 
HETATM   16  C20 UNL     1       1.184  -9.615  85.688  1.00  0.00     0.004 A 
HETATM   17  C21 UNL     1       0.867  -8.391  86.238  1.00  0.00     0.004 A 
HETATM   18  C22 UNL     1       0.192  -7.954  87.367  1.00  0.00     0.023 A 
ENDROOT
BRANCH   1  19
HETATM   19  C6  UNL     1      -0.666  -6.109  88.826  1.00  0.00     0.158 C 
BRANCH  19  20
HETATM   20  N2  UNL     1       0.214  -5.356  89.676  1.00  0.00    -0.386 N 
ATOM     21  H2  UNL     1       0.994  -5.838  90.123  1.00  0.00     0.160 HD
BRANCH  20  22
HETATM   22  C5  UNL     1       0.044  -3.968  89.921  1.00  0.00     0.029 A 
HETATM   23  C4  UNL     1       0.793  -3.028  89.252  1.00  0.00     0.029 A 
HETATM   24  C3  UNL     1       0.637  -1.680  89.481  1.00  0.00     0.004 A 
HETATM   25  C2  UNL     1      -0.287  -1.239  90.400  1.00  0.00     0.025 A 
HETATM   26  C1  UNL     1      -1.043  -2.167  91.076  1.00  0.00     0.081 A 
HETATM   27  C23 UNL     1      -0.879  -3.521  90.839  1.00  0.00     0.054 A 
BRANCH  26  28
HETATM   28  S1  UNL     1      -2.214  -1.631  92.239  1.00  0.00     0.256 S 
HETATM   29  O1  UNL     1      -2.594  -0.184  91.984  1.00  0.00    -0.201 OA
HETATM   30  O2  UNL     1      -1.684  -1.708  93.649  1.00  0.00    -0.201 OA
BRANCH  28  31
HETATM   31  N1  UNL     1      -3.640  -2.614  92.061  1.00  0.00    -0.324 N 
ATOM     32  H12 UNL     1      -4.536  -2.431  92.512  1.00  0.00     0.169 HD
ATOM     33  H11 UNL     1      -3.420  -3.391  91.437  1.00  0.00     0.169 HD
ENDBRANCH  28  31
ENDBRANCH  26  28
ENDBRANCH  20  22
ENDBRANCH  19  20
ENDBRANCH   1  19
TORSDOF 5
ENDMDL
MODEL 2
REMARK VINA RESULT: -9.098522407      6.002      9.871
REMARK  5 active torsions:
REMARK  status: ('A' for Active; 'I' for Inactive)
REMARK    1  A    between atoms: N1_1  and  S1_4 
REMARK    2  A    between atoms: S1_4  and  C1_7 
REMARK    3  A    between atoms: C5_11  and  N2_12 
REMARK    4  A    between atoms: N2_12  and  C6_14 
REMARK    5  A    between atoms: C6_14  and  C7_15 
ROOT
HETATM    1  C7  UNL     1       3.928  -8.015  85.846  1.00  0.00    -0.040 A 
HETATM    2  C8  UNL     1       3.183  -8.176  86.994  1.00  0.00     0.011 A 
HETATM    3  C9  UNL     1       2.107  -7.337  87.180  1.00  0.00     0.031 A 
HETATM    4  C10 UNL     1       1.759  -6.361  86.270  1.00  0.00     0.043 A 
HETATM    5  N3  UNL     1       0.754  -5.441  86.256  1.00  0.00    -0.354 N 
ATOM      6  H3  UNL     1       0.049  -5.332  86.986  1.00  0.00     0.166 HD
HETATM    7  C11 UNL     1       0.827  -4.696  85.139  1.00  0.00     0.055 A 
HETATM    8  C12 UNL     1       0.041  -3.653  84.683  1.00  0.00     0.002 A 
HETATM    9  C13 UNL     1      -1.046  -3.169  85.372  1.00  0.00     0.014 A 
HETATM   10  C14 UNL     1      -1.825  -2.127  84.907  1.00  0.00     0.001 A 
HETATM   11  C15 UNL     1      -1.465  -1.571  83.693  1.00  0.00     0.001 A 
HETATM   12  C16 UNL     1      -0.385  -2.020  82.967  1.00  0.00     0.012 A 
HETATM   13  C17 UNL     1       0.358  -3.069  83.483  1.00  0.00    -0.024 A 
HETATM   14  C18 UNL     1       1.440  -3.525  82.764  1.00  0.00     0.013 A 
HETATM   15  C19 UNL     1       2.230  -4.577  83.226  1.00  0.00     0.015 A 
HETATM   16  C20 UNL     1       1.915  -5.169  84.435  1.00  0.00     0.004 A 
HETATM   17  C21 UNL     1       2.509  -6.207  85.123  1.00  0.00     0.004 A 
HETATM   18  C22 UNL     1       3.597  -7.040  84.916  1.00  0.00     0.023 A 
ENDROOT
BRANCH   1  19
HETATM   19  C6  UNL     1       5.083  -8.918  85.647  1.00  0.00     0.158 C 
BRANCH  19  20
HETATM   20  N2  UNL     1       5.084  -9.463  84.317  1.00  0.00    -0.386 N 
ATOM     21  H2  UNL     1       5.828  -9.188  83.676  1.00  0.00     0.160 HD
BRANCH  20  22
HETATM   22  C5  UNL     1       4.092 -10.368  83.857  1.00  0.00     0.029 A 
HETATM   23  C4  UNL     1       3.219 -10.021  82.853  1.00  0.00     0.029 A 
HETATM   24  C3  UNL     1       2.253 -10.889  82.399  1.00  0.00     0.004 A 
HETATM   25  C2  UNL     1       2.139 -12.144  82.952  1.00  0.00     0.025 A 
HETATM   26  C1  UNL     1       3.004 -12.505  83.958  1.00  0.00     0.081 A 
HETATM   27  C23 UNL     1       3.973 -11.624  84.407  1.00  0.00     0.054 A 
BRANCH  26  28
HETATM   28  S1  UNL     1       2.878 -14.083  84.669  1.00  0.00     0.256 S 
HETATM   29  O1  UNL     1       1.431 -14.542  84.692  1.00  0.00    -0.201 OA
HETATM   30  O2  UNL     1       3.371 -14.100  86.094  1.00  0.00    -0.201 OA
BRANCH  28  31
HETATM   31  N1  UNL     1       3.791 -15.192  83.686  1.00  0.00    -0.324 N 
ATOM     32  H12 UNL     1       3.879 -15.139  82.671  1.00  0.00     0.169 HD
ATOM     33  H11 UNL     1       4.215 -15.891  84.297  1.00  0.00     0.169 HD
ENDBRANCH  28  31
ENDBRANCH  26  28
ENDBRANCH  20  22
ENDBRANCH  19  20
ENDBRANCH   1  19
TORSDOF 5
ENDMDL
MODEL 3
REMARK VINA RESULT: -9.091470310      6.255      9.505
REMARK  5 active torsions:
REMARK  status: ('A' for Active; 'I' for Inactive)
REMARK    1  A    between atoms: N1_1  and  S1_4 
REMARK    2  A    between atoms: S1_4  and  C1_7 
REMARK    3  A    between atoms: C5_11  and  N2_12 
REMARK    4  A    between atoms: N2_12  and  C6_14 
REMARK    5  A    between atoms: C6_14  and  C7_15 
ROOT
HETATM    1  C7  UNL     1       4.059  -8.306  86.409  1.00  0.00    -0.040 A 
HETATM    2  C8  UNL     1       4.426  -8.297  85.081  1.00  0.00     0.011 A 
HETATM    3  C9  UNL     1       3.789  -7.402  84.250  1.00  0.00     0.031 A 
HETATM    4  C10 UNL     1       2.817  -6.532  84.697  1.00  0.00     0.043 A 
HETATM    5  N3  UNL     1       2.075  -5.584  84.059  1.00  0.00    -0.354 N 
ATOM      6  H3  UNL     1       2.138  -5.362  83.065  1.00  0.00     0.166 HD
HETATM    7  C11 UNL     1       1.246  -4.984  84.931  1.00  0.00     0.055 A 
HETATM    8  C12 UNL     1       0.314  -3.976  84.761  1.00  0.00     0.002 A 
HETATM    9  C13 UNL     1       0.068  -3.372  83.550  1.00  0.00     0.014 A 
HETATM   10  C14 UNL     1      -0.866  -2.366  83.391  1.00  0.00     0.001 A 
HETATM   11  C15 UNL     1      -1.564  -1.976  84.520  1.00  0.00     0.001 A 
HETATM   12  C16 UNL     1      -1.353  -2.551  85.752  1.00  0.00     0.012 A 
HETATM   13  C17 UNL     1      -0.403  -3.555  85.851  1.00  0.00    -0.024 A 
HETATM   14  C18 UNL     1      -0.184  -4.136  87.080  1.00  0.00     0.013 A 
HETATM   15  C19 UNL     1       0.756  -5.151  87.249  1.00  0.00     0.015 A 
HETATM   16  C20 UNL     1       1.481  -5.580  86.153  1.00  0.00     0.004 A 
HETATM   17  C21 UNL     1       2.457  -6.547  86.028  1.00  0.00     0.004 A 
HETATM   18  C22 UNL     1       3.084  -7.440  86.883  1.00  0.00     0.023 A 
ENDROOT
BRANCH   1  19
HETATM   19  C6  UNL     1       4.744  -9.267  87.302  1.00  0.00     0.158 C 
BRANCH  19  20
HETATM   20  N2  UNL     1       3.809 -10.212  87.849  1.00  0.00    -0.386 N 
ATOM     21  H2  UNL     1       3.732 -10.293  88.863  1.00  0.00     0.160 HD
BRANCH  20  22
HETATM   22  C5  UNL     1       2.989 -11.039  87.037  1.00  0.00     0.029 A 
HETATM   23  C4  UNL     1       1.617 -10.977  87.112  1.00  0.00     0.029 A 
HETATM   24  C3  UNL     1       0.812 -11.773  86.331  1.00  0.00     0.004 A 
HETATM   25  C2  UNL     1       1.373 -12.663  85.444  1.00  0.00     0.025 A 
HETATM   26  C1  UNL     1       2.743 -12.736  85.358  1.00  0.00     0.081 A 
HETATM   27  C23 UNL     1       3.545 -11.930  86.148  1.00  0.00     0.054 A 
BRANCH  26  28
HETATM   28  S1  UNL     1       3.472 -13.850  84.245  1.00  0.00     0.256 S 
HETATM   29  O1  UNL     1       3.360 -13.331  82.822  1.00  0.00    -0.201 OA
HETATM   30  O2  UNL     1       2.799 -15.199  84.278  1.00  0.00    -0.201 OA
BRANCH  28  31
HETATM   31  N1  UNL     1       5.159 -13.991  84.649  1.00  0.00    -0.324 N 
ATOM     32  H12 UNL     1       5.901 -14.226  83.988  1.00  0.00     0.169 HD
ATOM     33  H11 UNL     1       5.270 -13.801  85.645  1.00  0.00     0.169 HD
ENDBRANCH  28  31
ENDBRANCH  26  28
ENDBRANCH  20  22
ENDBRANCH  19  20
ENDBRANCH   1  19
TORSDOF 5
ENDMDL
MODEL 4
REMARK VINA RESULT: -9.076364979      5.475     10.538
REMARK  5 active torsions:
REMARK  status: ('A' for Active; 'I' for Inactive)
REMARK    1  A    between atoms: N1_1  and  S1_4 
REMARK    2  A    between atoms: S1_4  and  C1_7 
REMARK    3  A    between atoms: C5_11  and  N2_12 
REMARK    4  A    between atoms: N2_12  and  C6_14 
REMARK    5  A    between atoms: C6_14  and  C7_15 
ROOT
HETATM    1  C7  UNL     1       1.223  -7.775  85.283  1.00  0.00    -0.040 A 
HETATM    2  C8  UNL     1       0.680  -8.748  86.094  1.00  0.00     0.011 A 
HETATM    3  C9  UNL     1       0.123  -8.347  87.288  1.00  0.00     0.031 A 
HETATM    4  C10 UNL     1       0.092  -7.027  87.688  1.00  0.00     0.043 A 
HETATM    5  N3  UNL     1      -0.399  -6.422  88.806  1.00  0.00    -0.354 N 
ATOM      6  H3  UNL     1      -0.857  -6.905  89.579  1.00  0.00     0.166 HD
HETATM    7  C11 UNL     1      -0.190  -5.096  88.741  1.00  0.00     0.055 A 
HETATM    8  C12 UNL     1      -0.506  -4.077  89.622  1.00  0.00     0.002 A 
HETATM    9  C13 UNL     1      -1.146  -4.286  90.821  1.00  0.00     0.014 A 
HETATM   10  C14 UNL     1      -1.457  -3.261  91.693  1.00  0.00     0.001 A 
HETATM   11  C15 UNL     1      -1.093  -1.982  91.311  1.00  0.00     0.001 A 
HETATM   12  C16 UNL     1      -0.450  -1.723  90.122  1.00  0.00     0.012 A 
HETATM   13  C17 UNL     1      -0.165  -2.791  89.287  1.00  0.00    -0.024 A 
HETATM   14  C18 UNL     1       0.477  -2.542  88.094  1.00  0.00     0.013 A 
HETATM   15  C19 UNL     1       0.793  -3.571  87.208  1.00  0.00     0.015 A 
HETATM   16  C20 UNL     1       0.452  -4.868  87.542  1.00  0.00     0.004 A 
HETATM   17  C21 UNL     1       0.638  -6.059  86.871  1.00  0.00     0.004 A 
HETATM   18  C22 UNL     1       1.204  -6.441  85.665  1.00  0.00     0.023 A 
ENDROOT
BRANCH   1  19
HETATM   19  C6  UNL     1       1.821  -8.207  84.000  1.00  0.00     0.158 C 
BRANCH  19  20
HETATM   20  N2  UNL     1       1.237  -9.442  83.554  1.00  0.00    -0.386 N 
ATOM     21  H2  UNL     1       0.221  -9.509  83.493  1.00  0.00     0.160 HD
BRANCH  20  22
HETATM   22  C5  UNL     1       2.016 -10.574  83.195  1.00  0.00     0.029 A 
HETATM   23  C4  UNL     1       2.838 -10.554  82.093  1.00  0.00     0.029 A 
HETATM   24  C3  UNL     1       3.597 -11.644  81.735  1.00  0.00     0.004 A 
HETATM   25  C2  UNL     1       3.545 -12.797  82.484  1.00  0.00     0.025 A 
HETATM   26  C1  UNL     1       2.727 -12.832  83.588  1.00  0.00     0.081 A 
HETATM   27  C23 UNL     1       1.968 -11.729  83.942  1.00  0.00     0.054 A 
BRANCH  26  28
HETATM   28  S1  UNL     1       2.648 -14.275  84.549  1.00  0.00     0.256 S 
HETATM   29  O1  UNL     1       3.378 -15.414  83.859  1.00  0.00    -0.201 OA
HETATM   30  O2  UNL     1       1.227 -14.728  84.768  1.00  0.00    -0.201 OA
BRANCH  28  31
HETATM   31  N1  UNL     1       3.436 -13.957  86.068  1.00  0.00    -0.324 N 
ATOM     32  H12 UNL     1       3.656 -14.662  86.772  1.00  0.00     0.169 HD
ATOM     33  H11 UNL     1       3.635 -12.957  86.125  1.00  0.00     0.169 HD
ENDBRANCH  28  31
ENDBRANCH  26  28
ENDBRANCH  20  22
ENDBRANCH  19  20
ENDBRANCH   1  19
TORSDOF 5
ENDMDL
MODEL 5
REMARK VINA RESULT: -9.042089608      8.050      9.213
REMARK  5 active torsions:
REMARK  status: ('A' for Active; 'I' for Inactive)
REMARK    1  A    between atoms: N1_1  and  S1_4 
REMARK    2  A    between atoms: S1_4  and  C1_7 
REMARK    3  A    between atoms: C5_11  and  N2_12 
REMARK    4  A    between atoms: N2_12  and  C6_14 
REMARK    5  A    between atoms: C6_14  and  C7_15 
ROOT
HETATM    1  C7  UNL     1       6.681  -6.377  87.599  1.00  0.00    -0.040 A 
HETATM    2  C8  UNL     1       6.454  -5.995  86.295  1.00  0.00     0.011 A 
HETATM    3  C9  UNL     1       5.752  -6.863  85.488  1.00  0.00     0.031 A 
HETATM    4  C10 UNL     1       5.277  -8.077  85.938  1.00  0.00     0.043 A 
HETATM    5  N3  UNL     1       4.573  -9.068  85.322  1.00  0.00    -0.354 N 
ATOM      6  H3  UNL     1       4.268  -9.052  84.349  1.00  0.00     0.166 HD
HETATM    7  C11 UNL     1       4.341 -10.072  86.185  1.00  0.00     0.055 A 
HETATM    8  C12 UNL     1       3.676 -11.276  86.030  1.00  0.00     0.002 A 
HETATM    9  C13 UNL     1       3.094 -11.670  84.848  1.00  0.00     0.014 A 
HETATM   10  C14 UNL     1       2.433 -12.874  84.703  1.00  0.00     0.001 A 
HETATM   11  C15 UNL     1       2.375 -13.693  85.816  1.00  0.00     0.001 A 
HETATM   12  C16 UNL     1       2.943 -13.343  87.020  1.00  0.00     0.012 A 
HETATM   13  C17 UNL     1       3.592 -12.122  87.105  1.00  0.00    -0.024 A 
HETATM   14  C18 UNL     1       4.163 -11.763  88.306  1.00  0.00     0.013 A 
HETATM   15  C19 UNL     1       4.832 -10.548  88.460  1.00  0.00     0.015 A 
HETATM   16  C20 UNL     1       4.919  -9.692  87.378  1.00  0.00     0.004 A 
HETATM   17  C21 UNL     1       5.508  -8.452  87.245  1.00  0.00     0.004 A 
HETATM   18  C22 UNL     1       6.214  -7.594  88.073  1.00  0.00     0.023 A 
ENDROOT
BRANCH   1  19
HETATM   19  C6  UNL     1       7.436  -5.444  88.465  1.00  0.00     0.158 C 
BRANCH  19  20
HETATM   20  N2  UNL     1       8.532  -6.115  89.107  1.00  0.00    -0.386 N 
ATOM     21  H2  UNL     1       8.407  -6.454  90.061  1.00  0.00     0.160 HD
BRANCH  20  22
HETATM   22  C5  UNL     1       9.783  -6.327  88.470  1.00  0.00     0.029 A 
HETATM   23  C4  UNL     1      10.849  -6.864  89.152  1.00  0.00     0.029 A 
HETATM   24  C3  UNL     1      12.066  -7.074  88.546  1.00  0.00     0.004 A 
HETATM   25  C2  UNL     1      12.243  -6.743  87.222  1.00  0.00     0.025 A 
HETATM   26  C1  UNL     1      11.186  -6.205  86.527  1.00  0.00     0.081 A 
HETATM   27  C23 UNL     1       9.965  -5.998  87.146  1.00  0.00     0.054 A 
BRANCH  26  28
HETATM   28  S1  UNL     1      11.388  -5.782  84.856  1.00  0.00     0.256 S 
HETATM   29  O1  UNL     1      12.243  -6.816  84.145  1.00  0.00    -0.201 OA
HETATM   30  O2  UNL     1      12.074  -4.450  84.691  1.00  0.00    -0.201 OA
BRANCH  28  31
HETATM   31  N1  UNL     1       9.815  -5.764  84.110  1.00  0.00    -0.324 N 
ATOM     32  H12 UNL     1       9.198  -6.572  84.025  1.00  0.00     0.169 HD
ATOM     33  H11 UNL     1       9.625  -4.817  83.781  1.00  0.00     0.169 HD
ENDBRANCH  28  31
ENDBRANCH  26  28
ENDBRANCH  20  22
ENDBRANCH  19  20
ENDBRANCH   1  19
TORSDOF 5
ENDMDL
