MODEL 1
REMARK VINA RESULT: -7.614564642      0.000      0.000
REMARK  7 active torsions:
REMARK  status: ('A' for Active; 'I' for Inactive)
REMARK    1  A    between atoms: C3_3  and  C4_4 
REMARK    2  A    between atoms: C4_4  and  C5_5 
REMARK    3  A    between atoms: C5_5  and  C6_6 
REMARK    4  A    between atoms: C6_6  and  N1_7 
REMARK    5  A    between atoms: C8_9  and  C9_10 
REMARK    6  A    between atoms: C9_10  and  C10_11 
REMARK    7  A    between atoms: C10_11  and  N2_12 
ROOT
HETATM    1  C1  UNL     1      13.953 -13.799  26.137  1.00  0.00     0.012 C 
HETATM    2  C2  UNL     1      13.520 -12.974  25.371  1.00  0.00    -0.117 C 
HETATM    3  C3  UNL     1      12.977 -11.977  24.450  1.00  0.00     0.093 C 
ENDROOT
BRANCH   3   4
HETATM    4  C4  UNL     1      11.461 -11.849  24.650  1.00  0.00     0.014 C 
BRANCH   4   5
HETATM    5  C5  UNL     1      11.083 -10.454  24.971  1.00  0.00     0.031 C 
BRANCH   5   6
HETATM    6  C6  UNL     1      11.834  -9.407  24.260  1.00  0.00     0.268 C 
BRANCH   6   7
HETATM    7  N1  UNL     1      11.275  -8.926  23.048  1.00  0.00     0.042 N 
HETATM    8  C7  UNL     1      11.435  -7.438  23.062  1.00  0.00     0.276 C 
HETATM    9  C8  UNL     1      12.883  -7.072  22.863  1.00  0.00     0.052 C 
HETATM   10  C12 UNL     1      13.216  -7.436  21.435  1.00  0.00     0.100 C 
HETATM   11  C13 UNL     1      14.553  -8.047  21.384  1.00  0.00     0.041 C 
HETATM   12  C22 UNL     1      13.155  -6.292  20.466  1.00  0.00     0.264 C 
HETATM   13  O1  UNL     1      12.231  -8.323  21.051  1.00  0.00    -0.343 OA
HETATM   14  C14 UNL     1      15.141  -8.378  20.073  1.00  0.00     0.003 C 
HETATM   15  C15 UNL     1      14.247  -8.828  18.985  1.00  0.00     0.001 C 
HETATM   16  C16 UNL     1      13.140  -8.002  18.549  1.00  0.00     0.009 C 
HETATM   17  C17 UNL     1      12.949  -6.643  19.070  1.00  0.00     0.055 C 
HETATM   18  C18 UNL     1      14.105  -5.739  18.699  1.00  0.00     0.230 C 
HETATM   19  C19 UNL     1      13.719  -4.388  18.159  1.00  0.00     0.038 C 
HETATM   20  N5  UNL     1      14.350  -5.600  20.121  1.00  0.00     0.101 N 
HETATM   21  C20 UNL     1      14.621  -3.495  19.023  1.00  0.00     0.032 C 
HETATM   22  C21 UNL     1      14.444  -4.192  20.360  1.00  0.00     0.273 C 
HETATM   23  C23 UNL     1      11.948  -9.366  21.869  1.00  0.00     0.352 C 
HETATM   24  C24 UNL     1      11.151 -10.368  21.022  1.00  0.00     0.073 C 
HETATM   25  C25 UNL     1       9.862  -9.812  20.518  1.00  0.00     0.109 C 
HETATM   26  C26 UNL     1       9.206  -9.132  21.668  1.00  0.00     0.241 C 
HETATM   27  O2  UNL     1       8.068  -8.634  21.501  1.00  0.00    -0.272 OA
HETATM   28  N6  UNL     1       9.897  -9.077  22.903  1.00  0.00    -0.182 N 
ATOM     29  H6  UNL     1       9.340  -9.153  23.755  1.00  0.00     0.197 HD
BRANCH   9  30
HETATM   30  C9  UNL     1      13.192  -5.682  23.269  1.00  0.00     0.029 C 
BRANCH  30  31
HETATM   31  C10 UNL     1      12.234  -5.201  24.341  1.00  0.00     0.122 C 
BRANCH  31  32
HETATM   32  N2  UNL     1      12.955  -4.136  25.062  1.00  0.00    -0.367 N 
HETATM   33  C11 UNL     1      12.486  -3.626  26.142  1.00  0.00     0.196 C 
HETATM   34  N3  UNL     1      13.133  -2.606  26.876  1.00  0.00    -0.067 NA
HETATM   35  N4  UNL     1      11.243  -4.116  26.630  1.00  0.00    -0.067 NA
ATOM     36  H2  UNL     1      13.845  -3.799  24.696  1.00  0.00     0.161 HD
ENDBRANCH  31  32
ENDBRANCH  30  31
ENDBRANCH   9  30
ENDBRANCH   6   7
ENDBRANCH   5   6
ENDBRANCH   4   5
ENDBRANCH   3   4
TORSDOF 7
ENDMDL
MODEL 2
REMARK VINA RESULT: -7.437612703      1.145      1.301
REMARK  7 active torsions:
REMARK  status: ('A' for Active; 'I' for Inactive)
REMARK    1  A    between atoms: C3_3  and  C4_4 
REMARK    2  A    between atoms: C4_4  and  C5_5 
REMARK    3  A    between atoms: C5_5  and  C6_6 
REMARK    4  A    between atoms: C6_6  and  N1_7 
REMARK    5  A    between atoms: C8_9  and  C9_10 
REMARK    6  A    between atoms: C9_10  and  C10_11 
REMARK    7  A    between atoms: C10_11  and  N2_12 
ROOT
HETATM    1  C1  UNL     1      14.133 -14.165  26.513  1.00  0.00     0.012 C 
HETATM    2  C2  UNL     1      13.648 -13.401  25.717  1.00  0.00    -0.117 C 
HETATM    3  C3  UNL     1      13.041 -12.478  24.760  1.00  0.00     0.093 C 
ENDROOT
BRANCH   3   4
HETATM    4  C4  UNL     1      11.519 -12.446  24.954  1.00  0.00     0.014 C 
BRANCH   4   5
HETATM    5  C5  UNL     1      10.999 -11.063  24.859  1.00  0.00     0.031 C 
BRANCH   5   6
HETATM    6  C6  UNL     1      11.840 -10.113  24.113  1.00  0.00     0.268 C 
BRANCH   6   7
HETATM    7  N1  UNL     1      11.490  -9.872  22.759  1.00  0.00     0.042 N 
HETATM    8  C7  UNL     1      11.393  -8.386  22.599  1.00  0.00     0.276 C 
HETATM    9  C8  UNL     1      12.768  -7.771  22.643  1.00  0.00     0.052 C 
HETATM   10  C12 UNL     1      13.463  -8.205  21.374  1.00  0.00     0.100 C 
HETATM   11  C13 UNL     1      14.861  -8.550  21.675  1.00  0.00     0.041 C 
HETATM   12  C22 UNL     1      13.428  -7.196  20.264  1.00  0.00     0.264 C 
HETATM   13  O1  UNL     1      12.749  -9.299  20.928  1.00  0.00    -0.343 OA
HETATM   14  C14 UNL     1      15.771  -8.891  20.565  1.00  0.00     0.003 C 
HETATM   15  C15 UNL     1      15.226  -9.611  19.394  1.00  0.00     0.001 C 
HETATM   16  C16 UNL     1      14.122  -9.060  18.637  1.00  0.00     0.009 C 
HETATM   17  C17 UNL     1      13.597  -7.718  18.917  1.00  0.00     0.055 C 
HETATM   18  C18 UNL     1      14.639  -6.651  18.662  1.00  0.00     0.230 C 
HETATM   19  C19 UNL     1      14.163  -5.459  17.875  1.00  0.00     0.038 C 
HETATM   20  N5  UNL     1      14.538  -6.325  20.072  1.00  0.00     0.101 N 
HETATM   21  C20 UNL     1      14.690  -4.328  18.769  1.00  0.00     0.032 C 
HETATM   22  C21 UNL     1      14.341  -4.909  20.127  1.00  0.00     0.273 C 
HETATM   23  C23 UNL     1      12.470 -10.290  21.810  1.00  0.00     0.352 C 
HETATM   24  C24 UNL     1      12.057 -11.505  20.968  1.00  0.00     0.073 C 
HETATM   25  C25 UNL     1      10.837 -11.260  20.145  1.00  0.00     0.109 C 
HETATM   26  C26 UNL     1       9.840 -10.607  21.037  1.00  0.00     0.241 C 
HETATM   27  O2  UNL     1       8.700 -10.356  20.580  1.00  0.00    -0.272 OA
HETATM   28  N6  UNL     1      10.222 -10.298  22.365  1.00  0.00    -0.182 N 
ATOM     29  H6  UNL     1       9.512 -10.394  23.092  1.00  0.00     0.197 HD
BRANCH   9  30
HETATM   30  C9  UNL     1      12.743  -6.314  22.907  1.00  0.00     0.029 C 
BRANCH  30  31
HETATM   31  C10 UNL     1      11.344  -5.845  23.250  1.00  0.00     0.122 C 
BRANCH  31  32
HETATM   32  N2  UNL     1      11.361  -5.593  24.704  1.00  0.00    -0.367 N 
HETATM   33  C11 UNL     1      11.268  -4.404  25.176  1.00  0.00     0.196 C 
HETATM   34  N3  UNL     1      11.277  -4.103  26.556  1.00  0.00    -0.067 NA
HETATM   35  N4  UNL     1      11.147  -3.325  24.256  1.00  0.00    -0.067 NA
ATOM     36  H2  UNL     1      11.448  -6.381  25.346  1.00  0.00     0.161 HD
ENDBRANCH  31  32
ENDBRANCH  30  31
ENDBRANCH   9  30
ENDBRANCH   6   7
ENDBRANCH   5   6
ENDBRANCH   4   5
ENDBRANCH   3   4
TORSDOF 7
ENDMDL
MODEL 3
REMARK VINA RESULT: -7.153488093      2.345      4.929
REMARK  7 active torsions:
REMARK  status: ('A' for Active; 'I' for Inactive)
REMARK    1  A    between atoms: C3_3  and  C4_4 
REMARK    2  A    between atoms: C4_4  and  C5_5 
REMARK    3  A    between atoms: C5_5  and  C6_6 
REMARK    4  A    between atoms: C6_6  and  N1_7 
REMARK    5  A    between atoms: C8_9  and  C9_10 
REMARK    6  A    between atoms: C9_10  and  C10_11 
REMARK    7  A    between atoms: C10_11  and  N2_12 
ROOT
HETATM    1  C1  UNL     1      12.591  -3.296  27.474  1.00  0.00     0.012 C 
HETATM    2  C2  UNL     1      13.025  -3.466  26.362  1.00  0.00    -0.117 C 
HETATM    3  C3  UNL     1      13.532  -3.670  25.006  1.00  0.00     0.093 C 
ENDROOT
BRANCH   3   4
HETATM    4  C4  UNL     1      12.366  -3.694  24.008  1.00  0.00     0.014 C 
BRANCH   4   5
HETATM    5  C5  UNL     1      11.574  -4.938  24.145  1.00  0.00     0.031 C 
BRANCH   5   6
HETATM    6  C6  UNL     1      12.317  -6.194  23.957  1.00  0.00     0.268 C 
BRANCH   6   7
HETATM    7  N1  UNL     1      11.779  -7.127  23.034  1.00  0.00     0.042 N 
HETATM    8  C7  UNL     1      11.715  -6.433  21.709  1.00  0.00     0.276 C 
HETATM    9  C8  UNL     1      13.103  -6.261  21.149  1.00  0.00     0.052 C 
HETATM   10  C12 UNL     1      13.585  -7.645  20.785  1.00  0.00     0.100 C 
HETATM   11  C13 UNL     1      14.999  -7.789  21.167  1.00  0.00     0.041 C 
HETATM   12  C22 UNL     1      13.423  -8.005  19.337  1.00  0.00     0.264 C 
HETATM   13  O1  UNL     1      12.772  -8.507  21.493  1.00  0.00    -0.343 OA
HETATM   14  C14 UNL     1      15.719  -9.022  20.801  1.00  0.00     0.003 C 
HETATM   15  C15 UNL     1      14.979 -10.303  20.792  1.00  0.00     0.001 C 
HETATM   16  C16 UNL     1      13.796 -10.465  19.974  1.00  0.00     0.009 C 
HETATM   17  C17 UNL     1      13.369  -9.425  19.030  1.00  0.00     0.055 C 
HETATM   18  C18 UNL     1      14.401  -9.203  17.946  1.00  0.00     0.230 C 
HETATM   19  C19 UNL     1      13.858  -9.133  16.544  1.00  0.00     0.038 C 
HETATM   20  N5  UNL     1      14.523  -7.848  18.448  1.00  0.00     0.101 N 
HETATM   21  C20 UNL     1      14.554  -7.853  16.059  1.00  0.00     0.032 C 
HETATM   22  C21 UNL     1      14.391  -7.000  17.303  1.00  0.00     0.273 C 
HETATM   23  C23 UNL     1      12.590  -8.281  22.817  1.00  0.00     0.352 C 
HETATM   24  C24 UNL     1      12.011  -9.579  23.396  1.00  0.00     0.073 C 
HETATM   25  C25 UNL     1      10.692  -9.947  22.803  1.00  0.00     0.109 C 
HETATM   26  C26 UNL     1       9.864  -8.710  22.793  1.00  0.00     0.241 C 
HETATM   27  O2  UNL     1       8.679  -8.784  22.392  1.00  0.00    -0.272 OA
HETATM   28  N6  UNL     1      10.451  -7.501  23.240  1.00  0.00    -0.182 N 
ATOM     29  H6  UNL     1       9.855  -6.851  23.752  1.00  0.00     0.197 HD
BRANCH   9  30
HETATM   30  C9  UNL     1      13.173  -5.243  20.075  1.00  0.00     0.029 C 
BRANCH  30  31
HETATM   31  C10 UNL     1      14.116  -4.117  20.450  1.00  0.00     0.122 C 
BRANCH  31  32
HETATM   32  N2  UNL     1      15.011  -3.952  19.289  1.00  0.00    -0.367 N 
HETATM   33  C11 UNL     1      15.432  -2.795  18.931  1.00  0.00     0.196 C 
HETATM   34  N3  UNL     1      16.290  -2.576  17.830  1.00  0.00    -0.067 NA
HETATM   35  N4  UNL     1      15.012  -1.665  19.687  1.00  0.00    -0.067 NA
ATOM     36  H2  UNL     1      15.300  -4.775  18.761  1.00  0.00     0.161 HD
ENDBRANCH  31  32
ENDBRANCH  30  31
ENDBRANCH   9  30
ENDBRANCH   6   7
ENDBRANCH   5   6
ENDBRANCH   4   5
ENDBRANCH   3   4
TORSDOF 7
ENDMDL
MODEL 4
REMARK VINA RESULT: -7.058726187      2.739      5.519
REMARK  7 active torsions:
REMARK  status: ('A' for Active; 'I' for Inactive)
REMARK    1  A    between atoms: C3_3  and  C4_4 
REMARK    2  A    between atoms: C4_4  and  C5_5 
REMARK    3  A    between atoms: C5_5  and  C6_6 
REMARK    4  A    between atoms: C6_6  and  N1_7 
REMARK    5  A    between atoms: C8_9  and  C9_10 
REMARK    6  A    between atoms: C9_10  and  C10_11 
REMARK    7  A    between atoms: C10_11  and  N2_12 
ROOT
HETATM    1  C1  UNL     1      11.502  -3.648  28.174  1.00  0.00     0.012 C 
HETATM    2  C2  UNL     1      12.299  -3.287  27.345  1.00  0.00    -0.117 C 
HETATM    3  C3  UNL     1      13.264  -2.867  26.330  1.00  0.00     0.093 C 
ENDROOT
BRANCH   3   4
HETATM    4  C4  UNL     1      13.557  -4.029  25.372  1.00  0.00     0.014 C 
BRANCH   4   5
HETATM    5  C5  UNL     1      13.227  -3.665  23.975  1.00  0.00     0.031 C 
BRANCH   5   6
HETATM    6  C6  UNL     1      13.664  -4.621  22.945  1.00  0.00     0.268 C 
BRANCH   6   7
HETATM    7  N1  UNL     1      12.665  -5.450  22.374  1.00  0.00     0.042 N 
HETATM    8  C7  UNL     1      12.696  -5.205  20.897  1.00  0.00     0.276 C 
HETATM    9  C8  UNL     1      13.938  -5.814  20.298  1.00  0.00     0.052 C 
HETATM   10  C12 UNL     1      13.758  -7.311  20.389  1.00  0.00     0.100 C 
HETATM   11  C13 UNL     1      15.031  -7.934  20.784  1.00  0.00     0.041 C 
HETATM   12  C22 UNL     1      13.255  -7.960  19.134  1.00  0.00     0.264 C 
HETATM   13  O1  UNL     1      12.777  -7.498  21.343  1.00  0.00    -0.343 OA
HETATM   14  C14 UNL     1      15.127  -9.405  20.824  1.00  0.00     0.003 C 
HETATM   15  C15 UNL     1      13.939 -10.186  21.231  1.00  0.00     0.001 C 
HETATM   16  C16 UNL     1      12.686 -10.048  20.519  1.00  0.00     0.009 C 
HETATM   17  C17 UNL     1      12.586  -9.241  19.297  1.00  0.00     0.055 C 
HETATM   18  C18 UNL     1      13.449  -9.804  18.188  1.00  0.00     0.230 C 
HETATM   19  C19 UNL     1      12.783  -9.907  16.842  1.00  0.00     0.038 C 
HETATM   20  N5  UNL     1      14.182  -8.553  18.231  1.00  0.00     0.101 N 
HETATM   21  C20 UNL     1      13.861  -9.249  15.968  1.00  0.00     0.032 C 
HETATM   22  C21 UNL     1      14.240  -8.094  16.876  1.00  0.00     0.273 C 
HETATM   23  C23 UNL     1      12.898  -6.850  22.527  1.00  0.00     0.352 C 
HETATM   24  C24 UNL     1      11.933  -7.549  23.496  1.00  0.00     0.073 C 
HETATM   25  C25 UNL     1      10.507  -7.464  23.064  1.00  0.00     0.109 C 
HETATM   26  C26 UNL     1      10.260  -6.050  22.668  1.00  0.00     0.241 C 
HETATM   27  O2  UNL     1       9.103  -5.717  22.322  1.00  0.00    -0.272 OA
HETATM   28  N6  UNL     1      11.346  -5.140  22.700  1.00  0.00    -0.182 N 
ATOM     29  H6  UNL     1      11.145  -4.181  22.984  1.00  0.00     0.197 HD
BRANCH   9  30
HETATM   30  C9  UNL     1      14.257  -5.278  18.955  1.00  0.00     0.029 C 
BRANCH  30  31
HETATM   31  C10 UNL     1      15.070  -4.003  19.055  1.00  0.00     0.122 C 
BRANCH  31  32
HETATM   32  N2  UNL     1      14.227  -2.952  18.455  1.00  0.00    -0.367 N 
HETATM   33  C11 UNL     1      14.381  -1.716  18.764  1.00  0.00     0.196 C 
HETATM   34  N3  UNL     1      13.605  -0.667  18.221  1.00  0.00    -0.067 NA
HETATM   35  N4  UNL     1      15.392  -1.381  19.707  1.00  0.00    -0.067 NA
ATOM     36  H2  UNL     1      13.508  -3.213  17.781  1.00  0.00     0.161 HD
ENDBRANCH  31  32
ENDBRANCH  30  31
ENDBRANCH   9  30
ENDBRANCH   6   7
ENDBRANCH   5   6
ENDBRANCH   4   5
ENDBRANCH   3   4
TORSDOF 7
ENDMDL
MODEL 5
REMARK VINA RESULT: -6.856684828      1.241      1.485
REMARK  7 active torsions:
REMARK  status: ('A' for Active; 'I' for Inactive)
REMARK    1  A    between atoms: C3_3  and  C4_4 
REMARK    2  A    between atoms: C4_4  and  C5_5 
REMARK    3  A    between atoms: C5_5  and  C6_6 
REMARK    4  A    between atoms: C6_6  and  N1_7 
REMARK    5  A    between atoms: C8_9  and  C9_10 
REMARK    6  A    between atoms: C9_10  and  C10_11 
REMARK    7  A    between atoms: C10_11  and  N2_12 
ROOT
HETATM    1  C1  UNL     1      14.105 -13.950  25.942  1.00  0.00     0.012 C 
HETATM    2  C2  UNL     1      13.500 -13.083  25.363  1.00  0.00    -0.117 C 
HETATM    3  C3  UNL     1      12.749 -12.037  24.671  1.00  0.00     0.093 C 
ENDROOT
BRANCH   3   4
HETATM    4  C4  UNL     1      11.252 -12.177  24.973  1.00  0.00     0.014 C 
BRANCH   4   5
HETATM    5  C5  UNL     1      10.542 -10.895  24.761  1.00  0.00     0.031 C 
BRANCH   5   6
HETATM    6  C6  UNL     1      11.316  -9.841  24.086  1.00  0.00     0.268 C 
BRANCH   6   7
HETATM    7  N1  UNL     1      10.594  -8.944  23.258  1.00  0.00     0.042 N 
HETATM    8  C7  UNL     1      11.312  -7.631  23.317  1.00  0.00     0.276 C 
HETATM    9  C8  UNL     1      12.612  -7.720  22.560  1.00  0.00     0.052 C 
HETATM   10  C12 UNL     1      12.242  -7.840  21.100  1.00  0.00     0.100 C 
HETATM   11  C13 UNL     1      13.121  -8.823  20.450  1.00  0.00     0.041 C 
HETATM   12  C22 UNL     1      12.286  -6.550  20.334  1.00  0.00     0.264 C 
HETATM   13  O1  UNL     1      10.923  -8.249  21.096  1.00  0.00    -0.343 OA
HETATM   14  C14 UNL     1      13.022  -9.022  18.992  1.00  0.00     0.003 C 
HETATM   15  C15 UNL     1      11.698  -8.899  18.346  1.00  0.00     0.001 C 
HETATM   16  C16 UNL     1      10.923  -7.683  18.475  1.00  0.00     0.009 C 
HETATM   17  C17 UNL     1      11.474  -6.491  19.129  1.00  0.00     0.055 C 
HETATM   18  C18 UNL     1      12.674  -5.952  18.379  1.00  0.00     0.230 C 
HETATM   19  C19 UNL     1      12.677  -4.463  18.153  1.00  0.00     0.038 C 
HETATM   20  N5  UNL     1      13.446  -6.224  19.576  1.00  0.00     0.101 N 
HETATM   21  C20 UNL     1      14.099  -4.131  18.628  1.00  0.00     0.032 C 
HETATM   22  C21 UNL     1      14.158  -5.016  19.859  1.00  0.00     0.273 C 
HETATM   23  C23 UNL     1      10.572  -9.299  21.876  1.00  0.00     0.352 C 
HETATM   24  C24 UNL     1       9.202  -9.770  21.366  1.00  0.00     0.073 C 
HETATM   25  C25 UNL     1       8.142  -8.727  21.489  1.00  0.00     0.109 C 
HETATM   26  C26 UNL     1       8.262  -8.149  22.855  1.00  0.00     0.241 C 
HETATM   27  O2  UNL     1       7.430  -7.285  23.217  1.00  0.00    -0.272 OA
HETATM   28  N6  UNL     1       9.313  -8.602  23.690  1.00  0.00    -0.182 N 
ATOM     29  H6  UNL     1       9.117  -8.684  24.688  1.00  0.00     0.197 HD
BRANCH   9  30
HETATM   30  C9  UNL     1      13.560  -6.635  22.904  1.00  0.00     0.029 C 
BRANCH  30  31
HETATM   31  C10 UNL     1      12.902  -5.598  23.793  1.00  0.00     0.122 C 
BRANCH  31  32
HETATM   32  N2  UNL     1      13.887  -4.507  23.916  1.00  0.00    -0.367 N 
HETATM   33  C11 UNL     1      13.702  -3.530  24.727  1.00  0.00     0.196 C 
HETATM   34  N3  UNL     1      14.609  -2.459  24.888  1.00  0.00    -0.067 NA
HETATM   35  N4  UNL     1      12.514  -3.525  25.510  1.00  0.00    -0.067 NA
ATOM     36  H2  UNL     1      14.731  -4.530  23.345  1.00  0.00     0.161 HD
ENDBRANCH  31  32
ENDBRANCH  30  31
ENDBRANCH   9  30
ENDBRANCH   6   7
ENDBRANCH   5   6
ENDBRANCH   4   5
ENDBRANCH   3   4
TORSDOF 7
ENDMDL
