MODEL 1
REMARK VINA RESULT: -5.758605314      0.000      0.000
REMARK  17 active torsions:
REMARK  status: ('A' for Active; 'I' for Inactive)
REMARK    1  A    between atoms: C2_2  and  C3_3 
REMARK    2  A    between atoms: C3_3  and  C4_4 
REMARK    3  A    between atoms: C4_4  and  C5_5 
REMARK    4  A    between atoms: C7_10  and  C8_11 
REMARK    5  A    between atoms: C8_11  and  C9_12 
REMARK    6  A    between atoms: N2_15  and  C12_16 
REMARK    7  A    between atoms: C12_16  and  C13_17 
REMARK    8  A    between atoms: C13_17  and  O2_18 
REMARK    9  A    between atoms: N3_20  and  O3_22 
REMARK   10  A    between atoms: N4_24  and  C14_25 
REMARK   11  A    between atoms: C14_25  and  C15_26 
REMARK   12  A    between atoms: C22_34  and  C23_35 
REMARK   13  A    between atoms: C23_35  and  C24_36 
REMARK   14  A    between atoms: C27_41  and  O5_42 
REMARK   15  A    between atoms: C28_44  and  C29_45 
REMARK   16  A    between atoms: C29_45  and  C30_46 
REMARK   17  A    between atoms: C30_46  and  C31_47 
ROOT
HETATM    1  C5  UNL     1      18.690  18.820  10.056  1.00  0.00     0.176 C 
HETATM    2  N1  UNL     1      19.300  17.592  10.505  1.00  0.00    -0.346 N 
ATOM      3  H1  UNL     1      19.648  17.610  11.464  1.00  0.00     0.163 HD
HETATM    4  C6  UNL     1      19.488  16.390   9.834  1.00  0.00     0.243 C 
HETATM    5  O1  UNL     1      20.630  15.934   9.726  1.00  0.00    -0.271 OA
HETATM    6  C7  UNL     1      18.378  15.523   9.189  1.00  0.00     0.200 C 
HETATM    7  N2  UNL     1      18.948  14.813   8.108  1.00  0.00    -0.277 N 
HETATM    8  N4  UNL     1      19.743  15.568   7.228  1.00  0.00    -0.234 N 
HETATM    9  C21 UNL     1      19.443  16.880   6.767  1.00  0.00     0.265 C 
HETATM   10  O4  UNL     1      20.436  17.706   6.830  1.00  0.00    -0.269 OA
HETATM   11  C22 UNL     1      18.181  17.424   6.235  1.00  0.00     0.178 C 
HETATM   12  N5  UNL     1      18.406  18.837   5.916  1.00  0.00    -0.359 N 
ATOM     13  H5  UNL     1      18.630  19.051   4.944  1.00  0.00     0.162 HD
HETATM   14  C27 UNL     1      18.348  19.931   6.798  1.00  0.00     0.135 C 
HETATM   15  C28 UNL     1      17.332  20.275   7.795  1.00  0.00     0.159 C 
HETATM   16  N6  UNL     1      16.744  19.206   8.523  1.00  0.00    -0.347 N 
ATOM     17  H6  UNL     1      15.911  18.761   8.138  1.00  0.00     0.163 HD
HETATM   18  C32 UNL     1      17.257  18.718   9.768  1.00  0.00     0.241 C 
HETATM   19  O8  UNL     1      16.478  18.215  10.588  1.00  0.00    -0.271 OA
ENDROOT
BRANCH   7  20
HETATM   20  C12 UNL     1      18.581  13.571   7.653  1.00  0.00     0.169 C 
BRANCH  20  21
HETATM   21  C13 UNL     1      19.351  12.360   7.946  1.00  0.00     0.177 C 
HETATM   22  N3  UNL     1      20.148  12.368   8.984  1.00  0.00    -0.246 N 
ATOM     23  H3  UNL     1      20.234  13.194   9.577  1.00  0.00     0.196 HD
BRANCH  21  24
HETATM   24  O2  UNL     1      19.258  11.233   7.168  1.00  0.00    -0.344 OA
ATOM     25  H2  UNL     1      18.666  11.178   6.428  1.00  0.00     0.219 HD
ENDBRANCH  21  24
BRANCH  22  26
HETATM   26  O3  UNL     1      20.862  11.233   9.246  1.00  0.00    -0.288 OA
ATOM     27  H3  UNL     1      21.729  11.332   9.621  1.00  0.00     0.244 HD
ENDBRANCH  22  26
ENDBRANCH  20  21
ENDBRANCH   7  20
BRANCH   6  28
HETATM   28  C8  UNL     1      17.916  14.794  10.394  1.00  0.00     0.041 C 
BRANCH  28  29
HETATM   29  C9  UNL     1      18.226  15.152  11.767  1.00  0.00    -0.020 C 
HETATM   30  C10 UNL     1      16.869  15.408  12.498  1.00  0.00     0.009 C 
HETATM   31  C11 UNL     1      18.697  13.847  12.500  1.00  0.00     0.009 C 
ENDBRANCH  28  29
ENDBRANCH   6  28
BRANCH   8  32
HETATM   32  C14 UNL     1      21.005  15.041   6.817  1.00  0.00     0.097 C 
BRANCH  32  33
HETATM   33  C15 UNL     1      21.473  14.967   5.443  1.00  0.00     0.026 C 
HETATM   34  C16 UNL     1      21.206  13.512   4.933  1.00  0.00     0.010 C 
HETATM   35  C17 UNL     1      22.403  12.626   5.255  1.00  0.00     0.001 C 
HETATM   36  C18 UNL     1      23.463  12.996   4.230  1.00  0.00     0.000 C 
HETATM   37  C19 UNL     1      23.298  14.460   3.853  1.00  0.00     0.001 C 
HETATM   38  C20 UNL     1      22.932  15.170   5.154  1.00  0.00     0.010 C 
ENDBRANCH  32  33
ENDBRANCH   8  32
BRANCH  11  39
HETATM   39  C23 UNL     1      17.753  16.786   4.929  1.00  0.00     0.038 C 
BRANCH  39  40
HETATM   40  C24 UNL     1      17.223  17.664   3.872  1.00  0.00    -0.020 C 
HETATM   41  C25 UNL     1      15.671  17.623   4.068  1.00  0.00     0.009 C 
HETATM   42  C26 UNL     1      17.407  17.263   2.453  1.00  0.00     0.009 C 
ENDBRANCH  39  40
ENDBRANCH  11  39
BRANCH   1  43
HETATM   43  C4  UNL     1      18.803  19.928  11.125  1.00  0.00     0.035 C 
BRANCH  43  44
HETATM   44  C3  UNL     1      19.040  19.355  12.479  1.00  0.00     0.002 C 
BRANCH  44  45
HETATM   45  C2  UNL     1      20.384  19.868  13.008  1.00  0.00    -0.004 C 
HETATM   46  C1  UNL     1      20.674  19.181  14.335  1.00  0.00     0.005 C 
ENDBRANCH  44  45
ENDBRANCH  43  44
ENDBRANCH   1  43
BRANCH  14  47
HETATM   47  O5  UNL     1      19.339  20.773   6.729  1.00  0.00    -0.348 OA
ATOM     48  H5  UNL     1      19.967  20.736   7.441  1.00  0.00     0.219 HD
ENDBRANCH  14  47
BRANCH  15  49
HETATM   49  C29 UNL     1      16.202  21.102   7.203  1.00  0.00     0.044 C 
BRANCH  49  50
HETATM   50  C30 UNL     1      15.269  21.618   8.241  1.00  0.00     0.116 C 
BRANCH  50  51
HETATM   51  C31 UNL     1      14.132  22.302   7.585  1.00  0.00     0.172 C 
HETATM   52  O6  UNL     1      14.076  23.565   7.607  1.00  0.00    -0.648 OA
HETATM   53  O7  UNL     1      13.114  21.625   6.943  1.00  0.00    -0.648 OA
ENDBRANCH  50  51
ENDBRANCH  49  50
ENDBRANCH  15  49
TORSDOF 17
ENDMDL
MODEL 2
REMARK VINA RESULT: -5.545316097      2.114      3.094
REMARK  17 active torsions:
REMARK  status: ('A' for Active; 'I' for Inactive)
REMARK    1  A    between atoms: C2_2  and  C3_3 
REMARK    2  A    between atoms: C3_3  and  C4_4 
REMARK    3  A    between atoms: C4_4  and  C5_5 
REMARK    4  A    between atoms: C7_10  and  C8_11 
REMARK    5  A    between atoms: C8_11  and  C9_12 
REMARK    6  A    between atoms: N2_15  and  C12_16 
REMARK    7  A    between atoms: C12_16  and  C13_17 
REMARK    8  A    between atoms: C13_17  and  O2_18 
REMARK    9  A    between atoms: N3_20  and  O3_22 
REMARK   10  A    between atoms: N4_24  and  C14_25 
REMARK   11  A    between atoms: C14_25  and  C15_26 
REMARK   12  A    between atoms: C22_34  and  C23_35 
REMARK   13  A    between atoms: C23_35  and  C24_36 
REMARK   14  A    between atoms: C27_41  and  O5_42 
REMARK   15  A    between atoms: C28_44  and  C29_45 
REMARK   16  A    between atoms: C29_45  and  C30_46 
REMARK   17  A    between atoms: C30_46  and  C31_47 
ROOT
HETATM    1  C5  UNL     1      19.074  16.394  12.672  1.00  0.00     0.176 C 
HETATM    2  N1  UNL     1      19.960  15.269  12.845  1.00  0.00    -0.346 N 
ATOM      3  H1  UNL     1      20.285  15.120  13.800  1.00  0.00     0.163 HD
HETATM    4  C6  UNL     1      20.439  14.358  11.912  1.00  0.00     0.243 C 
HETATM    5  O1  UNL     1      21.658  14.223  11.774  1.00  0.00    -0.271 OA
HETATM    6  C7  UNL     1      19.577  13.453  10.995  1.00  0.00     0.200 C 
HETATM    7  N2  UNL     1      20.311  13.198   9.815  1.00  0.00    -0.277 N 
HETATM    8  N4  UNL     1      20.907  14.317   9.208  1.00  0.00    -0.234 N 
HETATM    9  C21 UNL     1      20.302  15.597   9.066  1.00  0.00     0.265 C 
HETATM   10  O4  UNL     1      21.064  16.586   9.402  1.00  0.00    -0.269 OA
HETATM   11  C22 UNL     1      18.949  15.952   8.599  1.00  0.00     0.178 C 
HETATM   12  N5  UNL     1      18.828  17.411   8.657  1.00  0.00    -0.359 N 
ATOM     13  H5  UNL     1      19.001  17.914   7.786  1.00  0.00     0.162 HD
HETATM   14  C27 UNL     1      18.500  18.196   9.776  1.00  0.00     0.135 C 
HETATM   15  C28 UNL     1      17.423  18.027  10.754  1.00  0.00     0.159 C 
HETATM   16  N6  UNL     1      17.105  16.700  11.151  1.00  0.00    -0.347 N 
ATOM     17  H6  UNL     1      16.408  16.188  10.611  1.00  0.00     0.163 HD
HETATM   18  C32 UNL     1      17.710  16.040  12.269  1.00  0.00     0.241 C 
HETATM   19  O8  UNL     1      17.070  15.176  12.882  1.00  0.00    -0.271 OA
ENDROOT
BRANCH   7  20
HETATM   20  C12 UNL     1      20.259  12.065   9.042  1.00  0.00     0.169 C 
BRANCH  20  21
HETATM   21  C13 UNL     1      19.789  12.072   7.655  1.00  0.00     0.177 C 
HETATM   22  N3  UNL     1      20.637  11.754   6.710  1.00  0.00    -0.246 N 
ATOM     23  H3  UNL     1      21.602  11.505   6.929  1.00  0.00     0.196 HD
BRANCH  21  24
HETATM   24  O2  UNL     1      18.497  12.402   7.326  1.00  0.00    -0.344 OA
ATOM     25  H2  UNL     1      17.928  12.870   7.924  1.00  0.00     0.219 HD
ENDBRANCH  21  24
BRANCH  22  26
HETATM   26  O3  UNL     1      20.186  11.765   5.420  1.00  0.00    -0.288 OA
ATOM     27  H3  UNL     1      19.651  12.500   5.146  1.00  0.00     0.244 HD
ENDBRANCH  22  26
ENDBRANCH  20  21
ENDBRANCH   7  20
BRANCH   6  28
HETATM   28  C8  UNL     1      19.296  12.351  11.946  1.00  0.00     0.041 C 
BRANCH  28  29
HETATM   29  C9  UNL     1      19.352  12.452  13.395  1.00  0.00    -0.020 C 
HETATM   30  C10 UNL     1      17.976  11.962  13.948  1.00  0.00     0.009 C 
HETATM   31  C11 UNL     1      20.287  11.302  13.911  1.00  0.00     0.009 C 
ENDBRANCH  28  29
ENDBRANCH   6  28
BRANCH   8  32
HETATM   32  C14 UNL     1      22.262  14.221   8.768  1.00  0.00     0.097 C 
BRANCH  32  33
HETATM   33  C15 UNL     1      22.716  14.440   7.405  1.00  0.00     0.026 C 
HETATM   34  C16 UNL     1      23.803  13.359   7.092  1.00  0.00     0.010 C 
HETATM   35  C17 UNL     1      25.176  13.877   7.499  1.00  0.00     0.001 C 
HETATM   36  C18 UNL     1      25.571  14.865   6.412  1.00  0.00     0.000 C 
HETATM   37  C19 UNL     1      24.315  15.515   5.854  1.00  0.00     0.001 C 
HETATM   38  C20 UNL     1      23.404  15.729   7.061  1.00  0.00     0.010 C 
ENDBRANCH  32  33
ENDBRANCH   8  32
BRANCH  11  39
HETATM   39  C23 UNL     1      18.699  15.590   7.149  1.00  0.00     0.038 C 
BRANCH  39  40
HETATM   40  C24 UNL     1      19.554  16.213   6.124  1.00  0.00    -0.020 C 
HETATM   41  C25 UNL     1      18.573  17.085   5.273  1.00  0.00     0.009 C 
HETATM   42  C26 UNL     1      20.210  15.340   5.116  1.00  0.00     0.009 C 
ENDBRANCH  39  40
ENDBRANCH  11  39
BRANCH   1  43
HETATM   43  C4  UNL     1      18.907  17.185  13.988  1.00  0.00     0.035 C 
BRANCH  43  44
HETATM   44  C3  UNL     1      19.319  18.606  13.824  1.00  0.00     0.002 C 
BRANCH  44  45
HETATM   45  C2  UNL     1      20.620  18.839  14.600  1.00  0.00    -0.004 C 
HETATM   46  C1  UNL     1      21.180  20.199  14.206  1.00  0.00     0.005 C 
ENDBRANCH  44  45
ENDBRANCH  43  44
ENDBRANCH   1  43
BRANCH  14  47
HETATM   47  O5  UNL     1      19.257  19.234   9.988  1.00  0.00    -0.348 OA
ATOM     48  H5  UNL     1      19.583  19.338  10.874  1.00  0.00     0.219 HD
ENDBRANCH  14  47
BRANCH  15  49
HETATM   49  C29 UNL     1      16.131  18.692  10.308  1.00  0.00     0.044 C 
BRANCH  49  50
HETATM   50  C30 UNL     1      16.182  20.175  10.427  1.00  0.00     0.116 C 
BRANCH  50  51
HETATM   51  C31 UNL     1      15.794  20.787   9.137  1.00  0.00     0.172 C 
HETATM   52  O6  UNL     1      14.867  21.646   9.115  1.00  0.00    -0.648 OA
HETATM   53  O7  UNL     1      16.399  20.464   7.937  1.00  0.00    -0.648 OA
ENDBRANCH  50  51
ENDBRANCH  49  50
ENDBRANCH  15  49
TORSDOF 17
ENDMDL
MODEL 3
REMARK VINA RESULT: -5.514935748      3.379      6.710
REMARK  17 active torsions:
REMARK  status: ('A' for Active; 'I' for Inactive)
REMARK    1  A    between atoms: C2_2  and  C3_3 
REMARK    2  A    between atoms: C3_3  and  C4_4 
REMARK    3  A    between atoms: C4_4  and  C5_5 
REMARK    4  A    between atoms: C7_10  and  C8_11 
REMARK    5  A    between atoms: C8_11  and  C9_12 
REMARK    6  A    between atoms: N2_15  and  C12_16 
REMARK    7  A    between atoms: C12_16  and  C13_17 
REMARK    8  A    between atoms: C13_17  and  O2_18 
REMARK    9  A    between atoms: N3_20  and  O3_22 
REMARK   10  A    between atoms: N4_24  and  C14_25 
REMARK   11  A    between atoms: C14_25  and  C15_26 
REMARK   12  A    between atoms: C22_34  and  C23_35 
REMARK   13  A    between atoms: C23_35  and  C24_36 
REMARK   14  A    between atoms: C27_41  and  O5_42 
REMARK   15  A    between atoms: C28_44  and  C29_45 
REMARK   16  A    between atoms: C29_45  and  C30_46 
REMARK   17  A    between atoms: C30_46  and  C31_47 
ROOT
HETATM    1  C5  UNL     1      17.952  16.776  10.451  1.00  0.00     0.176 C 
HETATM    2  N1  UNL     1      17.871  15.980   9.250  1.00  0.00    -0.346 N 
ATOM      3  H1  UNL     1      16.936  15.895   8.852  1.00  0.00     0.163 HD
HETATM    4  C6  UNL     1      18.869  15.312   8.552  1.00  0.00     0.243 C 
HETATM    5  O1  UNL     1      18.759  14.098   8.357  1.00  0.00    -0.271 OA
HETATM    6  C7  UNL     1      20.153  15.950   7.962  1.00  0.00     0.200 C 
HETATM    7  N2  UNL     1      21.163  14.962   7.938  1.00  0.00    -0.277 N 
HETATM    8  N4  UNL     1      21.321  14.216   9.119  1.00  0.00    -0.234 N 
HETATM    9  C21 UNL     1      21.270  14.743  10.439  1.00  0.00     0.265 C 
HETATM   10  O4  UNL     1      20.536  14.061  11.257  1.00  0.00    -0.269 OA
HETATM   11  C22 UNL     1      21.927  15.937  11.001  1.00  0.00     0.178 C 
HETATM   12  N5  UNL     1      21.535  16.038  12.410  1.00  0.00    -0.359 N 
ATOM     13  H5  UNL     1      22.190  15.652  13.090  1.00  0.00     0.162 HD
HETATM   14  C27 UNL     1      20.358  16.607  12.930  1.00  0.00     0.135 C 
HETATM   15  C28 UNL     1      19.722  17.889  12.618  1.00  0.00     0.159 C 
HETATM   16  N6  UNL     1      19.751  18.319  11.264  1.00  0.00    -0.347 N 
ATOM     17  H6  UNL     1      20.545  18.879  10.953  1.00  0.00     0.163 HD
HETATM   18  C32 UNL     1      18.728  18.011  10.312  1.00  0.00     0.241 C 
HETATM   19  O8  UNL     1      18.510  18.797   9.380  1.00  0.00    -0.271 OA
ENDROOT
BRANCH   7  20
HETATM   20  C12 UNL     1      22.186  14.852   7.029  1.00  0.00     0.169 C 
BRANCH  20  21
HETATM   21  C13 UNL     1      23.123  15.944   6.755  1.00  0.00     0.177 C 
HETATM   22  N3  UNL     1      23.637  16.033   5.555  1.00  0.00    -0.246 N 
ATOM     23  H3  UNL     1      23.395  15.362   4.826  1.00  0.00     0.196 HD
BRANCH  21  24
HETATM   24  O2  UNL     1      23.470  16.864   7.714  1.00  0.00    -0.344 OA
ATOM     25  H2  UNL     1      23.905  17.679   7.496  1.00  0.00     0.219 HD
ENDBRANCH  21  24
BRANCH  22  26
HETATM   26  O3  UNL     1      24.511  17.056   5.312  1.00  0.00    -0.288 OA
ATOM     27  H3  UNL     1      24.180  17.944   5.375  1.00  0.00     0.244 HD
ENDBRANCH  22  26
ENDBRANCH  20  21
ENDBRANCH   7  20
BRANCH   6  28
HETATM   28  C8  UNL     1      19.596  16.473   6.692  1.00  0.00     0.041 C 
BRANCH  28  29
HETATM   29  C9  UNL     1      18.746  15.732   5.776  1.00  0.00    -0.020 C 
HETATM   30  C10 UNL     1      17.868  16.774   5.012  1.00  0.00     0.009 C 
HETATM   31  C11 UNL     1      19.652  15.217   4.603  1.00  0.00     0.009 C 
ENDBRANCH  28  29
ENDBRANCH   6  28
BRANCH   8  32
HETATM   32  C14 UNL     1      21.453  12.797   9.023  1.00  0.00     0.097 C 
BRANCH  32  33
HETATM   33  C15 UNL     1      22.711  12.069   9.074  1.00  0.00     0.026 C 
HETATM   34  C16 UNL     1      22.721  11.242  10.402  1.00  0.00     0.010 C 
HETATM   35  C17 UNL     1      23.307  12.084  11.528  1.00  0.00     0.001 C 
HETATM   36  C18 UNL     1      24.809  12.083  11.291  1.00  0.00     0.000 C 
HETATM   37  C19 UNL     1      25.075  11.978   9.797  1.00  0.00     0.001 C 
HETATM   38  C20 UNL     1      23.999  12.838   9.138  1.00  0.00     0.010 C 
ENDBRANCH  32  33
ENDBRANCH   8  32
BRANCH  11  39
HETATM   39  C23 UNL     1      23.439  15.843  11.015  1.00  0.00     0.038 C 
BRANCH  39  40
HETATM   40  C24 UNL     1      24.147  16.290  12.226  1.00  0.00    -0.020 C 
HETATM   41  C25 UNL     1      24.770  17.670  11.829  1.00  0.00     0.009 C 
HETATM   42  C26 UNL     1      25.315  15.503  12.702  1.00  0.00     0.009 C 
ENDBRANCH  39  40
ENDBRANCH  11  39
BRANCH   1  43
HETATM   43  C4  UNL     1      16.553  17.234  10.916  1.00  0.00     0.035 C 
BRANCH  43  44
HETATM   44  C3  UNL     1      15.754  16.093  11.444  1.00  0.00     0.002 C 
BRANCH  44  45
HETATM   45  C2  UNL     1      16.307  15.692  12.815  1.00  0.00    -0.004 C 
HETATM   46  C1  UNL     1      15.135  15.359  13.729  1.00  0.00     0.005 C 
ENDBRANCH  44  45
ENDBRANCH  43  44
ENDBRANCH   1  43
BRANCH  14  47
HETATM   47  O5  UNL     1      19.729  15.900  13.824  1.00  0.00    -0.348 OA
ATOM     48  H5  UNL     1      18.900  15.525  13.550  1.00  0.00     0.219 HD
ENDBRANCH  14  47
BRANCH  15  49
HETATM   49  C29 UNL     1      20.267  19.023  13.471  1.00  0.00     0.044 C 
BRANCH  49  50
HETATM   50  C30 UNL     1      21.676  19.363  13.135  1.00  0.00     0.116 C 
BRANCH  50  51
HETATM   51  C31 UNL     1      21.967  20.747  13.574  1.00  0.00     0.172 C 
HETATM   52  O6  UNL     1      21.686  21.091  14.757  1.00  0.00    -0.648 OA
HETATM   53  O7  UNL     1      22.537  21.695  12.746  1.00  0.00    -0.648 OA
ENDBRANCH  50  51
ENDBRANCH  49  50
ENDBRANCH  15  49
TORSDOF 17
ENDMDL
MODEL 4
REMARK VINA RESULT: -5.470997230      1.862      6.326
REMARK  17 active torsions:
REMARK  status: ('A' for Active; 'I' for Inactive)
REMARK    1  A    between atoms: C2_2  and  C3_3 
REMARK    2  A    between atoms: C3_3  and  C4_4 
REMARK    3  A    between atoms: C4_4  and  C5_5 
REMARK    4  A    between atoms: C7_10  and  C8_11 
REMARK    5  A    between atoms: C8_11  and  C9_12 
REMARK    6  A    between atoms: N2_15  and  C12_16 
REMARK    7  A    between atoms: C12_16  and  C13_17 
REMARK    8  A    between atoms: C13_17  and  O2_18 
REMARK    9  A    between atoms: N3_20  and  O3_22 
REMARK   10  A    between atoms: N4_24  and  C14_25 
REMARK   11  A    between atoms: C14_25  and  C15_26 
REMARK   12  A    between atoms: C22_34  and  C23_35 
REMARK   13  A    between atoms: C23_35  and  C24_36 
REMARK   14  A    between atoms: C27_41  and  O5_42 
REMARK   15  A    between atoms: C28_44  and  C29_45 
REMARK   16  A    between atoms: C29_45  and  C30_46 
REMARK   17  A    between atoms: C30_46  and  C31_47 
ROOT
HETATM    1  C5  UNL     1      17.425  18.143   6.294  1.00  0.00     0.176 C 
HETATM    2  N1  UNL     1      17.945  16.826   6.020  1.00  0.00    -0.346 N 
ATOM      3  H1  UNL     1      17.646  16.420   5.133  1.00  0.00     0.163 HD
HETATM    4  C6  UNL     1      18.789  16.023   6.778  1.00  0.00     0.243 C 
HETATM    5  O1  UNL     1      18.416  14.892   7.100  1.00  0.00    -0.271 OA
HETATM    6  C7  UNL     1      20.206  16.406   7.276  1.00  0.00     0.200 C 
HETATM    7  N2  UNL     1      20.456  15.699   8.474  1.00  0.00    -0.277 N 
HETATM    8  N4  UNL     1      19.427  15.729   9.431  1.00  0.00    -0.234 N 
HETATM    9  C21 UNL     1      18.644  16.869   9.764  1.00  0.00     0.265 C 
HETATM   10  O4  UNL     1      17.372  16.643   9.822  1.00  0.00    -0.269 OA
HETATM   11  C22 UNL     1      19.069  18.252  10.048  1.00  0.00     0.178 C 
HETATM   12  N5  UNL     1      17.864  19.040  10.322  1.00  0.00    -0.359 N 
ATOM     13  H5  UNL     1      17.621  19.167  11.304  1.00  0.00     0.162 HD
HETATM   14  C27 UNL     1      17.005  19.641   9.384  1.00  0.00     0.135 C 
HETATM   15  C28 UNL     1      17.326  20.461   8.214  1.00  0.00     0.159 C 
HETATM   16  N6  UNL     1      18.473  20.100   7.458  1.00  0.00    -0.347 N 
ATOM     17  H6  UNL     1      19.372  20.503   7.722  1.00  0.00     0.163 HD
HETATM   18  C32 UNL     1      18.438  19.200   6.344  1.00  0.00     0.241 C 
HETATM   19  O8  UNL     1      19.268  19.329   5.435  1.00  0.00    -0.271 OA
ENDROOT
BRANCH   7  20
HETATM   20  C12 UNL     1      21.672  15.253   8.929  1.00  0.00     0.169 C 
BRANCH  20  21
HETATM   21  C13 UNL     1      22.664  16.142   9.538  1.00  0.00     0.177 C 
HETATM   22  N3  UNL     1      22.686  16.245  10.843  1.00  0.00    -0.246 N 
ATOM     23  H3  UNL     1      22.030  15.723  11.424  1.00  0.00     0.196 HD
BRANCH  21  24
HETATM   24  O2  UNL     1      23.560  16.859   8.784  1.00  0.00    -0.344 OA
ATOM     25  H2  UNL     1      23.325  17.677   8.364  1.00  0.00     0.219 HD
ENDBRANCH  21  24
BRANCH  22  26
HETATM   26  O3  UNL     1      23.616  17.078  11.399  1.00  0.00    -0.288 OA
ATOM     27  H3  UNL     1      23.693  17.083  12.346  1.00  0.00     0.244 HD
ENDBRANCH  22  26
ENDBRANCH  20  21
ENDBRANCH   7  20
BRANCH   6  28
HETATM   28  C8  UNL     1      20.981  16.090   6.053  1.00  0.00     0.041 C 
BRANCH  28  29
HETATM   29  C9  UNL     1      21.607  14.812   5.757  1.00  0.00    -0.020 C 
HETATM   30  C10 UNL     1      20.846  14.193   4.542  1.00  0.00     0.009 C 
HETATM   31  C11 UNL     1      22.998  15.110   5.094  1.00  0.00     0.009 C 
ENDBRANCH  28  29
ENDBRANCH   6  28
BRANCH   8  32
HETATM   32  C14 UNL     1      19.050  14.511  10.075  1.00  0.00     0.097 C 
BRANCH  32  33
HETATM   33  C15 UNL     1      19.419  14.132  11.429  1.00  0.00     0.026 C 
HETATM   34  C16 UNL     1      20.261  12.817  11.337  1.00  0.00     0.010 C 
HETATM   35  C17 UNL     1      19.335  11.608  11.386  1.00  0.00     0.001 C 
HETATM   36  C18 UNL     1      18.928  11.474  12.845  1.00  0.00     0.000 C 
HETATM   37  C19 UNL     1      18.906  12.853  13.483  1.00  0.00     0.001 C 
HETATM   38  C20 UNL     1      18.339  13.781  12.411  1.00  0.00     0.010 C 
ENDBRANCH  32  33
ENDBRANCH   8  32
BRANCH  11  39
HETATM   39  C23 UNL     1      19.917  18.377  11.297  1.00  0.00     0.038 C 
BRANCH  39  40
HETATM   40  C24 UNL     1      19.227  18.527  12.589  1.00  0.00    -0.020 C 
HETATM   41  C25 UNL     1      20.150  19.479  13.419  1.00  0.00     0.009 C 
HETATM   42  C26 UNL     1      19.080  17.333  13.462  1.00  0.00     0.009 C 
ENDBRANCH  39  40
ENDBRANCH  11  39
BRANCH   1  43
HETATM   43  C4  UNL     1      16.433  18.594   5.200  1.00  0.00     0.035 C 
BRANCH  43  44
HETATM   44  C3  UNL     1      16.196  17.514   4.202  1.00  0.00     0.002 C 
BRANCH  44  45
HETATM   45  C2  UNL     1      16.625  18.013   2.818  1.00  0.00    -0.004 C 
HETATM   46  C1  UNL     1      17.845  17.218   2.375  1.00  0.00     0.005 C 
ENDBRANCH  44  45
ENDBRANCH  43  44
ENDBRANCH   1  43
BRANCH  14  47
HETATM   47  O5  UNL     1      15.732  19.448   9.570  1.00  0.00    -0.348 OA
ATOM     48  H5  UNL     1      15.167  20.193   9.396  1.00  0.00     0.219 HD
ENDBRANCH  14  47
BRANCH  15  49
HETATM   49  C29 UNL     1      17.454  21.936   8.563  1.00  0.00     0.044 C 
BRANCH  49  50
HETATM   50  C30 UNL     1      16.147  22.556   8.909  1.00  0.00     0.116 C 
BRANCH  50  51
HETATM   51  C31 UNL     1      15.200  22.368   7.786  1.00  0.00     0.172 C 
HETATM   52  O6  UNL     1      14.165  21.664   7.963  1.00  0.00    -0.648 OA
HETATM   53  O7  UNL     1      15.391  22.929   6.538  1.00  0.00    -0.648 OA
ENDBRANCH  50  51
ENDBRANCH  49  50
ENDBRANCH  15  49
TORSDOF 17
ENDMDL
MODEL 5
REMARK VINA RESULT: -5.403846085      3.042      8.054
REMARK  17 active torsions:
REMARK  status: ('A' for Active; 'I' for Inactive)
REMARK    1  A    between atoms: C2_2  and  C3_3 
REMARK    2  A    between atoms: C3_3  and  C4_4 
REMARK    3  A    between atoms: C4_4  and  C5_5 
REMARK    4  A    between atoms: C7_10  and  C8_11 
REMARK    5  A    between atoms: C8_11  and  C9_12 
REMARK    6  A    between atoms: N2_15  and  C12_16 
REMARK    7  A    between atoms: C12_16  and  C13_17 
REMARK    8  A    between atoms: C13_17  and  O2_18 
REMARK    9  A    between atoms: N3_20  and  O3_22 
REMARK   10  A    between atoms: N4_24  and  C14_25 
REMARK   11  A    between atoms: C14_25  and  C15_26 
REMARK   12  A    between atoms: C22_34  and  C23_35 
REMARK   13  A    between atoms: C23_35  and  C24_36 
REMARK   14  A    between atoms: C27_41  and  O5_42 
REMARK   15  A    between atoms: C28_44  and  C29_45 
REMARK   16  A    between atoms: C29_45  and  C30_46 
REMARK   17  A    between atoms: C30_46  and  C31_47 
ROOT
HETATM    1  C5  UNL     1      19.244  16.140   8.090  1.00  0.00     0.176 C 
HETATM    2  N1  UNL     1      18.365  16.725   9.072  1.00  0.00    -0.346 N 
ATOM      3  H1  UNL     1      17.520  17.153   8.692  1.00  0.00     0.163 HD
HETATM    4  C6  UNL     1      18.490  16.797  10.453  1.00  0.00     0.243 C 
HETATM    5  O1  UNL     1      18.466  17.902  11.004  1.00  0.00    -0.271 OA
HETATM    6  C7  UNL     1      18.657  15.595  11.417  1.00  0.00     0.200 C 
HETATM    7  N2  UNL     1      19.380  16.037  12.548  1.00  0.00    -0.277 N 
HETATM    8  N4  UNL     1      20.536  16.791  12.283  1.00  0.00    -0.234 N 
HETATM    9  C21 UNL     1      21.479  16.518  11.253  1.00  0.00     0.265 C 
HETATM   10  O4  UNL     1      21.819  17.552  10.554  1.00  0.00    -0.269 OA
HETATM   11  C22 UNL     1      22.116  15.243  10.874  1.00  0.00     0.178 C 
HETATM   12  N5  UNL     1      23.001  15.509   9.736  1.00  0.00    -0.359 N 
ATOM     13  H5  UNL     1      23.985  15.661   9.955  1.00  0.00     0.162 HD
HETATM   14  C27 UNL     1      22.645  15.580   8.377  1.00  0.00     0.135 C 
HETATM   15  C28 UNL     1      21.823  14.670   7.577  1.00  0.00     0.159 C 
HETATM   16  N6  UNL     1      20.687  14.094   8.207  1.00  0.00    -0.347 N 
ATOM     17  H6  UNL     1      20.807  13.210   8.703  1.00  0.00     0.163 HD
HETATM   18  C32 UNL     1      19.382  14.684   8.186  1.00  0.00     0.241 C 
HETATM   19  O8  UNL     1      18.385  13.953   8.248  1.00  0.00    -0.271 OA
ENDROOT
BRANCH   7  20
HETATM   20  C12 UNL     1      19.262  15.572  13.834  1.00  0.00     0.169 C 
BRANCH  20  21
HETATM   21  C13 UNL     1      20.222  14.641  14.433  1.00  0.00     0.177 C 
HETATM   22  N3  UNL     1      20.281  13.422  13.960  1.00  0.00    -0.246 N 
ATOM     23  H3  UNL     1      19.677  13.123  13.195  1.00  0.00     0.196 HD
BRANCH  21  24
HETATM   24  O2  UNL     1      21.050  15.012  15.463  1.00  0.00    -0.344 OA
ATOM     25  H2  UNL     1      21.955  14.730  15.509  1.00  0.00     0.219 HD
ENDBRANCH  21  24
BRANCH  22  26
HETATM   26  O3  UNL     1      21.180  12.564  14.527  1.00  0.00    -0.288 OA
ATOM     27  H3  UNL     1      20.884  11.684  14.730  1.00  0.00     0.244 HD
ENDBRANCH  22  26
ENDBRANCH  20  21
ENDBRANCH   7  20
BRANCH   6  28
HETATM   28  C8  UNL     1      17.235  15.201  11.554  1.00  0.00     0.041 C 
BRANCH  28  29
HETATM   29  C9  UNL     1      16.228  15.924  12.312  1.00  0.00    -0.020 C 
HETATM   30  C10 UNL     1      14.906  15.887  11.481  1.00  0.00     0.009 C 
HETATM   31  C11 UNL     1      15.818  15.023  13.531  1.00  0.00     0.009 C 
ENDBRANCH  28  29
ENDBRANCH   6  28
BRANCH   8  32
HETATM   32  C14 UNL     1      20.764  17.986  13.030  1.00  0.00     0.097 C 
BRANCH  32  33
HETATM   33  C15 UNL     1      21.853  18.188  13.972  1.00  0.00     0.026 C 
HETATM   34  C16 UNL     1      21.257  18.891  15.236  1.00  0.00     0.010 C 
HETATM   35  C17 UNL     1      21.302  20.403  15.053  1.00  0.00     0.001 C 
HETATM   36  C18 UNL     1      22.753  20.792  15.285  1.00  0.00     0.000 C 
HETATM   37  C19 UNL     1      23.650  19.644  14.849  1.00  0.00     0.001 C 
HETATM   38  C20 UNL     1      22.996  19.082  13.588  1.00  0.00     0.010 C 
ENDBRANCH  32  33
ENDBRANCH   8  32
BRANCH  11  39
HETATM   39  C23 UNL     1      23.016  14.676  11.952  1.00  0.00     0.038 C 
BRANCH  39  40
HETATM   40  C24 UNL     1      24.039  15.561  12.534  1.00  0.00    -0.020 C 
HETATM   41  C25 UNL     1      25.398  14.990  12.007  1.00  0.00     0.009 C 
HETATM   42  C26 UNL     1      24.215  15.574  14.010  1.00  0.00     0.009 C 
ENDBRANCH  39  40
ENDBRANCH  11  39
BRANCH   1  43
HETATM   43  C4  UNL     1      18.735  16.397   6.655  1.00  0.00     0.035 C 
BRANCH  43  44
HETATM   44  C3  UNL     1      18.697  17.853   6.344  1.00  0.00     0.002 C 
BRANCH  44  45
HETATM   45  C2  UNL     1      18.399  18.036   4.853  1.00  0.00    -0.004 C 
HETATM   46  C1  UNL     1      19.081  16.913   4.083  1.00  0.00     0.005 C 
ENDBRANCH  44  45
ENDBRANCH  43  44
ENDBRANCH   1  43
BRANCH  14  47
HETATM   47  O5  UNL     1      23.111  16.601   7.718  1.00  0.00    -0.348 OA
ATOM     48  H5  UNL     1      22.469  17.125   7.253  1.00  0.00     0.219 HD
ENDBRANCH  14  47
BRANCH  15  49
HETATM   49  C29 UNL     1      22.637  13.536   6.976  1.00  0.00     0.044 C 
BRANCH  49  50
HETATM   50  C30 UNL     1      21.824  12.652   6.098  1.00  0.00     0.116 C 
BRANCH  50  51
HETATM   51  C31 UNL     1      21.225  13.456   5.009  1.00  0.00     0.172 C 
HETATM   52  O6  UNL     1      19.966  13.534   4.920  1.00  0.00    -0.648 OA
HETATM   53  O7  UNL     1      21.979  14.135   4.071  1.00  0.00    -0.648 OA
ENDBRANCH  50  51
ENDBRANCH  49  50
ENDBRANCH  15  49
TORSDOF 17
ENDMDL
