MODEL 1
REMARK VINA RESULT: -9.436762949      0.000      0.000
REMARK  18 active torsions:
REMARK  status: ('A' for Active; 'I' for Inactive)
REMARK    1  A    between atoms: C6_6  and  O1_7 
REMARK    2  A    between atoms: O1_7  and  C7_8 
REMARK    3  A    between atoms: C7_8  and  O2_9 
REMARK    4  A    between atoms: N1_11  and  C8_13 
REMARK    5  A    between atoms: C8_13  and  C9_14 
REMARK    6  A    between atoms: C9_14  and  C10_15 
REMARK       I    between atoms: C10_15  and  N2_17 
REMARK    7  A    between atoms: N2_17  and  C11_19 
REMARK    8  A    between atoms: C11_19  and  C12_20 
REMARK    9  A    between atoms: C11_19  and  C16_27 
REMARK   10  A    between atoms: C12_20  and  C13_21 
REMARK   11  A    between atoms: C13_21  and  C14_22 
REMARK   12  A    between atoms: C14_22  and  N3_23 
REMARK       I    between atoms: N3_23  and  C15_24 
REMARK   13  A    between atoms: C16_27  and  O4_28 
REMARK   14  A    between atoms: C16_27  and  C17_30 
REMARK   15  A    between atoms: C22_38  and  C23_39 
REMARK   16  A    between atoms: C23_39  and  C24_40 
REMARK       I    between atoms: C24_40  and  N7_42 
REMARK   17  A    between atoms: N7_42  and  C25_44 
REMARK   18  A    between atoms: C25_44  and  C26_45 
ROOT
HETATM    1  C7  UNL     1      13.673  23.149   5.471  1.00  0.00     0.258 C 
HETATM    2  N1  UNL     1      12.672  22.983   4.559  1.00  0.00    -0.350 N 
ATOM      3  H1  UNL     1      11.816  22.647   4.999  1.00  0.00     0.163 HD
ENDROOT
BRANCH   1   4
HETATM    4  O1  UNL     1      14.633  23.314   6.324  1.00  0.00    -0.311 OA
BRANCH   4   5
HETATM    5  C6  UNL     1      15.180  22.700   7.437  1.00  0.00     0.133 C 
HETATM    6  C5  UNL     1      16.501  23.103   7.928  1.00  0.00     0.038 C 
HETATM    7  C4  UNL     1      17.081  22.202   8.995  1.00  0.00    -0.004 C 
HETATM    8  C2  UNL     1      16.212  21.044   9.331  1.00  0.00    -0.040 C 
HETATM    9  C30 UNL     1      18.252  21.452   8.328  1.00  0.00     0.011 C 
HETATM   10  C1  UNL     1      16.959  19.979  10.171  1.00  0.00     0.015 C 
HETATM   11  C3  UNL     1      14.913  21.269  10.002  1.00  0.00     0.015 C 
HETATM   12  C21 UNL     1      16.138  20.440   7.915  1.00  0.00     0.001 C 
HETATM   13  C20 UNL     1      15.251  21.205   7.045  1.00  0.00     0.038 C 
HETATM   14  C22 UNL     1      17.571  20.267   7.559  1.00  0.00    -0.001 C 
BRANCH  14  15
HETATM   15  C23 UNL     1      18.061  20.353   6.183  1.00  0.00     0.108 C 
BRANCH  15  16
HETATM   16  C24 UNL     1      17.970  19.239   5.281  1.00  0.00     0.221 C 
HETATM   17  O5  UNL     1      18.895  18.647   4.664  1.00  0.00    -0.273 OA
HETATM   18  N7  UNL     1      16.665  18.634   4.993  1.00  0.00    -0.340 N 
ATOM     19  H7  UNL     1      15.848  19.097   5.393  1.00  0.00     0.167 HD
BRANCH  18  20
HETATM   20  C25 UNL     1      16.424  17.487   4.225  1.00  0.00     0.070 C 
BRANCH  20  21
HETATM   21  C26 UNL     1      15.853  17.652   2.845  1.00  0.00     0.051 C 
HETATM   22  C27 UNL     1      14.741  18.396   2.396  1.00  0.00     0.039 C 
HETATM   23  C28 UNL     1      15.295  19.439   1.390  1.00  0.00     0.233 C 
HETATM   24  N8  UNL     1      16.468  18.776   0.845  1.00  0.00    -0.074 N 
HETATM   25  C29 UNL     1      17.053  18.041   1.920  1.00  0.00     0.242 C 
ATOM     26  H82 UNL     1      16.266  18.202   0.026  1.00  0.00     0.277 HD
ATOM     27  H81 UNL     1      17.120  19.417   0.391  1.00  0.00     0.277 HD
ENDBRANCH  20  21
ENDBRANCH  18  20
ENDBRANCH  15  16
ENDBRANCH  14  15
ENDBRANCH   4   5
ENDBRANCH   1   4
BRANCH   1  28
HETATM   28  O2  UNL     1      14.700  23.709   4.317  1.00  0.00    -0.327 OA
ATOM     29  H2  UNL     1      13.942  23.812   3.753  1.00  0.00     0.221 HD
ENDBRANCH   1  28
BRANCH   2  30
HETATM   30  C8  UNL     1      12.507  23.152   3.163  1.00  0.00     0.133 C 
BRANCH  30  31
HETATM   31  C9  UNL     1      11.467  24.098   2.630  1.00  0.00     0.122 C 
BRANCH  31  32
HETATM   32  C10 UNL     1      10.446  24.278   3.739  1.00  0.00     0.219 C 
HETATM   33  O3  UNL     1       9.654  23.288   3.858  1.00  0.00    -0.274 OA
HETATM   34  N2  UNL     1      10.317  25.405   4.567  1.00  0.00    -0.350 N 
ATOM     35  H2  UNL     1      10.955  26.200   4.536  1.00  0.00     0.163 HD
BRANCH  34  36
HETATM   36  C11 UNL     1       9.132  25.319   5.511  1.00  0.00     0.144 C 
BRANCH  36  37
HETATM   37  C12 UNL     1       9.607  25.237   6.921  1.00  0.00     0.038 C 
BRANCH  37  38
HETATM   38  C13 UNL     1      11.041  25.462   7.186  1.00  0.00     0.062 C 
BRANCH  38  39
HETATM   39  C14 UNL     1      11.273  26.050   8.592  1.00  0.00     0.158 C 
BRANCH  39  40
HETATM   40  N3  UNL     1      10.451  27.017   9.004  1.00  0.00    -0.393 NA
HETATM   41  C15 UNL     1       9.698  27.925   9.213  1.00  0.00     0.274 C 
HETATM   42  N4  UNL     1       9.207  28.376  10.486  1.00  0.00    -0.052 NA
HETATM   43  N5  UNL     1       9.147  28.736   8.080  1.00  0.00    -0.052 NA
ENDBRANCH  39  40
ENDBRANCH  38  39
ENDBRANCH  37  38
ENDBRANCH  36  37
BRANCH  36  44
HETATM   44  C16 UNL     1       8.504  26.687   5.302  1.00  0.00     0.099 C 
BRANCH  44  45
HETATM   45  O4  UNL     1       9.284  27.714   5.113  1.00  0.00    -0.360 OA
ATOM     46  H4  UNL     1       9.956  27.661   4.444  1.00  0.00     0.217 HD
ENDBRANCH  44  45
BRANCH  44  47
HETATM   47  C17 UNL     1       7.078  26.894   5.298  1.00  0.00     0.101 A 
HETATM   48  N6  UNL     1       6.181  26.248   4.576  1.00  0.00    -0.361 N 
HETATM   49  C18 UNL     1       4.940  26.430   4.630  1.00  0.00     0.072 A 
ATOM     50  H6  UNL     1       6.523  25.545   3.921  1.00  0.00     0.165 HD
HETATM   51  C19 UNL     1       4.512  27.426   5.569  1.00  0.00     0.125 A 
HETATM   52  S1  UNL     1       6.029  27.919   6.203  1.00  0.00    -0.105 SA
ENDBRANCH  44  47
ENDBRANCH  36  44
ENDBRANCH  34  36
ENDBRANCH  31  32
ENDBRANCH  30  31
ENDBRANCH   2  30
TORSDOF 18
ENDMDL
MODEL 2
REMARK VINA RESULT: -9.296724337      3.000     11.248
REMARK  18 active torsions:
REMARK  status: ('A' for Active; 'I' for Inactive)
REMARK    1  A    between atoms: C6_6  and  O1_7 
REMARK    2  A    between atoms: O1_7  and  C7_8 
REMARK    3  A    between atoms: C7_8  and  O2_9 
REMARK    4  A    between atoms: N1_11  and  C8_13 
REMARK    5  A    between atoms: C8_13  and  C9_14 
REMARK    6  A    between atoms: C9_14  and  C10_15 
REMARK       I    between atoms: C10_15  and  N2_17 
REMARK    7  A    between atoms: N2_17  and  C11_19 
REMARK    8  A    between atoms: C11_19  and  C12_20 
REMARK    9  A    between atoms: C11_19  and  C16_27 
REMARK   10  A    between atoms: C12_20  and  C13_21 
REMARK   11  A    between atoms: C13_21  and  C14_22 
REMARK   12  A    between atoms: C14_22  and  N3_23 
REMARK       I    between atoms: N3_23  and  C15_24 
REMARK   13  A    between atoms: C16_27  and  O4_28 
REMARK   14  A    between atoms: C16_27  and  C17_30 
REMARK   15  A    between atoms: C22_38  and  C23_39 
REMARK   16  A    between atoms: C23_39  and  C24_40 
REMARK       I    between atoms: C24_40  and  N7_42 
REMARK   17  A    between atoms: N7_42  and  C25_44 
REMARK   18  A    between atoms: C25_44  and  C26_45 
ROOT
HETATM    1  C7  UNL     1      12.402  23.834   5.270  1.00  0.00     0.258 C 
HETATM    2  N1  UNL     1      12.907  23.474   6.485  1.00  0.00    -0.350 N 
ATOM      3  H1  UNL     1      12.718  22.493   6.693  1.00  0.00     0.163 HD
ENDROOT
BRANCH   1   4
HETATM    4  O1  UNL     1      11.931  24.192   4.118  1.00  0.00    -0.311 OA
BRANCH   4   5
HETATM    5  C6  UNL     1      10.764  24.115   3.379  1.00  0.00     0.133 C 
HETATM    6  C5  UNL     1      10.525  25.049   2.276  1.00  0.00     0.038 C 
HETATM    7  C4  UNL     1       9.124  25.012   1.708  1.00  0.00    -0.004 C 
HETATM    8  C2  UNL     1       8.227  24.051   2.401  1.00  0.00    -0.040 C 
HETATM    9  C30 UNL     1       8.456  26.334   2.139  1.00  0.00     0.011 C 
HETATM   10  C1  UNL     1       6.741  24.264   2.023  1.00  0.00     0.015 C 
HETATM   11  C3  UNL     1       8.481  22.597   2.290  1.00  0.00     0.015 C 
HETATM   12  C21 UNL     1       8.359  24.647   3.816  1.00  0.00     0.001 C 
HETATM   13  C20 UNL     1       9.642  24.315   4.425  1.00  0.00     0.038 C 
HETATM   14  C22 UNL     1       7.973  26.068   3.608  1.00  0.00    -0.001 C 
BRANCH  14  15
HETATM   15  C23 UNL     1       8.521  27.162   4.410  1.00  0.00     0.108 C 
BRANCH  15  16
HETATM   16  C24 UNL     1       8.052  27.425   5.742  1.00  0.00     0.221 C 
HETATM   17  O5  UNL     1       7.454  28.444   6.180  1.00  0.00    -0.273 OA
HETATM   18  N7  UNL     1       8.238  26.422   6.795  1.00  0.00    -0.340 N 
ATOM     19  H7  UNL     1       8.780  25.594   6.547  1.00  0.00     0.167 HD
BRANCH  18  20
HETATM   20  C25 UNL     1       7.748  26.484   8.107  1.00  0.00     0.070 C 
BRANCH  20  21
HETATM   21  C26 UNL     1       8.730  26.636   9.234  1.00  0.00     0.051 C 
HETATM   22  C27 UNL     1       9.912  25.921   9.523  1.00  0.00     0.039 C 
HETATM   23  C28 UNL     1      11.067  26.957   9.483  1.00  0.00     0.233 C 
HETATM   24  N8  UNL     1      10.408  28.195   9.865  1.00  0.00    -0.074 N 
HETATM   25  C29 UNL     1       9.104  28.154   9.287  1.00  0.00     0.242 C 
ATOM     26  H82 UNL     1      10.398  28.354  10.873  1.00  0.00     0.277 HD
ATOM     27  H81 UNL     1      10.937  29.030   9.611  1.00  0.00     0.277 HD
ENDBRANCH  20  21
ENDBRANCH  18  20
ENDBRANCH  15  16
ENDBRANCH  14  15
ENDBRANCH   4   5
ENDBRANCH   1   4
BRANCH   1  28
HETATM   28  O2  UNL     1      12.998  25.358   5.418  1.00  0.00    -0.327 OA
ATOM     29  H2  UNL     1      12.117  25.635   5.642  1.00  0.00     0.221 HD
ENDBRANCH   1  28
BRANCH   2  30
HETATM   30  C8  UNL     1      13.623  24.099   7.533  1.00  0.00     0.133 C 
BRANCH  30  31
HETATM   31  C9  UNL     1      14.963  23.566   7.963  1.00  0.00     0.122 C 
BRANCH  31  32
HETATM   32  C10 UNL     1      15.120  22.216   7.288  1.00  0.00     0.219 C 
HETATM   33  O3  UNL     1      14.433  21.296   7.840  1.00  0.00    -0.274 OA
HETATM   34  N2  UNL     1      15.942  21.935   6.185  1.00  0.00    -0.350 N 
ATOM     35  H2  UNL     1      16.474  22.647   5.686  1.00  0.00     0.163 HD
BRANCH  34  36
HETATM   36  C11 UNL     1      15.957  20.464   5.811  1.00  0.00     0.144 C 
BRANCH  36  37
HETATM   37  C12 UNL     1      15.838  20.312   4.333  1.00  0.00     0.038 C 
BRANCH  37  38
HETATM   38  C13 UNL     1      14.845  19.353   3.810  1.00  0.00     0.062 C 
BRANCH  38  39
HETATM   39  C14 UNL     1      15.278  17.895   4.061  1.00  0.00     0.158 C 
BRANCH  39  40
HETATM   40  N3  UNL     1      16.550  17.575   3.821  1.00  0.00    -0.393 NA
HETATM   41  C15 UNL     1      17.693  17.414   3.498  1.00  0.00     0.274 C 
HETATM   42  N4  UNL     1      18.603  16.411   3.978  1.00  0.00    -0.052 NA
HETATM   43  N5  UNL     1      18.335  18.316   2.488  1.00  0.00    -0.052 NA
ENDBRANCH  39  40
ENDBRANCH  38  39
ENDBRANCH  37  38
ENDBRANCH  36  37
BRANCH  36  44
HETATM   44  C16 UNL     1      17.372  20.084   6.213  1.00  0.00     0.099 C 
BRANCH  44  45
HETATM   45  O4  UNL     1      18.288  20.003   5.289  1.00  0.00    -0.360 OA
ATOM     46  H4  UNL     1      19.164  19.734   5.536  1.00  0.00     0.217 HD
ENDBRANCH  44  45
BRANCH  44  47
HETATM   47  C17 UNL     1      17.745  19.816   7.579  1.00  0.00     0.101 A 
HETATM   48  N6  UNL     1      17.827  18.636   8.166  1.00  0.00    -0.361 N 
HETATM   49  C18 UNL     1      18.196  18.440   9.350  1.00  0.00     0.072 A 
ATOM     50  H6  UNL     1      17.569  17.818   7.614  1.00  0.00     0.165 HD
HETATM   51  C19 UNL     1      18.550  19.623  10.080  1.00  0.00     0.125 A 
HETATM   52  S1  UNL     1      18.269  20.817   8.880  1.00  0.00    -0.105 SA
ENDBRANCH  44  47
ENDBRANCH  36  44
ENDBRANCH  34  36
ENDBRANCH  31  32
ENDBRANCH  30  31
ENDBRANCH   2  30
TORSDOF 18
ENDMDL
MODEL 3
REMARK VINA RESULT: -9.243226935      2.165      5.561
REMARK  18 active torsions:
REMARK  status: ('A' for Active; 'I' for Inactive)
REMARK    1  A    between atoms: C6_6  and  O1_7 
REMARK    2  A    between atoms: O1_7  and  C7_8 
REMARK    3  A    between atoms: C7_8  and  O2_9 
REMARK    4  A    between atoms: N1_11  and  C8_13 
REMARK    5  A    between atoms: C8_13  and  C9_14 
REMARK    6  A    between atoms: C9_14  and  C10_15 
REMARK       I    between atoms: C10_15  and  N2_17 
REMARK    7  A    between atoms: N2_17  and  C11_19 
REMARK    8  A    between atoms: C11_19  and  C12_20 
REMARK    9  A    between atoms: C11_19  and  C16_27 
REMARK   10  A    between atoms: C12_20  and  C13_21 
REMARK   11  A    between atoms: C13_21  and  C14_22 
REMARK   12  A    between atoms: C14_22  and  N3_23 
REMARK       I    between atoms: N3_23  and  C15_24 
REMARK   13  A    between atoms: C16_27  and  O4_28 
REMARK   14  A    between atoms: C16_27  and  C17_30 
REMARK   15  A    between atoms: C22_38  and  C23_39 
REMARK   16  A    between atoms: C23_39  and  C24_40 
REMARK       I    between atoms: C24_40  and  N7_42 
REMARK   17  A    between atoms: N7_42  and  C25_44 
REMARK   18  A    between atoms: C25_44  and  C26_45 
ROOT
HETATM    1  C7  UNL     1      13.546  21.798   5.463  1.00  0.00     0.258 C 
HETATM    2  N1  UNL     1      12.880  22.981   5.603  1.00  0.00    -0.350 N 
ATOM      3  H1  UNL     1      12.992  23.573   4.779  1.00  0.00     0.163 HD
ENDROOT
BRANCH   1   4
HETATM    4  O1  UNL     1      14.171  20.670   5.346  1.00  0.00    -0.311 OA
BRANCH   4   5
HETATM    5  C6  UNL     1      14.688  19.841   4.367  1.00  0.00     0.133 C 
HETATM    6  C5  UNL     1      14.661  18.387   4.541  1.00  0.00     0.038 C 
HETATM    7  C4  UNL     1      15.461  17.612   3.519  1.00  0.00    -0.004 C 
HETATM    8  C2  UNL     1      16.164  18.477   2.535  1.00  0.00    -0.040 C 
HETATM    9  C30 UNL     1      16.683  17.048   4.274  1.00  0.00     0.011 C 
HETATM   10  C1  UNL     1      17.219  17.692   1.717  1.00  0.00     0.015 C 
HETATM   11  C3  UNL     1      15.381  19.265   1.558  1.00  0.00     0.015 C 
HETATM   12  C21 UNL     1      16.988  19.295   3.549  1.00  0.00     0.001 C 
HETATM   13  C20 UNL     1      16.167  20.279   4.244  1.00  0.00     0.038 C 
HETATM   14  C22 UNL     1      17.702  18.239   4.315  1.00  0.00    -0.001 C 
BRANCH  14  15
HETATM   15  C23 UNL     1      18.073  18.396   5.721  1.00  0.00     0.108 C 
BRANCH  15  16
HETATM   16  C24 UNL     1      18.599  19.634   6.226  1.00  0.00     0.221 C 
HETATM   17  O5  UNL     1      19.401  20.433   5.673  1.00  0.00    -0.273 OA
HETATM   18  N7  UNL     1      18.192  20.117   7.549  1.00  0.00    -0.340 N 
ATOM     19  H7  UNL     1      17.600  19.496   8.101  1.00  0.00     0.167 HD
BRANCH  18  20
HETATM   20  C25 UNL     1      18.532  21.345   8.133  1.00  0.00     0.070 C 
BRANCH  20  21
HETATM   21  C26 UNL     1      17.442  22.170   8.759  1.00  0.00     0.051 C 
HETATM   22  C27 UNL     1      16.994  23.474   8.461  1.00  0.00     0.039 C 
HETATM   23  C28 UNL     1      15.506  23.337   8.042  1.00  0.00     0.233 C 
HETATM   24  N8  UNL     1      15.066  22.164   8.778  1.00  0.00    -0.074 N 
HETATM   25  C29 UNL     1      16.171  21.259   8.794  1.00  0.00     0.242 C 
ATOM     26  H82 UNL     1      14.708  22.380   9.709  1.00  0.00     0.277 HD
ATOM     27  H81 UNL     1      14.210  21.750   8.407  1.00  0.00     0.277 HD
ENDBRANCH  20  21
ENDBRANCH  18  20
ENDBRANCH  15  16
ENDBRANCH  14  15
ENDBRANCH   4   5
ENDBRANCH   1   4
BRANCH   1  28
HETATM   28  O2  UNL     1      13.016  21.270   6.926  1.00  0.00    -0.327 OA
ATOM     29  H2  UNL     1      13.887  20.914   7.065  1.00  0.00     0.221 HD
ENDBRANCH   1  28
BRANCH   2  30
HETATM   30  C8  UNL     1      12.076  23.604   6.586  1.00  0.00     0.133 C 
BRANCH  30  31
HETATM   31  C9  UNL     1      10.579  23.631   6.440  1.00  0.00     0.122 C 
BRANCH  31  32
HETATM   32  C10 UNL     1      10.228  25.009   5.909  1.00  0.00     0.219 C 
HETATM   33  O3  UNL     1      11.236  25.781   5.811  1.00  0.00    -0.274 OA
HETATM   34  N2  UNL     1       8.943  25.460   5.569  1.00  0.00    -0.350 N 
ATOM     35  H2  UNL     1       8.115  24.864   5.590  1.00  0.00     0.163 HD
BRANCH  34  36
HETATM   36  C11 UNL     1       8.909  26.923   5.166  1.00  0.00     0.144 C 
BRANCH  36  37
HETATM   37  C12 UNL     1       8.126  27.089   3.908  1.00  0.00     0.038 C 
BRANCH  37  38
HETATM   38  C13 UNL     1       7.680  25.873   3.201  1.00  0.00     0.062 C 
BRANCH  38  39
HETATM   39  C14 UNL     1       8.685  25.450   2.111  1.00  0.00     0.158 C 
BRANCH  39  40
HETATM   40  N3  UNL     1       9.590  24.523   2.427  1.00  0.00    -0.393 NA
HETATM   41  C15 UNL     1      10.274  23.589   2.734  1.00  0.00     0.274 C 
HETATM   42  N4  UNL     1      11.709  23.547   2.817  1.00  0.00    -0.052 NA
HETATM   43  N5  UNL     1       9.654  22.270   3.083  1.00  0.00    -0.052 NA
ENDBRANCH  39  40
ENDBRANCH  38  39
ENDBRANCH  37  38
ENDBRANCH  36  37
BRANCH  36  44
HETATM   44  C16 UNL     1       8.101  27.513   6.308  1.00  0.00     0.099 C 
BRANCH  44  45
HETATM   45  O4  UNL     1       6.882  27.912   6.075  1.00  0.00    -0.360 OA
ATOM     46  H4  UNL     1       6.177  27.565   6.609  1.00  0.00     0.217 HD
ENDBRANCH  44  45
BRANCH  44  47
HETATM   47  C17 UNL     1       8.625  27.643   7.644  1.00  0.00     0.101 A 
HETATM   48  N6  UNL     1       9.883  27.511   8.024  1.00  0.00    -0.361 N 
HETATM   49  C18 UNL     1      10.308  27.673   9.194  1.00  0.00     0.072 A 
ATOM     50  H6  UNL     1      10.565  27.258   7.308  1.00  0.00     0.165 HD
HETATM   51  C19 UNL     1       9.309  28.032  10.159  1.00  0.00     0.125 A 
HETATM   52  S1  UNL     1       7.915  28.063   9.157  1.00  0.00    -0.105 SA
ENDBRANCH  44  47
ENDBRANCH  36  44
ENDBRANCH  34  36
ENDBRANCH  31  32
ENDBRANCH  30  31
ENDBRANCH   2  30
TORSDOF 18
ENDMDL
MODEL 4
REMARK VINA RESULT: -9.183910575      2.254      4.781
REMARK  18 active torsions:
REMARK  status: ('A' for Active; 'I' for Inactive)
REMARK    1  A    between atoms: C6_6  and  O1_7 
REMARK    2  A    between atoms: O1_7  and  C7_8 
REMARK    3  A    between atoms: C7_8  and  O2_9 
REMARK    4  A    between atoms: N1_11  and  C8_13 
REMARK    5  A    between atoms: C8_13  and  C9_14 
REMARK    6  A    between atoms: C9_14  and  C10_15 
REMARK       I    between atoms: C10_15  and  N2_17 
REMARK    7  A    between atoms: N2_17  and  C11_19 
REMARK    8  A    between atoms: C11_19  and  C12_20 
REMARK    9  A    between atoms: C11_19  and  C16_27 
REMARK   10  A    between atoms: C12_20  and  C13_21 
REMARK   11  A    between atoms: C13_21  and  C14_22 
REMARK   12  A    between atoms: C14_22  and  N3_23 
REMARK       I    between atoms: N3_23  and  C15_24 
REMARK   13  A    between atoms: C16_27  and  O4_28 
REMARK   14  A    between atoms: C16_27  and  C17_30 
REMARK   15  A    between atoms: C22_38  and  C23_39 
REMARK   16  A    between atoms: C23_39  and  C24_40 
REMARK       I    between atoms: C24_40  and  N7_42 
REMARK   17  A    between atoms: N7_42  and  C25_44 
REMARK   18  A    between atoms: C25_44  and  C26_45 
ROOT
HETATM    1  C7  UNL     1      13.594  21.757   5.284  1.00  0.00     0.258 C 
HETATM    2  N1  UNL     1      12.929  22.946   5.360  1.00  0.00    -0.350 N 
ATOM      3  H1  UNL     1      13.185  23.568   4.592  1.00  0.00     0.163 HD
ENDROOT
BRANCH   1   4
HETATM    4  O1  UNL     1      14.216  20.623   5.227  1.00  0.00    -0.311 OA
BRANCH   4   5
HETATM    5  C6  UNL     1      14.778  19.768   4.296  1.00  0.00     0.133 C 
HETATM    6  C5  UNL     1      14.731  18.318   4.502  1.00  0.00     0.038 C 
HETATM    7  C4  UNL     1      15.578  17.514   3.542  1.00  0.00    -0.004 C 
HETATM    8  C2  UNL     1      16.337  18.351   2.577  1.00  0.00    -0.040 C 
HETATM    9  C30 UNL     1      16.755  16.961   4.374  1.00  0.00     0.011 C 
HETATM   10  C1  UNL     1      17.428  17.540   1.833  1.00  0.00     0.015 C 
HETATM   11  C3  UNL     1      15.612  19.120   1.542  1.00  0.00     0.015 C 
HETATM   12  C21 UNL     1      17.113  19.188   3.613  1.00  0.00     0.001 C 
HETATM   13  C20 UNL     1      16.263  20.194   4.240  1.00  0.00     0.038 C 
HETATM   14  C22 UNL     1      17.778  18.147   4.440  1.00  0.00    -0.001 C 
BRANCH  14  15
HETATM   15  C23 UNL     1      18.076  18.336   5.860  1.00  0.00     0.108 C 
BRANCH  15  16
HETATM   16  C24 UNL     1      18.564  19.589   6.366  1.00  0.00     0.221 C 
HETATM   17  O5  UNL     1      19.447  20.345   5.879  1.00  0.00    -0.273 OA
HETATM   18  N7  UNL     1      18.006  20.147   7.601  1.00  0.00    -0.340 N 
ATOM     19  H7  UNL     1      17.335  19.564   8.104  1.00  0.00     0.167 HD
BRANCH  18  20
HETATM   20  C25 UNL     1      18.297  21.397   8.163  1.00  0.00     0.070 C 
BRANCH  20  21
HETATM   21  C26 UNL     1      17.175  22.194   8.766  1.00  0.00     0.051 C 
HETATM   22  C27 UNL     1      16.704  23.489   8.463  1.00  0.00     0.039 C 
HETATM   23  C28 UNL     1      15.229  23.319   8.010  1.00  0.00     0.233 C 
HETATM   24  N8  UNL     1      14.800  22.133   8.733  1.00  0.00    -0.074 N 
HETATM   25  C29 UNL     1      15.925  21.254   8.770  1.00  0.00     0.242 C 
ATOM     26  H82 UNL     1      14.416  22.338   9.656  1.00  0.00     0.277 HD
ATOM     27  H81 UNL     1      13.963  21.701   8.341  1.00  0.00     0.277 HD
ENDBRANCH  20  21
ENDBRANCH  18  20
ENDBRANCH  15  16
ENDBRANCH  14  15
ENDBRANCH   4   5
ENDBRANCH   1   4
BRANCH   1  28
HETATM   28  O2  UNL     1      12.819  21.183   6.615  1.00  0.00    -0.327 OA
ATOM     29  H2  UNL     1      12.736  22.085   6.903  1.00  0.00     0.221 HD
ENDBRANCH   1  28
BRANCH   2  30
HETATM   30  C8  UNL     1      11.979  23.546   6.220  1.00  0.00     0.133 C 
BRANCH  30  31
HETATM   31  C9  UNL     1      11.952  25.039   6.401  1.00  0.00     0.122 C 
BRANCH  31  32
HETATM   32  C10 UNL     1      10.495  25.454   6.302  1.00  0.00     0.219 C 
HETATM   33  O3  UNL     1       9.686  24.482   6.447  1.00  0.00    -0.274 OA
HETATM   34  N2  UNL     1      10.022  26.752   6.050  1.00  0.00    -0.350 N 
ATOM     35  H2  UNL     1      10.631  27.566   5.970  1.00  0.00     0.163 HD
BRANCH  34  36
HETATM   36  C11 UNL     1       8.512  26.820   5.908  1.00  0.00     0.144 C 
BRANCH  36  37
HETATM   37  C12 UNL     1       7.996  28.069   6.537  1.00  0.00     0.038 C 
BRANCH  37  38
HETATM   38  C13 UNL     1       7.203  27.949   7.776  1.00  0.00     0.062 C 
BRANCH  38  39
HETATM   39  C14 UNL     1       8.035  28.315   9.020  1.00  0.00     0.158 C 
BRANCH  39  40
HETATM   40  N3  UNL     1       9.132  27.597   9.267  1.00  0.00    -0.393 NA
HETATM   41  C15 UNL     1      10.013  26.828   9.526  1.00  0.00     0.274 C 
HETATM   42  N4  UNL     1      11.429  27.074   9.477  1.00  0.00    -0.052 NA
HETATM   43  N5  UNL     1       9.702  25.426   9.953  1.00  0.00    -0.052 NA
ENDBRANCH  39  40
ENDBRANCH  38  39
ENDBRANCH  37  38
ENDBRANCH  36  37
BRANCH  36  44
HETATM   44  C16 UNL     1       8.375  26.957   4.402  1.00  0.00     0.099 C 
BRANCH  44  45
HETATM   45  O4  UNL     1       8.665  28.099   3.845  1.00  0.00    -0.360 OA
ATOM     46  H4  UNL     1       8.033  28.496   3.258  1.00  0.00     0.217 HD
ENDBRANCH  44  45
BRANCH  44  47
HETATM   47  C17 UNL     1       7.942  25.870   3.560  1.00  0.00     0.101 A 
HETATM   48  N6  UNL     1       7.635  24.643   3.937  1.00  0.00    -0.361 N 
HETATM   49  C18 UNL     1       7.222  23.733   3.177  1.00  0.00     0.072 A 
ATOM     50  H6  UNL     1       7.742  24.415   4.926  1.00  0.00     0.165 HD
HETATM   51  C19 UNL     1       7.085  24.107   1.799  1.00  0.00     0.125 A 
HETATM   52  S1  UNL     1       7.598  25.743   1.876  1.00  0.00    -0.105 SA
ENDBRANCH  44  47
ENDBRANCH  36  44
ENDBRANCH  34  36
ENDBRANCH  31  32
ENDBRANCH  30  31
ENDBRANCH   2  30
TORSDOF 18
ENDMDL
MODEL 5
REMARK VINA RESULT: -9.179458021      2.411      5.151
REMARK  18 active torsions:
REMARK  status: ('A' for Active; 'I' for Inactive)
REMARK    1  A    between atoms: C6_6  and  O1_7 
REMARK    2  A    between atoms: O1_7  and  C7_8 
REMARK    3  A    between atoms: C7_8  and  O2_9 
REMARK    4  A    between atoms: N1_11  and  C8_13 
REMARK    5  A    between atoms: C8_13  and  C9_14 
REMARK    6  A    between atoms: C9_14  and  C10_15 
REMARK       I    between atoms: C10_15  and  N2_17 
REMARK    7  A    between atoms: N2_17  and  C11_19 
REMARK    8  A    between atoms: C11_19  and  C12_20 
REMARK    9  A    between atoms: C11_19  and  C16_27 
REMARK   10  A    between atoms: C12_20  and  C13_21 
REMARK   11  A    between atoms: C13_21  and  C14_22 
REMARK   12  A    between atoms: C14_22  and  N3_23 
REMARK       I    between atoms: N3_23  and  C15_24 
REMARK   13  A    between atoms: C16_27  and  O4_28 
REMARK   14  A    between atoms: C16_27  and  C17_30 
REMARK   15  A    between atoms: C22_38  and  C23_39 
REMARK   16  A    between atoms: C23_39  and  C24_40 
REMARK       I    between atoms: C24_40  and  N7_42 
REMARK   17  A    between atoms: N7_42  and  C25_44 
REMARK   18  A    between atoms: C25_44  and  C26_45 
ROOT
HETATM    1  C7  UNL     1      13.517  21.680   5.292  1.00  0.00     0.258 C 
HETATM    2  N1  UNL     1      12.750  22.805   5.375  1.00  0.00    -0.350 N 
ATOM      3  H1  UNL     1      13.006  23.486   4.660  1.00  0.00     0.163 HD
ENDROOT
BRANCH   1   4
HETATM    4  O1  UNL     1      14.235  20.605   5.228  1.00  0.00    -0.311 OA
BRANCH   4   5
HETATM    5  C6  UNL     1      14.784  19.751   4.286  1.00  0.00     0.133 C 
HETATM    6  C5  UNL     1      14.732  18.300   4.486  1.00  0.00     0.038 C 
HETATM    7  C4  UNL     1      15.566  17.498   3.514  1.00  0.00    -0.004 C 
HETATM    8  C2  UNL     1      16.319  18.336   2.544  1.00  0.00    -0.040 C 
HETATM    9  C30 UNL     1      16.748  16.935   4.330  1.00  0.00     0.011 C 
HETATM   10  C1  UNL     1      17.398  17.524   1.786  1.00  0.00     0.015 C 
HETATM   11  C3  UNL     1      15.587  19.114   1.521  1.00  0.00     0.015 C 
HETATM   12  C21 UNL     1      17.109  19.164   3.577  1.00  0.00     0.001 C 
HETATM   13  C20 UNL     1      16.271  20.171   4.218  1.00  0.00     0.038 C 
HETATM   14  C22 UNL     1      17.778  18.116   4.392  1.00  0.00    -0.001 C 
BRANCH  14  15
HETATM   15  C23 UNL     1      18.091  18.296   5.810  1.00  0.00     0.108 C 
BRANCH  15  16
HETATM   16  C24 UNL     1      18.543  19.558   6.325  1.00  0.00     0.221 C 
HETATM   17  O5  UNL     1      19.387  20.354   5.833  1.00  0.00    -0.273 OA
HETATM   18  N7  UNL     1      17.990  20.077   7.580  1.00  0.00    -0.340 N 
ATOM     19  H7  UNL     1      17.353  19.462   8.088  1.00  0.00     0.167 HD
BRANCH  18  20
HETATM   20  C25 UNL     1      18.248  21.329   8.156  1.00  0.00     0.070 C 
BRANCH  20  21
HETATM   21  C26 UNL     1      17.100  22.099   8.745  1.00  0.00     0.051 C 
HETATM   22  C27 UNL     1      16.621  23.394   8.455  1.00  0.00     0.039 C 
HETATM   23  C28 UNL     1      15.161  23.216   7.960  1.00  0.00     0.233 C 
HETATM   24  N8  UNL     1      14.728  22.010   8.646  1.00  0.00    -0.074 N 
HETATM   25  C29 UNL     1      15.862  21.144   8.696  1.00  0.00     0.242 C 
ATOM     26  H82 UNL     1      14.317  22.191   9.563  1.00  0.00     0.277 HD
ATOM     27  H81 UNL     1      13.907  21.576   8.223  1.00  0.00     0.277 HD
ENDBRANCH  20  21
ENDBRANCH  18  20
ENDBRANCH  15  16
ENDBRANCH  14  15
ENDBRANCH   4   5
ENDBRANCH   1   4
BRANCH   1  28
HETATM   28  O2  UNL     1      12.701  20.973   6.531  1.00  0.00    -0.327 OA
ATOM     29  H2  UNL     1      12.794  20.149   6.065  1.00  0.00     0.221 HD
ENDBRANCH   1  28
BRANCH   2  30
HETATM   30  C8  UNL     1      11.693  23.279   6.189  1.00  0.00     0.133 C 
BRANCH  30  31
HETATM   31  C9  UNL     1      11.797  24.616   6.869  1.00  0.00     0.122 C 
BRANCH  31  32
HETATM   32  C10 UNL     1      10.432  25.267   6.739  1.00  0.00     0.219 C 
HETATM   33  O3  UNL     1       9.553  24.744   7.498  1.00  0.00    -0.274 OA
HETATM   34  N2  UNL     1      10.099  26.320   5.873  1.00  0.00    -0.350 N 
ATOM     35  H2  UNL     1      10.780  26.797   5.281  1.00  0.00     0.163 HD
BRANCH  34  36
HETATM   36  C11 UNL     1       8.625  26.678   5.906  1.00  0.00     0.144 C 
BRANCH  36  37
HETATM   37  C12 UNL     1       8.424  27.946   6.664  1.00  0.00     0.038 C 
BRANCH  37  38
HETATM   38  C13 UNL     1       7.276  28.030   7.587  1.00  0.00     0.062 C 
BRANCH  38  39
HETATM   39  C14 UNL     1       6.008  28.536   6.871  1.00  0.00     0.158 C 
BRANCH  39  40
HETATM   40  N3  UNL     1       5.191  27.627   6.337  1.00  0.00    -0.393 NA
HETATM   41  C15 UNL     1       4.501  26.875   5.711  1.00  0.00     0.274 C 
HETATM   42  N4  UNL     1       3.657  25.831   6.225  1.00  0.00    -0.052 NA
HETATM   43  N5  UNL     1       4.448  26.952   4.215  1.00  0.00    -0.052 NA
ENDBRANCH  39  40
ENDBRANCH  38  39
ENDBRANCH  37  38
ENDBRANCH  36  37
BRANCH  36  44
HETATM   44  C16 UNL     1       8.368  26.960   4.436  1.00  0.00     0.099 C 
BRANCH  44  45
HETATM   45  O4  UNL     1       8.700  28.123   3.952  1.00  0.00    -0.360 OA
ATOM     46  H4  UNL     1       8.279  28.901   4.300  1.00  0.00     0.217 HD
ENDBRANCH  44  45
BRANCH  44  47
HETATM   47  C17 UNL     1       7.779  25.987   3.550  1.00  0.00     0.101 A 
HETATM   48  N6  UNL     1       7.008  24.969   3.884  1.00  0.00    -0.361 N 
HETATM   49  C18 UNL     1       6.478  24.165   3.078  1.00  0.00     0.072 A 
ATOM     50  H6  UNL     1       6.827  24.823   4.877  1.00  0.00     0.165 HD
HETATM   51  C19 UNL     1       6.761  24.418   1.694  1.00  0.00     0.125 A 
HETATM   52  S1  UNL     1       7.766  25.803   1.837  1.00  0.00    -0.105 SA
ENDBRANCH  44  47
ENDBRANCH  36  44
ENDBRANCH  34  36
ENDBRANCH  31  32
ENDBRANCH  30  31
ENDBRANCH   2  30
TORSDOF 18
ENDMDL
