MODEL 1
REMARK VINA RESULT: -3.916617522      0.000      0.000
REMARK  4 active torsions:
REMARK  status: ('A' for Active; 'I' for Inactive)
REMARK    1  A    between atoms: C3_3  and  N1_4 
REMARK    2  A    between atoms: N1_4  and  C4_6 
REMARK    3  A    between atoms: C7_13  and  N4_14 
REMARK    4  A    between atoms: N4_14  and  C8_16 
ROOT
HETATM    1  C1  UNL     1      28.856  32.367  25.934  1.00  0.00     0.014 C 
HETATM    2  C2  UNL     1      27.954  31.566  25.892  1.00  0.00    -0.098 C 
HETATM    3  C3  UNL     1      26.862  30.569  25.830  1.00  0.00     0.215 C 
ENDROOT
BRANCH   3   4
HETATM    4  N1  UNL     1      26.079  30.702  24.661  1.00  0.00    -0.363 N 
ATOM      5  H1  UNL     1      26.014  29.850  24.105  1.00  0.00     0.162 HD
BRANCH   4   6
HETATM    6  C4  UNL     1      25.448  31.678  24.182  1.00  0.00     0.146 A 
HETATM    7  N2  UNL     1      24.451  32.218  24.927  1.00  0.00    -0.348 N 
HETATM    8  C5  UNL     1      23.719  33.259  24.505  1.00  0.00     0.107 A 
ATOM      9  H2  UNL     1      24.251  31.817  25.844  1.00  0.00     0.167 HD
HETATM   10  C6  UNL     1      24.020  33.770  23.267  1.00  0.00     0.107 A 
HETATM   11  N3  UNL     1      25.003  33.251  22.514  1.00  0.00    -0.348 N 
HETATM   12  C7  UNL     1      25.725  32.210  22.950  1.00  0.00     0.151 A 
ATOM     13  H3  UNL     1      25.203  33.653  21.598  1.00  0.00     0.167 HD
BRANCH  12  14
HETATM   14  N4  UNL     1      26.653  31.758  22.177  1.00  0.00    -0.326 N 
ATOM     15  H4  UNL     1      26.384  31.154  21.400  1.00  0.00     0.169 HD
BRANCH  14  16
HETATM   16  C8  UNL     1      28.021  32.055  22.348  1.00  0.00     0.106 A 
HETATM   17  C9  UNL     1      28.515  33.350  22.265  1.00  0.00     0.048 A 
HETATM   18  C10 UNL     1      29.850  33.642  22.432  1.00  0.00     0.005 A 
HETATM   19  C11 UNL     1      30.730  32.608  22.693  1.00  0.00     0.017 A 
HETATM   20  C12 UNL     1      30.231  31.315  22.776  1.00  0.00     0.089 A 
HETATM   21  N5  UNL     1      28.934  31.095  22.606  1.00  0.00    -0.352 N 
ATOM     22  H5  UNL     1      28.603  30.133  22.673  1.00  0.00     0.166 HD
ENDBRANCH  14  16
ENDBRANCH  12  14
ENDBRANCH   4   6
ENDBRANCH   3   4
TORSDOF 4
ENDMDL
MODEL 2
REMARK VINA RESULT: -3.860748260      0.643      1.141
REMARK  4 active torsions:
REMARK  status: ('A' for Active; 'I' for Inactive)
REMARK    1  A    between atoms: C3_3  and  N1_4 
REMARK    2  A    between atoms: N1_4  and  C4_6 
REMARK    3  A    between atoms: C7_13  and  N4_14 
REMARK    4  A    between atoms: N4_14  and  C8_16 
ROOT
HETATM    1  C1  UNL     1      28.798  32.426  25.959  1.00  0.00     0.014 C 
HETATM    2  C2  UNL     1      27.929  31.589  25.912  1.00  0.00    -0.098 C 
HETATM    3  C3  UNL     1      26.879  30.548  25.843  1.00  0.00     0.215 C 
ENDROOT
BRANCH   3   4
HETATM    4  N1  UNL     1      26.071  30.676  24.691  1.00  0.00    -0.363 N 
ATOM      5  H1  UNL     1      25.971  29.814  24.155  1.00  0.00     0.162 HD
BRANCH   4   6
HETATM    6  C4  UNL     1      25.452  31.657  24.205  1.00  0.00     0.146 A 
HETATM    7  N2  UNL     1      24.454  32.207  24.942  1.00  0.00    -0.348 N 
HETATM    8  C5  UNL     1      23.735  33.253  24.513  1.00  0.00     0.107 A 
ATOM      9  H2  UNL     1      24.242  31.809  25.857  1.00  0.00     0.167 HD
HETATM   10  C6  UNL     1      24.051  33.761  23.276  1.00  0.00     0.107 A 
HETATM   11  N3  UNL     1      25.035  33.232  22.533  1.00  0.00    -0.348 N 
HETATM   12  C7  UNL     1      25.744  32.185  22.975  1.00  0.00     0.151 A 
ATOM     13  H3  UNL     1      25.247  33.632  21.618  1.00  0.00     0.167 HD
BRANCH  12  14
HETATM   14  N4  UNL     1      26.675  31.725  22.210  1.00  0.00    -0.326 N 
ATOM     15  H4  UNL     1      26.412  31.091  21.456  1.00  0.00     0.169 HD
BRANCH  14  16
HETATM   16  C8  UNL     1      28.038  32.052  22.361  1.00  0.00     0.106 A 
HETATM   17  C9  UNL     1      29.002  31.098  22.657  1.00  0.00     0.048 A 
HETATM   18  C10 UNL     1      30.334  31.415  22.806  1.00  0.00     0.005 A 
HETATM   19  C11 UNL     1      30.725  32.732  22.653  1.00  0.00     0.017 A 
HETATM   20  C12 UNL     1      29.758  33.684  22.356  1.00  0.00     0.089 A 
HETATM   21  N5  UNL     1      28.489  33.318  22.226  1.00  0.00    -0.352 N 
ATOM     22  H5  UNL     1      27.806  34.043  22.008  1.00  0.00     0.166 HD
ENDBRANCH  14  16
ENDBRANCH  12  14
ENDBRANCH   4   6
ENDBRANCH   3   4
TORSDOF 4
ENDMDL
MODEL 3
REMARK VINA RESULT: -3.802152362      1.948      4.341
REMARK  4 active torsions:
REMARK  status: ('A' for Active; 'I' for Inactive)
REMARK    1  A    between atoms: C3_3  and  N1_4 
REMARK    2  A    between atoms: N1_4  and  C4_6 
REMARK    3  A    between atoms: C7_13  and  N4_14 
REMARK    4  A    between atoms: N4_14  and  C8_16 
ROOT
HETATM    1  C1  UNL     1      25.212  32.186  26.242  1.00  0.00     0.014 C 
HETATM    2  C2  UNL     1      26.031  31.350  25.945  1.00  0.00    -0.098 C 
HETATM    3  C3  UNL     1      27.043  30.326  25.603  1.00  0.00     0.215 C 
ENDROOT
BRANCH   3   4
HETATM    4  N1  UNL     1      28.224  30.894  25.072  1.00  0.00    -0.363 N 
ATOM      5  H1  UNL     1      28.747  30.269  24.460  1.00  0.00     0.162 HD
BRANCH   4   6
HETATM    6  C4  UNL     1      28.747  32.028  25.218  1.00  0.00     0.146 A 
HETATM    7  N2  UNL     1      29.339  32.307  26.407  1.00  0.00    -0.348 N 
HETATM    8  C5  UNL     1      29.923  33.486  26.660  1.00  0.00     0.107 A 
ATOM      9  H2  UNL     1      29.340  31.593  27.134  1.00  0.00     0.167 HD
HETATM   10  C6  UNL     1      29.902  34.421  25.654  1.00  0.00     0.107 A 
HETATM   11  N3  UNL     1      29.322  34.164  24.471  1.00  0.00    -0.348 N 
HETATM   12  C7  UNL     1      28.741  32.981  24.233  1.00  0.00     0.151 A 
ATOM     13  H3  UNL     1      29.323  34.879  23.744  1.00  0.00     0.167 HD
BRANCH  12  14
HETATM   14  N4  UNL     1      28.201  32.799  23.076  1.00  0.00    -0.326 N 
ATOM     15  H4  UNL     1      28.815  32.674  22.271  1.00  0.00     0.169 HD
BRANCH  14  16
HETATM   16  C8  UNL     1      26.808  32.766  22.865  1.00  0.00     0.106 A 
HETATM   17  C9  UNL     1      26.190  31.744  22.158  1.00  0.00     0.048 A 
HETATM   18  C10 UNL     1      24.829  31.708  21.949  1.00  0.00     0.005 A 
HETATM   19  C11 UNL     1      24.051  32.728  22.465  1.00  0.00     0.017 A 
HETATM   20  C12 UNL     1      24.673  33.748  23.172  1.00  0.00     0.089 A 
HETATM   21  N5  UNL     1      25.990  33.728  23.339  1.00  0.00    -0.352 N 
ATOM     22  H5  UNL     1      26.412  34.494  23.863  1.00  0.00     0.166 HD
ENDBRANCH  14  16
ENDBRANCH  12  14
ENDBRANCH   4   6
ENDBRANCH   3   4
TORSDOF 4
ENDMDL
MODEL 4
REMARK VINA RESULT: -3.716693687      1.626      4.653
REMARK  4 active torsions:
REMARK  status: ('A' for Active; 'I' for Inactive)
REMARK    1  A    between atoms: C3_3  and  N1_4 
REMARK    2  A    between atoms: N1_4  and  C4_6 
REMARK    3  A    between atoms: C7_13  and  N4_14 
REMARK    4  A    between atoms: N4_14  and  C8_16 
ROOT
HETATM    1  C1  UNL     1      25.588  29.694  24.393  1.00  0.00     0.014 C 
HETATM    2  C2  UNL     1      26.075  30.386  25.254  1.00  0.00    -0.098 C 
HETATM    3  C3  UNL     1      26.656  31.251  26.305  1.00  0.00     0.215 C 
ENDROOT
BRANCH   3   4
HETATM    4  N1  UNL     1      27.761  31.997  25.836  1.00  0.00    -0.363 N 
ATOM      5  H1  UNL     1      28.016  32.783  26.433  1.00  0.00     0.162 HD
BRANCH   4   6
HETATM    6  C4  UNL     1      28.486  31.870  24.817  1.00  0.00     0.146 A 
HETATM    7  N2  UNL     1      29.375  30.845  24.793  1.00  0.00    -0.348 N 
HETATM    8  C5  UNL     1      30.192  30.625  23.754  1.00  0.00     0.107 A 
ATOM      9  H2  UNL     1      29.422  30.217  25.596  1.00  0.00     0.167 HD
HETATM   10  C6  UNL     1      30.097  31.491  22.693  1.00  0.00     0.107 A 
HETATM   11  N3  UNL     1      29.225  32.511  22.696  1.00  0.00    -0.348 N 
HETATM   12  C7  UNL     1      28.414  32.718  23.742  1.00  0.00     0.151 A 
ATOM     13  H3  UNL     1      29.177  33.136  21.892  1.00  0.00     0.167 HD
BRANCH  12  14
HETATM   14  N4  UNL     1      27.600  33.716  23.682  1.00  0.00    -0.326 N 
ATOM     15  H4  UNL     1      27.981  34.657  23.785  1.00  0.00     0.169 HD
BRANCH  14  16
HETATM   16  C8  UNL     1      26.212  33.576  23.482  1.00  0.00     0.106 A 
HETATM   17  C9  UNL     1      25.683  32.758  22.493  1.00  0.00     0.048 A 
HETATM   18  C10 UNL     1      24.328  32.620  22.295  1.00  0.00     0.005 A 
HETATM   19  C11 UNL     1      23.462  33.321  23.113  1.00  0.00     0.017 A 
HETATM   20  C12 UNL     1      23.994  34.138  24.101  1.00  0.00     0.089 A 
HETATM   21  N5  UNL     1      25.310  34.232  24.243  1.00  0.00    -0.352 N 
ATOM     22  H5  UNL     1      25.665  34.841  24.979  1.00  0.00     0.166 HD
ENDBRANCH  14  16
ENDBRANCH  12  14
ENDBRANCH   4   6
ENDBRANCH   3   4
TORSDOF 4
ENDMDL
MODEL 5
REMARK VINA RESULT: -3.712141806      1.557      4.586
REMARK  4 active torsions:
REMARK  status: ('A' for Active; 'I' for Inactive)
REMARK    1  A    between atoms: C3_3  and  N1_4 
REMARK    2  A    between atoms: N1_4  and  C4_6 
REMARK    3  A    between atoms: C7_13  and  N4_14 
REMARK    4  A    between atoms: N4_14  and  C8_16 
ROOT
HETATM    1  C1  UNL     1      25.567  29.761  24.343  1.00  0.00     0.014 C 
HETATM    2  C2  UNL     1      26.075  30.400  25.232  1.00  0.00    -0.098 C 
HETATM    3  C3  UNL     1      26.684  31.201  26.318  1.00  0.00     0.215 C 
ENDROOT
BRANCH   3   4
HETATM    4  N1  UNL     1      27.819  31.921  25.882  1.00  0.00    -0.363 N 
ATOM      5  H1  UNL     1      28.117  32.656  26.523  1.00  0.00     0.162 HD
BRANCH   4   6
HETATM    6  C4  UNL     1      28.529  31.822  24.849  1.00  0.00     0.146 A 
HETATM    7  N2  UNL     1      29.421  30.801  24.786  1.00  0.00    -0.348 N 
HETATM    8  C5  UNL     1      30.223  30.610  23.730  1.00  0.00     0.107 A 
ATOM      9  H2  UNL     1      29.483  30.155  25.572  1.00  0.00     0.167 HD
HETATM   10  C6  UNL     1      30.108  31.502  22.691  1.00  0.00     0.107 A 
HETATM   11  N3  UNL     1      29.232  32.518  22.734  1.00  0.00    -0.348 N 
HETATM   12  C7  UNL     1      28.437  32.696  23.797  1.00  0.00     0.151 A 
ATOM     13  H3  UNL     1      29.169  33.163  21.946  1.00  0.00     0.167 HD
BRANCH  12  14
HETATM   14  N4  UNL     1      27.618  33.692  23.774  1.00  0.00    -0.326 N 
ATOM     15  H4  UNL     1      27.993  34.629  23.925  1.00  0.00     0.169 HD
BRANCH  14  16
HETATM   16  C8  UNL     1      26.233  33.555  23.553  1.00  0.00     0.106 A 
HETATM   17  C9  UNL     1      25.287  34.138  24.385  1.00  0.00     0.048 A 
HETATM   18  C10 UNL     1      23.933  34.006  24.171  1.00  0.00     0.005 A 
HETATM   19  C11 UNL     1      23.501  33.266  23.087  1.00  0.00     0.017 A 
HETATM   20  C12 UNL     1      24.450  32.685  22.256  1.00  0.00     0.089 A 
HETATM   21  N5  UNL     1      25.742  32.847  22.514  1.00  0.00    -0.352 N 
ATOM     22  H5  UNL     1      26.410  32.406  21.883  1.00  0.00     0.166 HD
ENDBRANCH  14  16
ENDBRANCH  12  14
ENDBRANCH   4   6
ENDBRANCH   3   4
TORSDOF 4
ENDMDL
