MODEL 1
REMARK VINA RESULT: -5.142421364      0.000      0.000
REMARK  3 active torsions:
REMARK  status: ('A' for Active; 'I' for Inactive)
REMARK    1  A    between atoms: N1_2  and  C2_4 
REMARK    2  A    between atoms: C3_7  and  C4_8 
REMARK    3  A    between atoms: N5_17  and  C9_19 
ROOT
HETATM    1  C9  UNL     1      18.114  32.537  28.231  1.00  0.00     0.245 C 
HETATM    2  C10 UNL     1      18.380  33.933  28.643  1.00  0.00     0.078 C 
HETATM    3  N6  UNL     1      18.598  35.025  28.964  1.00  0.00    -0.196 NA
ENDROOT
BRANCH   1   4
HETATM    4  N5  UNL     1      17.681  31.838  29.422  1.00  0.00    -0.363 N 
HETATM    5  C8  UNL     1      17.884  30.567  29.497  1.00  0.00     0.119 A 
HETATM    6  C7  UNL     1      18.502  29.878  28.463  1.00  0.00     0.081 A 
HETATM    7  N7  UNL     1      17.501  29.852  30.589  1.00  0.00    -0.177 N 
HETATM    8  C3  UNL     1      18.735  28.521  28.508  1.00  0.00     0.081 A 
HETATM    9  N2  UNL     1      18.331  27.874  29.617  1.00  0.00    -0.190 N 
HETATM   10  C2  UNL     1      17.727  28.529  30.635  1.00  0.00     0.679 A 
ATOM     11  H2  UNL     1      18.485  26.869  29.692  1.00  0.00     0.184 HD
ATOM     12  H7  UNL     1      17.044  30.320  31.372  1.00  0.00     0.185 HD
ATOM     13  H5  UNL     1      17.226  32.340  30.184  1.00  0.00     0.162 HD
BRANCH   8  14
HETATM   14  C4  UNL     1      19.384  27.796  27.423  1.00  0.00     0.076 A 
HETATM   15  C5  UNL     1      18.793  26.874  26.587  1.00  0.00     0.052 A 
HETATM   16  C6  UNL     1      19.761  26.434  25.706  1.00  0.00     0.109 A 
HETATM   17  N3  UNL     1      20.903  27.071  26.004  1.00  0.00    -0.311 N 
HETATM   18  N4  UNL     1      20.657  27.866  27.013  1.00  0.00    -0.299 N 
ATOM     19  H3  UNL     1      21.799  26.958  25.530  1.00  0.00     0.186 HD
ATOM     20  H4  UNL     1      21.358  28.471  27.441  1.00  0.00     0.187 HD
ENDBRANCH   8  14
BRANCH  10  21
HETATM   21  N1  UNL     1      17.374  27.833  31.658  1.00  0.00    -0.230 N 
HETATM   22  C1  UNL     1      18.249  27.448  32.719  1.00  0.00     0.165 C 
ATOM     23  H1  UNL     1      16.400  27.535  31.715  1.00  0.00     0.177 HD
ENDBRANCH  10  21
ENDBRANCH   1   4
TORSDOF 3
ENDMDL
MODEL 2
REMARK VINA RESULT: -4.630845473      1.293      5.014
REMARK  3 active torsions:
REMARK  status: ('A' for Active; 'I' for Inactive)
REMARK    1  A    between atoms: N1_2  and  C2_4 
REMARK    2  A    between atoms: C3_7  and  C4_8 
REMARK    3  A    between atoms: N5_17  and  C9_19 
ROOT
HETATM    1  C9  UNL     1      17.541  27.294  26.297  1.00  0.00     0.245 C 
HETATM    2  C10 UNL     1      18.800  26.678  25.820  1.00  0.00     0.078 C 
HETATM    3  N6  UNL     1      19.779  26.191  25.439  1.00  0.00    -0.196 NA
ENDROOT
BRANCH   1   4
HETATM    4  N5  UNL     1      17.391  26.890  27.678  1.00  0.00    -0.363 N 
HETATM    5  C8  UNL     1      17.505  27.787  28.598  1.00  0.00     0.119 A 
HETATM    6  C7  UNL     1      17.766  29.112  28.277  1.00  0.00     0.081 A 
HETATM    7  N7  UNL     1      17.374  27.472  29.915  1.00  0.00    -0.177 N 
HETATM    8  C3  UNL     1      17.894  30.097  29.231  1.00  0.00     0.081 A 
HETATM    9  N2  UNL     1      17.753  29.717  30.515  1.00  0.00    -0.190 N 
HETATM   10  C2  UNL     1      17.499  28.431  30.847  1.00  0.00     0.679 A 
ATOM     11  H2  UNL     1      17.840  30.415  31.253  1.00  0.00     0.184 HD
ATOM     12  H7  UNL     1      17.182  26.510  30.194  1.00  0.00     0.185 HD
ATOM     13  H5  UNL     1      17.200  25.917  27.919  1.00  0.00     0.162 HD
BRANCH   8  14
HETATM   14  C4  UNL     1      18.168  31.488  28.896  1.00  0.00     0.076 A 
HETATM   15  C5  UNL     1      17.387  32.576  29.220  1.00  0.00     0.052 A 
HETATM   16  C6  UNL     1      18.010  33.699  28.713  1.00  0.00     0.109 A 
HETATM   17  N3  UNL     1      19.135  33.299  28.101  1.00  0.00    -0.311 N 
HETATM   18  N4  UNL     1      19.207  31.999  28.222  1.00  0.00    -0.299 N 
ATOM     19  H3  UNL     1      19.811  33.898  27.627  1.00  0.00     0.186 HD
ATOM     20  H4  UNL     1      19.969  31.436  27.845  1.00  0.00     0.187 HD
ENDBRANCH   8  14
BRANCH  10  21
HETATM   21  N1  UNL     1      17.379  28.156  32.098  1.00  0.00    -0.230 N 
HETATM   22  C1  UNL     1      17.826  26.944  32.709  1.00  0.00     0.165 C 
ATOM     23  H1  UNL     1      16.934  28.853  32.696  1.00  0.00     0.177 HD
ENDBRANCH  10  21
ENDBRANCH   1   4
TORSDOF 3
ENDMDL
MODEL 3
REMARK VINA RESULT: -3.278644342     15.676     18.174
REMARK  3 active torsions:
REMARK  status: ('A' for Active; 'I' for Inactive)
REMARK    1  A    between atoms: N1_2  and  C2_4 
REMARK    2  A    between atoms: C3_7  and  C4_8 
REMARK    3  A    between atoms: N5_17  and  C9_19 
ROOT
HETATM    1  C9  UNL     1      30.545  23.725  19.920  1.00  0.00     0.245 C 
HETATM    2  C10 UNL     1      30.977  23.750  21.336  1.00  0.00     0.078 C 
HETATM    3  N6  UNL     1      31.309  23.779  22.445  1.00  0.00    -0.196 NA
ENDROOT
BRANCH   1   4
HETATM    4  N5  UNL     1      31.755  23.780  19.128  1.00  0.00    -0.363 N 
HETATM    5  C8  UNL     1      31.753  24.492  18.052  1.00  0.00     0.119 A 
HETATM    6  C7  UNL     1      30.621  25.192  17.658  1.00  0.00     0.081 A 
HETATM    7  N7  UNL     1      32.858  24.586  17.263  1.00  0.00    -0.177 N 
HETATM    8  C3  UNL     1      30.582  25.962  16.516  1.00  0.00     0.081 A 
HETATM    9  N2  UNL     1      31.709  26.011  15.782  1.00  0.00    -0.190 N 
HETATM   10  C2  UNL     1      32.822  25.336  16.150  1.00  0.00     0.679 A 
ATOM     11  H2  UNL     1      31.724  26.570  14.929  1.00  0.00     0.184 HD
ATOM     12  H7  UNL     1      33.711  24.088  17.517  1.00  0.00     0.185 HD
ATOM     13  H5  UNL     1      32.589  23.267  19.413  1.00  0.00     0.162 HD
BRANCH   8  14
HETATM   14  C4  UNL     1      29.395  26.697  16.102  1.00  0.00     0.076 A 
HETATM   15  C5  UNL     1      29.360  27.782  15.253  1.00  0.00     0.052 A 
HETATM   16  C6  UNL     1      28.040  28.169  15.130  1.00  0.00     0.109 A 
HETATM   17  N3  UNL     1      27.301  27.340  15.883  1.00  0.00    -0.311 N 
HETATM   18  N4  UNL     1      28.117  26.485  16.442  1.00  0.00    -0.299 N 
ATOM     19  H3  UNL     1      26.288  27.371  15.998  1.00  0.00     0.186 HD
ATOM     20  H4  UNL     1      27.814  25.739  17.068  1.00  0.00     0.187 HD
ENDBRANCH   8  14
BRANCH  10  21
HETATM   21  N1  UNL     1      33.855  25.439  15.389  1.00  0.00    -0.230 N 
HETATM   22  C1  UNL     1      34.854  24.430  15.237  1.00  0.00     0.165 C 
ATOM     23  H1  UNL     1      33.967  26.302  14.857  1.00  0.00     0.177 HD
ENDBRANCH  10  21
ENDBRANCH   1   4
TORSDOF 3
ENDMDL
