MODEL 1
REMARK VINA RESULT: -7.574806966      0.000      0.000
REMARK  6 active torsions:
REMARK  status: ('A' for Active; 'I' for Inactive)
REMARK    1  A    between atoms: N1_2  and  C2_4 
REMARK    2  A    between atoms: C3_7  and  N3_8 
REMARK    3  A    between atoms: N3_8  and  O1_10 
REMARK       I    between atoms: N5_16  and  C7_17 
REMARK       I    between atoms: C7_17  and  N6_19 
REMARK    4  A    between atoms: N6_19  and  C8_21 
REMARK    5  A    between atoms: C8_21  and  C9_22 
REMARK    6  A    between atoms: C9_22  and  N7_23 
REMARK       I    between atoms: N7_23  and  C10_25 
ROOT
HETATM    1  N7  UNL     1      14.907  19.808 106.297  1.00  0.00    -0.362 N 
ATOM      2  H7  UNL     1      15.307  19.272 107.067  1.00  0.00     0.162 HD
HETATM    3  C10 UNL     1      14.735  19.157 105.029  1.00  0.00     0.197 C 
HETATM    4  N8  UNL     1      14.040  19.876 104.028  1.00  0.00    -0.063 NA
HETATM    5  N9  UNL     1      15.203  17.961 104.842  1.00  0.00    -0.268 N 
ATOM      6  H9  UNL     1      15.697  17.480 105.593  1.00  0.00     0.180 HD
HETATM    7  C11 UNL     1      15.026  17.345 103.613  1.00  0.00     0.184 C 
HETATM    8  N10 UNL     1      14.889  16.825 102.566  1.00  0.00    -0.172 NA
ENDROOT
BRANCH   1   9
HETATM    9  C9  UNL     1      14.545  21.172 106.535  1.00  0.00     0.142 C 
BRANCH   9  10
HETATM   10  C8  UNL     1      15.725  22.114 106.646  1.00  0.00     0.144 C 
BRANCH  10  11
HETATM   11  N6  UNL     1      16.098  22.272 108.017  1.00  0.00    -0.341 N 
HETATM   12  C7  UNL     1      17.021  23.267 108.424  1.00  0.00     0.329 C 
HETATM   13  N5  UNL     1      17.378  23.408 109.790  1.00  0.00    -0.243 N 
HETATM   14  O2  UNL     1      17.504  24.007 107.532  1.00  0.00    -0.246 OA
HETATM   15  C6  UNL     1      16.895  22.645 110.810  1.00  0.00     0.195 A 
HETATM   16  C12 UNL     1      18.231  24.276 110.358  1.00  0.00     0.163 A 
HETATM   17  N4  UNL     1      17.444  23.044 111.968  1.00  0.00    -0.346 N 
HETATM   18  C5  UNL     1      18.288  24.063 111.743  1.00  0.00     0.125 A 
ATOM     19  H4  UNL     1      17.248  22.635 112.882  1.00  0.00     0.167 HD
HETATM   20  C3  UNL     1      19.091  24.823 112.565  1.00  0.00     0.171 A 
HETATM   21  N2  UNL     1      19.826  25.785 111.983  1.00  0.00    -0.173 N 
HETATM   22  C2  UNL     1      19.768  25.986 110.652  1.00  0.00     0.681 A 
ATOM     23  H2  UNL     1      20.434  26.370 112.556  1.00  0.00     0.186 HD
HETATM   24  N11 UNL     1      18.986  25.252 109.837  1.00  0.00    -0.174 N 
ATOM     25  H11 UNL     1      18.970  25.436 108.833  1.00  0.00     0.186 HD
ATOM     26  H6  UNL     1      15.690  21.654 108.719  1.00  0.00     0.164 HD
BRANCH  20  27
HETATM   27  N3  UNL     1      19.112  24.595 113.829  1.00  0.00    -0.248 N 
ATOM     28  H3  UNL     1      19.677  23.829 114.195  1.00  0.00     0.196 HD
BRANCH  27  29
HETATM   29  O1  UNL     1      18.391  25.363 114.678  1.00  0.00    -0.284 OA
HETATM   30  C4  UNL     1      19.042  26.366 115.427  1.00  0.00     0.237 C 
ENDBRANCH  27  29
ENDBRANCH  20  27
BRANCH  22  31
HETATM   31  N1  UNL     1      20.487  26.923 110.091  1.00  0.00    -0.230 N 
HETATM   32  C1  UNL     1      19.884  28.208 109.822  1.00  0.00     0.165 C 
ATOM     33  H1  UNL     1      21.462  26.748 109.847  1.00  0.00     0.177 HD
ENDBRANCH  22  31
ENDBRANCH  10  11
ENDBRANCH   9  10
ENDBRANCH   1   9
TORSDOF 6
ENDMDL
MODEL 2
REMARK VINA RESULT: -6.597352683      2.407      3.574
REMARK  6 active torsions:
REMARK  status: ('A' for Active; 'I' for Inactive)
REMARK    1  A    between atoms: N1_2  and  C2_4 
REMARK    2  A    between atoms: C3_7  and  N3_8 
REMARK    3  A    between atoms: N3_8  and  O1_10 
REMARK       I    between atoms: N5_16  and  C7_17 
REMARK       I    between atoms: C7_17  and  N6_19 
REMARK    4  A    between atoms: N6_19  and  C8_21 
REMARK    5  A    between atoms: C8_21  and  C9_22 
REMARK    6  A    between atoms: C9_22  and  N7_23 
REMARK       I    between atoms: N7_23  and  C10_25 
ROOT
HETATM    1  N7  UNL     1      15.006  22.049 107.120  1.00  0.00    -0.362 N 
ATOM      2  H7  UNL     1      15.179  22.729 106.380  1.00  0.00     0.162 HD
HETATM    3  C10 UNL     1      14.037  22.370 108.128  1.00  0.00     0.197 C 
HETATM    4  N8  UNL     1      13.710  21.348 109.052  1.00  0.00    -0.063 NA
HETATM    5  N9  UNL     1      13.499  23.549 108.164  1.00  0.00    -0.268 N 
ATOM      6  H9  UNL     1      13.764  24.255 107.477  1.00  0.00     0.180 HD
HETATM    7  C11 UNL     1      12.562  23.843 109.142  1.00  0.00     0.184 C 
HETATM    8  N10 UNL     1      11.776  24.099 109.980  1.00  0.00    -0.172 NA
ENDROOT
BRANCH   1   9
HETATM    9  C9  UNL     1      15.744  20.822 107.101  1.00  0.00     0.142 C 
BRANCH   9  10
HETATM   10  C8  UNL     1      17.245  21.002 107.183  1.00  0.00     0.144 C 
BRANCH  10  11
HETATM   11  N6  UNL     1      17.612  21.463 108.485  1.00  0.00    -0.341 N 
HETATM   12  C7  UNL     1      18.161  22.755 108.686  1.00  0.00     0.329 C 
HETATM   13  N5  UNL     1      18.519  23.194 109.987  1.00  0.00    -0.243 N 
HETATM   14  O2  UNL     1      18.314  23.482 107.674  1.00  0.00    -0.246 OA
HETATM   15  C6  UNL     1      18.380  22.464 111.128  1.00  0.00     0.195 A 
HETATM   16  C12 UNL     1      19.053  24.366 110.369  1.00  0.00     0.163 A 
HETATM   17  N4  UNL     1      18.819  23.179 112.176  1.00  0.00    -0.346 N 
HETATM   18  C5  UNL     1      19.251  24.378 111.756  1.00  0.00     0.125 A 
ATOM     19  H4  UNL     1      18.823  22.859 113.144  1.00  0.00     0.167 HD
HETATM   20  C3  UNL     1      19.789  25.467 112.406  1.00  0.00     0.171 A 
HETATM   21  N2  UNL     1      20.120  26.528 111.652  1.00  0.00    -0.173 N 
HETATM   22  C2  UNL     1      19.927  26.512 110.318  1.00  0.00     0.681 A 
ATOM     23  H2  UNL     1      20.522  27.355 112.094  1.00  0.00     0.186 HD
HETATM   24  N11 UNL     1      19.402  25.454 109.670  1.00  0.00    -0.174 N 
ATOM     25  H11 UNL     1      19.271  25.482 108.659  1.00  0.00     0.186 HD
ATOM     26  H6  UNL     1      17.477  20.849 109.288  1.00  0.00     0.164 HD
BRANCH  20  27
HETATM   27  N3  UNL     1      19.953  25.437 113.680  1.00  0.00    -0.248 N 
ATOM     28  H3  UNL     1      20.896  25.402 114.068  1.00  0.00     0.196 HD
BRANCH  27  29
HETATM   29  O1  UNL     1      18.885  25.450 114.511  1.00  0.00    -0.284 OA
HETATM   30  C4  UNL     1      18.735  26.511 115.429  1.00  0.00     0.237 C 
ENDBRANCH  27  29
ENDBRANCH  20  27
BRANCH  22  31
HETATM   31  N1  UNL     1      20.254  27.546 109.588  1.00  0.00    -0.230 N 
HETATM   32  C1  UNL     1      19.566  28.800 109.797  1.00  0.00     0.165 C 
ATOM     33  H1  UNL     1      20.985  27.470 108.881  1.00  0.00     0.177 HD
ENDBRANCH  22  31
ENDBRANCH  10  11
ENDBRANCH   9  10
ENDBRANCH   1   9
TORSDOF 6
ENDMDL
MODEL 3
REMARK VINA RESULT: -6.507404123      2.016      2.822
REMARK  6 active torsions:
REMARK  status: ('A' for Active; 'I' for Inactive)
REMARK    1  A    between atoms: N1_2  and  C2_4 
REMARK    2  A    between atoms: C3_7  and  N3_8 
REMARK    3  A    between atoms: N3_8  and  O1_10 
REMARK       I    between atoms: N5_16  and  C7_17 
REMARK       I    between atoms: C7_17  and  N6_19 
REMARK    4  A    between atoms: N6_19  and  C8_21 
REMARK    5  A    between atoms: C8_21  and  C9_22 
REMARK    6  A    between atoms: C9_22  and  N7_23 
REMARK       I    between atoms: N7_23  and  C10_25 
ROOT
HETATM    1  N7  UNL     1      14.950  18.926 105.438  1.00  0.00    -0.362 N 
ATOM      2  H7  UNL     1      15.357  18.459 106.249  1.00  0.00     0.162 HD
HETATM    3  C10 UNL     1      14.790  18.173 104.226  1.00  0.00     0.197 C 
HETATM    4  N8  UNL     1      14.087  18.800 103.170  1.00  0.00    -0.063 NA
HETATM    5  N9  UNL     1      15.277  16.974 104.135  1.00  0.00    -0.268 N 
ATOM      6  H9  UNL     1      15.777  16.562 104.922  1.00  0.00     0.180 HD
HETATM    7  C11 UNL     1      15.112  16.259 102.960  1.00  0.00     0.184 C 
HETATM    8  N10 UNL     1      14.985  15.655 101.958  1.00  0.00    -0.172 NA
ENDROOT
BRANCH   1   9
HETATM    9  C9  UNL     1      14.566  20.300 105.566  1.00  0.00     0.142 C 
BRANCH   9  10
HETATM   10  C8  UNL     1      13.645  20.577 106.734  1.00  0.00     0.144 C 
BRANCH  10  11
HETATM   11  N6  UNL     1      14.324  21.363 107.717  1.00  0.00    -0.341 N 
HETATM   12  C7  UNL     1      15.726  21.564 107.666  1.00  0.00     0.329 C 
HETATM   13  N5  UNL     1      16.381  22.348 108.651  1.00  0.00    -0.243 N 
HETATM   14  O2  UNL     1      16.354  21.023 106.723  1.00  0.00    -0.246 OA
HETATM   15  C6  UNL     1      15.767  22.965 109.699  1.00  0.00     0.195 A 
HETATM   16  C12 UNL     1      17.686  22.641 108.772  1.00  0.00     0.163 A 
HETATM   17  N4  UNL     1      16.680  23.617 110.435  1.00  0.00    -0.346 N 
HETATM   18  C5  UNL     1      17.899  23.447 109.899  1.00  0.00     0.125 A 
ATOM     19  H4  UNL     1      16.479  24.159 111.275  1.00  0.00     0.167 HD
HETATM   20  C3  UNL     1      19.155  23.890 110.251  1.00  0.00     0.171 A 
HETATM   21  N2  UNL     1      20.178  23.516 109.466  1.00  0.00    -0.173 N 
HETATM   22  C2  UNL     1      19.969  22.741 108.383  1.00  0.00     0.681 A 
ATOM     23  H2  UNL     1      21.125  23.822 109.692  1.00  0.00     0.186 HD
HETATM   24  N11 UNL     1      18.746  22.302 108.027  1.00  0.00    -0.174 N 
ATOM     25  H11 UNL     1      18.629  21.717 107.199  1.00  0.00     0.186 HD
ATOM     26  H6  UNL     1      13.787  21.789 108.473  1.00  0.00     0.164 HD
BRANCH  20  27
HETATM   27  N3  UNL     1      19.306  24.628 111.291  1.00  0.00    -0.248 N 
ATOM     28  H3  UNL     1      19.825  25.503 111.221  1.00  0.00     0.196 HD
BRANCH  27  29
HETATM   29  O1  UNL     1      18.781  24.253 112.482  1.00  0.00    -0.284 OA
HETATM   30  C4  UNL     1      18.977  25.072 113.614  1.00  0.00     0.237 C 
ENDBRANCH  27  29
ENDBRANCH  20  27
BRANCH  22  31
HETATM   31  N1  UNL     1      20.969  22.378 107.624  1.00  0.00    -0.230 N 
HETATM   32  C1  UNL     1      20.713  22.010 106.250  1.00  0.00     0.165 C 
ATOM     33  H1  UNL     1      21.918  22.354 107.997  1.00  0.00     0.177 HD
ENDBRANCH  22  31
ENDBRANCH  10  11
ENDBRANCH   9  10
ENDBRANCH   1   9
TORSDOF 6
ENDMDL
MODEL 4
REMARK VINA RESULT: -6.414099522      1.527      2.973
REMARK  6 active torsions:
REMARK  status: ('A' for Active; 'I' for Inactive)
REMARK    1  A    between atoms: N1_2  and  C2_4 
REMARK    2  A    between atoms: C3_7  and  N3_8 
REMARK    3  A    between atoms: N3_8  and  O1_10 
REMARK       I    between atoms: N5_16  and  C7_17 
REMARK       I    between atoms: C7_17  and  N6_19 
REMARK    4  A    between atoms: N6_19  and  C8_21 
REMARK    5  A    between atoms: C8_21  and  C9_22 
REMARK    6  A    between atoms: C9_22  and  N7_23 
REMARK       I    between atoms: N7_23  and  C10_25 
ROOT
HETATM    1  N7  UNL     1      15.221  19.654 106.456  1.00  0.00    -0.362 N 
ATOM      2  H7  UNL     1      15.690  19.027 107.110  1.00  0.00     0.162 HD
HETATM    3  C10 UNL     1      14.850  19.142 105.168  1.00  0.00     0.197 C 
HETATM    4  N8  UNL     1      14.069  19.986 104.343  1.00  0.00    -0.063 NA
HETATM    5  N9  UNL     1      15.227  17.954 104.805  1.00  0.00    -0.268 N 
ATOM      6  H9  UNL     1      15.789  17.380 105.433  1.00  0.00     0.180 HD
HETATM    7  C11 UNL     1      14.858  17.473 103.559  1.00  0.00     0.184 C 
HETATM    8  N10 UNL     1      14.558  17.067 102.496  1.00  0.00    -0.172 NA
ENDROOT
BRANCH   1   9
HETATM    9  C9  UNL     1      14.965  21.000 106.870  1.00  0.00     0.142 C 
BRANCH   9  10
HETATM   10  C8  UNL     1      15.321  21.281 108.314  1.00  0.00     0.144 C 
BRANCH  10  11
HETATM   11  N6  UNL     1      16.331  22.290 108.383  1.00  0.00    -0.341 N 
HETATM   12  C7  UNL     1      16.814  22.771 109.625  1.00  0.00     0.329 C 
HETATM   13  N5  UNL     1      17.819  23.773 109.672  1.00  0.00    -0.243 N 
HETATM   14  O2  UNL     1      16.318  22.279 110.668  1.00  0.00    -0.246 OA
HETATM   15  C6  UNL     1      18.403  24.350 108.585  1.00  0.00     0.195 A 
HETATM   16  C12 UNL     1      18.388  24.352 110.741  1.00  0.00     0.163 A 
HETATM   17  N4  UNL     1      19.306  25.257 108.989  1.00  0.00    -0.346 N 
HETATM   18  C5  UNL     1      19.337  25.299 110.330  1.00  0.00     0.125 A 
ATOM     19  H4  UNL     1      19.881  25.828 108.370  1.00  0.00     0.167 HD
HETATM   20  C3  UNL     1      20.068  26.038 111.234  1.00  0.00     0.171 A 
HETATM   21  N2  UNL     1      19.834  25.817 112.537  1.00  0.00    -0.173 N 
HETATM   22  C2  UNL     1      18.921  24.905 112.928  1.00  0.00     0.681 A 
ATOM     23  H2  UNL     1      20.353  26.344 113.240  1.00  0.00     0.186 HD
HETATM   24  N11 UNL     1      18.200  24.175 112.055  1.00  0.00    -0.174 N 
ATOM     25  H11 UNL     1      17.519  23.494 112.391  1.00  0.00     0.186 HD
ATOM     26  H6  UNL     1      16.714  22.672 107.518  1.00  0.00     0.164 HD
BRANCH  20  27
HETATM   27  N3  UNL     1      20.928  26.895 110.814  1.00  0.00    -0.248 N 
ATOM     28  H3  UNL     1      21.825  26.988 111.292  1.00  0.00     0.196 HD
BRANCH  27  29
HETATM   29  O1  UNL     1      20.654  27.676 109.743  1.00  0.00    -0.284 OA
HETATM   30  C4  UNL     1      19.655  28.667 109.845  1.00  0.00     0.237 C 
ENDBRANCH  27  29
ENDBRANCH  20  27
BRANCH  22  31
HETATM   31  N1  UNL     1      18.695  24.695 114.198  1.00  0.00    -0.230 N 
HETATM   32  C1  UNL     1      18.904  25.773 115.138  1.00  0.00     0.165 C 
ATOM     33  H1  UNL     1      18.376  23.782 114.522  1.00  0.00     0.177 HD
ENDBRANCH  22  31
ENDBRANCH  10  11
ENDBRANCH   9  10
ENDBRANCH   1   9
TORSDOF 6
ENDMDL
MODEL 5
REMARK VINA RESULT: -6.209704791      1.466      1.675
REMARK  6 active torsions:
REMARK  status: ('A' for Active; 'I' for Inactive)
REMARK    1  A    between atoms: N1_2  and  C2_4 
REMARK    2  A    between atoms: C3_7  and  N3_8 
REMARK    3  A    between atoms: N3_8  and  O1_10 
REMARK       I    between atoms: N5_16  and  C7_17 
REMARK       I    between atoms: C7_17  and  N6_19 
REMARK    4  A    between atoms: N6_19  and  C8_21 
REMARK    5  A    between atoms: C8_21  and  C9_22 
REMARK    6  A    between atoms: C9_22  and  N7_23 
REMARK       I    between atoms: N7_23  and  C10_25 
ROOT
HETATM    1  N7  UNL     1      15.486  20.251 107.391  1.00  0.00    -0.362 N 
ATOM      2  H7  UNL     1      15.965  20.530 108.247  1.00  0.00     0.162 HD
HETATM    3  C10 UNL     1      16.125  19.294 106.533  1.00  0.00     0.197 C 
HETATM    4  N8  UNL     1      15.372  18.814 105.435  1.00  0.00    -0.063 NA
HETATM    5  N9  UNL     1      17.336  18.902 106.781  1.00  0.00    -0.268 N 
ATOM      6  H9  UNL     1      17.841  19.274 107.586  1.00  0.00     0.180 HD
HETATM    7  C11 UNL     1      17.938  17.975 105.946  1.00  0.00     0.184 C 
HETATM    8  N10 UNL     1      18.456  17.198 105.230  1.00  0.00    -0.172 NA
ENDROOT
BRANCH   1   9
HETATM    9  C9  UNL     1      14.210  20.835 107.104  1.00  0.00     0.142 C 
BRANCH   9  10
HETATM   10  C8  UNL     1      14.030  22.230 107.663  1.00  0.00     0.144 C 
BRANCH  10  11
HETATM   11  N6  UNL     1      14.784  22.376 108.869  1.00  0.00    -0.341 N 
HETATM   12  C7  UNL     1      15.892  23.257 108.947  1.00  0.00     0.329 C 
HETATM   13  N5  UNL     1      16.627  23.388 110.154  1.00  0.00    -0.243 N 
HETATM   14  O2  UNL     1      16.189  23.905 107.914  1.00  0.00    -0.246 OA
HETATM   15  C6  UNL     1      16.362  22.720 111.311  1.00  0.00     0.195 A 
HETATM   16  C12 UNL     1      17.698  24.156 110.415  1.00  0.00     0.163 A 
HETATM   17  N4  UNL     1      17.252  23.077 112.251  1.00  0.00    -0.346 N 
HETATM   18  C5  UNL     1      18.111  23.974 111.742  1.00  0.00     0.125 A 
ATOM     19  H4  UNL     1      17.272  22.721 113.206  1.00  0.00     0.167 HD
HETATM   20  C3  UNL     1      19.192  24.647 112.267  1.00  0.00     0.171 A 
HETATM   21  N2  UNL     1      19.842  25.492 111.451  1.00  0.00    -0.173 N 
HETATM   22  C2  UNL     1      19.441  25.664 110.175  1.00  0.00     0.681 A 
ATOM     23  H2  UNL     1      20.649  26.011 111.800  1.00  0.00     0.186 HD
HETATM   24  N11 UNL     1      18.386  25.013 109.650  1.00  0.00    -0.174 N 
ATOM     25  H11 UNL     1      18.113  25.171 108.679  1.00  0.00     0.186 HD
ATOM     26  H6  UNL     1      14.519  21.834 109.691  1.00  0.00     0.164 HD
BRANCH  20  27
HETATM   27  N3  UNL     1      19.537  24.452 113.489  1.00  0.00    -0.248 N 
ATOM     28  H3  UNL     1      20.433  24.012 113.698  1.00  0.00     0.196 HD
BRANCH  27  29
HETATM   29  O1  UNL     1      18.720  24.826 114.502  1.00  0.00    -0.284 OA
HETATM   30  C4  UNL     1      18.832  26.125 115.039  1.00  0.00     0.237 C 
ENDBRANCH  27  29
ENDBRANCH  20  27
BRANCH  22  31
HETATM   31  N1  UNL     1      20.079  26.486 109.384  1.00  0.00    -0.230 N 
HETATM   32  C1  UNL     1      20.496  27.772 109.894  1.00  0.00     0.165 C 
ATOM     33  H1  UNL     1      20.281  26.222 108.420  1.00  0.00     0.177 HD
ENDBRANCH  22  31
ENDBRANCH  10  11
ENDBRANCH   9  10
ENDBRANCH   1   9
TORSDOF 6
ENDMDL
