MODEL 1
REMARK VINA RESULT: -7.366407762      0.000      0.000
REMARK  10 active torsions:
REMARK  status: ('A' for Active; 'I' for Inactive)
REMARK    1  A    between atoms: C2_2  and  N1_3 
REMARK    2  A    between atoms: N1_3  and  C3_6 
REMARK    3  A    between atoms: C3_6  and  C4_7 
REMARK    4  A    between atoms: C4_7  and  N2_8 
REMARK    5  A    between atoms: N2_8  and  C5_10 
REMARK    6  A    between atoms: C7_12  and  C8_13 
REMARK    7  A    between atoms: C9_14  and  C10_15 
REMARK       I    between atoms: C10_15  and  N3_17 
REMARK    8  A    between atoms: N3_17  and  C11_19 
REMARK    9  A    between atoms: C11_19  and  C12_20 
REMARK   10  A    between atoms: C12_20  and  C13_21 
ROOT
HETATM    1  C5  UNL     1      41.308  18.032  39.240  1.00  0.00     0.103 A 
HETATM    2  C6  UNL     1      40.228  17.312  38.842  1.00  0.00     0.059 A 
HETATM    3  C7  UNL     1      40.152  15.897  38.763  1.00  0.00    -0.028 A 
HETATM    4  C19 UNL     1      41.305  15.256  39.133  1.00  0.00     0.073 A 
HETATM    5  C20 UNL     1      42.415  16.001  39.544  1.00  0.00     0.190 A 
HETATM    6  F2  UNL     1      43.521  15.301  39.898  1.00  0.00    -0.186 F 
HETATM    7  N4  UNL     1      42.406  17.331  39.592  1.00  0.00    -0.319 N 
ATOM      8  H4  UNL     1      43.242  17.827  39.898  1.00  0.00     0.169 HD
ENDROOT
BRANCH   3   9
HETATM    9  C8  UNL     1      38.965  15.316  38.242  1.00  0.00     0.017 C 
HETATM   10  C9  UNL     1      37.897  14.821  38.692  1.00  0.00     0.075 C 
BRANCH  10  11
HETATM   11  C10 UNL     1      37.377  14.627  40.017  1.00  0.00     0.241 C 
HETATM   12  O1  UNL     1      37.670  13.740  40.827  1.00  0.00    -0.269 OA
HETATM   13  N3  UNL     1      36.385  15.602  40.444  1.00  0.00    -0.357 N 
ATOM     14  H3  UNL     1      36.107  16.351  39.810  1.00  0.00     0.162 HD
BRANCH  13  15
HETATM   15  C11 UNL     1      35.802  15.520  41.734  1.00  0.00     0.127 C 
BRANCH  15  16
HETATM   16  C12 UNL     1      35.404  16.856  42.300  1.00  0.00     0.061 C 
BRANCH  16  17
HETATM   17  C13 UNL     1      34.199  17.341  41.545  1.00  0.00    -0.018 A 
HETATM   18  C14 UNL     1      32.940  16.840  41.798  1.00  0.00     0.011 A 
HETATM   19  C15 UNL     1      31.825  17.266  41.100  1.00  0.00     0.020 A 
HETATM   20  C16 UNL     1      31.962  18.216  40.121  1.00  0.00     0.013 A 
HETATM   21 BR1  UNL     1      30.446  18.828  39.134  1.00  0.00    -0.051 Br
HETATM   22  C17 UNL     1      33.208  18.728  39.854  1.00  0.00     0.061 A 
HETATM   23  C18 UNL     1      34.304  18.290  40.561  1.00  0.00     0.124 A 
HETATM   24  F1  UNL     1      35.536  18.800  40.294  1.00  0.00    -0.206 F 
ENDBRANCH  16  17
ENDBRANCH  15  16
ENDBRANCH  13  15
ENDBRANCH  10  11
ENDBRANCH   3   9
BRANCH   1  25
HETATM   25  N2  UNL     1      41.315  19.334  39.297  1.00  0.00    -0.375 N 
ATOM     26  H2  UNL     1      41.231  19.824  40.188  1.00  0.00     0.161 HD
BRANCH  25  27
HETATM   27  C4  UNL     1      41.445  20.054  38.066  1.00  0.00     0.148 C 
BRANCH  27  28
HETATM   28  C3  UNL     1      40.650  21.325  38.003  1.00  0.00     0.251 C 
BRANCH  28  29
HETATM   29  N1  UNL     1      41.360  22.503  38.387  1.00  0.00    -0.074 N 
ATOM     30  H12 UNL     1      42.346  22.456  38.133  1.00  0.00     0.277 HD
ATOM     31  H11 UNL     1      41.472  22.570  39.399  1.00  0.00     0.277 HD
BRANCH  29  32
HETATM   32  C2  UNL     1      40.717  23.664  37.839  1.00  0.00     0.228 C 
HETATM   33  C1  UNL     1      40.653  24.820  38.789  1.00  0.00     0.034 C 
ENDBRANCH  29  32
ENDBRANCH  28  29
ENDBRANCH  27  28
ENDBRANCH  25  27
ENDBRANCH   1  25
TORSDOF 10
ENDMDL
MODEL 2
REMARK VINA RESULT: -7.185443093      2.902      3.894
REMARK  10 active torsions:
REMARK  status: ('A' for Active; 'I' for Inactive)
REMARK    1  A    between atoms: C2_2  and  N1_3 
REMARK    2  A    between atoms: N1_3  and  C3_6 
REMARK    3  A    between atoms: C3_6  and  C4_7 
REMARK    4  A    between atoms: C4_7  and  N2_8 
REMARK    5  A    between atoms: N2_8  and  C5_10 
REMARK    6  A    between atoms: C7_12  and  C8_13 
REMARK    7  A    between atoms: C9_14  and  C10_15 
REMARK       I    between atoms: C10_15  and  N3_17 
REMARK    8  A    between atoms: N3_17  and  C11_19 
REMARK    9  A    between atoms: C11_19  and  C12_20 
REMARK   10  A    between atoms: C12_20  and  C13_21 
ROOT
HETATM    1  C5  UNL     1      40.698  20.724  38.273  1.00  0.00     0.103 A 
HETATM    2  C6  UNL     1      39.482  20.568  37.691  1.00  0.00     0.059 A 
HETATM    3  C7  UNL     1      38.673  19.403  37.749  1.00  0.00    -0.028 A 
HETATM    4  C19 UNL     1      39.225  18.377  38.471  1.00  0.00     0.073 A 
HETATM    5  C20 UNL     1      40.477  18.543  39.070  1.00  0.00     0.190 A 
HETATM    6  F2  UNL     1      40.961  17.487  39.771  1.00  0.00    -0.186 F 
HETATM    7  N4  UNL     1      41.175  19.671  38.970  1.00  0.00    -0.319 N 
ATOM      8  H4  UNL     1      42.084  19.741  39.426  1.00  0.00     0.169 HD
ENDROOT
BRANCH   3   9
HETATM    9  C8  UNL     1      37.462  19.387  37.006  1.00  0.00     0.017 C 
HETATM   10  C9  UNL     1      36.289  18.950  37.150  1.00  0.00     0.075 C 
BRANCH  10  11
HETATM   11  C10 UNL     1      35.620  18.239  38.203  1.00  0.00     0.241 C 
HETATM   12  O1  UNL     1      35.032  17.153  38.134  1.00  0.00    -0.269 OA
HETATM   13  N3  UNL     1      35.645  18.888  39.505  1.00  0.00    -0.357 N 
ATOM     14  H3  UNL     1      36.115  19.787  39.613  1.00  0.00     0.162 HD
BRANCH  13  15
HETATM   15  C11 UNL     1      35.023  18.281  40.626  1.00  0.00     0.127 C 
BRANCH  15  16
HETATM   16  C12 UNL     1      35.993  17.618  41.565  1.00  0.00     0.061 C 
BRANCH  16  17
HETATM   17  C13 UNL     1      35.663  16.154  41.618  1.00  0.00    -0.018 A 
HETATM   18  C14 UNL     1      34.739  15.654  42.510  1.00  0.00     0.011 A 
HETATM   19  C15 UNL     1      34.437  14.307  42.580  1.00  0.00     0.020 A 
HETATM   20  C16 UNL     1      35.070  13.427  41.740  1.00  0.00     0.013 A 
HETATM   21 BR1  UNL     1      34.682  11.559  41.808  1.00  0.00    -0.051 Br
HETATM   22  C17 UNL     1      35.993  13.905  40.843  1.00  0.00     0.061 A 
HETATM   23  C18 UNL     1      36.279  15.250  40.790  1.00  0.00     0.124 A 
HETATM   24  F1  UNL     1      37.194  15.719  39.900  1.00  0.00    -0.206 F 
ENDBRANCH  16  17
ENDBRANCH  15  16
ENDBRANCH  13  15
ENDBRANCH  10  11
ENDBRANCH   3   9
BRANCH   1  25
HETATM   25  N2  UNL     1      41.393  21.823  38.188  1.00  0.00    -0.375 N 
ATOM     26  H2  UNL     1      41.984  22.134  38.959  1.00  0.00     0.161 HD
BRANCH  25  27
HETATM   27  C4  UNL     1      41.297  22.580  36.977  1.00  0.00     0.148 C 
BRANCH  27  28
HETATM   28  C3  UNL     1      40.954  24.029  37.174  1.00  0.00     0.251 C 
BRANCH  28  29
HETATM   29  N1  UNL     1      42.057  24.870  37.516  1.00  0.00    -0.074 N 
ATOM     30  H12 UNL     1      42.398  25.398  36.714  1.00  0.00     0.277 HD
ATOM     31  H11 UNL     1      42.903  24.334  37.710  1.00  0.00     0.277 HD
BRANCH  29  32
HETATM   32  C2  UNL     1      41.698  25.726  38.611  1.00  0.00     0.228 C 
HETATM   33  C1  UNL     1      40.462  25.288  39.336  1.00  0.00     0.034 C 
ENDBRANCH  29  32
ENDBRANCH  28  29
ENDBRANCH  27  28
ENDBRANCH  25  27
ENDBRANCH   1  25
TORSDOF 10
ENDMDL
MODEL 3
REMARK VINA RESULT: -7.118359510      5.021      8.158
REMARK  10 active torsions:
REMARK  status: ('A' for Active; 'I' for Inactive)
REMARK    1  A    between atoms: C2_2  and  N1_3 
REMARK    2  A    between atoms: N1_3  and  C3_6 
REMARK    3  A    between atoms: C3_6  and  C4_7 
REMARK    4  A    between atoms: C4_7  and  N2_8 
REMARK    5  A    between atoms: N2_8  and  C5_10 
REMARK    6  A    between atoms: C7_12  and  C8_13 
REMARK    7  A    between atoms: C9_14  and  C10_15 
REMARK       I    between atoms: C10_15  and  N3_17 
REMARK    8  A    between atoms: N3_17  and  C11_19 
REMARK    9  A    between atoms: C11_19  and  C12_20 
REMARK   10  A    between atoms: C12_20  and  C13_21 
ROOT
HETATM    1  C5  UNL     1      41.026  18.786  38.846  1.00  0.00     0.103 A 
HETATM    2  C6  UNL     1      41.968  17.859  39.157  1.00  0.00     0.059 A 
HETATM    3  C7  UNL     1      41.764  16.457  39.237  1.00  0.00    -0.028 A 
HETATM    4  C19 UNL     1      40.479  16.066  38.968  1.00  0.00     0.073 A 
HETATM    5  C20 UNL     1      39.512  17.023  38.646  1.00  0.00     0.190 A 
HETATM    6  F2  UNL     1      38.262  16.563  38.389  1.00  0.00    -0.186 F 
HETATM    7  N4  UNL     1      39.784  18.324  38.591  1.00  0.00    -0.319 N 
ATOM      8  H4  UNL     1      39.043  18.982  38.352  1.00  0.00     0.169 HD
ENDROOT
BRANCH   3   9
HETATM    9  C8  UNL     1      42.848  15.642  39.661  1.00  0.00     0.017 C 
HETATM   10  C9  UNL     1      43.786  14.993  39.127  1.00  0.00     0.075 C 
BRANCH  10  11
HETATM   11  C10 UNL     1      44.201  14.788  37.768  1.00  0.00     0.241 C 
HETATM   12  O1  UNL     1      43.747  13.982  36.947  1.00  0.00    -0.269 OA
HETATM   13  N3  UNL     1      45.288  15.642  37.314  1.00  0.00    -0.357 N 
ATOM     14  H3  UNL     1      45.699  16.321  37.955  1.00  0.00     0.162 HD
BRANCH  13  15
HETATM   15  C11 UNL     1      45.783  15.538  35.989  1.00  0.00     0.127 C 
BRANCH  15  16
HETATM   16  C12 UNL     1      44.781  15.939  34.941  1.00  0.00     0.061 C 
BRANCH  16  17
HETATM   17  C13 UNL     1      44.586  17.426  35.029  1.00  0.00    -0.018 A 
HETATM   18  C14 UNL     1      45.559  18.307  34.607  1.00  0.00     0.011 A 
HETATM   19  C15 UNL     1      45.400  19.677  34.698  1.00  0.00     0.020 A 
HETATM   20  C16 UNL     1      44.241  20.191  35.221  1.00  0.00     0.013 A 
HETATM   21 BR1  UNL     1      43.985  22.078  35.365  1.00  0.00    -0.051 Br
HETATM   22  C17 UNL     1      43.260  19.330  35.646  1.00  0.00     0.061 A 
HETATM   23  C18 UNL     1      43.439  17.970  35.548  1.00  0.00     0.124 A 
HETATM   24  F1  UNL     1      42.464  17.121  35.970  1.00  0.00    -0.206 F 
ENDBRANCH  16  17
ENDBRANCH  15  16
ENDBRANCH  13  15
ENDBRANCH  10  11
ENDBRANCH   3   9
BRANCH   1  25
HETATM   25  N2  UNL     1      41.276  20.064  38.784  1.00  0.00    -0.375 N 
ATOM     26  H2  UNL     1      42.118  20.457  39.205  1.00  0.00     0.161 HD
BRANCH  25  27
HETATM   27  C4  UNL     1      40.330  20.896  38.105  1.00  0.00     0.148 C 
BRANCH  27  28
HETATM   28  C3  UNL     1      40.914  22.146  37.512  1.00  0.00     0.251 C 
BRANCH  28  29
HETATM   29  N1  UNL     1      41.293  23.145  38.460  1.00  0.00    -0.074 N 
ATOM     30  H12 UNL     1      42.287  23.104  38.682  1.00  0.00     0.277 HD
ATOM     31  H11 UNL     1      40.925  22.949  39.391  1.00  0.00     0.277 HD
BRANCH  29  32
HETATM   32  C2  UNL     1      40.900  24.442  37.987  1.00  0.00     0.228 C 
HETATM   33  C1  UNL     1      40.617  25.421  39.085  1.00  0.00     0.034 C 
ENDBRANCH  29  32
ENDBRANCH  28  29
ENDBRANCH  27  28
ENDBRANCH  25  27
ENDBRANCH   1  25
TORSDOF 10
ENDMDL
MODEL 4
REMARK VINA RESULT: -7.052654755      2.859      4.098
REMARK  10 active torsions:
REMARK  status: ('A' for Active; 'I' for Inactive)
REMARK    1  A    between atoms: C2_2  and  N1_3 
REMARK    2  A    between atoms: N1_3  and  C3_6 
REMARK    3  A    between atoms: C3_6  and  C4_7 
REMARK    4  A    between atoms: C4_7  and  N2_8 
REMARK    5  A    between atoms: N2_8  and  C5_10 
REMARK    6  A    between atoms: C7_12  and  C8_13 
REMARK    7  A    between atoms: C9_14  and  C10_15 
REMARK       I    between atoms: C10_15  and  N3_17 
REMARK    8  A    between atoms: N3_17  and  C11_19 
REMARK    9  A    between atoms: C11_19  and  C12_20 
REMARK   10  A    between atoms: C12_20  and  C13_21 
ROOT
HETATM    1  C5  UNL     1      41.010  20.132  38.282  1.00  0.00     0.103 A 
HETATM    2  C6  UNL     1      41.686  19.003  38.620  1.00  0.00     0.059 A 
HETATM    3  C7  UNL     1      41.105  17.754  38.961  1.00  0.00    -0.028 A 
HETATM    4  C19 UNL     1      39.735  17.751  38.931  1.00  0.00     0.073 A 
HETATM    5  C20 UNL     1      39.043  18.914  38.581  1.00  0.00     0.190 A 
HETATM    6  F2  UNL     1      37.689  18.837  38.569  1.00  0.00    -0.186 F 
HETATM    7  N4  UNL     1      39.663  20.050  38.273  1.00  0.00    -0.319 N 
ATOM      8  H4  UNL     1      39.113  20.872  38.025  1.00  0.00     0.169 HD
ENDROOT
BRANCH   3   9
HETATM    9  C8  UNL     1      41.966  16.701  39.371  1.00  0.00     0.017 C 
HETATM   10  C9  UNL     1      41.962  15.441  39.365  1.00  0.00     0.075 C 
BRANCH  10  11
HETATM   11  C10 UNL     1      41.026  14.457  38.900  1.00  0.00     0.241 C 
HETATM   12  O1  UNL     1      40.862  14.047  37.745  1.00  0.00    -0.269 OA
HETATM   13  N3  UNL     1      40.172  13.878  39.927  1.00  0.00    -0.357 N 
ATOM     14  H3  UNL     1      40.266  14.185  40.895  1.00  0.00     0.162 HD
BRANCH  13  15
HETATM   15  C11 UNL     1      39.210  12.890  39.593  1.00  0.00     0.127 C 
BRANCH  15  16
HETATM   16  C12 UNL     1      38.197  12.648  40.677  1.00  0.00     0.061 C 
BRANCH  16  17
HETATM   17  C13 UNL     1      37.349  13.881  40.807  1.00  0.00    -0.018 A 
HETATM   18  C14 UNL     1      37.146  14.731  39.741  1.00  0.00     0.011 A 
HETATM   19  C15 UNL     1      36.382  15.878  39.851  1.00  0.00     0.020 A 
HETATM   20  C16 UNL     1      35.801  16.193  41.052  1.00  0.00     0.013 A 
HETATM   21 BR1  UNL     1      34.741  17.769  41.244  1.00  0.00    -0.051 Br
HETATM   22  C17 UNL     1      35.991  15.358  42.126  1.00  0.00     0.061 A 
HETATM   23  C18 UNL     1      36.756  14.222  41.995  1.00  0.00     0.124 A 
HETATM   24  F1  UNL     1      36.941  13.398  43.061  1.00  0.00    -0.206 F 
ENDBRANCH  16  17
ENDBRANCH  15  16
ENDBRANCH  13  15
ENDBRANCH  10  11
ENDBRANCH   3   9
BRANCH   1  25
HETATM   25  N2  UNL     1      41.602  21.251  37.974  1.00  0.00    -0.375 N 
ATOM     26  H2  UNL     1      42.460  21.541  38.444  1.00  0.00     0.161 HD
BRANCH  25  27
HETATM   27  C4  UNL     1      41.009  22.060  36.953  1.00  0.00     0.148 C 
BRANCH  27  28
HETATM   28  C3  UNL     1      40.794  23.494  37.341  1.00  0.00     0.251 C 
BRANCH  28  29
HETATM   29  N1  UNL     1      41.251  23.841  38.649  1.00  0.00    -0.074 N 
ATOM     30  H12 UNL     1      42.021  23.247  38.956  1.00  0.00     0.277 HD
ATOM     31  H11 UNL     1      40.575  23.589  39.371  1.00  0.00     0.277 HD
BRANCH  29  32
HETATM   32  C2  UNL     1      41.594  25.234  38.694  1.00  0.00     0.228 C 
HETATM   33  C1  UNL     1      40.416  26.136  38.903  1.00  0.00     0.034 C 
ENDBRANCH  29  32
ENDBRANCH  28  29
ENDBRANCH  27  28
ENDBRANCH  25  27
ENDBRANCH   1  25
TORSDOF 10
ENDMDL
MODEL 5
REMARK VINA RESULT: -7.051703747      2.686      3.390
REMARK  10 active torsions:
REMARK  status: ('A' for Active; 'I' for Inactive)
REMARK    1  A    between atoms: C2_2  and  N1_3 
REMARK    2  A    between atoms: N1_3  and  C3_6 
REMARK    3  A    between atoms: C3_6  and  C4_7 
REMARK    4  A    between atoms: C4_7  and  N2_8 
REMARK    5  A    between atoms: N2_8  and  C5_10 
REMARK    6  A    between atoms: C7_12  and  C8_13 
REMARK    7  A    between atoms: C9_14  and  C10_15 
REMARK       I    between atoms: C10_15  and  N3_17 
REMARK    8  A    between atoms: N3_17  and  C11_19 
REMARK    9  A    between atoms: C11_19  and  C12_20 
REMARK   10  A    between atoms: C12_20  and  C13_21 
ROOT
HETATM    1  C5  UNL     1      40.936  20.551  38.340  1.00  0.00     0.103 A 
HETATM    2  C6  UNL     1      39.703  20.301  37.827  1.00  0.00     0.059 A 
HETATM    3  C7  UNL     1      38.997  19.073  37.911  1.00  0.00    -0.028 A 
HETATM    4  C19 UNL     1      39.674  18.088  38.581  1.00  0.00     0.073 A 
HETATM    5  C20 UNL     1      40.942  18.349  39.109  1.00  0.00     0.190 A 
HETATM    6  F2  UNL     1      41.552  17.328  39.761  1.00  0.00    -0.186 F 
HETATM    7  N4  UNL     1      41.538  19.532  38.988  1.00  0.00    -0.319 N 
ATOM      8  H4  UNL     1      42.464  19.671  39.391  1.00  0.00     0.169 HD
ENDROOT
BRANCH   3   9
HETATM    9  C8  UNL     1      37.749  18.967  37.240  1.00  0.00     0.017 C 
HETATM   10  C9  UNL     1      36.559  18.677  37.533  1.00  0.00     0.075 C 
BRANCH  10  11
HETATM   11  C10 UNL     1      35.901  18.314  38.756  1.00  0.00     0.241 C 
HETATM   12  O1  UNL     1      36.400  17.811  39.770  1.00  0.00    -0.269 OA
HETATM   13  N3  UNL     1      34.470  18.577  38.793  1.00  0.00    -0.357 N 
ATOM     14  H3  UNL     1      34.010  18.988  37.981  1.00  0.00     0.162 HD
BRANCH  13  15
HETATM   15  C11 UNL     1      33.709  18.267  39.950  1.00  0.00     0.127 C 
BRANCH  15  16
HETATM   16  C12 UNL     1      32.524  17.383  39.670  1.00  0.00     0.061 C 
BRANCH  16  17
HETATM   17  C13 UNL     1      31.435  17.743  40.640  1.00  0.00    -0.018 A 
HETATM   18  C14 UNL     1      31.331  17.127  41.868  1.00  0.00     0.011 A 
HETATM   19  C15 UNL     1      30.324  17.437  42.763  1.00  0.00     0.020 A 
HETATM   20  C16 UNL     1      29.393  18.387  42.432  1.00  0.00     0.013 A 
HETATM   21 BR1  UNL     1      27.987  18.842  43.641  1.00  0.00    -0.051 Br
HETATM   22  C17 UNL     1      29.480  19.013  41.213  1.00  0.00     0.061 A 
HETATM   23  C18 UNL     1      30.490  18.688  40.336  1.00  0.00     0.124 A 
HETATM   24  F1  UNL     1      30.572  19.311  39.130  1.00  0.00    -0.206 F 
ENDBRANCH  16  17
ENDBRANCH  15  16
ENDBRANCH  13  15
ENDBRANCH  10  11
ENDBRANCH   3   9
BRANCH   1  25
HETATM   25  N2  UNL     1      41.532  21.705  38.234  1.00  0.00    -0.375 N 
ATOM     26  H2  UNL     1      42.019  22.121  39.027  1.00  0.00     0.161 HD
BRANCH  25  27
HETATM   27  C4  UNL     1      41.478  22.369  36.967  1.00  0.00     0.148 C 
BRANCH  27  28
HETATM   28  C3  UNL     1      40.883  23.746  37.011  1.00  0.00     0.251 C 
BRANCH  28  29
HETATM   29  N1  UNL     1      41.639  24.709  37.746  1.00  0.00    -0.074 N 
ATOM     30  H12 UNL     1      41.818  25.552  37.202  1.00  0.00     0.277 HD
ATOM     31  H11 UNL     1      42.606  24.414  37.882  1.00  0.00     0.277 HD
BRANCH  29  32
HETATM   32  C2  UNL     1      40.985  25.000  38.991  1.00  0.00     0.228 C 
HETATM   33  C1  UNL     1      40.556  26.429  39.124  1.00  0.00     0.034 C 
ENDBRANCH  29  32
ENDBRANCH  28  29
ENDBRANCH  27  28
ENDBRANCH  25  27
ENDBRANCH   1  25
TORSDOF 10
ENDMDL
