MODEL 1
REMARK VINA RESULT: -7.431947335      0.000      0.000
REMARK  14 active torsions:
REMARK  status: ('A' for Active; 'I' for Inactive)
REMARK    1  A    between atoms: C4_4  and  C5_5 
REMARK    2  A    between atoms: C5_5  and  N1_6 
REMARK    3  A    between atoms: N1_6  and  C6_9 
REMARK    4  A    between atoms: C6_9  and  C7_10 
REMARK    5  A    between atoms: C7_10  and  C8_11 
REMARK    6  A    between atoms: C8_11  and  N2_12 
REMARK    7  A    between atoms: N2_12  and  C9_14 
REMARK    8  A    between atoms: N4_18  and  C11_20 
REMARK    9  A    between atoms: C11_20  and  C12_21 
REMARK   10  A    between atoms: C12_21  and  C13_22 
REMARK   11  A    between atoms: C14_26  and  N6_27 
REMARK   12  A    between atoms: N6_27  and  C15_29 
REMARK   13  A    between atoms: C15_29  and  C16_30 
REMARK   14  A    between atoms: C16_30  and  C17_31 
ROOT
HETATM    1  C9  UNL     1      40.692  19.624  38.639  1.00  0.00     0.707 A 
HETATM    2  N3  UNL     1      40.680  20.935  38.246  1.00  0.00    -0.022 N 
ATOM      3  H3  UNL     1      41.559  21.452  38.246  1.00  0.00     0.203 HD
HETATM    4  C10 UNL     1      39.570  21.567  37.864  1.00  0.00     0.707 A 
HETATM    5  N4  UNL     1      39.546  22.789  37.499  1.00  0.00    -0.225 N 
ATOM      6  H4  UNL     1      38.654  23.199  37.221  1.00  0.00     0.177 HD
HETATM    7  N5  UNL     1      38.398  20.848  37.874  1.00  0.00    -0.022 N 
ATOM      8  H5  UNL     1      37.533  21.305  37.587  1.00  0.00     0.203 HD
HETATM    9  C14 UNL     1      38.366  19.569  38.249  1.00  0.00     0.707 A 
HETATM   10  N7  UNL     1      39.514  18.987  38.624  1.00  0.00    -0.022 N 
ATOM     11  H7  UNL     1      39.489  18.009  38.913  1.00  0.00     0.203 HD
ENDROOT
BRANCH   1  12
HETATM   12  N2  UNL     1      41.808  19.097  38.990  1.00  0.00    -0.225 N 
ATOM     13  H2  UNL     1      42.275  19.468  39.817  1.00  0.00     0.177 HD
BRANCH  12  14
HETATM   14  C8  UNL     1      42.440  18.012  38.282  1.00  0.00     0.139 C 
BRANCH  14  15
HETATM   15  C7  UNL     1      42.579  16.875  39.277  1.00  0.00     0.048 C 
BRANCH  15  16
HETATM   16  C6  UNL     1      42.437  15.526  38.653  1.00  0.00     0.234 C 
BRANCH  16  17
HETATM   17  N1  UNL     1      43.542  14.686  39.047  1.00  0.00    -0.075 N 
ATOM     18  H12 UNL     1      43.219  13.940  39.663  1.00  0.00     0.277 HD
ATOM     19  H11 UNL     1      44.158  15.187  39.687  1.00  0.00     0.277 HD
BRANCH  17  20
HETATM   20  C5  UNL     1      44.288  14.144  37.957  1.00  0.00     0.237 C 
BRANCH  20  21
HETATM   21  C4  UNL     1      45.373  15.091  37.524  1.00  0.00     0.015 A 
HETATM   22  C2  UNL     1      45.219  15.603  36.069  1.00  0.00    -0.013 A 
HETATM   23  C1  UNL     1      45.412  17.091  35.919  1.00  0.00     0.010 C 
HETATM   24  C3  UNL     1      46.345  14.742  36.454  1.00  0.00     0.011 A 
ENDBRANCH  20  21
ENDBRANCH  17  20
ENDBRANCH  16  17
ENDBRANCH  15  16
ENDBRANCH  14  15
ENDBRANCH  12  14
ENDBRANCH   1  12
BRANCH   9  25
HETATM   25  N6  UNL     1      37.237  18.913  38.256  1.00  0.00    -0.225 N 
ATOM     26  H6  UNL     1      36.528  19.150  37.563  1.00  0.00     0.177 HD
BRANCH  25  27
HETATM   27  C15 UNL     1      36.953  17.862  39.210  1.00  0.00     0.142 C 
BRANCH  27  28
HETATM   28  C16 UNL     1      36.385  18.542  40.445  1.00  0.00     0.060 C 
BRANCH  28  29
HETATM   29  C17 UNL     1      34.965  18.220  40.652  1.00  0.00    -0.035 A 
HETATM   30  C18 UNL     1      34.012  18.808  39.861  1.00  0.00     0.010 A 
HETATM   31  C19 UNL     1      32.661  18.516  40.035  1.00  0.00     0.024 A 
HETATM   32  C20 UNL     1      32.263  17.629  41.005  1.00  0.00     0.035 A 
HETATM   33 CL1  UNL     1      30.565  17.262  41.220  1.00  0.00    -0.084 Cl
HETATM   34  C21 UNL     1      33.212  17.032  41.806  1.00  0.00     0.048 A 
HETATM   35  C22 UNL     1      34.565  17.333  41.623  1.00  0.00     0.042 A 
HETATM   36 CL2  UNL     1      35.694  16.526  42.687  1.00  0.00    -0.084 Cl
ENDBRANCH  28  29
ENDBRANCH  27  28
ENDBRANCH  25  27
ENDBRANCH   9  25
BRANCH   5  37
HETATM   37  C11 UNL     1      40.713  23.607  37.462  1.00  0.00     0.140 C 
BRANCH  37  38
HETATM   38  C12 UNL     1      40.435  25.021  37.936  1.00  0.00     0.051 C 
BRANCH  38  39
HETATM   39  C13 UNL     1      41.017  25.120  39.349  1.00  0.00     0.224 C 
HETATM   40  F1  UNL     1      40.206  25.893  40.157  1.00  0.00    -0.255 F 
ENDBRANCH  38  39
ENDBRANCH  37  38
ENDBRANCH   5  37
TORSDOF 14
ENDMDL
MODEL 2
REMARK VINA RESULT: -7.329870082      2.989      8.065
REMARK  14 active torsions:
REMARK  status: ('A' for Active; 'I' for Inactive)
REMARK    1  A    between atoms: C4_4  and  C5_5 
REMARK    2  A    between atoms: C5_5  and  N1_6 
REMARK    3  A    between atoms: N1_6  and  C6_9 
REMARK    4  A    between atoms: C6_9  and  C7_10 
REMARK    5  A    between atoms: C7_10  and  C8_11 
REMARK    6  A    between atoms: C8_11  and  N2_12 
REMARK    7  A    between atoms: N2_12  and  C9_14 
REMARK    8  A    between atoms: N4_18  and  C11_20 
REMARK    9  A    between atoms: C11_20  and  C12_21 
REMARK   10  A    between atoms: C12_21  and  C13_22 
REMARK   11  A    between atoms: C14_26  and  N6_27 
REMARK   12  A    between atoms: N6_27  and  C15_29 
REMARK   13  A    between atoms: C15_29  and  C16_30 
REMARK   14  A    between atoms: C16_30  and  C17_31 
ROOT
HETATM    1  C9  UNL     1      38.593  20.951  37.717  1.00  0.00     0.707 A 
HETATM    2  N3  UNL     1      39.386  22.047  37.511  1.00  0.00    -0.022 N 
ATOM      3  H3  UNL     1      38.980  22.862  37.051  1.00  0.00     0.203 HD
HETATM    4  C10 UNL     1      40.665  22.098  37.883  1.00  0.00     0.707 A 
HETATM    5  N4  UNL     1      41.414  23.113  37.694  1.00  0.00    -0.225 N 
ATOM      6  H4  UNL     1      42.383  23.071  38.009  1.00  0.00     0.177 HD
HETATM    7  N5  UNL     1      41.188  20.986  38.499  1.00  0.00    -0.022 N 
ATOM      8  H5  UNL     1      42.163  20.994  38.796  1.00  0.00     0.203 HD
HETATM    9  C14 UNL     1      40.451  19.897  38.720  1.00  0.00     0.707 A 
HETATM   10  N7  UNL     1      39.170  19.905  38.322  1.00  0.00    -0.022 N 
ATOM     11  H7  UNL     1      38.606  19.071  38.489  1.00  0.00     0.203 HD
ENDROOT
BRANCH   1  12
HETATM   12  N2  UNL     1      37.372  20.992  37.326  1.00  0.00    -0.225 N 
ATOM     13  H2  UNL     1      36.672  21.353  37.973  1.00  0.00     0.177 HD
BRANCH  12  14
HETATM   14  C8  UNL     1      36.933  20.557  36.023  1.00  0.00     0.139 C 
BRANCH  14  15
HETATM   15  C7  UNL     1      36.461  19.124  36.186  1.00  0.00     0.048 C 
BRANCH  15  16
HETATM   16  C6  UNL     1      35.916  18.836  37.546  1.00  0.00     0.234 C 
BRANCH  16  17
HETATM   17  N1  UNL     1      36.515  17.631  38.067  1.00  0.00    -0.075 N 
ATOM     18  H12 UNL     1      37.492  17.794  38.308  1.00  0.00     0.277 HD
ATOM     19  H11 UNL     1      36.633  16.942  37.324  1.00  0.00     0.277 HD
BRANCH  17  20
HETATM   20  C5  UNL     1      35.818  17.057  39.173  1.00  0.00     0.237 C 
BRANCH  20  21
HETATM   21  C4  UNL     1      36.050  17.852  40.427  1.00  0.00     0.015 A 
HETATM   22  C2  UNL     1      35.451  17.207  41.703  1.00  0.00    -0.013 A 
HETATM   23  C1  UNL     1      36.392  17.191  42.881  1.00  0.00     0.010 C 
HETATM   24  C3  UNL     1      34.934  18.480  41.184  1.00  0.00     0.011 A 
ENDBRANCH  20  21
ENDBRANCH  17  20
ENDBRANCH  16  17
ENDBRANCH  15  16
ENDBRANCH  14  15
ENDBRANCH  12  14
ENDBRANCH   1  12
BRANCH   9  25
HETATM   25  N6  UNL     1      40.975  18.852  39.301  1.00  0.00    -0.225 N 
ATOM     26  H6  UNL     1      40.515  18.467  40.125  1.00  0.00     0.177 HD
BRANCH  25  27
HETATM   27  C15 UNL     1      42.186  18.220  38.822  1.00  0.00     0.142 C 
BRANCH  27  28
HETATM   28  C16 UNL     1      41.751  16.988  38.046  1.00  0.00     0.060 C 
BRANCH  28  29
HETATM   29  C17 UNL     1      42.893  16.139  37.668  1.00  0.00    -0.035 A 
HETATM   30  C18 UNL     1      43.453  16.268  36.424  1.00  0.00     0.010 A 
HETATM   31  C19 UNL     1      44.537  15.480  36.044  1.00  0.00     0.024 A 
HETATM   32  C20 UNL     1      45.063  14.558  36.917  1.00  0.00     0.035 A 
HETATM   33 CL1  UNL     1      46.425  13.570  36.439  1.00  0.00    -0.084 Cl
HETATM   34  C21 UNL     1      44.507  14.420  38.170  1.00  0.00     0.048 A 
HETATM   35  C22 UNL     1      43.419  15.217  38.540  1.00  0.00     0.042 A 
HETATM   36 CL2  UNL     1      42.783  14.969  40.150  1.00  0.00    -0.084 Cl
ENDBRANCH  28  29
ENDBRANCH  27  28
ENDBRANCH  25  27
ENDBRANCH   9  25
BRANCH   5  37
HETATM   37  C11 UNL     1      40.954  24.304  37.060  1.00  0.00     0.140 C 
BRANCH  37  38
HETATM   38  C12 UNL     1      40.288  25.252  38.039  1.00  0.00     0.051 C 
BRANCH  38  39
HETATM   39  C13 UNL     1      41.096  25.161  39.337  1.00  0.00     0.224 C 
HETATM   40  F1  UNL     1      40.371  25.666  40.398  1.00  0.00    -0.255 F 
ENDBRANCH  38  39
ENDBRANCH  37  38
ENDBRANCH   5  37
TORSDOF 14
ENDMDL
MODEL 3
REMARK VINA RESULT: -7.294402597      1.164      1.656
REMARK  14 active torsions:
REMARK  status: ('A' for Active; 'I' for Inactive)
REMARK    1  A    between atoms: C4_4  and  C5_5 
REMARK    2  A    between atoms: C5_5  and  N1_6 
REMARK    3  A    between atoms: N1_6  and  C6_9 
REMARK    4  A    between atoms: C6_9  and  C7_10 
REMARK    5  A    between atoms: C7_10  and  C8_11 
REMARK    6  A    between atoms: C8_11  and  N2_12 
REMARK    7  A    between atoms: N2_12  and  C9_14 
REMARK    8  A    between atoms: N4_18  and  C11_20 
REMARK    9  A    between atoms: C11_20  and  C12_21 
REMARK   10  A    between atoms: C12_21  and  C13_22 
REMARK   11  A    between atoms: C14_26  and  N6_27 
REMARK   12  A    between atoms: N6_27  and  C15_29 
REMARK   13  A    between atoms: C15_29  and  C16_30 
REMARK   14  A    between atoms: C16_30  and  C17_31 
ROOT
HETATM    1  C9  UNL     1      40.644  19.723  38.669  1.00  0.00     0.707 A 
HETATM    2  N3  UNL     1      40.647  21.021  38.237  1.00  0.00    -0.022 N 
ATOM      3  H3  UNL     1      41.539  21.512  38.178  1.00  0.00     0.203 HD
HETATM    4  C10 UNL     1      39.537  21.673  37.889  1.00  0.00     0.707 A 
HETATM    5  N4  UNL     1      39.528  22.883  37.487  1.00  0.00    -0.225 N 
ATOM      6  H4  UNL     1      38.634  23.309  37.240  1.00  0.00     0.177 HD
HETATM    7  N5  UNL     1      38.349  20.987  37.978  1.00  0.00    -0.022 N 
ATOM      8  H5  UNL     1      37.483  21.459  37.719  1.00  0.00     0.203 HD
HETATM    9  C14 UNL     1      38.301  19.722  38.395  1.00  0.00     0.707 A 
HETATM   10  N7  UNL     1      39.450  19.119  38.732  1.00  0.00    -0.022 N 
ATOM     11  H7  UNL     1      39.413  18.151  39.052  1.00  0.00     0.203 HD
ENDROOT
BRANCH   1  12
HETATM   12  N2  UNL     1      41.761  19.176  38.983  1.00  0.00    -0.225 N 
ATOM     13  H2  UNL     1      42.249  19.519  39.810  1.00  0.00     0.177 HD
BRANCH  12  14
HETATM   14  C8  UNL     1      42.367  18.104  38.233  1.00  0.00     0.139 C 
BRANCH  14  15
HETATM   15  C7  UNL     1      42.553  16.953  39.204  1.00  0.00     0.048 C 
BRANCH  15  16
HETATM   16  C6  UNL     1      41.794  15.727  38.816  1.00  0.00     0.234 C 
BRANCH  16  17
HETATM   17  N1  UNL     1      42.635  14.564  38.967  1.00  0.00    -0.075 N 
ATOM     18  H12 UNL     1      42.369  13.843  38.297  1.00  0.00     0.277 HD
ATOM     19  H11 UNL     1      42.420  14.080  39.839  1.00  0.00     0.277 HD
BRANCH  17  20
HETATM   20  C5  UNL     1      44.035  14.833  38.879  1.00  0.00     0.237 C 
BRANCH  20  21
HETATM   21  C4  UNL     1      44.625  14.215  37.643  1.00  0.00     0.015 A 
HETATM   22  C2  UNL     1      45.245  15.240  36.659  1.00  0.00    -0.013 A 
HETATM   23  C1  UNL     1      46.607  14.850  36.144  1.00  0.00     0.010 C 
HETATM   24  C3  UNL     1      44.058  14.457  36.289  1.00  0.00     0.011 A 
ENDBRANCH  20  21
ENDBRANCH  17  20
ENDBRANCH  16  17
ENDBRANCH  15  16
ENDBRANCH  14  15
ENDBRANCH  12  14
ENDBRANCH   1  12
BRANCH   9  25
HETATM   25  N6  UNL     1      37.157  19.098  38.477  1.00  0.00    -0.225 N 
ATOM     26  H6  UNL     1      36.362  19.462  37.953  1.00  0.00     0.177 HD
BRANCH  25  27
HETATM   27  C15 UNL     1      36.973  17.911  39.284  1.00  0.00     0.142 C 
BRANCH  27  28
HETATM   28  C16 UNL     1      36.476  18.383  40.641  1.00  0.00     0.060 C 
BRANCH  28  29
HETATM   29  C17 UNL     1      35.422  17.509  41.180  1.00  0.00    -0.035 A 
HETATM   30  C18 UNL     1      35.760  16.461  41.997  1.00  0.00     0.010 A 
HETATM   31  C19 UNL     1      34.781  15.623  42.524  1.00  0.00     0.024 A 
HETATM   32  C20 UNL     1      33.456  15.837  42.233  1.00  0.00     0.035 A 
HETATM   33 CL1  UNL     1      32.227  14.783  42.898  1.00  0.00    -0.084 Cl
HETATM   34  C21 UNL     1      33.105  16.887  41.414  1.00  0.00     0.048 A 
HETATM   35  C22 UNL     1      34.097  17.722  40.890  1.00  0.00     0.042 A 
HETATM   36 CL2  UNL     1      33.553  19.028  39.861  1.00  0.00    -0.084 Cl
ENDBRANCH  28  29
ENDBRANCH  27  28
ENDBRANCH  25  27
ENDBRANCH   9  25
BRANCH   5  37
HETATM   37  C11 UNL     1      40.713  23.666  37.368  1.00  0.00     0.140 C 
BRANCH  37  38
HETATM   38  C12 UNL     1      40.522  25.075  37.896  1.00  0.00     0.051 C 
BRANCH  38  39
HETATM   39  C13 UNL     1      41.062  25.070  39.330  1.00  0.00     0.224 C 
HETATM   40  F1  UNL     1      40.247  25.815  40.159  1.00  0.00    -0.255 F 
ENDBRANCH  38  39
ENDBRANCH  37  38
ENDBRANCH   5  37
TORSDOF 14
ENDMDL
MODEL 4
REMARK VINA RESULT: -7.192853846      3.441      7.788
REMARK  14 active torsions:
REMARK  status: ('A' for Active; 'I' for Inactive)
REMARK    1  A    between atoms: C4_4  and  C5_5 
REMARK    2  A    between atoms: C5_5  and  N1_6 
REMARK    3  A    between atoms: N1_6  and  C6_9 
REMARK    4  A    between atoms: C6_9  and  C7_10 
REMARK    5  A    between atoms: C7_10  and  C8_11 
REMARK    6  A    between atoms: C8_11  and  N2_12 
REMARK    7  A    between atoms: N2_12  and  C9_14 
REMARK    8  A    between atoms: N4_18  and  C11_20 
REMARK    9  A    between atoms: C11_20  and  C12_21 
REMARK   10  A    between atoms: C12_21  and  C13_22 
REMARK   11  A    between atoms: C14_26  and  N6_27 
REMARK   12  A    between atoms: N6_27  and  C15_29 
REMARK   13  A    between atoms: C15_29  and  C16_30 
REMARK   14  A    between atoms: C16_30  and  C17_31 
ROOT
HETATM    1  C9  UNL     1      38.990  20.341  38.162  1.00  0.00     0.707 A 
HETATM    2  N3  UNL     1      39.582  21.524  37.811  1.00  0.00    -0.022 N 
ATOM      3  H3  UNL     1      38.990  22.282  37.473  1.00  0.00     0.203 HD
HETATM    4  C10 UNL     1      40.897  21.730  37.892  1.00  0.00     0.707 A 
HETATM    5  N4  UNL     1      41.459  22.827  37.566  1.00  0.00    -0.225 N 
ATOM      6  H4  UNL     1      42.472  22.903  37.657  1.00  0.00     0.177 HD
HETATM    7  N5  UNL     1      41.671  20.691  38.350  1.00  0.00    -0.022 N 
ATOM      8  H5  UNL     1      42.680  20.818  38.423  1.00  0.00     0.203 HD
HETATM    9  C14 UNL     1      41.136  19.521  38.702  1.00  0.00     0.707 A 
HETATM   10  N7  UNL     1      39.807  19.374  38.599  1.00  0.00    -0.022 N 
ATOM     11  H7  UNL     1      39.398  18.478  38.866  1.00  0.00     0.203 HD
ENDROOT
BRANCH   1  12
HETATM   12  N2  UNL     1      37.717  20.233  38.051  1.00  0.00    -0.225 N 
ATOM     13  H2  UNL     1      37.132  20.834  38.630  1.00  0.00     0.177 HD
BRANCH  12  14
HETATM   14  C8  UNL     1      37.065  19.310  37.156  1.00  0.00     0.139 C 
BRANCH  14  15
HETATM   15  C7  UNL     1      36.230  18.387  38.024  1.00  0.00     0.048 C 
BRANCH  15  16
HETATM   16  C6  UNL     1      36.382  18.657  39.485  1.00  0.00     0.234 C 
BRANCH  16  17
HETATM   17  N1  UNL     1      35.094  18.955  40.063  1.00  0.00    -0.075 N 
ATOM     18  H12 UNL     1      34.350  18.762  39.393  1.00  0.00     0.277 HD
ATOM     19  H11 UNL     1      34.976  19.963  40.168  1.00  0.00     0.277 HD
BRANCH  17  20
HETATM   20  C5  UNL     1      34.835  18.291  41.300  1.00  0.00     0.237 C 
BRANCH  20  21
HETATM   21  C4  UNL     1      35.941  17.330  41.637  1.00  0.00     0.015 A 
HETATM   22  C2  UNL     1      35.498  16.149  42.539  1.00  0.00    -0.013 A 
HETATM   23  C1  UNL     1      35.991  14.803  42.073  1.00  0.00     0.010 C 
HETATM   24  C3  UNL     1      36.447  17.161  43.025  1.00  0.00     0.011 A 
ENDBRANCH  20  21
ENDBRANCH  17  20
ENDBRANCH  16  17
ENDBRANCH  15  16
ENDBRANCH  14  15
ENDBRANCH  12  14
ENDBRANCH   1  12
BRANCH   9  25
HETATM   25  N6  UNL     1      41.897  18.549  39.127  1.00  0.00    -0.225 N 
ATOM     26  H6  UNL     1      42.052  18.452  40.130  1.00  0.00     0.177 HD
BRANCH  25  27
HETATM   27  C15 UNL     1      42.529  17.605  38.230  1.00  0.00     0.142 C 
BRANCH  27  28
HETATM   28  C16 UNL     1      42.880  16.385  39.066  1.00  0.00     0.060 C 
BRANCH  28  29
HETATM   29  C17 UNL     1      42.587  15.127  38.361  1.00  0.00    -0.035 A 
HETATM   30  C18 UNL     1      41.306  14.638  38.346  1.00  0.00     0.010 A 
HETATM   31  C19 UNL     1      41.002  13.452  37.682  1.00  0.00     0.024 A 
HETATM   32  C20 UNL     1      41.986  12.753  37.027  1.00  0.00     0.035 A 
HETATM   33 CL1  UNL     1      41.602  11.264  36.192  1.00  0.00    -0.084 Cl
HETATM   34  C21 UNL     1      43.277  13.235  37.035  1.00  0.00     0.048 A 
HETATM   35  C22 UNL     1      43.570  14.426  37.706  1.00  0.00     0.042 A 
HETATM   36 CL2  UNL     1      45.236  14.958  37.659  1.00  0.00    -0.084 Cl
ENDBRANCH  28  29
ENDBRANCH  27  28
ENDBRANCH  25  27
ENDBRANCH   9  25
BRANCH   5  37
HETATM   37  C11 UNL     1      40.732  23.952  37.078  1.00  0.00     0.140 C 
BRANCH  37  38
HETATM   38  C12 UNL     1      40.224  24.835  38.203  1.00  0.00     0.051 C 
BRANCH  38  39
HETATM   39  C13 UNL     1      41.402  25.726  38.609  1.00  0.00     0.224 C 
HETATM   40  F1  UNL     1      40.959  26.984  38.970  1.00  0.00    -0.255 F 
ENDBRANCH  38  39
ENDBRANCH  37  38
ENDBRANCH   5  37
TORSDOF 14
ENDMDL
MODEL 5
REMARK VINA RESULT: -7.186176295      3.413      8.551
REMARK  14 active torsions:
REMARK  status: ('A' for Active; 'I' for Inactive)
REMARK    1  A    between atoms: C4_4  and  C5_5 
REMARK    2  A    between atoms: C5_5  and  N1_6 
REMARK    3  A    between atoms: N1_6  and  C6_9 
REMARK    4  A    between atoms: C6_9  and  C7_10 
REMARK    5  A    between atoms: C7_10  and  C8_11 
REMARK    6  A    between atoms: C8_11  and  N2_12 
REMARK    7  A    between atoms: N2_12  and  C9_14 
REMARK    8  A    between atoms: N4_18  and  C11_20 
REMARK    9  A    between atoms: C11_20  and  C12_21 
REMARK   10  A    between atoms: C12_21  and  C13_22 
REMARK   11  A    between atoms: C14_26  and  N6_27 
REMARK   12  A    between atoms: N6_27  and  C15_29 
REMARK   13  A    between atoms: C15_29  and  C16_30 
REMARK   14  A    between atoms: C16_30  and  C17_31 
ROOT
HETATM    1  C9  UNL     1      39.770  19.952  36.366  1.00  0.00     0.707 A 
HETATM    2  N3  UNL     1      40.227  21.211  36.648  1.00  0.00    -0.022 N 
ATOM      3  H3  UNL     1      39.970  21.973  36.022  1.00  0.00     0.203 HD
HETATM    4  C10 UNL     1      40.993  21.485  37.704  1.00  0.00     0.707 A 
HETATM    5  N4  UNL     1      41.427  22.653  37.975  1.00  0.00    -0.225 N 
ATOM      6  H4  UNL     1      42.009  22.779  38.803  1.00  0.00     0.177 HD
HETATM    7  N5  UNL     1      41.326  20.439  38.530  1.00  0.00    -0.022 N 
ATOM      8  H5  UNL     1      41.912  20.617  39.346  1.00  0.00     0.203 HD
HETATM    9  C14 UNL     1      40.903  19.197  38.293  1.00  0.00     0.707 A 
HETATM   10  N7  UNL     1      40.135  18.982  37.215  1.00  0.00    -0.022 N 
ATOM     11  H7  UNL     1      39.813  18.032  37.032  1.00  0.00     0.203 HD
ENDROOT
BRANCH   1  12
HETATM   12  N2  UNL     1      39.037  19.781  35.327  1.00  0.00    -0.225 N 
ATOM     13  H2  UNL     1      39.467  19.374  34.497  1.00  0.00     0.177 HD
BRANCH  12  14
HETATM   14  C8  UNL     1      37.640  20.132  35.265  1.00  0.00     0.139 C 
BRANCH  14  15
HETATM   15  C7  UNL     1      36.888  19.020  35.971  1.00  0.00     0.048 C 
BRANCH  15  16
HETATM   16  C6  UNL     1      36.150  19.485  37.183  1.00  0.00     0.234 C 
BRANCH  16  17
HETATM   17  N1  UNL     1      36.873  19.102  38.372  1.00  0.00    -0.075 N 
ATOM     18  H12 UNL     1      37.034  19.913  38.968  1.00  0.00     0.277 HD
ATOM     19  H11 UNL     1      37.836  18.861  38.140  1.00  0.00     0.277 HD
BRANCH  17  20
HETATM   20  C5  UNL     1      36.261  18.049  39.119  1.00  0.00     0.237 C 
BRANCH  20  21
HETATM   21  C4  UNL     1      36.073  18.448  40.556  1.00  0.00     0.015 A 
HETATM   22  C2  UNL     1      35.629  17.285  41.480  1.00  0.00    -0.013 A 
HETATM   23  C1  UNL     1      36.396  17.202  42.774  1.00  0.00     0.010 C 
HETATM   24  C3  UNL     1      34.739  18.424  41.215  1.00  0.00     0.011 A 
ENDBRANCH  20  21
ENDBRANCH  17  20
ENDBRANCH  16  17
ENDBRANCH  15  16
ENDBRANCH  14  15
ENDBRANCH  12  14
ENDBRANCH   1  12
BRANCH   9  25
HETATM   25  N6  UNL     1      41.241  18.221  39.092  1.00  0.00    -0.225 N 
ATOM     26  H6  UNL     1      40.562  17.890  39.776  1.00  0.00     0.177 HD
BRANCH  25  27
HETATM   27  C15 UNL     1      42.543  17.591  39.044  1.00  0.00     0.142 C 
BRANCH  27  28
HETATM   28  C16 UNL     1      42.424  16.427  38.074  1.00  0.00     0.060 C 
BRANCH  28  29
HETATM   29  C17 UNL     1      43.696  16.140  37.392  1.00  0.00    -0.035 A 
HETATM   30  C18 UNL     1      44.443  15.056  37.776  1.00  0.00     0.010 A 
HETATM   31  C19 UNL     1      45.648  14.760  37.144  1.00  0.00     0.024 A 
HETATM   32  C20 UNL     1      46.108  15.554  36.121  1.00  0.00     0.035 A 
HETATM   33 CL1  UNL     1      47.621  15.180  35.327  1.00  0.00    -0.084 Cl
HETATM   34  C21 UNL     1      45.365  16.646  35.728  1.00  0.00     0.048 A 
HETATM   35  C22 UNL     1      44.157  16.934  36.370  1.00  0.00     0.042 A 
HETATM   36 CL2  UNL     1      43.286  18.339  35.801  1.00  0.00    -0.084 Cl
ENDBRANCH  28  29
ENDBRANCH  27  28
ENDBRANCH  25  27
ENDBRANCH   9  25
BRANCH   5  37
HETATM   37  C11 UNL     1      41.133  23.792  37.169  1.00  0.00     0.140 C 
BRANCH  37  38
HETATM   38  C12 UNL     1      40.309  24.824  37.916  1.00  0.00     0.051 C 
BRANCH  38  39
HETATM   39  C13 UNL     1      41.040  25.076  39.239  1.00  0.00     0.224 C 
HETATM   40  F1  UNL     1      40.252  25.817  40.097  1.00  0.00    -0.255 F 
ENDBRANCH  38  39
ENDBRANCH  37  38
ENDBRANCH   5  37
TORSDOF 14
ENDMDL
