MODEL 1
REMARK VINA RESULT: -7.332529590      0.000      0.000
REMARK  11 active torsions:
REMARK  status: ('A' for Active; 'I' for Inactive)
REMARK    1  A    between atoms: N1_2  and  C2_5 
REMARK    2  A    between atoms: C2_5  and  C4_7 
REMARK       I    between atoms: C4_7  and  N2_9 
REMARK    3  A    between atoms: N2_9  and  C5_11 
REMARK    4  A    between atoms: C5_11  and  C6_12 
REMARK    5  A    between atoms: C5_11  and  C26_40 
REMARK       I    between atoms: C6_12  and  N3_14 
REMARK    6  A    between atoms: N3_14  and  C7_16 
REMARK    7  A    between atoms: C7_16  and  C8_17 
REMARK    8  A    between atoms: C14_25  and  C15_26 
REMARK    9  A    between atoms: C15_26  and  C16_27 
REMARK   10  A    between atoms: C23_34  and  C24_35 
REMARK   11  A    between atoms: C24_35  and  C25_36 
ROOT
HETATM    1  C7  UNL     1      -0.162  31.853  64.892  1.00  0.00     0.094 C 
HETATM    2  C14 UNL     1      -1.463  31.744  64.122  1.00  0.00    -0.029 C 
HETATM    3  C19 UNL     1      -1.600  30.322  64.031  1.00  0.00     0.006 C 
HETATM    4  C20 UNL     1      -1.434  29.378  64.193  1.00  0.00    -0.026 C 
HETATM    5  C21 UNL     1      -0.812  28.265  64.693  1.00  0.00     0.027 C 
HETATM    6  C22 UNL     1       0.438  29.238  65.234  1.00  0.00     0.012 C 
HETATM    7  C23 UNL     1       0.008  30.551  65.703  1.00  0.00     0.028 C 
ENDROOT
BRANCH   1   8
HETATM    8  N3  UNL     1      -0.280  32.899  65.919  1.00  0.00    -0.341 N 
HETATM    9  C6  UNL     1      -0.305  34.283  65.704  1.00  0.00     0.242 C 
HETATM   10  O2  UNL     1      -0.229  34.889  64.607  1.00  0.00    -0.271 OA
ATOM     11  H3  UNL     1      -0.350  32.584  66.887  1.00  0.00     0.164 HD
BRANCH   9  12
HETATM   12  C5  UNL     1      -0.450  35.205  66.878  1.00  0.00     0.180 C 
BRANCH  12  13
HETATM   13  N2  UNL     1       0.283  34.725  68.033  1.00  0.00    -0.346 N 
HETATM   14  C4  UNL     1       1.488  35.349  68.431  1.00  0.00     0.248 C 
HETATM   15  O1  UNL     1       1.953  36.344  67.793  1.00  0.00    -0.271 OA
ATOM     16  H2  UNL     1      -0.073  33.931  68.563  1.00  0.00     0.163 HD
BRANCH  14  17
HETATM   17  C2  UNL     1       2.215  34.826  69.610  1.00  0.00     0.272 C 
HETATM   18  C3  UNL     1       2.847  33.496  69.334  1.00  0.00     0.050 C 
BRANCH  17  19
HETATM   19  N1  UNL     1       1.380  34.841  70.798  1.00  0.00    -0.067 N 
HETATM   20  C1  UNL     1       1.307  36.197  71.278  1.00  0.00     0.267 C 
ATOM     21  H12 UNL     1       1.701  34.188  71.513  1.00  0.00     0.277 HD
ATOM     22  H11 UNL     1       0.460  34.430  70.639  1.00  0.00     0.277 HD
ENDBRANCH  17  19
ENDBRANCH  14  17
ENDBRANCH  12  13
BRANCH  12  23
HETATM   23  C26 UNL     1      -1.874  35.355  67.336  1.00  0.00     0.009 C 
HETATM   24  C27 UNL     1      -2.146  34.481  68.563  1.00  0.00     0.012 C 
HETATM   25  C28 UNL     1      -2.277  36.758  67.605  1.00  0.00     0.012 C 
ENDBRANCH  12  23
ENDBRANCH   9  12
ENDBRANCH   1   8
BRANCH   1  26
HETATM   26  C8  UNL     1       1.064  32.267  64.177  1.00  0.00     0.017 A 
HETATM   27  C9  UNL     1       1.133  32.540  62.821  1.00  0.00     0.013 A 
HETATM   28  C10 UNL     1       2.302  32.886  62.199  1.00  0.00     0.004 A 
HETATM   29  C11 UNL     1       3.485  32.978  62.893  1.00  0.00     0.045 A 
HETATM   30  C12 UNL     1       3.439  32.707  64.241  1.00  0.00     0.155 A 
HETATM   31  F1  UNL     1       4.612  32.791  64.962  1.00  0.00    -0.203 F 
HETATM   32  C13 UNL     1       2.253  32.358  64.864  1.00  0.00     0.164 A 
HETATM   33  F2  UNL     1       2.391  32.074  66.186  1.00  0.00    -0.202 F 
ENDBRANCH   1  26
BRANCH   2  34
HETATM   34  C15 UNL     1      -2.360  32.461  63.352  1.00  0.00    -0.013 C 
BRANCH  34  35
HETATM   35  C16 UNL     1      -3.642  33.089  63.918  1.00  0.00     0.000 C 
HETATM   36  C17 UNL     1      -3.484  34.597  63.954  1.00  0.00     0.013 C 
HETATM   37  C18 UNL     1      -3.708  32.689  65.404  1.00  0.00     0.013 C 
ENDBRANCH  34  35
ENDBRANCH   2  34
BRANCH   7  38
HETATM   38  C24 UNL     1      -1.002  30.437  66.798  1.00  0.00     0.051 C 
BRANCH  38  39
HETATM   39  C25 UNL     1      -0.345  30.262  68.109  1.00  0.00     0.053 C 
HETATM   40  N4  UNL     1       0.029  31.281  68.766  1.00  0.00    -0.411 N 
ATOM     41  H42 UNL     1      -0.130  32.210  68.377  1.00  0.00     0.155 HD
ATOM     42  H41 UNL     1       0.483  31.159  69.672  1.00  0.00     0.155 HD
ENDBRANCH  38  39
ENDBRANCH   7  38
TORSDOF 11
ENDMDL
MODEL 2
REMARK VINA RESULT: -7.285809663      2.679      6.512
REMARK  11 active torsions:
REMARK  status: ('A' for Active; 'I' for Inactive)
REMARK    1  A    between atoms: N1_2  and  C2_5 
REMARK    2  A    between atoms: C2_5  and  C4_7 
REMARK       I    between atoms: C4_7  and  N2_9 
REMARK    3  A    between atoms: N2_9  and  C5_11 
REMARK    4  A    between atoms: C5_11  and  C6_12 
REMARK    5  A    between atoms: C5_11  and  C26_40 
REMARK       I    between atoms: C6_12  and  N3_14 
REMARK    6  A    between atoms: N3_14  and  C7_16 
REMARK    7  A    between atoms: C7_16  and  C8_17 
REMARK    8  A    between atoms: C14_25  and  C15_26 
REMARK    9  A    between atoms: C15_26  and  C16_27 
REMARK   10  A    between atoms: C23_34  and  C24_35 
REMARK   11  A    between atoms: C24_35  and  C25_36 
ROOT
HETATM    1  C7  UNL     1       0.916  35.979  66.249  1.00  0.00     0.094 C 
HETATM    2  C14 UNL     1       2.308  35.940  65.650  1.00  0.00    -0.029 C 
HETATM    3  C19 UNL     1       3.081  36.449  66.743  1.00  0.00     0.006 C 
HETATM    4  C20 UNL     1       3.306  36.747  67.640  1.00  0.00    -0.026 C 
HETATM    5  C21 UNL     1       3.108  37.081  68.954  1.00  0.00     0.027 C 
HETATM    6  C22 UNL     1       1.457  36.962  68.710  1.00  0.00     0.012 C 
HETATM    7  C23 UNL     1       1.068  35.904  67.782  1.00  0.00     0.028 C 
ENDROOT
BRANCH   1   8
HETATM    8  N3  UNL     1       0.193  34.746  65.902  1.00  0.00    -0.341 N 
HETATM    9  C6  UNL     1      -0.268  34.376  64.632  1.00  0.00     0.242 C 
HETATM   10  O2  UNL     1      -0.157  35.020  63.560  1.00  0.00    -0.271 OA
ATOM     11  H3  UNL     1       0.009  34.094  66.664  1.00  0.00     0.164 HD
BRANCH   9  12
HETATM   12  C5  UNL     1      -0.975  33.064  64.463  1.00  0.00     0.180 C 
BRANCH  12  13
HETATM   13  N2  UNL     1      -0.382  32.024  65.279  1.00  0.00    -0.346 N 
HETATM   14  C4  UNL     1      -1.196  31.160  66.047  1.00  0.00     0.248 C 
HETATM   15  O1  UNL     1      -2.461  31.270  66.037  1.00  0.00    -0.271 OA
ATOM     16  H2  UNL     1       0.631  31.914  65.299  1.00  0.00     0.163 HD
BRANCH  14  17
HETATM   17  C2  UNL     1      -0.555  30.115  66.876  1.00  0.00     0.272 C 
HETATM   18  C3  UNL     1      -0.141  30.639  68.218  1.00  0.00     0.050 C 
BRANCH  17  19
HETATM   19  N1  UNL     1       0.513  29.445  66.156  1.00  0.00    -0.067 N 
HETATM   20  C1  UNL     1      -0.083  28.509  65.238  1.00  0.00     0.267 C 
ATOM     21  H12 UNL     1       1.193  29.008  66.777  1.00  0.00     0.277 HD
ATOM     22  H11 UNL     1       1.148  30.098  65.695  1.00  0.00     0.277 HD
ENDBRANCH  17  19
ENDBRANCH  14  17
ENDBRANCH  12  13
BRANCH  12  23
HETATM   23  C26 UNL     1      -0.927  32.549  63.051  1.00  0.00     0.009 C 
HETATM   24  C27 UNL     1       0.201  31.527  62.883  1.00  0.00     0.012 C 
HETATM   25  C28 UNL     1      -2.211  31.979  62.573  1.00  0.00     0.012 C 
ENDBRANCH  12  23
ENDBRANCH   9  12
ENDBRANCH   1   8
BRANCH   1  26
HETATM   26  C8  UNL     1      -0.031  37.022  65.800  1.00  0.00     0.017 A 
HETATM   27  C9  UNL     1       0.277  38.038  64.909  1.00  0.00     0.013 A 
HETATM   28  C10 UNL     1      -0.627  39.001  64.552  1.00  0.00     0.004 A 
HETATM   29  C11 UNL     1      -1.900  39.016  65.067  1.00  0.00     0.045 A 
HETATM   30  C12 UNL     1      -2.226  38.019  65.956  1.00  0.00     0.155 A 
HETATM   31  F1  UNL     1      -3.499  38.011  66.489  1.00  0.00    -0.203 F 
HETATM   32  C13 UNL     1      -1.307  37.047  66.313  1.00  0.00     0.164 A 
HETATM   33  F2  UNL     1      -1.772  36.166  67.239  1.00  0.00    -0.202 F 
ENDBRANCH   1  26
BRANCH   2  34
HETATM   34  C15 UNL     1       3.002  35.816  64.461  1.00  0.00    -0.013 C 
BRANCH  34  35
HETATM   35  C16 UNL     1       3.681  34.513  64.014  1.00  0.00     0.000 C 
HETATM   36  C17 UNL     1       3.044  34.035  62.723  1.00  0.00     0.013 C 
HETATM   37  C18 UNL     1       3.283  33.436  65.041  1.00  0.00     0.013 C 
ENDBRANCH  34  35
ENDBRANCH   2  34
BRANCH   7  38
HETATM   38  C24 UNL     1       1.571  34.570  68.231  1.00  0.00     0.051 C 
BRANCH  38  39
HETATM   39  C25 UNL     1       0.971  34.186  69.525  1.00  0.00     0.053 C 
HETATM   40  N4  UNL     1       1.715  33.758  70.460  1.00  0.00    -0.411 N 
ATOM     41  H42 UNL     1       2.720  33.687  70.302  1.00  0.00     0.155 HD
ATOM     42  H41 UNL     1       1.301  33.493  71.353  1.00  0.00     0.155 HD
ENDBRANCH  38  39
ENDBRANCH   7  38
TORSDOF 11
ENDMDL
MODEL 3
REMARK VINA RESULT: -7.279994166      1.320      1.832
REMARK  11 active torsions:
REMARK  status: ('A' for Active; 'I' for Inactive)
REMARK    1  A    between atoms: N1_2  and  C2_5 
REMARK    2  A    between atoms: C2_5  and  C4_7 
REMARK       I    between atoms: C4_7  and  N2_9 
REMARK    3  A    between atoms: N2_9  and  C5_11 
REMARK    4  A    between atoms: C5_11  and  C6_12 
REMARK    5  A    between atoms: C5_11  and  C26_40 
REMARK       I    between atoms: C6_12  and  N3_14 
REMARK    6  A    between atoms: N3_14  and  C7_16 
REMARK    7  A    between atoms: C7_16  and  C8_17 
REMARK    8  A    between atoms: C14_25  and  C15_26 
REMARK    9  A    between atoms: C15_26  and  C16_27 
REMARK   10  A    between atoms: C23_34  and  C24_35 
REMARK   11  A    between atoms: C24_35  and  C25_36 
ROOT
HETATM    1  C7  UNL     1       0.210  31.927  65.083  1.00  0.00     0.094 C 
HETATM    2  C14 UNL     1      -0.542  31.756  63.778  1.00  0.00    -0.029 C 
HETATM    3  C19 UNL     1      -0.774  30.343  63.789  1.00  0.00     0.006 C 
HETATM    4  C20 UNL     1      -0.818  29.429  64.116  1.00  0.00    -0.026 C 
HETATM    5  C21 UNL     1      -0.655  28.381  64.982  1.00  0.00     0.027 C 
HETATM    6  C22 UNL     1       0.264  29.372  65.969  1.00  0.00     0.012 C 
HETATM    7  C23 UNL     1      -0.192  30.759  66.007  1.00  0.00     0.028 C 
ENDROOT
BRANCH   1   8
HETATM    8  N3  UNL     1      -0.283  33.122  65.785  1.00  0.00    -0.341 N 
HETATM    9  C6  UNL     1      -0.152  34.452  65.366  1.00  0.00     0.242 C 
HETATM   10  O2  UNL     1       0.407  34.875  64.324  1.00  0.00    -0.271 OA
ATOM     11  H3  UNL     1      -0.769  32.966  66.668  1.00  0.00     0.164 HD
BRANCH   9  12
HETATM   12  C5  UNL     1      -0.737  35.547  66.208  1.00  0.00     0.180 C 
BRANCH  12  13
HETATM   13  N2  UNL     1      -0.788  35.179  67.609  1.00  0.00    -0.346 N 
HETATM   14  C4  UNL     1      -0.083  35.932  68.576  1.00  0.00     0.248 C 
HETATM   15  O1  UNL     1       0.604  36.948  68.245  1.00  0.00    -0.271 OA
ATOM     16  H2  UNL     1      -1.337  34.371  67.899  1.00  0.00     0.163 HD
BRANCH  14  17
HETATM   17  C2  UNL     1      -0.151  35.522  69.997  1.00  0.00     0.272 C 
HETATM   18  C3  UNL     1       0.523  36.512  70.898  1.00  0.00     0.050 C 
BRANCH  17  19
HETATM   19  N1  UNL     1       0.310  34.157  70.180  1.00  0.00    -0.067 N 
HETATM   20  C1  UNL     1       1.750  34.163  70.147  1.00  0.00     0.267 C 
ATOM     21  H12 UNL     1      -0.097  33.511  69.505  1.00  0.00     0.277 HD
ATOM     22  H11 UNL     1      -0.062  33.725  71.026  1.00  0.00     0.277 HD
ENDBRANCH  17  19
ENDBRANCH  14  17
ENDBRANCH  12  13
BRANCH  12  23
HETATM   23  C26 UNL     1      -2.150  35.891  65.827  1.00  0.00     0.009 C 
HETATM   24  C27 UNL     1      -3.148  35.037  66.614  1.00  0.00     0.012 C 
HETATM   25  C28 UNL     1      -2.480  37.330  65.969  1.00  0.00     0.012 C 
ENDBRANCH  12  23
ENDBRANCH   9  12
ENDBRANCH   1   8
BRANCH   1  26
HETATM   26  C8  UNL     1       1.667  32.177  65.046  1.00  0.00     0.017 A 
HETATM   27  C9  UNL     1       2.429  32.236  63.890  1.00  0.00     0.013 A 
HETATM   28  C10 UNL     1       3.783  32.435  63.913  1.00  0.00     0.004 A 
HETATM   29  C11 UNL     1       4.468  32.584  65.094  1.00  0.00     0.045 A 
HETATM   30  C12 UNL     1       3.730  32.524  66.254  1.00  0.00     0.155 A 
HETATM   31  F1  UNL     1       4.393  32.670  67.455  1.00  0.00    -0.203 F 
HETATM   32  C13 UNL     1       2.361  32.324  66.225  1.00  0.00     0.164 A 
HETATM   33  F2  UNL     1       1.793  32.240  67.457  1.00  0.00    -0.202 F 
ENDBRANCH   1  26
BRANCH   2  34
HETATM   34  C15 UNL     1      -0.853  32.383  62.585  1.00  0.00    -0.013 C 
BRANCH  34  35
HETATM   35  C16 UNL     1      -2.080  33.288  62.405  1.00  0.00     0.000 C 
HETATM   36  C17 UNL     1      -3.117  32.938  63.455  1.00  0.00     0.013 C 
HETATM   37  C18 UNL     1      -2.742  32.871  61.078  1.00  0.00     0.013 C 
ENDBRANCH  34  35
ENDBRANCH   2  34
BRANCH   7  38
HETATM   38  C24 UNL     1      -1.617  30.855  66.445  1.00  0.00     0.051 C 
BRANCH  38  39
HETATM   39  C25 UNL     1      -1.720  30.854  67.918  1.00  0.00     0.053 C 
HETATM   40  N4  UNL     1      -2.082  31.908  68.523  1.00  0.00    -0.411 N 
ATOM     41  H42 UNL     1      -2.298  32.744  67.981  1.00  0.00     0.155 HD
ATOM     42  H41 UNL     1      -2.154  31.907  69.541  1.00  0.00     0.155 HD
ENDBRANCH  38  39
ENDBRANCH   7  38
TORSDOF 11
ENDMDL
MODEL 4
REMARK VINA RESULT: -7.235160617      1.712      2.819
REMARK  11 active torsions:
REMARK  status: ('A' for Active; 'I' for Inactive)
REMARK    1  A    between atoms: N1_2  and  C2_5 
REMARK    2  A    between atoms: C2_5  and  C4_7 
REMARK       I    between atoms: C4_7  and  N2_9 
REMARK    3  A    between atoms: N2_9  and  C5_11 
REMARK    4  A    between atoms: C5_11  and  C6_12 
REMARK    5  A    between atoms: C5_11  and  C26_40 
REMARK       I    between atoms: C6_12  and  N3_14 
REMARK    6  A    between atoms: N3_14  and  C7_16 
REMARK    7  A    between atoms: C7_16  and  C8_17 
REMARK    8  A    between atoms: C14_25  and  C15_26 
REMARK    9  A    between atoms: C15_26  and  C16_27 
REMARK   10  A    between atoms: C23_34  and  C24_35 
REMARK   11  A    between atoms: C24_35  and  C25_36 
ROOT
HETATM    1  C7  UNL     1      -0.203  31.984  64.884  1.00  0.00     0.094 C 
HETATM    2  C14 UNL     1      -1.524  31.840  64.156  1.00  0.00    -0.029 C 
HETATM    3  C19 UNL     1      -1.661  30.415  64.132  1.00  0.00     0.006 C 
HETATM    4  C20 UNL     1      -1.489  29.479  64.331  1.00  0.00    -0.026 C 
HETATM    5  C21 UNL     1      -0.851  28.390  64.863  1.00  0.00     0.027 C 
HETATM    6  C22 UNL     1       0.412  29.387  65.326  1.00  0.00     0.012 C 
HETATM    7  C23 UNL     1      -0.009  30.720  65.747  1.00  0.00     0.028 C 
ENDROOT
BRANCH   1   8
HETATM    8  N3  UNL     1      -0.295  33.074  65.867  1.00  0.00    -0.341 N 
HETATM    9  C6  UNL     1      -0.326  34.448  65.591  1.00  0.00     0.242 C 
HETATM   10  O2  UNL     1      -0.277  35.004  64.467  1.00  0.00    -0.271 OA
ATOM     11  H3  UNL     1      -0.342  32.803  66.849  1.00  0.00     0.164 HD
BRANCH   9  12
HETATM   12  C5  UNL     1      -0.441  35.421  66.727  1.00  0.00     0.180 C 
BRANCH  12  13
HETATM   13  N2  UNL     1      -0.323  36.792  66.275  1.00  0.00    -0.346 N 
HETATM   14  C4  UNL     1      -1.429  37.670  66.343  1.00  0.00     0.248 C 
HETATM   15  O1  UNL     1      -2.547  37.283  66.805  1.00  0.00    -0.271 OA
ATOM     16  H2  UNL     1       0.566  37.127  65.905  1.00  0.00     0.163 HD
BRANCH  14  17
HETATM   17  C2  UNL     1      -1.274  39.063  65.864  1.00  0.00     0.272 C 
HETATM   18  C3  UNL     1      -0.607  39.123  64.523  1.00  0.00     0.050 C 
BRANCH  17  19
HETATM   19  N1  UNL     1      -0.645  39.903  66.867  1.00  0.00    -0.067 N 
HETATM   20  C1  UNL     1      -1.652  40.774  67.417  1.00  0.00     0.267 C 
ATOM     21  H12 UNL     1       0.160  40.413  66.505  1.00  0.00     0.277 HD
ATOM     22  H11 UNL     1      -0.157  39.365  67.583  1.00  0.00     0.277 HD
ENDBRANCH  17  19
ENDBRANCH  14  17
ENDBRANCH  12  13
BRANCH  12  23
HETATM   23  C26 UNL     1       0.631  35.242  67.766  1.00  0.00     0.009 C 
HETATM   24  C27 UNL     1       2.004  35.618  67.200  1.00  0.00     0.012 C 
HETATM   25  C28 UNL     1       0.376  35.977  69.029  1.00  0.00     0.012 C 
ENDBRANCH  12  23
ENDBRANCH   9  12
ENDBRANCH   1   8
BRANCH   1  26
HETATM   26  C8  UNL     1       1.002  32.367  64.118  1.00  0.00     0.017 A 
HETATM   27  C9  UNL     1       1.038  32.559  62.747  1.00  0.00     0.013 A 
HETATM   28  C10 UNL     1       2.189  32.879  62.080  1.00  0.00     0.004 A 
HETATM   29  C11 UNL     1       3.385  33.024  62.740  1.00  0.00     0.045 A 
HETATM   30  C12 UNL     1       3.373  32.834  64.103  1.00  0.00     0.155 A 
HETATM   31  F1  UNL     1       4.560  32.974  64.791  1.00  0.00    -0.203 F 
HETATM   32  C13 UNL     1       2.205  32.511  64.772  1.00  0.00     0.164 A 
HETATM   33  F2  UNL     1       2.375  32.308  66.105  1.00  0.00    -0.202 F 
ENDBRANCH   1  26
BRANCH   2  34
HETATM   34  C15 UNL     1      -2.444  32.520  63.379  1.00  0.00    -0.013 C 
BRANCH  34  35
HETATM   35  C16 UNL     1      -3.719  33.157  63.949  1.00  0.00     0.000 C 
HETATM   36  C17 UNL     1      -3.555  34.665  63.978  1.00  0.00     0.013 C 
HETATM   37  C18 UNL     1      -3.780  32.765  65.437  1.00  0.00     0.013 C 
ENDBRANCH  34  35
ENDBRANCH   2  34
BRANCH   7  38
HETATM   38  C24 UNL     1      -0.988  30.654  66.874  1.00  0.00     0.051 C 
BRANCH  38  39
HETATM   39  C25 UNL     1      -0.296  30.499  68.170  1.00  0.00     0.053 C 
HETATM   40  N4  UNL     1       0.090  31.529  68.802  1.00  0.00    -0.411 N 
ATOM     41  H42 UNL     1      -0.083  32.452  68.404  1.00  0.00     0.155 HD
ATOM     42  H41 UNL     1       0.568  31.422  69.698  1.00  0.00     0.155 HD
ENDBRANCH  38  39
ENDBRANCH   7  38
TORSDOF 11
ENDMDL
MODEL 5
REMARK VINA RESULT: -7.232711797      2.852      7.024
REMARK  11 active torsions:
REMARK  status: ('A' for Active; 'I' for Inactive)
REMARK    1  A    between atoms: N1_2  and  C2_5 
REMARK    2  A    between atoms: C2_5  and  C4_7 
REMARK       I    between atoms: C4_7  and  N2_9 
REMARK    3  A    between atoms: N2_9  and  C5_11 
REMARK    4  A    between atoms: C5_11  and  C6_12 
REMARK    5  A    between atoms: C5_11  and  C26_40 
REMARK       I    between atoms: C6_12  and  N3_14 
REMARK    6  A    between atoms: N3_14  and  C7_16 
REMARK    7  A    between atoms: C7_16  and  C8_17 
REMARK    8  A    between atoms: C14_25  and  C15_26 
REMARK    9  A    between atoms: C15_26  and  C16_27 
REMARK   10  A    between atoms: C23_34  and  C24_35 
REMARK   11  A    between atoms: C24_35  and  C25_36 
ROOT
HETATM    1  C7  UNL     1      -0.806  37.539  67.706  1.00  0.00     0.094 C 
HETATM    2  C14 UNL     1      -1.945  37.497  68.705  1.00  0.00    -0.029 C 
HETATM    3  C19 UNL     1      -2.452  38.831  68.585  1.00  0.00     0.006 C 
HETATM    4  C20 UNL     1      -2.581  39.730  68.238  1.00  0.00    -0.026 C 
HETATM    5  C21 UNL     1      -2.378  40.824  67.440  1.00  0.00     0.027 C 
HETATM    6  C22 UNL     1      -1.012  40.085  66.816  1.00  0.00     0.012 C 
HETATM    7  C23 UNL     1      -1.134  38.637  66.673  1.00  0.00     0.028 C 
ENDROOT
BRANCH   1   8
HETATM    8  N3  UNL     1      -0.795  36.299  66.915  1.00  0.00    -0.341 N 
HETATM    9  C6  UNL     1      -0.534  35.007  67.390  1.00  0.00     0.242 C 
HETATM   10  O2  UNL     1      -0.260  34.664  68.566  1.00  0.00    -0.271 OA
ATOM     11  H3  UNL     1      -0.998  36.389  65.920  1.00  0.00     0.164 HD
BRANCH   9  12
HETATM   12  C5  UNL     1      -0.585  33.851  66.434  1.00  0.00     0.180 C 
BRANCH  12  13
HETATM   13  N2  UNL     1      -0.249  34.254  65.084  1.00  0.00    -0.346 N 
HETATM   14  C4  UNL     1       0.829  33.648  64.399  1.00  0.00     0.248 C 
HETATM   15  O1  UNL     1       1.523  32.735  64.945  1.00  0.00    -0.271 OA
ATOM     16  H2  UNL     1      -0.795  34.982  64.623  1.00  0.00     0.163 HD
BRANCH  14  17
HETATM   17  C2  UNL     1       1.149  34.091  63.023  1.00  0.00     0.272 C 
HETATM   18  C3  UNL     1       2.273  33.299  62.427  1.00  0.00     0.050 C 
BRANCH  17  19
HETATM   19  N1  UNL     1       1.349  35.528  62.960  1.00  0.00    -0.067 N 
HETATM   20  C1  UNL     1       2.649  35.824  63.505  1.00  0.00     0.267 C 
ATOM     21  H12 UNL     1       0.603  36.050  63.418  1.00  0.00     0.277 HD
ATOM     22  H11 UNL     1       1.222  35.903  62.019  1.00  0.00     0.277 HD
ENDBRANCH  17  19
ENDBRANCH  14  17
ENDBRANCH  12  13
BRANCH  12  23
HETATM   23  C26 UNL     1      -1.948  33.223  66.343  1.00  0.00     0.009 C 
HETATM   24  C27 UNL     1      -2.775  33.878  65.234  1.00  0.00     0.012 C 
HETATM   25  C28 UNL     1      -1.922  31.750  66.164  1.00  0.00     0.012 C 
ENDBRANCH  12  23
ENDBRANCH   9  12
ENDBRANCH   1   8
BRANCH   1  26
HETATM   26  C8  UNL     1       0.585  37.593  68.204  1.00  0.00     0.017 A 
HETATM   27  C9  UNL     1       0.943  37.643  69.541  1.00  0.00     0.013 A 
HETATM   28  C10 UNL     1       2.247  37.728  69.950  1.00  0.00     0.004 A 
HETATM   29  C11 UNL     1       3.281  37.773  69.046  1.00  0.00     0.045 A 
HETATM   30  C12 UNL     1       2.947  37.728  67.713  1.00  0.00     0.155 A 
HETATM   31  F1  UNL     1       3.966  37.772  66.784  1.00  0.00    -0.203 F 
HETATM   32  C13 UNL     1       1.626  37.641  67.306  1.00  0.00     0.164 A 
HETATM   33  F2  UNL     1       1.466  37.658  65.956  1.00  0.00    -0.202 F 
ENDBRANCH   1  26
BRANCH   2  34
HETATM   34  C15 UNL     1      -2.475  36.771  69.755  1.00  0.00    -0.013 C 
BRANCH  34  35
HETATM   35  C16 UNL     1      -3.489  35.633  69.566  1.00  0.00     0.000 C 
HETATM   36  C17 UNL     1      -4.162  35.784  68.215  1.00  0.00     0.013 C 
HETATM   37  C18 UNL     1      -4.625  35.885  70.574  1.00  0.00     0.013 C 
ENDBRANCH  34  35
ENDBRANCH   2  34
BRANCH   7  38
HETATM   38  C24 UNL     1      -2.298  38.268  65.813  1.00  0.00     0.051 C 
BRANCH  38  39
HETATM   39  C25 UNL     1      -1.933  38.302  64.382  1.00  0.00     0.053 C 
HETATM   40  N4  UNL     1      -1.926  37.226  63.710  1.00  0.00    -0.411 N 
ATOM     41  H42 UNL     1      -2.174  36.350  64.170  1.00  0.00     0.155 HD
ATOM     42  H41 UNL     1      -1.673  37.250  62.722  1.00  0.00     0.155 HD
ENDBRANCH  38  39
ENDBRANCH   7  38
TORSDOF 11
ENDMDL
