MODEL 1
REMARK VINA RESULT: -5.736789975      0.000      0.000
REMARK  3 active torsions:
REMARK  status: ('A' for Active; 'I' for Inactive)
REMARK    1  A    between atoms: O1_1  and  C1_3 
REMARK    2  A    between atoms: C3_5  and  O2_6 
REMARK    3  A    between atoms: C5_9  and  O3_10 
ROOT
HETATM    1  C1  UNL     1      12.784  15.293  17.556  1.00  0.00     0.120 C 
HETATM    2  C2  UNL     1      13.203  14.914  18.923  1.00  0.00     0.064 C 
HETATM    3  C3  UNL     1      14.691  14.992  19.170  1.00  0.00     0.127 C 
HETATM    4  C4  UNL     1      15.176  16.316  18.694  1.00  0.00     0.047 C 
HETATM    5  C5  UNL     1      16.620  16.583  18.873  1.00  0.00     0.125 C 
HETATM    6  C6  UNL     1      17.028  17.421  17.672  1.00  0.00     0.032 C 
HETATM    7  C7  UNL     1      15.807  17.484  16.767  1.00  0.00     0.008 C 
HETATM    8  C8  UNL     1      15.022  16.303  17.185  1.00  0.00    -0.003 C 
HETATM    9  C9  UNL     1      13.563  16.357  16.891  1.00  0.00     0.037 C 
ENDROOT
BRANCH   1  10
HETATM   10  O1  UNL     1      12.734  14.173  16.694  1.00  0.00    -0.395 OA
ATOM     11  H1  UNL     1      13.477  13.595  16.824  1.00  0.00     0.210 HD
ENDBRANCH   1  10
BRANCH   3  12
HETATM   12  O2  UNL     1      15.276  13.936  18.477  1.00  0.00    -0.395 OA
ATOM     13  H2  UNL     1      16.202  14.132  18.400  1.00  0.00     0.210 HD
ENDBRANCH   3  12
BRANCH   5  14
HETATM   14  O3  UNL     1      16.840  17.348  20.041  1.00  0.00    -0.395 OA
ATOM     15  H3  UNL     1      16.374  18.174  19.989  1.00  0.00     0.210 HD
ENDBRANCH   5  14
TORSDOF 3
ENDMDL
MODEL 2
REMARK VINA RESULT: -5.644805109      1.891      2.913
REMARK  3 active torsions:
REMARK  status: ('A' for Active; 'I' for Inactive)
REMARK    1  A    between atoms: O1_1  and  C1_3 
REMARK    2  A    between atoms: C3_5  and  O2_6 
REMARK    3  A    between atoms: C5_9  and  O3_10 
ROOT
HETATM    1  C1  UNL     1      14.307  16.410  15.640  1.00  0.00     0.120 C 
HETATM    2  C2  UNL     1      12.883  16.179  15.968  1.00  0.00     0.064 C 
HETATM    3  C3  UNL     1      12.638  15.630  17.354  1.00  0.00     0.127 C 
HETATM    4  C4  UNL     1      13.393  16.465  18.328  1.00  0.00     0.047 C 
HETATM    5  C5  UNL     1      13.257  16.088  19.751  1.00  0.00     0.125 C 
HETATM    6  C6  UNL     1      14.610  16.382  20.379  1.00  0.00     0.032 C 
HETATM    7  C7  UNL     1      15.524  16.794  19.236  1.00  0.00     0.008 C 
HETATM    8  C8  UNL     1      14.863  16.207  18.051  1.00  0.00    -0.003 C 
HETATM    9  C9  UNL     1      15.183  16.846  16.745  1.00  0.00     0.037 C 
ENDROOT
BRANCH   1  10
HETATM   10  O1  UNL     1      14.893  15.279  15.027  1.00  0.00    -0.395 OA
ATOM     11  H1  UNL     1      14.819  15.313  14.080  1.00  0.00     0.210 HD
ENDBRANCH   1  10
BRANCH   3  12
HETATM   12  O2  UNL     1      13.064  14.306  17.352  1.00  0.00    -0.395 OA
ATOM     13  H2  UNL     1      12.866  13.947  18.209  1.00  0.00     0.210 HD
ENDBRANCH   3  12
BRANCH   5  14
HETATM   14  O3  UNL     1      12.289  16.898  20.387  1.00  0.00    -0.395 OA
ATOM     15  H3  UNL     1      12.013  16.504  21.206  1.00  0.00     0.210 HD
ENDBRANCH   5  14
TORSDOF 3
ENDMDL
MODEL 3
REMARK VINA RESULT: -5.623483276      1.322      1.801
REMARK  3 active torsions:
REMARK  status: ('A' for Active; 'I' for Inactive)
REMARK    1  A    between atoms: O1_1  and  C1_3 
REMARK    2  A    between atoms: C3_5  and  O2_6 
REMARK    3  A    between atoms: C5_9  and  O3_10 
ROOT
HETATM    1  C1  UNL     1      13.987  16.116  16.460  1.00  0.00     0.120 C 
HETATM    2  C2  UNL     1      13.155  15.500  17.517  1.00  0.00     0.064 C 
HETATM    3  C3  UNL     1      13.910  15.116  18.768  1.00  0.00     0.127 C 
HETATM    4  C4  UNL     1      14.731  16.283  19.195  1.00  0.00     0.047 C 
HETATM    5  C5  UNL     1      15.530  16.099  20.426  1.00  0.00     0.125 C 
HETATM    6  C6  UNL     1      16.806  16.896  20.202  1.00  0.00     0.032 C 
HETATM    7  C7  UNL     1      16.742  17.399  18.768  1.00  0.00     0.008 C 
HETATM    8  C8  UNL     1      15.794  16.462  18.128  1.00  0.00    -0.003 C 
HETATM    9  C9  UNL     1      15.109  16.967  16.906  1.00  0.00     0.037 C 
ENDROOT
BRANCH   1  10
HETATM   10  O1  UNL     1      14.492  15.149  15.561  1.00  0.00    -0.395 OA
ATOM     11  H1  UNL     1      14.394  15.424  14.656  1.00  0.00     0.210 HD
ENDBRANCH   1  10
BRANCH   3  12
HETATM   12  O2  UNL     1      14.691  14.010  18.452  1.00  0.00    -0.395 OA
ATOM     13  H2  UNL     1      15.568  14.185  18.773  1.00  0.00     0.210 HD
ENDBRANCH   3  12
BRANCH   5  14
HETATM   14  O3  UNL     1      14.857  16.649  21.540  1.00  0.00    -0.395 OA
ATOM     15  H3  UNL     1      15.213  16.301  22.349  1.00  0.00     0.210 HD
ENDBRANCH   5  14
TORSDOF 3
ENDMDL
MODEL 4
REMARK VINA RESULT: -5.616936297      2.131      4.231
REMARK  3 active torsions:
REMARK  status: ('A' for Active; 'I' for Inactive)
REMARK    1  A    between atoms: O1_1  and  C1_3 
REMARK    2  A    between atoms: C3_5  and  O2_6 
REMARK    3  A    between atoms: C5_9  and  O3_10 
ROOT
HETATM    1  C1  UNL     1      17.353  17.430  18.879  1.00  0.00     0.120 C 
HETATM    2  C2  UNL     1      16.319  17.186  17.850  1.00  0.00     0.064 C 
HETATM    3  C3  UNL     1      15.188  16.288  18.293  1.00  0.00     0.127 C 
HETATM    4  C4  UNL     1      14.685  16.782  19.604  1.00  0.00     0.047 C 
HETATM    5  C5  UNL     1      13.553  16.032  20.190  1.00  0.00     0.125 C 
HETATM    6  C6  UNL     1      13.776  16.074  21.694  1.00  0.00     0.032 C 
HETATM    7  C7  UNL     1      15.126  16.743  21.901  1.00  0.00     0.008 C 
HETATM    8  C8  UNL     1      15.801  16.540  20.602  1.00  0.00    -0.003 C 
HETATM    9  C9  UNL     1      16.894  17.499  20.281  1.00  0.00     0.037 C 
ENDROOT
BRANCH   1  10
HETATM   10  O1  UNL     1      18.403  16.486  18.802  1.00  0.00    -0.395 OA
ATOM     11  H1  UNL     1      18.151  15.720  18.298  1.00  0.00     0.210 HD
ENDBRANCH   1  10
BRANCH   3  12
HETATM   12  O2  UNL     1      15.701  14.997  18.378  1.00  0.00    -0.395 OA
ATOM     13  H2  UNL     1      14.960  14.405  18.426  1.00  0.00     0.210 HD
ENDBRANCH   3  12
BRANCH   5  14
HETATM   14  O3  UNL     1      12.330  16.679  19.906  1.00  0.00    -0.395 OA
ATOM     15  H3  UNL     1      12.211  16.768  18.968  1.00  0.00     0.210 HD
ENDBRANCH   5  14
TORSDOF 3
ENDMDL
MODEL 5
REMARK VINA RESULT: -5.544962553      2.119      3.229
REMARK  3 active torsions:
REMARK  status: ('A' for Active; 'I' for Inactive)
REMARK    1  A    between atoms: O1_1  and  C1_3 
REMARK    2  A    between atoms: C3_5  and  O2_6 
REMARK    3  A    between atoms: C5_9  and  O3_10 
ROOT
HETATM    1  C1  UNL     1      11.905  17.012  16.224  1.00  0.00     0.120 C 
HETATM    2  C2  UNL     1      12.875  16.171  15.488  1.00  0.00     0.064 C 
HETATM    3  C3  UNL     1      14.195  15.967  16.194  1.00  0.00     0.127 C 
HETATM    4  C4  UNL     1      13.915  15.547  17.594  1.00  0.00     0.047 C 
HETATM    5  C5  UNL     1      15.099  15.279  18.440  1.00  0.00     0.125 C 
HETATM    6  C6  UNL     1      14.706  15.728  19.839  1.00  0.00     0.032 C 
HETATM    7  C7  UNL     1      13.336  16.375  19.704  1.00  0.00     0.008 C 
HETATM    8  C8  UNL     1      13.281  16.746  18.274  1.00  0.00    -0.003 C 
HETATM    9  C9  UNL     1      11.918  16.909  17.698  1.00  0.00     0.037 C 
ENDROOT
BRANCH   1  10
HETATM   10  O1  UNL     1      12.022  18.376  15.873  1.00  0.00    -0.395 OA
ATOM     11  H1  UNL     1      11.503  18.588  15.105  1.00  0.00     0.210 HD
ENDBRANCH   1  10
BRANCH   3  12
HETATM   12  O2  UNL     1      14.883  17.175  16.132  1.00  0.00    -0.395 OA
ATOM     13  H2  UNL     1      15.629  17.042  15.559  1.00  0.00     0.210 HD
ENDBRANCH   3  12
BRANCH   5  14
HETATM   14  O3  UNL     1      15.373  13.893  18.482  1.00  0.00    -0.395 OA
ATOM     15  H3  UNL     1      14.862  13.474  19.165  1.00  0.00     0.210 HD
ENDBRANCH   5  14
TORSDOF 3
ENDMDL
