MODEL 1
REMARK VINA RESULT: -8.654984031      0.000      0.000
REMARK  18 active torsions:
REMARK  status: ('A' for Active; 'I' for Inactive)
REMARK    1  A    between atoms: C1_2  and  C2_3 
REMARK    2  A    between atoms: C2_3  and  N1_4 
REMARK    3  A    between atoms: N1_4  and  C3_5 
REMARK    4  A    between atoms: N1_4  and  C4_7 
REMARK    5  A    between atoms: C4_7  and  C5_8 
REMARK    6  A    between atoms: C5_8  and  C6_9 
REMARK    7  A    between atoms: C6_9  and  N2_10 
REMARK    8  A    between atoms: N2_10  and  C7_12 
REMARK    9  A    between atoms: C8_15  and  N4_16 
REMARK   10  A    between atoms: N4_16  and  C9_18 
REMARK   11  A    between atoms: C9_18  and  C10_19 
REMARK   12  A    between atoms: C10_19  and  C11_20 
REMARK   13  A    between atoms: C11_20  and  N5_21 
REMARK   14  A    between atoms: N5_21  and  C12_23 
REMARK   15  A    between atoms: C19_34  and  C20_35 
REMARK   16  A    between atoms: C23_40  and  N9_41 
REMARK   17  A    between atoms: C24_43  and  C25_44 
REMARK   18  A    between atoms: C25_44  and  N10_45 
ROOT
HETATM    1  C7  UNL     1      35.427  -9.591   1.028  1.00  0.00     0.680 A 
HETATM    2  N3  UNL     1      35.136  -9.835  -0.257  1.00  0.00    -0.176 N 
ATOM      3  H3  UNL     1      35.243  -9.075  -0.929  1.00  0.00     0.186 HD
HETATM    4  C8  UNL     1      34.711 -11.023  -0.707  1.00  0.00     0.129 A 
HETATM    5  C15 UNL     1      34.563 -12.051   0.191  1.00  0.00     0.036 A 
HETATM    6  C16 UNL     1      34.119 -13.275  -0.250  1.00  0.00     0.017 A 
HETATM    7  C17 UNL     1      33.959 -14.310   0.649  1.00  0.00     0.002 A 
HETATM    8  C18 UNL     1      34.256 -14.062   1.956  1.00  0.00     0.014 A 
HETATM    9  C19 UNL     1      34.711 -12.826   2.437  1.00  0.00     0.003 A 
HETATM   10  C31 UNL     1      34.860 -11.819   1.533  1.00  0.00     0.074 A 
HETATM   11  N12 UNL     1      35.282 -10.608   1.930  1.00  0.00    -0.190 N 
ATOM     12  H12 UNL     1      35.497 -10.446   2.914  1.00  0.00     0.184 HD
ENDROOT
BRANCH   9  13
HETATM   13  C20 UNL     1      35.023 -12.734   3.863  1.00  0.00    -0.019 A 
HETATM   14  C21 UNL     1      34.064 -12.707   4.849  1.00  0.00     0.029 A 
HETATM   15  C22 UNL     1      34.395 -12.626   6.189  1.00  0.00     0.090 A 
HETATM   16  N8  UNL     1      35.694 -12.569   6.552  1.00  0.00    -0.352 N 
HETATM   17  C23 UNL     1      36.688 -12.590   5.651  1.00  0.00     0.105 A 
ATOM     18  H8  UNL     1      35.928 -12.508   7.543  1.00  0.00     0.166 HD
HETATM   19  C30 UNL     1      36.327 -12.675   4.274  1.00  0.00     0.060 A 
BRANCH  17  20
HETATM   20  N9  UNL     1      37.881 -12.541   5.931  1.00  0.00    -0.354 N 
HETATM   21  C24 UNL     1      38.996 -13.091   6.472  1.00  0.00     0.092 C 
ATOM     22  H9  UNL     1      38.187 -11.633   5.583  1.00  0.00     0.166 HD
BRANCH  21  23
HETATM   23  C25 UNL     1      38.808 -14.119   7.571  1.00  0.00     0.317 C 
BRANCH  23  24
HETATM   24  N10 UNL     1      39.537 -13.728   8.744  1.00  0.00     0.096 N 
HETATM   25  C26 UNL     1      38.815 -12.838   9.596  1.00  0.00     0.300 C 
HETATM   26  C27 UNL     1      39.530 -11.584   9.968  1.00  0.00     0.262 C 
HETATM   27  N11 UNL     1      40.895 -11.768  10.356  1.00  0.00    -0.072 N 
HETATM   28  C28 UNL     1      41.560 -12.854   9.698  1.00  0.00     0.262 C 
ATOM     29 2H11 UNL     1      41.419 -10.902  10.231  1.00  0.00     0.277 HD
ATOM     30 1H11 UNL     1      40.965 -11.870  11.369  1.00  0.00     0.277 HD
HETATM   31  C29 UNL     1      40.886 -13.312   8.450  1.00  0.00     0.300 C 
ENDBRANCH  23  24
ENDBRANCH  21  23
ENDBRANCH  17  20
ENDBRANCH   9  13
BRANCH   4  32
HETATM   32  N4  UNL     1      34.434 -11.252  -1.944  1.00  0.00    -0.375 N 
ATOM     33  H4  UNL     1      34.892 -12.051  -2.382  1.00  0.00     0.161 HD
BRANCH  32  34
HETATM   34  C9  UNL     1      33.539 -10.488  -2.760  1.00  0.00     0.123 C 
BRANCH  34  35
HETATM   35  C10 UNL     1      34.295  -9.438  -3.579  1.00  0.00     0.040 C 
BRANCH  35  36
HETATM   36  C11 UNL     1      33.818  -8.051  -3.183  1.00  0.00     0.139 C 
BRANCH  36  37
HETATM   37  N5  UNL     1      34.867  -7.332  -2.514  1.00  0.00    -0.226 N 
ATOM     38  H5  UNL     1      35.797  -7.750  -2.484  1.00  0.00     0.177 HD
BRANCH  37  39
HETATM   39  C12 UNL     1      34.694  -6.194  -1.955  1.00  0.00     0.677 A 
HETATM   40  N6  UNL     1      34.292  -5.075  -2.569  1.00  0.00    -0.201 N 
HETATM   41  C13 UNL     1      34.225  -4.070  -1.644  1.00  0.00     0.123 A 
ATOM     42  H6  UNL     1      34.071  -4.987  -3.561  1.00  0.00     0.183 HD
HETATM   43  C14 UNL     1      34.607  -4.629  -0.438  1.00  0.00     0.123 A 
HETATM   44  N7  UNL     1      34.889  -5.935  -0.658  1.00  0.00    -0.201 N 
ATOM     45  H7  UNL     1      35.197  -6.607   0.046  1.00  0.00     0.183 HD
ENDBRANCH  37  39
ENDBRANCH  36  37
ENDBRANCH  35  36
ENDBRANCH  34  35
ENDBRANCH  32  34
ENDBRANCH   4  32
BRANCH   1  46
HETATM   46  N2  UNL     1      35.836  -8.447   1.445  1.00  0.00    -0.226 N 
ATOM     47  H2  UNL     1      35.443  -7.614   1.006  1.00  0.00     0.177 HD
BRANCH  46  48
HETATM   48  C6  UNL     1      36.823  -8.255   2.505  1.00  0.00     0.143 C 
BRANCH  48  49
HETATM   49  C5  UNL     1      37.390  -6.881   2.351  1.00  0.00     0.064 C 
BRANCH  49  50
HETATM   50  C4  UNL     1      38.316  -6.603   1.257  1.00  0.00     0.061 C 
BRANCH  50  51
HETATM   51  N1  UNL     1      38.570  -5.308   0.793  1.00  0.00    -0.380 N 
BRANCH  51  52
HETATM   52  C2  UNL     1      38.305  -4.970  -0.566  1.00  0.00     0.138 C 
BRANCH  52  53
HETATM   53  C1  UNL     1      39.199  -5.709  -1.529  1.00  0.00     0.134 C 
HETATM   54 CL1  UNL     1      40.417  -4.587  -2.185  1.00  0.00    -0.129 Cl
ENDBRANCH  52  53
ENDBRANCH  51  52
BRANCH  51  55
HETATM   55  C3  UNL     1      38.112  -4.270   1.709  1.00  0.00     0.237 C 
HETATM   56 CL2  UNL     1      38.460  -2.684   0.983  1.00  0.00    -0.109 Cl
ENDBRANCH  51  55
ENDBRANCH  50  51
ENDBRANCH  49  50
ENDBRANCH  48  49
ENDBRANCH  46  48
ENDBRANCH   1  46
TORSDOF 18
ENDMDL
MODEL 2
REMARK VINA RESULT: -8.541332273      3.526     10.296
REMARK  18 active torsions:
REMARK  status: ('A' for Active; 'I' for Inactive)
REMARK    1  A    between atoms: C1_2  and  C2_3 
REMARK    2  A    between atoms: C2_3  and  N1_4 
REMARK    3  A    between atoms: N1_4  and  C3_5 
REMARK    4  A    between atoms: N1_4  and  C4_7 
REMARK    5  A    between atoms: C4_7  and  C5_8 
REMARK    6  A    between atoms: C5_8  and  C6_9 
REMARK    7  A    between atoms: C6_9  and  N2_10 
REMARK    8  A    between atoms: N2_10  and  C7_12 
REMARK    9  A    between atoms: C8_15  and  N4_16 
REMARK   10  A    between atoms: N4_16  and  C9_18 
REMARK   11  A    between atoms: C9_18  and  C10_19 
REMARK   12  A    between atoms: C10_19  and  C11_20 
REMARK   13  A    between atoms: C11_20  and  N5_21 
REMARK   14  A    between atoms: N5_21  and  C12_23 
REMARK   15  A    between atoms: C19_34  and  C20_35 
REMARK   16  A    between atoms: C23_40  and  N9_41 
REMARK   17  A    between atoms: C24_43  and  C25_44 
REMARK   18  A    between atoms: C25_44  and  N10_45 
ROOT
HETATM    1  C7  UNL     1      34.847  -7.938   0.151  1.00  0.00     0.680 A 
HETATM    2  N3  UNL     1      35.275  -8.641   1.208  1.00  0.00    -0.176 N 
ATOM      3  H3  UNL     1      34.765  -9.487   1.462  1.00  0.00     0.186 HD
HETATM    4  C8  UNL     1      36.336  -8.294   1.949  1.00  0.00     0.129 A 
HETATM    5  C15 UNL     1      37.026  -7.155   1.614  1.00  0.00     0.036 A 
HETATM    6  C16 UNL     1      38.111  -6.776   2.368  1.00  0.00     0.017 A 
HETATM    7  C17 UNL     1      38.804  -5.628   2.042  1.00  0.00     0.002 A 
HETATM    8  C18 UNL     1      38.370  -4.912   0.967  1.00  0.00     0.014 A 
HETATM    9  C19 UNL     1      37.268  -5.273   0.178  1.00  0.00     0.003 A 
HETATM   10  C31 UNL     1      36.598  -6.408   0.518  1.00  0.00     0.074 A 
HETATM   11  N12 UNL     1      35.529  -6.802  -0.190  1.00  0.00    -0.190 N 
ATOM     12  H12 UNL     1      35.221  -6.250  -0.991  1.00  0.00     0.184 HD
ENDROOT
BRANCH   9  13
HETATM   13  C20 UNL     1      36.954  -4.418  -0.967  1.00  0.00    -0.019 A 
HETATM   14  C21 UNL     1      35.964  -3.462  -0.952  1.00  0.00     0.029 A 
HETATM   15  C22 UNL     1      35.699  -2.667  -2.051  1.00  0.00     0.090 A 
HETATM   16  N8  UNL     1      36.425  -2.825  -3.179  1.00  0.00    -0.352 N 
HETATM   17  C23 UNL     1      37.406  -3.734  -3.274  1.00  0.00     0.105 A 
ATOM     18  H8  UNL     1      36.220  -2.233  -3.985  1.00  0.00     0.166 HD
HETATM   19  C30 UNL     1      37.666  -4.545  -2.129  1.00  0.00     0.060 A 
BRANCH  17  20
HETATM   20  N9  UNL     1      38.092  -3.915  -4.274  1.00  0.00    -0.354 N 
HETATM   21  C24 UNL     1      38.282  -4.462  -5.500  1.00  0.00     0.092 C 
ATOM     22  H9  UNL     1      38.948  -3.391  -4.093  1.00  0.00     0.166 HD
BRANCH  21  23
HETATM   23  C25 UNL     1      37.524  -5.736  -5.823  1.00  0.00     0.317 C 
BRANCH  23  24
HETATM   24  N10 UNL     1      38.444  -6.805  -6.090  1.00  0.00     0.096 N 
HETATM   25  C26 UNL     1      37.871  -7.882  -6.832  1.00  0.00     0.300 C 
HETATM   26  C27 UNL     1      38.044  -9.236  -6.234  1.00  0.00     0.262 C 
HETATM   27  N11 UNL     1      39.362  -9.512  -5.751  1.00  0.00    -0.072 N 
HETATM   28  C28 UNL     1      40.064  -8.366  -5.250  1.00  0.00     0.262 C 
ATOM     29 2H11 UNL     1      39.335 -10.248  -5.045  1.00  0.00     0.277 HD
ATOM     30 1H11 UNL     1      39.914  -9.979  -6.471  1.00  0.00     0.277 HD
HETATM   31  C29 UNL     1      39.182  -7.211  -4.919  1.00  0.00     0.300 C 
ENDBRANCH  23  24
ENDBRANCH  21  23
ENDBRANCH  17  20
ENDBRANCH   9  13
BRANCH   4  32
HETATM   32  N4  UNL     1      36.742  -8.974   2.964  1.00  0.00    -0.375 N 
ATOM     33  H4  UNL     1      37.657  -9.420   2.887  1.00  0.00     0.161 HD
BRANCH  32  34
HETATM   34  C9  UNL     1      36.028  -9.163   4.191  1.00  0.00     0.123 C 
BRANCH  34  35
HETATM   35  C10 UNL     1      36.480 -10.438   4.906  1.00  0.00     0.040 C 
BRANCH  35  36
HETATM   36  C11 UNL     1      35.274 -11.329   5.157  1.00  0.00     0.139 C 
BRANCH  36  37
HETATM   37  N5  UNL     1      34.405 -11.330   4.014  1.00  0.00    -0.226 N 
ATOM     38  H5  UNL     1      33.770 -10.541   3.888  1.00  0.00     0.177 HD
BRANCH  37  39
HETATM   39  C12 UNL     1      34.387 -12.269   3.144  1.00  0.00     0.677 A 
HETATM   40  N6  UNL     1      34.504 -13.576   3.405  1.00  0.00    -0.201 N 
HETATM   41  C13 UNL     1      34.438 -14.264   2.225  1.00  0.00     0.123 A 
ATOM     42  H6  UNL     1      34.622 -13.991   4.330  1.00  0.00     0.183 HD
HETATM   43  C14 UNL     1      34.275 -13.314   1.233  1.00  0.00     0.123 A 
HETATM   44  N7  UNL     1      34.247 -12.097   1.826  1.00  0.00    -0.201 N 
ATOM     45  H7  UNL     1      34.138 -11.202   1.349  1.00  0.00     0.183 HD
ENDBRANCH  37  39
ENDBRANCH  36  37
ENDBRANCH  35  36
ENDBRANCH  34  35
ENDBRANCH  32  34
ENDBRANCH   4  32
BRANCH   1  46
HETATM   46  N2  UNL     1      33.830  -8.285  -0.553  1.00  0.00    -0.226 N 
ATOM     47  H2  UNL     1      33.161  -7.559  -0.810  1.00  0.00     0.177 HD
BRANCH  46  48
HETATM   48  C6  UNL     1      33.563  -9.647  -1.010  1.00  0.00     0.143 C 
BRANCH  48  49
HETATM   49  C5  UNL     1      34.185  -9.800  -2.359  1.00  0.00     0.064 C 
BRANCH  49  50
HETATM   50  C4  UNL     1      33.431  -9.413  -3.549  1.00  0.00     0.061 C 
BRANCH  50  51
HETATM   51  N1  UNL     1      33.884  -8.444  -4.448  1.00  0.00    -0.380 N 
BRANCH  51  52
HETATM   52  C2  UNL     1      32.952  -7.590  -5.109  1.00  0.00     0.138 C 
BRANCH  52  53
HETATM   53  C1  UNL     1      31.571  -8.191  -5.180  1.00  0.00     0.134 C 
HETATM   54 CL1  UNL     1      30.524  -7.148  -6.174  1.00  0.00    -0.129 Cl
ENDBRANCH  52  53
ENDBRANCH  51  52
BRANCH  51  55
HETATM   55  C3  UNL     1      35.043  -7.705  -3.961  1.00  0.00     0.237 C 
HETATM   56 CL2  UNL     1      34.510  -6.084  -3.462  1.00  0.00    -0.109 Cl
ENDBRANCH  51  55
ENDBRANCH  50  51
ENDBRANCH  49  50
ENDBRANCH  48  49
ENDBRANCH  46  48
ENDBRANCH   1  46
TORSDOF 18
ENDMDL
MODEL 3
REMARK VINA RESULT: -8.466740168      3.567     10.286
REMARK  18 active torsions:
REMARK  status: ('A' for Active; 'I' for Inactive)
REMARK    1  A    between atoms: C1_2  and  C2_3 
REMARK    2  A    between atoms: C2_3  and  N1_4 
REMARK    3  A    between atoms: N1_4  and  C3_5 
REMARK    4  A    between atoms: N1_4  and  C4_7 
REMARK    5  A    between atoms: C4_7  and  C5_8 
REMARK    6  A    between atoms: C5_8  and  C6_9 
REMARK    7  A    between atoms: C6_9  and  N2_10 
REMARK    8  A    between atoms: N2_10  and  C7_12 
REMARK    9  A    between atoms: C8_15  and  N4_16 
REMARK   10  A    between atoms: N4_16  and  C9_18 
REMARK   11  A    between atoms: C9_18  and  C10_19 
REMARK   12  A    between atoms: C10_19  and  C11_20 
REMARK   13  A    between atoms: C11_20  and  N5_21 
REMARK   14  A    between atoms: N5_21  and  C12_23 
REMARK   15  A    between atoms: C19_34  and  C20_35 
REMARK   16  A    between atoms: C23_40  and  N9_41 
REMARK   17  A    between atoms: C24_43  and  C25_44 
REMARK   18  A    between atoms: C25_44  and  N10_45 
ROOT
HETATM    1  C7  UNL     1      34.823  -7.885   0.171  1.00  0.00     0.680 A 
HETATM    2  N3  UNL     1      35.243  -8.614   1.214  1.00  0.00    -0.176 N 
ATOM      3  H3  UNL     1      34.716  -9.451   1.461  1.00  0.00     0.186 HD
HETATM    4  C8  UNL     1      36.319  -8.302   1.950  1.00  0.00     0.129 A 
HETATM    5  C15 UNL     1      37.033  -7.175   1.625  1.00  0.00     0.036 A 
HETATM    6  C16 UNL     1      38.133  -6.833   2.374  1.00  0.00     0.017 A 
HETATM    7  C17 UNL     1      38.850  -5.697   2.058  1.00  0.00     0.002 A 
HETATM    8  C18 UNL     1      38.423  -4.955   0.997  1.00  0.00     0.014 A 
HETATM    9  C19 UNL     1      37.306  -5.279   0.213  1.00  0.00     0.003 A 
HETATM   10  C31 UNL     1      36.613  -6.402   0.543  1.00  0.00     0.074 A 
HETATM   11  N12 UNL     1      35.528  -6.761  -0.160  1.00  0.00    -0.190 N 
ATOM     12  H12 UNL     1      35.226  -6.190  -0.950  1.00  0.00     0.184 HD
ENDROOT
BRANCH   9  13
HETATM   13  C20 UNL     1      37.002  -4.400  -0.916  1.00  0.00    -0.019 A 
HETATM   14  C21 UNL     1      36.047  -3.410  -0.872  1.00  0.00     0.029 A 
HETATM   15  C22 UNL     1      35.791  -2.594  -1.958  1.00  0.00     0.090 A 
HETATM   16  N8  UNL     1      36.490  -2.764  -3.100  1.00  0.00    -0.352 N 
HETATM   17  C23 UNL     1      37.437  -3.706  -3.223  1.00  0.00     0.105 A 
ATOM     18  H8  UNL     1      36.292  -2.157  -3.896  1.00  0.00     0.166 HD
HETATM   19  C30 UNL     1      37.688  -4.539  -2.093  1.00  0.00     0.060 A 
BRANCH  17  20
HETATM   20  N9  UNL     1      38.098  -3.900  -4.238  1.00  0.00    -0.354 N 
HETATM   21  C24 UNL     1      38.260  -4.468  -5.458  1.00  0.00     0.092 C 
ATOM     22  H9  UNL     1      38.954  -3.366  -4.090  1.00  0.00     0.166 HD
BRANCH  21  23
HETATM   23  C25 UNL     1      37.506  -5.754  -5.738  1.00  0.00     0.317 C 
BRANCH  23  24
HETATM   24  N10 UNL     1      38.427  -6.814  -6.031  1.00  0.00     0.096 N 
HETATM   25  C26 UNL     1      37.857  -7.872  -6.803  1.00  0.00     0.300 C 
HETATM   26  C27 UNL     1      38.029  -9.241  -6.242  1.00  0.00     0.262 C 
HETATM   27  N11 UNL     1      39.346  -9.529  -5.762  1.00  0.00    -0.072 N 
HETATM   28  C28 UNL     1      40.045  -8.397  -5.228  1.00  0.00     0.262 C 
ATOM     29 2H11 UNL     1      39.316 -10.284  -5.077  1.00  0.00     0.277 HD
ATOM     30 1H11 UNL     1      39.900  -9.976  -6.493  1.00  0.00     0.277 HD
HETATM   31  C29 UNL     1      39.161  -7.252  -4.869  1.00  0.00     0.300 C 
ENDBRANCH  23  24
ENDBRANCH  21  23
ENDBRANCH  17  20
ENDBRANCH   9  13
BRANCH   4  32
HETATM   32  N4  UNL     1      36.718  -9.006   2.951  1.00  0.00    -0.375 N 
ATOM     33  H4  UNL     1      37.623  -9.469   2.861  1.00  0.00     0.161 HD
BRANCH  32  34
HETATM   34  C9  UNL     1      36.008  -9.200   4.180  1.00  0.00     0.123 C 
BRANCH  34  35
HETATM   35  C10 UNL     1      36.486 -10.460   4.905  1.00  0.00     0.040 C 
BRANCH  35  36
HETATM   36  C11 UNL     1      35.300 -11.376   5.159  1.00  0.00     0.139 C 
BRANCH  36  37
HETATM   37  N5  UNL     1      34.407 -11.362   4.034  1.00  0.00    -0.226 N 
ATOM     38  H5  UNL     1      33.757 -10.581   3.942  1.00  0.00     0.177 HD
BRANCH  37  39
HETATM   39  C12 UNL     1      34.384 -12.280   3.142  1.00  0.00     0.677 A 
HETATM   40  N6  UNL     1      34.554 -13.589   3.365  1.00  0.00    -0.201 N 
HETATM   41  C13 UNL     1      34.462 -14.249   2.171  1.00  0.00     0.123 A 
ATOM     42  H6  UNL     1      34.723 -14.021   4.273  1.00  0.00     0.183 HD
HETATM   43  C14 UNL     1      34.229 -13.282   1.211  1.00  0.00     0.123 A 
HETATM   44  N7  UNL     1      34.185 -12.080   1.835  1.00  0.00    -0.201 N 
ATOM     45  H7  UNL     1      34.028 -11.178   1.386  1.00  0.00     0.183 HD
ENDBRANCH  37  39
ENDBRANCH  36  37
ENDBRANCH  35  36
ENDBRANCH  34  35
ENDBRANCH  32  34
ENDBRANCH   4  32
BRANCH   1  46
HETATM   46  N2  UNL     1      33.791  -8.198  -0.527  1.00  0.00    -0.226 N 
ATOM     47  H2  UNL     1      33.030  -7.521  -0.578  1.00  0.00     0.177 HD
BRANCH  46  48
HETATM   48  C6  UNL     1      33.632  -9.456  -1.254  1.00  0.00     0.143 C 
BRANCH  48  49
HETATM   49  C5  UNL     1      32.502  -9.282  -2.216  1.00  0.00     0.064 C 
BRANCH  49  50
HETATM   50  C4  UNL     1      32.788  -9.052  -3.630  1.00  0.00     0.061 C 
BRANCH  50  51
HETATM   51  N1  UNL     1      33.004  -7.776  -4.159  1.00  0.00    -0.380 N 
BRANCH  51  52
HETATM   52  C2  UNL     1      34.327  -7.250  -4.242  1.00  0.00     0.138 C 
BRANCH  52  53
HETATM   53  C1  UNL     1      34.480  -5.958  -3.480  1.00  0.00     0.134 C 
HETATM   54 CL1  UNL     1      34.064  -4.591  -4.545  1.00  0.00    -0.129 Cl
ENDBRANCH  52  53
ENDBRANCH  51  52
BRANCH  51  55
HETATM   55  C3  UNL     1      32.244  -7.523  -5.378  1.00  0.00     0.237 C 
HETATM   56 CL2  UNL     1      31.312  -8.984  -5.775  1.00  0.00    -0.109 Cl
ENDBRANCH  51  55
ENDBRANCH  50  51
ENDBRANCH  49  50
ENDBRANCH  48  49
ENDBRANCH  46  48
ENDBRANCH   1  46
TORSDOF 18
ENDMDL
MODEL 4
REMARK VINA RESULT: -8.449733895      4.155     10.626
REMARK  18 active torsions:
REMARK  status: ('A' for Active; 'I' for Inactive)
REMARK    1  A    between atoms: C1_2  and  C2_3 
REMARK    2  A    between atoms: C2_3  and  N1_4 
REMARK    3  A    between atoms: N1_4  and  C3_5 
REMARK    4  A    between atoms: N1_4  and  C4_7 
REMARK    5  A    between atoms: C4_7  and  C5_8 
REMARK    6  A    between atoms: C5_8  and  C6_9 
REMARK    7  A    between atoms: C6_9  and  N2_10 
REMARK    8  A    between atoms: N2_10  and  C7_12 
REMARK    9  A    between atoms: C8_15  and  N4_16 
REMARK   10  A    between atoms: N4_16  and  C9_18 
REMARK   11  A    between atoms: C9_18  and  C10_19 
REMARK   12  A    between atoms: C10_19  and  C11_20 
REMARK   13  A    between atoms: C11_20  and  N5_21 
REMARK   14  A    between atoms: N5_21  and  C12_23 
REMARK   15  A    between atoms: C19_34  and  C20_35 
REMARK   16  A    between atoms: C23_40  and  N9_41 
REMARK   17  A    between atoms: C24_43  and  C25_44 
REMARK   18  A    between atoms: C25_44  and  N10_45 
ROOT
HETATM    1  C7  UNL     1      34.816  -7.910   0.192  1.00  0.00     0.680 A 
HETATM    2  N3  UNL     1      35.261  -8.620   1.237  1.00  0.00    -0.176 N 
ATOM      3  H3  UNL     1      34.752  -9.464   1.500  1.00  0.00     0.186 HD
HETATM    4  C8  UNL     1      36.340  -8.281   1.957  1.00  0.00     0.129 A 
HETATM    5  C15 UNL     1      37.030  -7.145   1.610  1.00  0.00     0.036 A 
HETATM    6  C16 UNL     1      38.133  -6.776   2.342  1.00  0.00     0.017 A 
HETATM    7  C17 UNL     1      38.825  -5.631   2.006  1.00  0.00     0.002 A 
HETATM    8  C18 UNL     1      38.373  -4.908   0.942  1.00  0.00     0.014 A 
HETATM    9  C19 UNL     1      37.252  -5.259   0.176  1.00  0.00     0.003 A 
HETATM   10  C31 UNL     1      36.583  -6.392   0.526  1.00  0.00     0.074 A 
HETATM   11  N12 UNL     1      35.496  -6.777  -0.160  1.00  0.00    -0.190 N 
ATOM     12  H12 UNL     1      35.175  -6.220  -0.951  1.00  0.00     0.184 HD
ENDROOT
BRANCH   9  13
HETATM   13  C20 UNL     1      36.919  -4.399  -0.959  1.00  0.00    -0.019 A 
HETATM   14  C21 UNL     1      35.929  -3.443  -0.921  1.00  0.00     0.029 A 
HETATM   15  C22 UNL     1      35.646  -2.642  -2.012  1.00  0.00     0.090 A 
HETATM   16  N8  UNL     1      36.352  -2.794  -3.152  1.00  0.00    -0.352 N 
HETATM   17  C23 UNL     1      37.331  -3.703  -3.269  1.00  0.00     0.105 A 
ATOM     18  H8  UNL     1      36.133  -2.198  -3.952  1.00  0.00     0.166 HD
HETATM   19  C30 UNL     1      37.610  -4.519  -2.134  1.00  0.00     0.060 A 
BRANCH  17  20
HETATM   20  N9  UNL     1      38.000  -3.878  -4.282  1.00  0.00    -0.354 N 
HETATM   21  C24 UNL     1      38.196  -4.467  -5.487  1.00  0.00     0.092 C 
ATOM     22  H9  UNL     1      38.818  -3.283  -4.153  1.00  0.00     0.166 HD
BRANCH  21  23
HETATM   23  C25 UNL     1      37.530  -5.809  -5.728  1.00  0.00     0.317 C 
BRANCH  23  24
HETATM   24  N10 UNL     1      38.522  -6.815  -5.981  1.00  0.00     0.096 N 
HETATM   25  C26 UNL     1      38.073  -7.856  -6.848  1.00  0.00     0.300 C 
HETATM   26  C27 UNL     1      38.257  -9.243  -6.335  1.00  0.00     0.262 C 
HETATM   27  N11 UNL     1      39.537  -9.498  -5.749  1.00  0.00    -0.072 N 
HETATM   28  C28 UNL     1      40.133  -8.365  -5.104  1.00  0.00     0.262 C 
ATOM     29 2H11 UNL     1      39.480 -10.286  -5.104  1.00  0.00     0.277 HD
ATOM     30 1H11 UNL     1      40.174  -9.886  -6.445  1.00  0.00     0.277 HD
HETATM   31  C29 UNL     1      39.168  -7.276  -4.777  1.00  0.00     0.300 C 
ENDBRANCH  23  24
ENDBRANCH  21  23
ENDBRANCH  17  20
ENDBRANCH   9  13
BRANCH   4  32
HETATM   32  N4  UNL     1      36.765  -8.968   2.960  1.00  0.00    -0.375 N 
ATOM     33  H4  UNL     1      37.677  -9.415   2.863  1.00  0.00     0.161 HD
BRANCH  32  34
HETATM   34  C9  UNL     1      36.073  -9.162   4.199  1.00  0.00     0.123 C 
BRANCH  34  35
HETATM   35  C10 UNL     1      36.398 -10.527   4.808  1.00  0.00     0.040 C 
BRANCH  35  36
HETATM   36  C11 UNL     1      35.105 -11.229   5.191  1.00  0.00     0.139 C 
BRANCH  36  37
HETATM   37  N5  UNL     1      34.376 -11.613   4.015  1.00  0.00    -0.226 N 
ATOM     38  H5  UNL     1      33.832 -10.900   3.529  1.00  0.00     0.177 HD
BRANCH  37  39
HETATM   39  C12 UNL     1      34.374 -12.804   3.545  1.00  0.00     0.677 A 
HETATM   40  N6  UNL     1      34.381 -13.130   2.247  1.00  0.00    -0.201 N 
HETATM   41  C13 UNL     1      34.376 -14.493   2.141  1.00  0.00     0.123 A 
ATOM     42  H6  UNL     1      34.389 -12.472   1.468  1.00  0.00     0.183 HD
HETATM   43  C14 UNL     1      34.366 -14.982   3.434  1.00  0.00     0.123 A 
HETATM   44  N7  UNL     1      34.365 -13.922   4.277  1.00  0.00    -0.201 N 
ATOM     45  H7  UNL     1      34.359 -13.968   5.296  1.00  0.00     0.183 HD
ENDBRANCH  37  39
ENDBRANCH  36  37
ENDBRANCH  35  36
ENDBRANCH  34  35
ENDBRANCH  32  34
ENDBRANCH   4  32
BRANCH   1  46
HETATM   46  N2  UNL     1      33.781  -8.248  -0.490  1.00  0.00    -0.226 N 
ATOM     47  H2  UNL     1      32.941  -8.516   0.022  1.00  0.00     0.177 HD
BRANCH  46  48
HETATM   48  C6  UNL     1      33.724  -8.277  -1.951  1.00  0.00     0.143 C 
BRANCH  48  49
HETATM   49  C5  UNL     1      33.119  -9.583  -2.353  1.00  0.00     0.064 C 
BRANCH  49  50
HETATM   50  C4  UNL     1      33.987 -10.729  -2.611  1.00  0.00     0.061 C 
BRANCH  50  51
HETATM   51  N1  UNL     1      33.703 -12.013  -2.135  1.00  0.00    -0.380 N 
BRANCH  51  52
HETATM   52  C2  UNL     1      34.731 -13.000  -2.081  1.00  0.00     0.138 C 
BRANCH  52  53
HETATM   53  C1  UNL     1      34.883 -13.744  -3.384  1.00  0.00     0.134 C 
HETATM   54 CL1  UNL     1      33.274 -14.206  -3.991  1.00  0.00    -0.129 Cl
ENDBRANCH  52  53
ENDBRANCH  51  52
BRANCH  51  55
HETATM   55  C3  UNL     1      32.892 -12.010  -0.923  1.00  0.00     0.237 C 
HETATM   56 CL2  UNL     1      32.234 -13.644  -0.681  1.00  0.00    -0.109 Cl
ENDBRANCH  51  55
ENDBRANCH  50  51
ENDBRANCH  49  50
ENDBRANCH  48  49
ENDBRANCH  46  48
ENDBRANCH   1  46
TORSDOF 18
ENDMDL
MODEL 5
REMARK VINA RESULT: -8.426966916      3.505     10.910
REMARK  18 active torsions:
REMARK  status: ('A' for Active; 'I' for Inactive)
REMARK    1  A    between atoms: C1_2  and  C2_3 
REMARK    2  A    between atoms: C2_3  and  N1_4 
REMARK    3  A    between atoms: N1_4  and  C3_5 
REMARK    4  A    between atoms: N1_4  and  C4_7 
REMARK    5  A    between atoms: C4_7  and  C5_8 
REMARK    6  A    between atoms: C5_8  and  C6_9 
REMARK    7  A    between atoms: C6_9  and  N2_10 
REMARK    8  A    between atoms: N2_10  and  C7_12 
REMARK    9  A    between atoms: C8_15  and  N4_16 
REMARK   10  A    between atoms: N4_16  and  C9_18 
REMARK   11  A    between atoms: C9_18  and  C10_19 
REMARK   12  A    between atoms: C10_19  and  C11_20 
REMARK   13  A    between atoms: C11_20  and  N5_21 
REMARK   14  A    between atoms: N5_21  and  C12_23 
REMARK   15  A    between atoms: C19_34  and  C20_35 
REMARK   16  A    between atoms: C23_40  and  N9_41 
REMARK   17  A    between atoms: C24_43  and  C25_44 
REMARK   18  A    between atoms: C25_44  and  N10_45 
ROOT
HETATM    1  C7  UNL     1      34.798  -7.801   0.195  1.00  0.00     0.680 A 
HETATM    2  N3  UNL     1      35.231  -8.523   1.237  1.00  0.00    -0.176 N 
ATOM      3  H3  UNL     1      34.700  -9.351   1.505  1.00  0.00     0.186 HD
HETATM    4  C8  UNL     1      36.325  -8.215   1.948  1.00  0.00     0.129 A 
HETATM    5  C15 UNL     1      37.045  -7.100   1.596  1.00  0.00     0.036 A 
HETATM    6  C16 UNL     1      38.164  -6.762   2.319  1.00  0.00     0.017 A 
HETATM    7  C17 UNL     1      38.887  -5.638   1.975  1.00  0.00     0.002 A 
HETATM    8  C18 UNL     1      38.447  -4.903   0.915  1.00  0.00     0.014 A 
HETATM    9  C19 UNL     1      37.311  -5.222   0.158  1.00  0.00     0.003 A 
HETATM   10  C31 UNL     1      36.612  -6.334   0.514  1.00  0.00     0.074 A 
HETATM   11  N12 UNL     1      35.509  -6.688  -0.163  1.00  0.00    -0.190 N 
ATOM     12  H12 UNL     1      35.198  -6.123  -0.953  1.00  0.00     0.184 HD
ENDROOT
BRANCH   9  13
HETATM   13  C20 UNL     1      36.994  -4.353  -0.976  1.00  0.00    -0.019 A 
HETATM   14  C21 UNL     1      36.032  -3.370  -0.932  1.00  0.00     0.029 A 
HETATM   15  C22 UNL     1      35.764  -2.562  -2.022  1.00  0.00     0.090 A 
HETATM   16  N8  UNL     1      36.457  -2.734  -3.167  1.00  0.00    -0.352 N 
HETATM   17  C23 UNL     1      37.410  -3.671  -3.289  1.00  0.00     0.105 A 
ATOM     18  H8  UNL     1      36.250  -2.133  -3.965  1.00  0.00     0.166 HD
HETATM   19  C30 UNL     1      37.674  -4.494  -2.155  1.00  0.00     0.060 A 
BRANCH  17  20
HETATM   20  N9  UNL     1      38.066  -3.865  -4.306  1.00  0.00    -0.354 N 
HETATM   21  C24 UNL     1      38.232  -4.451  -5.518  1.00  0.00     0.092 C 
ATOM     22  H9  UNL     1      38.909  -3.307  -4.176  1.00  0.00     0.166 HD
BRANCH  21  23
HETATM   23  C25 UNL     1      37.509  -5.761  -5.767  1.00  0.00     0.317 C 
BRANCH  23  24
HETATM   24  N10 UNL     1      38.455  -6.806  -6.036  1.00  0.00     0.096 N 
HETATM   25  C26 UNL     1      37.920  -7.879  -6.812  1.00  0.00     0.300 C 
HETATM   26  C27 UNL     1      38.107  -9.241  -6.238  1.00  0.00     0.262 C 
HETATM   27  N11 UNL     1      39.420  -9.501  -5.733  1.00  0.00    -0.072 N 
HETATM   28  C28 UNL     1      40.089  -8.353  -5.194  1.00  0.00     0.262 C 
ATOM     29 2H11 UNL     1      39.392 -10.252  -5.043  1.00  0.00     0.277 HD
ATOM     30 1H11 UNL     1      39.996  -9.942  -6.451  1.00  0.00     0.277 HD
HETATM   31  C29 UNL     1      39.176  -7.222  -4.858  1.00  0.00     0.300 C 
ENDBRANCH  23  24
ENDBRANCH  21  23
ENDBRANCH  17  20
ENDBRANCH   9  13
BRANCH   4  32
HETATM   32  N4  UNL     1      36.737  -8.913   2.949  1.00  0.00    -0.375 N 
ATOM     33  H4  UNL     1      37.732  -8.864   3.170  1.00  0.00     0.161 HD
BRANCH  32  34
HETATM   34  C9  UNL     1      35.926  -9.751   3.779  1.00  0.00     0.123 C 
BRANCH  34  35
HETATM   35  C10 UNL     1      36.571 -11.125   3.979  1.00  0.00     0.040 C 
BRANCH  35  36
HETATM   36  C11 UNL     1      36.980 -11.283   5.434  1.00  0.00     0.139 C 
BRANCH  36  37
HETATM   37  N5  UNL     1      38.193 -12.045   5.534  1.00  0.00    -0.226 N 
ATOM     38  H5  UNL     1      38.495 -12.583   4.721  1.00  0.00     0.177 HD
BRANCH  37  39
HETATM   39  C12 UNL     1      38.915 -12.085   6.590  1.00  0.00     0.677 A 
HETATM   40  N6  UNL     1      40.111 -12.677   6.696  1.00  0.00    -0.201 N 
HETATM   41  C13 UNL     1      40.569 -12.508   7.972  1.00  0.00     0.123 A 
ATOM     42  H6  UNL     1      40.599 -13.171   5.949  1.00  0.00     0.183 HD
HETATM   43  C14 UNL     1      39.597 -11.786   8.640  1.00  0.00     0.123 A 
HETATM   44  N7  UNL     1      38.592 -11.539   7.766  1.00  0.00    -0.201 N 
ATOM     45  H7  UNL     1      37.735 -11.025   7.970  1.00  0.00     0.183 HD
ENDBRANCH  37  39
ENDBRANCH  36  37
ENDBRANCH  35  36
ENDBRANCH  34  35
ENDBRANCH  32  34
ENDBRANCH   4  32
BRANCH   1  46
HETATM   46  N2  UNL     1      33.750  -8.109  -0.479  1.00  0.00    -0.226 N 
ATOM     47  H2  UNL     1      32.949  -8.481   0.032  1.00  0.00     0.177 HD
BRANCH  46  48
HETATM   48  C6  UNL     1      33.623  -7.965  -1.928  1.00  0.00     0.143 C 
BRANCH  48  49
HETATM   49  C5  UNL     1      33.230  -9.296  -2.481  1.00  0.00     0.064 C 
BRANCH  49  50
HETATM   50  C4  UNL     1      32.814 -10.360  -1.571  1.00  0.00     0.061 C 
BRANCH  50  51
HETATM   51  N1  UNL     1      33.494 -11.578  -1.471  1.00  0.00    -0.380 N 
BRANCH  51  52
HETATM   52  C2  UNL     1      33.543 -12.464  -2.587  1.00  0.00     0.138 C 
BRANCH  52  53
HETATM   53  C1  UNL     1      33.186 -13.880  -2.214  1.00  0.00     0.134 C 
HETATM   54 CL1  UNL     1      32.174 -13.866  -0.747  1.00  0.00    -0.129 Cl
ENDBRANCH  52  53
ENDBRANCH  51  52
BRANCH  51  55
HETATM   55  C3  UNL     1      34.792 -11.459  -0.817  1.00  0.00     0.237 C 
HETATM   56 CL2  UNL     1      34.612 -11.938   0.886  1.00  0.00    -0.109 Cl
ENDBRANCH  51  55
ENDBRANCH  50  51
ENDBRANCH  49  50
ENDBRANCH  48  49
ENDBRANCH  46  48
ENDBRANCH   1  46
TORSDOF 18
ENDMDL
