MODEL 1
REMARK VINA RESULT: -7.536867128      0.000      0.000
REMARK  6 active torsions:
REMARK  status: ('A' for Active; 'I' for Inactive)
REMARK    1  A    between atoms: C2_2  and  C4_4 
REMARK    2  A    between atoms: C4_4  and  C5_5 
REMARK    3  A    between atoms: C5_5  and  O1_6 
REMARK    4  A    between atoms: C5_5  and  C6_8 
REMARK    5  A    between atoms: C8_11  and  C9_12 
REMARK       I    between atoms: N2_15  and  C11_17 
REMARK       I    between atoms: C11_17  and  N3_19 
REMARK    6  A    between atoms: C16_27  and  C17_28 
ROOT
HETATM    1  C9  UNL     1       5.893   7.011  23.924  1.00  0.00     0.140 C 
HETATM    2  C10 UNL     1       6.179   8.191  22.583  1.00  0.00     0.119 C 
HETATM    3  N1  UNL     1       6.328   8.968  21.694  1.00  0.00    -0.190 NA
HETATM    4  N2  UNL     1       7.075   7.260  24.421  1.00  0.00    -0.298 N 
ATOM      5  H2  UNL     1       7.113   6.923  25.382  1.00  0.00     0.171 HD
HETATM    6  C11 UNL     1       8.292   7.826  24.089  1.00  0.00     0.325 C 
HETATM    7  O2  UNL     1       8.601   8.315  22.972  1.00  0.00    -0.247 OA
HETATM    8  N3  UNL     1       9.378   7.913  25.039  1.00  0.00    -0.311 N 
HETATM    9  C12 UNL     1       9.277   7.488  26.406  1.00  0.00     0.156 C 
HETATM   10  C13 UNL     1      10.725   7.592  26.880  1.00  0.00     0.190 C 
HETATM   11  O3  UNL     1      11.331   8.467  26.019  1.00  0.00    -0.370 OA
HETATM   12  C14 UNL     1      10.691   8.409  24.794  1.00  0.00     0.297 C 
ENDROOT
BRANCH   1  13
HETATM   13  C8  UNL     1       4.763   6.772  23.448  1.00  0.00     0.108 C 
HETATM   14  S1  UNL     1       3.317   7.890  24.031  1.00  0.00    -0.095 SA
HETATM   15  C7  UNL     1       2.001   6.806  23.537  1.00  0.00     0.164 C 
HETATM   16  C6  UNL     1       1.342   5.950  24.627  1.00  0.00     0.071 C 
HETATM   17  N4  UNL     1       2.736   5.602  23.109  1.00  0.00    -0.327 N 
HETATM   18  C16 UNL     1       1.563   4.857  23.614  1.00  0.00     0.102 C 
HETATM   19  C15 UNL     1       3.988   5.945  22.549  1.00  0.00     0.264 C 
HETATM   20  O4  UNL     1       4.395   5.576  21.391  1.00  0.00    -0.267 OA
BRANCH  16  21
HETATM   21  C5  UNL     1      -0.015   6.439  24.925  1.00  0.00     0.127 C 
BRANCH  21  22
HETATM   22  C4  UNL     1       0.171   7.795  25.640  1.00  0.00     0.036 C 
BRANCH  22  23
HETATM   23  C2  UNL     1      -0.817   8.816  25.180  1.00  0.00    -0.020 C 
HETATM   24  C1  UNL     1      -0.100   9.717  24.197  1.00  0.00     0.009 C 
HETATM   25  C3  UNL     1      -2.058   8.248  24.577  1.00  0.00     0.009 C 
ENDBRANCH  22  23
ENDBRANCH  21  22
BRANCH  21  26
HETATM   26  O1  UNL     1      -0.669   5.661  25.900  1.00  0.00    -0.395 OA
ATOM     27  H1  UNL     1      -1.504   6.103  25.994  1.00  0.00     0.210 HD
ENDBRANCH  21  26
ENDBRANCH  16  21
BRANCH  18  28
HETATM   28  C17 UNL     1       0.550   4.573  22.589  1.00  0.00     0.009 C 
HETATM   29  C18 UNL     1       1.269   3.819  21.451  1.00  0.00     0.007 C 
HETATM   30  C19 UNL     1       0.181   2.859  20.943  1.00  0.00     0.000 C 
HETATM   31  C20 UNL     1      -0.217   2.264  22.290  1.00  0.00     0.000 C 
HETATM   32  C21 UNL     1      -0.439   3.547  23.104  1.00  0.00     0.007 C 
ENDBRANCH  18  28
ENDBRANCH   1  13
TORSDOF 6
ENDMDL
MODEL 2
REMARK VINA RESULT: -7.138847022      5.629      8.158
REMARK  6 active torsions:
REMARK  status: ('A' for Active; 'I' for Inactive)
REMARK    1  A    between atoms: C2_2  and  C4_4 
REMARK    2  A    between atoms: C4_4  and  C5_5 
REMARK    3  A    between atoms: C5_5  and  O1_6 
REMARK    4  A    between atoms: C5_5  and  C6_8 
REMARK    5  A    between atoms: C8_11  and  C9_12 
REMARK       I    between atoms: N2_15  and  C11_17 
REMARK       I    between atoms: C11_17  and  N3_19 
REMARK    6  A    between atoms: C16_27  and  C17_28 
ROOT
HETATM    1  C9  UNL     1       6.349   4.570  21.040  1.00  0.00     0.140 C 
HETATM    2  C10 UNL     1       5.556   5.500  19.705  1.00  0.00     0.119 C 
HETATM    3  N1  UNL     1       5.012   6.080  18.820  1.00  0.00    -0.190 NA
HETATM    4  N2  UNL     1       6.843   5.671  21.539  1.00  0.00    -0.298 N 
ATOM      5  H2  UNL     1       7.142   5.500  22.498  1.00  0.00     0.171 HD
HETATM    6  C11 UNL     1       7.099   6.989  21.211  1.00  0.00     0.325 C 
HETATM    7  O2  UNL     1       6.880   7.531  20.097  1.00  0.00    -0.247 OA
HETATM    8  N3  UNL     1       7.669   7.916  22.162  1.00  0.00    -0.311 N 
HETATM    9  C12 UNL     1       7.959   7.580  23.527  1.00  0.00     0.156 C 
HETATM   10  C13 UNL     1       8.727   8.811  24.003  1.00  0.00     0.190 C 
HETATM   11  O3  UNL     1       8.372   9.819  23.147  1.00  0.00    -0.370 OA
HETATM   12  C14 UNL     1       8.039   9.271  21.921  1.00  0.00     0.297 C 
ENDROOT
BRANCH   1  13
HETATM   13  C8  UNL     1       5.877   3.517  20.562  1.00  0.00     0.108 C 
HETATM   14  S1  UNL     1       7.129   2.211  19.924  1.00  0.00    -0.095 SA
HETATM   15  C7  UNL     1       5.986   1.299  18.917  1.00  0.00     0.164 C 
HETATM   16  C6  UNL     1       6.003   1.569  17.406  1.00  0.00     0.071 C 
HETATM   17  N4  UNL     1       4.771   2.130  18.999  1.00  0.00    -0.327 N 
HETATM   18  C16 UNL     1       4.515   1.673  17.616  1.00  0.00     0.102 C 
HETATM   19  C15 UNL     1       4.677   2.768  20.257  1.00  0.00     0.264 C 
HETATM   20  O4  UNL     1       3.663   2.699  21.037  1.00  0.00    -0.267 OA
BRANCH  16  21
HETATM   21  C5  UNL     1       6.585   0.428  16.679  1.00  0.00     0.127 C 
BRANCH  21  22
HETATM   22  C4  UNL     1       8.110   0.663  16.671  1.00  0.00     0.036 C 
BRANCH  22  23
HETATM   23  C2  UNL     1       8.840  -0.333  17.512  1.00  0.00    -0.020 C 
HETATM   24  C1  UNL     1       9.400  -1.381  16.574  1.00  0.00     0.009 C 
HETATM   25  C3  UNL     1       9.916   0.250  18.366  1.00  0.00     0.009 C 
ENDBRANCH  22  23
ENDBRANCH  21  22
BRANCH  21  26
HETATM   26  O1  UNL     1       6.263   0.439  15.308  1.00  0.00    -0.395 OA
ATOM     27  H1  UNL     1       5.402   0.840  15.298  1.00  0.00     0.210 HD
ENDBRANCH  21  26
ENDBRANCH  16  21
BRANCH  18  28
HETATM   28  C17 UNL     1       3.664   0.479  17.530  1.00  0.00     0.009 C 
HETATM   29  C18 UNL     1       2.429   0.749  18.415  1.00  0.00     0.007 C 
HETATM   30  C19 UNL     1       1.308   0.015  17.662  1.00  0.00     0.000 C 
HETATM   31  C20 UNL     1       1.558   0.614  16.281  1.00  0.00     0.000 C 
HETATM   32  C21 UNL     1       3.066   0.364  16.141  1.00  0.00     0.007 C 
ENDBRANCH  18  28
ENDBRANCH   1  13
TORSDOF 6
ENDMDL
MODEL 3
REMARK VINA RESULT: -7.120452011      0.881      1.045
REMARK  6 active torsions:
REMARK  status: ('A' for Active; 'I' for Inactive)
REMARK    1  A    between atoms: C2_2  and  C4_4 
REMARK    2  A    between atoms: C4_4  and  C5_5 
REMARK    3  A    between atoms: C5_5  and  O1_6 
REMARK    4  A    between atoms: C5_5  and  C6_8 
REMARK    5  A    between atoms: C8_11  and  C9_12 
REMARK       I    between atoms: N2_15  and  C11_17 
REMARK       I    between atoms: C11_17  and  N3_19 
REMARK    6  A    between atoms: C16_27  and  C17_28 
ROOT
HETATM    1  C9  UNL     1       6.206   7.138  23.818  1.00  0.00     0.140 C 
HETATM    2  C10 UNL     1       6.623   8.478  22.676  1.00  0.00     0.119 C 
HETATM    3  N1  UNL     1       6.859   9.361  21.914  1.00  0.00    -0.190 NA
HETATM    4  N2  UNL     1       7.344   7.290  24.441  1.00  0.00    -0.298 N 
ATOM      5  H2  UNL     1       7.293   6.828  25.349  1.00  0.00     0.171 HD
HETATM    6  C11 UNL     1       8.592   7.863  24.291  1.00  0.00     0.325 C 
HETATM    7  O2  UNL     1       9.003   8.488  23.280  1.00  0.00    -0.247 OA
HETATM    8  N3  UNL     1       9.593   7.798  25.332  1.00  0.00    -0.311 N 
HETATM    9  C12 UNL     1       9.369   7.198  26.617  1.00  0.00     0.156 C 
HETATM   10  C13 UNL     1      10.771   7.202  27.221  1.00  0.00     0.190 C 
HETATM   11  O3  UNL     1      11.461   8.168  26.538  1.00  0.00    -0.370 OA
HETATM   12  C14 UNL     1      10.929   8.288  25.267  1.00  0.00     0.297 C 
ENDROOT
BRANCH   1  13
HETATM   13  C8  UNL     1       5.118   6.992  23.222  1.00  0.00     0.108 C 
HETATM   14  S1  UNL     1       3.557   7.724  24.063  1.00  0.00    -0.095 SA
HETATM   15  C7  UNL     1       2.363   6.780  23.148  1.00  0.00     0.164 C 
HETATM   16  C6  UNL     1       1.754   5.552  23.837  1.00  0.00     0.071 C 
HETATM   17  N4  UNL     1       3.221   5.860  22.380  1.00  0.00    -0.327 N 
HETATM   18  C16 UNL     1       2.107   4.898  22.527  1.00  0.00     0.102 C 
HETATM   19  C15 UNL     1       4.452   6.471  22.048  1.00  0.00     0.264 C 
HETATM   20  O4  UNL     1       4.927   6.558  20.861  1.00  0.00    -0.267 OA
BRANCH  16  21
HETATM   21  C5  UNL     1       0.349   5.801  24.201  1.00  0.00     0.127 C 
BRANCH  21  22
HETATM   22  C4  UNL     1       0.098   7.298  23.918  1.00  0.00     0.036 C 
BRANCH  22  23
HETATM   23  C2  UNL     1      -0.841   7.910  24.906  1.00  0.00    -0.020 C 
HETATM   24  C1  UNL     1      -0.258   9.250  25.302  1.00  0.00     0.009 C 
HETATM   25  C3  UNL     1      -2.242   8.060  24.416  1.00  0.00     0.009 C 
ENDBRANCH  22  23
ENDBRANCH  21  22
BRANCH  21  26
HETATM   26  O1  UNL     1       0.124   5.706  25.588  1.00  0.00    -0.395 OA
ATOM     27  H1  UNL     1       0.564   6.477  25.925  1.00  0.00     0.210 HD
ENDBRANCH  21  26
ENDBRANCH  16  21
BRANCH  18  28
HETATM   28  C17 UNL     1       1.158   4.910  21.406  1.00  0.00     0.009 C 
HETATM   29  C18 UNL     1       1.968   4.591  20.132  1.00  0.00     0.007 C 
HETATM   30  C19 UNL     1       0.963   3.795  19.285  1.00  0.00     0.000 C 
HETATM   31  C20 UNL     1       0.548   2.783  20.348  1.00  0.00     0.000 C 
HETATM   32  C21 UNL     1       0.214   3.728  21.511  1.00  0.00     0.007 C 
ENDBRANCH  18  28
ENDBRANCH   1  13
TORSDOF 6
ENDMDL
MODEL 4
REMARK VINA RESULT: -6.753951406      4.615      6.599
REMARK  6 active torsions:
REMARK  status: ('A' for Active; 'I' for Inactive)
REMARK    1  A    between atoms: C2_2  and  C4_4 
REMARK    2  A    between atoms: C4_4  and  C5_5 
REMARK    3  A    between atoms: C5_5  and  O1_6 
REMARK    4  A    between atoms: C5_5  and  C6_8 
REMARK    5  A    between atoms: C8_11  and  C9_12 
REMARK       I    between atoms: N2_15  and  C11_17 
REMARK       I    between atoms: C11_17  and  N3_19 
REMARK    6  A    between atoms: C16_27  and  C17_28 
ROOT
HETATM    1  C9  UNL     1       6.456   6.784  21.818  1.00  0.00     0.140 C 
HETATM    2  C10 UNL     1       7.037   7.982  20.591  1.00  0.00     0.119 C 
HETATM    3  N1  UNL     1       7.385   8.764  19.766  1.00  0.00    -0.190 NA
HETATM    4  N2  UNL     1       7.359   7.191  22.670  1.00  0.00    -0.298 N 
ATOM      5  H2  UNL     1       7.107   6.869  23.604  1.00  0.00     0.171 HD
HETATM    6  C11 UNL     1       8.538   7.909  22.739  1.00  0.00     0.325 C 
HETATM    7  O2  UNL     1       9.147   8.426  21.768  1.00  0.00    -0.247 OA
HETATM    8  N3  UNL     1       9.215   8.147  23.993  1.00  0.00    -0.311 N 
HETATM    9  C12 UNL     1       8.707   7.723  25.267  1.00  0.00     0.156 C 
HETATM   10  C13 UNL     1       9.882   8.020  26.195  1.00  0.00     0.190 C 
HETATM   11  O3  UNL     1      10.635   8.960  25.544  1.00  0.00    -0.370 OA
HETATM   12  C14 UNL     1      10.463   8.809  24.180  1.00  0.00     0.297 C 
ENDROOT
BRANCH   1  13
HETATM   13  C8  UNL     1       5.594   6.395  21.002  1.00  0.00     0.108 C 
HETATM   14  S1  UNL     1       5.105   4.541  21.068  1.00  0.00    -0.095 SA
HETATM   15  C7  UNL     1       4.372   4.460  19.453  1.00  0.00     0.164 C 
HETATM   16  C6  UNL     1       5.216   3.856  18.322  1.00  0.00     0.071 C 
HETATM   17  N4  UNL     1       4.684   5.792  18.904  1.00  0.00    -0.327 N 
HETATM   18  C16 UNL     1       4.766   5.099  17.600  1.00  0.00     0.102 C 
HETATM   19  C15 UNL     1       4.703   6.770  19.926  1.00  0.00     0.264 C 
HETATM   20  O4  UNL     1       4.020   7.854  19.911  1.00  0.00    -0.267 OA
BRANCH  16  21
HETATM   21  C5  UNL     1       4.700   2.532  17.937  1.00  0.00     0.127 C 
BRANCH  21  22
HETATM   22  C4  UNL     1       5.250   1.541  18.986  1.00  0.00     0.036 C 
BRANCH  22  23
HETATM   23  C2  UNL     1       6.720   1.698  19.195  1.00  0.00    -0.020 C 
HETATM   24  C1  UNL     1       6.981   1.519  20.675  1.00  0.00     0.009 C 
HETATM   25  C3  UNL     1       7.562   0.767  18.388  1.00  0.00     0.009 C 
ENDBRANCH  22  23
ENDBRANCH  21  22
BRANCH  21  26
HETATM   26  O1  UNL     1       5.266   2.059  16.737  1.00  0.00    -0.395 OA
ATOM     27  H1  UNL     1       5.955   2.690  16.567  1.00  0.00     0.210 HD
ENDBRANCH  21  26
ENDBRANCH  16  21
BRANCH  18  28
HETATM   28  C17 UNL     1       3.509   5.108  16.841  1.00  0.00     0.009 C 
HETATM   29  C18 UNL     1       3.043   6.578  16.769  1.00  0.00     0.007 C 
HETATM   30  C19 UNL     1       2.370   6.650  15.389  1.00  0.00     0.000 C 
HETATM   31  C20 UNL     1       3.503   6.037  14.571  1.00  0.00     0.000 C 
HETATM   32  C21 UNL     1       3.776   4.766  15.388  1.00  0.00     0.007 C 
ENDBRANCH  18  28
ENDBRANCH   1  13
TORSDOF 6
ENDMDL
MODEL 5
REMARK VINA RESULT: -6.746448002      4.221      9.141
REMARK  6 active torsions:
REMARK  status: ('A' for Active; 'I' for Inactive)
REMARK    1  A    between atoms: C2_2  and  C4_4 
REMARK    2  A    between atoms: C4_4  and  C5_5 
REMARK    3  A    between atoms: C5_5  and  O1_6 
REMARK    4  A    between atoms: C5_5  and  C6_8 
REMARK    5  A    between atoms: C8_11  and  C9_12 
REMARK       I    between atoms: N2_15  and  C11_17 
REMARK       I    between atoms: C11_17  and  N3_19 
REMARK    6  A    between atoms: C16_27  and  C17_28 
ROOT
HETATM    1  C9  UNL     1       4.235   4.802  20.608  1.00  0.00     0.140 C 
HETATM    2  C10 UNL     1       5.846   4.003  20.409  1.00  0.00     0.119 C 
HETATM    3  N1  UNL     1       6.920   3.502  20.306  1.00  0.00    -0.190 NA
HETATM    4  N2  UNL     1       3.646   3.810  19.995  1.00  0.00    -0.298 N 
ATOM      5  H2  UNL     1       2.646   3.843  20.187  1.00  0.00     0.171 HD
HETATM    6  C11 UNL     1       3.917   2.731  19.174  1.00  0.00     0.325 C 
HETATM    7  O2  UNL     1       5.044   2.412  18.718  1.00  0.00    -0.247 OA
HETATM    8  N3  UNL     1       2.879   1.823  18.739  1.00  0.00    -0.311 N 
HETATM    9  C12 UNL     1       1.510   1.917  19.161  1.00  0.00     0.156 C 
HETATM   10  C13 UNL     1       0.828   0.890  18.261  1.00  0.00     0.190 C 
HETATM   11  O3  UNL     1       1.822   0.039  17.856  1.00  0.00    -0.370 OA
HETATM   12  C14 UNL     1       3.023   0.724  17.844  1.00  0.00     0.297 C 
ENDROOT
BRANCH   1  13
HETATM   13  C8  UNL     1       4.798   5.750  21.194  1.00  0.00     0.108 C 
HETATM   14  S1  UNL     1       5.218   7.299  20.143  1.00  0.00    -0.095 SA
HETATM   15  C7  UNL     1       6.419   7.988  21.254  1.00  0.00     0.164 C 
HETATM   16  C6  UNL     1       7.901   7.767  20.920  1.00  0.00     0.071 C 
HETATM   17  N4  UNL     1       6.544   6.927  22.270  1.00  0.00    -0.327 N 
HETATM   18  C16 UNL     1       7.954   7.360  22.369  1.00  0.00     0.102 C 
HETATM   19  C15 UNL     1       5.316   6.250  22.449  1.00  0.00     0.264 C 
HETATM   20  O4  UNL     1       4.727   6.092  23.576  1.00  0.00    -0.267 OA
BRANCH  16  21
HETATM   21  C5  UNL     1       8.525   9.021  20.465  1.00  0.00     0.127 C 
BRANCH  21  22
HETATM   22  C4  UNL     1       7.464  10.123  20.674  1.00  0.00     0.036 C 
BRANCH  22  23
HETATM   23  C2  UNL     1       7.532  11.179  19.621  1.00  0.00    -0.020 C 
HETATM   24  C1  UNL     1       6.158  11.268  18.990  1.00  0.00     0.009 C 
HETATM   25  C3  UNL     1       7.980  12.515  20.113  1.00  0.00     0.009 C 
ENDBRANCH  22  23
ENDBRANCH  21  22
BRANCH  21  26
HETATM   26  O1  UNL     1       8.731   9.049  19.072  1.00  0.00    -0.395 OA
ATOM     27  H1  UNL     1       9.211   9.859  18.948  1.00  0.00     0.210 HD
ENDBRANCH  21  26
ENDBRANCH  16  21
BRANCH  18  28
HETATM   28  C17 UNL     1       8.199   8.360  23.417  1.00  0.00     0.009 C 
HETATM   29  C18 UNL     1       7.981   7.649  24.770  1.00  0.00     0.007 C 
HETATM   30  C19 UNL     1       9.010   8.337  25.681  1.00  0.00     0.000 C 
HETATM   31  C20 UNL     1      10.230   8.174  24.779  1.00  0.00     0.000 C 
HETATM   32  C21 UNL     1       9.671   8.721  23.458  1.00  0.00     0.007 C 
ENDBRANCH  18  28
ENDBRANCH   1  13
TORSDOF 6
ENDMDL
