MODEL 1
REMARK VINA RESULT: -7.719414537      0.000      0.000
REMARK  7 active torsions:
REMARK  status: ('A' for Active; 'I' for Inactive)
REMARK    1  A    between atoms: O1_2  and  C2_3 
REMARK    2  A    between atoms: C2_3  and  C3_5 
REMARK    3  A    between atoms: C3_5  and  O3_6 
REMARK    4  A    between atoms: C6_10  and  N1_11 
REMARK       I    between atoms: N1_11  and  C7_13 
REMARK    5  A    between atoms: C7_13  and  C8_15 
REMARK    6  A    between atoms: C8_15  and  C9_16 
REMARK    7  A    between atoms: C14_21  and  O5_22 
ROOT
HETATM    1  C9  UNL     1       5.039   1.549  19.879  1.00  0.00    -0.009 A 
HETATM    2  C10 UNL     1       6.254   1.327  19.262  1.00  0.00    -0.042 A 
HETATM    3  C11 UNL     1       6.307   0.932  17.924  1.00  0.00    -0.044 A 
HETATM    4  C12 UNL     1       5.164   0.750  17.176  1.00  0.00    -0.041 A 
HETATM    5  C13 UNL     1       3.954   0.970  17.792  1.00  0.00    -0.016 A 
HETATM    6  C14 UNL     1       3.909   1.364  19.126  1.00  0.00     0.082 A 
HETATM    7  C16 UNL     1       2.886   0.709  16.795  1.00  0.00     0.061 C 
HETATM    8  C17 UNL     1       3.597   1.041  15.502  1.00  0.00     0.101 C 
HETATM    9  C18 UNL     1       2.946   0.417  14.354  1.00  0.00     0.064 C 
HETATM   10  N2  UNL     1       2.428  -0.070  13.443  1.00  0.00    -0.197 NA
HETATM   11  C19 UNL     1       4.941   0.340  15.751  1.00  0.00     0.059 C 
HETATM   12  C20 UNL     1       7.728   0.758  17.503  1.00  0.00     0.040 C 
HETATM   13  C21 UNL     1       8.379   0.472  18.849  1.00  0.00     0.009 C 
HETATM   14  C22 UNL     1       7.645   1.433  19.744  1.00  0.00     0.040 C 
ENDROOT
BRANCH   6  15
HETATM   15  O5  UNL     1       2.685   1.580  19.723  1.00  0.00    -0.355 OA
HETATM   16  C15 UNL     1       2.018   2.799  19.437  1.00  0.00     0.210 C 
ENDBRANCH   6  15
BRANCH   1  17
HETATM   17  C8  UNL     1       4.917   1.955  21.280  1.00  0.00     0.144 C 
BRANCH  17  18
HETATM   18  C7  UNL     1       5.029   3.411  21.494  1.00  0.00     0.222 C 
HETATM   19  N1  UNL     1       6.049   4.218  20.942  1.00  0.00    -0.356 N 
ATOM     20  H1  UNL     1       6.757   3.771  20.360  1.00  0.00     0.162 HD
HETATM   21  O4  UNL     1       4.172   3.979  22.206  1.00  0.00    -0.273 OA
BRANCH  19  22
HETATM   22  C6  UNL     1       6.140   5.627  21.158  1.00  0.00     0.084 C 
HETATM   23  C5  UNL     1       7.585   6.118  21.129  1.00  0.00     0.028 C 
HETATM   24  C4  UNL     1       7.611   7.424  21.892  1.00  0.00     0.050 C 
HETATM   25  C3  UNL     1       6.558   8.324  21.307  1.00  0.00     0.145 C 
HETATM   26  C24 UNL     1       6.017   7.831  19.988  1.00  0.00     0.050 C 
HETATM   27  C23 UNL     1       5.417   6.445  20.108  1.00  0.00     0.028 C 
BRANCH  25  28
HETATM   28  C2  UNL     1       7.204   9.649  21.024  1.00  0.00     0.293 C 
HETATM   29  O2  UNL     1       8.130  10.094  21.763  1.00  0.00    -0.262 OA
BRANCH  28  30
HETATM   30  O1  UNL     1       6.816  10.432  19.952  1.00  0.00    -0.324 OA
HETATM   31  C1  UNL     1       7.645  11.519  19.515  1.00  0.00     0.213 C 
ENDBRANCH  28  30
ENDBRANCH  25  28
BRANCH  25  32
HETATM   32  O3  UNL     1       5.540   8.492  22.250  1.00  0.00    -0.380 OA
ATOM     33  H3  UNL     1       5.547   7.763  22.859  1.00  0.00     0.211 HD
ENDBRANCH  25  32
ENDBRANCH  19  22
ENDBRANCH  17  18
ENDBRANCH   1  17
TORSDOF 7
ENDMDL
MODEL 2
REMARK VINA RESULT: -7.611890309      1.124      1.244
REMARK  7 active torsions:
REMARK  status: ('A' for Active; 'I' for Inactive)
REMARK    1  A    between atoms: O1_2  and  C2_3 
REMARK    2  A    between atoms: C2_3  and  C3_5 
REMARK    3  A    between atoms: C3_5  and  O3_6 
REMARK    4  A    between atoms: C6_10  and  N1_11 
REMARK       I    between atoms: N1_11  and  C7_13 
REMARK    5  A    between atoms: C7_13  and  C8_15 
REMARK    6  A    between atoms: C8_15  and  C9_16 
REMARK    7  A    between atoms: C14_21  and  O5_22 
ROOT
HETATM    1  C9  UNL     1       6.399   1.348  19.344  1.00  0.00    -0.009 A 
HETATM    2  C10 UNL     1       7.505   0.943  18.625  1.00  0.00    -0.042 A 
HETATM    3  C11 UNL     1       7.366   0.463  17.322  1.00  0.00    -0.044 A 
HETATM    4  C12 UNL     1       6.135   0.375  16.709  1.00  0.00    -0.041 A 
HETATM    5  C13 UNL     1       5.033   0.778  17.427  1.00  0.00    -0.016 A 
HETATM    6  C14 UNL     1       5.179   1.255  18.725  1.00  0.00     0.082 A 
HETATM    7  C16 UNL     1       3.840   0.587  16.565  1.00  0.00     0.061 C 
HETATM    8  C17 UNL     1       4.438   0.750  15.185  1.00  0.00     0.101 C 
HETATM    9  C18 UNL     1       3.598   0.140  14.160  1.00  0.00     0.064 C 
HETATM   10  N2  UNL     1       2.931  -0.335  13.344  1.00  0.00    -0.197 NA
HETATM   11  C19 UNL     1       5.712  -0.092  15.348  1.00  0.00     0.059 C 
HETATM   12  C20 UNL     1       8.703   0.092  16.772  1.00  0.00     0.040 C 
HETATM   13  C21 UNL     1       9.461  -0.188  18.063  1.00  0.00     0.009 C 
HETATM   14  C22 UNL     1       8.944   0.908  18.954  1.00  0.00     0.040 C 
ENDROOT
BRANCH   6  15
HETATM   15  O5  UNL     1       4.062   1.655  19.426  1.00  0.00    -0.355 OA
HETATM   16  C15 UNL     1       3.407   2.840  19.002  1.00  0.00     0.210 C 
ENDBRANCH   6  15
BRANCH   1  17
HETATM   17  C8  UNL     1       6.479   1.851  20.716  1.00  0.00     0.144 C 
BRANCH  17  18
HETATM   18  C7  UNL     1       6.653   3.314  20.808  1.00  0.00     0.222 C 
HETATM   19  N1  UNL     1       5.671   4.201  21.302  1.00  0.00    -0.356 N 
ATOM     20  H1  UNL     1       4.781   3.812  21.615  1.00  0.00     0.162 HD
HETATM   21  O4  UNL     1       7.735   3.813  20.429  1.00  0.00    -0.273 OA
BRANCH  19  22
HETATM   22  C6  UNL     1       5.858   5.614  21.386  1.00  0.00     0.084 C 
HETATM   23  C5  UNL     1       7.319   6.010  21.192  1.00  0.00     0.028 C 
HETATM   24  C4  UNL     1       7.485   7.371  21.834  1.00  0.00     0.050 C 
HETATM   25  C3  UNL     1       6.435   8.284  21.263  1.00  0.00     0.145 C 
HETATM   26  C24 UNL     1       5.752   7.718  20.043  1.00  0.00     0.050 C 
HETATM   27  C23 UNL     1       5.090   6.387  20.334  1.00  0.00     0.028 C 
BRANCH  25  28
HETATM   28  C2  UNL     1       7.125   9.538  20.813  1.00  0.00     0.293 C 
HETATM   29  O2  UNL     1       8.187   9.937  21.374  1.00  0.00    -0.262 OA
BRANCH  28  30
HETATM   30  O1  UNL     1       6.631  10.305  19.773  1.00  0.00    -0.324 OA
HETATM   31  C1  UNL     1       7.410  11.387  19.242  1.00  0.00     0.213 C 
ENDBRANCH  28  30
ENDBRANCH  25  28
BRANCH  25  32
HETATM   32  O3  UNL     1       5.516   8.591  22.271  1.00  0.00    -0.380 OA
ATOM     33  H3  UNL     1       5.007   7.818  22.485  1.00  0.00     0.211 HD
ENDBRANCH  25  32
ENDBRANCH  19  22
ENDBRANCH  17  18
ENDBRANCH   1  17
TORSDOF 7
ENDMDL
MODEL 3
REMARK VINA RESULT: -7.384228789      4.272      5.684
REMARK  7 active torsions:
REMARK  status: ('A' for Active; 'I' for Inactive)
REMARK    1  A    between atoms: O1_2  and  C2_3 
REMARK    2  A    between atoms: C2_3  and  C3_5 
REMARK    3  A    between atoms: C3_5  and  O3_6 
REMARK    4  A    between atoms: C6_10  and  N1_11 
REMARK       I    between atoms: N1_11  and  C7_13 
REMARK    5  A    between atoms: C7_13  and  C8_15 
REMARK    6  A    between atoms: C8_15  and  C9_16 
REMARK    7  A    between atoms: C14_21  and  O5_22 
ROOT
HETATM    1  C9  UNL     1       5.592   2.632  17.962  1.00  0.00    -0.009 A 
HETATM    2  C10 UNL     1       5.798   2.515  19.322  1.00  0.00    -0.042 A 
HETATM    3  C11 UNL     1       6.796   1.675  19.817  1.00  0.00    -0.044 A 
HETATM    4  C12 UNL     1       7.606   0.939  18.980  1.00  0.00    -0.041 A 
HETATM    5  C13 UNL     1       7.399   1.055  17.625  1.00  0.00    -0.016 A 
HETATM    6  C14 UNL     1       6.402   1.894  17.138  1.00  0.00     0.082 A 
HETATM    7  C16 UNL     1       8.379   0.173  16.943  1.00  0.00     0.061 C 
HETATM    8  C17 UNL     1       9.519   0.167  17.937  1.00  0.00     0.101 C 
HETATM    9  C18 UNL     1      10.392  -0.987  17.746  1.00  0.00     0.064 C 
HETATM   10  N2  UNL     1      11.090  -1.895  17.593  1.00  0.00    -0.197 NA
HETATM   11  C19 UNL     1       8.730  -0.019  19.242  1.00  0.00     0.059 C 
HETATM   12  C20 UNL     1       6.810   1.727  21.308  1.00  0.00     0.040 C 
HETATM   13  C21 UNL     1       5.371   2.145  21.580  1.00  0.00     0.009 C 
HETATM   14  C22 UNL     1       5.141   3.148  20.482  1.00  0.00     0.040 C 
ENDROOT
BRANCH   6  15
HETATM   15  O5  UNL     1       6.213   1.995  15.777  1.00  0.00    -0.355 OA
HETATM   16  C15 UNL     1       5.401   1.015  15.149  1.00  0.00     0.210 C 
ENDBRANCH   6  15
BRANCH   1  17
HETATM   17  C8  UNL     1       4.556   3.487  17.381  1.00  0.00     0.144 C 
BRANCH  17  18
HETATM   18  C7  UNL     1       5.022   4.847  17.043  1.00  0.00     0.222 C 
HETATM   19  N1  UNL     1       5.590   5.204  15.800  1.00  0.00    -0.356 N 
ATOM     20  H1  UNL     1       5.688   4.481  15.087  1.00  0.00     0.162 HD
HETATM   21  O4  UNL     1       4.913   5.748  17.903  1.00  0.00    -0.273 OA
BRANCH  19  22
HETATM   22  C6  UNL     1       6.033   6.526  15.490  1.00  0.00     0.084 C 
HETATM   23  C5  UNL     1       7.059   6.534  14.359  1.00  0.00     0.028 C 
HETATM   24  C4  UNL     1       7.840   7.823  14.496  1.00  0.00     0.050 C 
HETATM   25  C3  UNL     1       6.855   8.958  14.550  1.00  0.00     0.145 C 
HETATM   26  C24 UNL     1       5.457   8.555  14.150  1.00  0.00     0.050 C 
HETATM   27  C23 UNL     1       4.920   7.442  15.027  1.00  0.00     0.028 C 
BRANCH  25  28
HETATM   28  C2  UNL     1       7.296   9.986  13.549  1.00  0.00     0.293 C 
HETATM   29  O2  UNL     1       8.453   9.944  13.038  1.00  0.00    -0.262 OA
BRANCH  28  30
HETATM   30  O1  UNL     1       6.461  11.013  13.147  1.00  0.00    -0.324 OA
HETATM   31  C1  UNL     1       6.475  12.267  13.843  1.00  0.00     0.213 C 
ENDBRANCH  28  30
ENDBRANCH  25  28
BRANCH  25  32
HETATM   32  O3  UNL     1       6.884   9.513  15.833  1.00  0.00    -0.380 OA
ATOM     33  H3  UNL     1       6.004   9.526  16.194  1.00  0.00     0.211 HD
ENDBRANCH  25  32
ENDBRANCH  19  22
ENDBRANCH  17  18
ENDBRANCH   1  17
TORSDOF 7
ENDMDL
MODEL 4
REMARK VINA RESULT: -7.316727608      1.576      1.946
REMARK  7 active torsions:
REMARK  status: ('A' for Active; 'I' for Inactive)
REMARK    1  A    between atoms: O1_2  and  C2_3 
REMARK    2  A    between atoms: C2_3  and  C3_5 
REMARK    3  A    between atoms: C3_5  and  O3_6 
REMARK    4  A    between atoms: C6_10  and  N1_11 
REMARK       I    between atoms: N1_11  and  C7_13 
REMARK    5  A    between atoms: C7_13  and  C8_15 
REMARK    6  A    between atoms: C8_15  and  C9_16 
REMARK    7  A    between atoms: C14_21  and  O5_22 
ROOT
HETATM    1  C9  UNL     1       5.389   2.113  18.789  1.00  0.00    -0.009 A 
HETATM    2  C10 UNL     1       6.638   1.561  18.587  1.00  0.00    -0.042 A 
HETATM    3  C11 UNL     1       6.847   0.638  17.561  1.00  0.00    -0.044 A 
HETATM    4  C12 UNL     1       5.828   0.246  16.720  1.00  0.00    -0.041 A 
HETATM    5  C13 UNL     1       4.584   0.795  16.923  1.00  0.00    -0.016 A 
HETATM    6  C14 UNL     1       4.383   1.715  17.947  1.00  0.00     0.082 A 
HETATM    7  C16 UNL     1       3.666   0.221  15.908  1.00  0.00     0.061 C 
HETATM    8  C17 UNL     1       4.622  -0.076  14.774  1.00  0.00     0.101 C 
HETATM    9  C18 UNL     1       4.078  -1.073  13.858  1.00  0.00     0.064 C 
HETATM   10  N2  UNL     1       3.646  -1.857  13.127  1.00  0.00    -0.197 NA
HETATM   11  C19 UNL     1       5.779  -0.707  15.563  1.00  0.00     0.059 C 
HETATM   12  C20 UNL     1       8.272   0.196  17.558  1.00  0.00     0.040 C 
HETATM   13  C21 UNL     1       8.641   0.454  19.013  1.00  0.00     0.009 C 
HETATM   14  C22 UNL     1       7.931   1.754  19.273  1.00  0.00     0.040 C 
ENDROOT
BRANCH   6  15
HETATM   15  O5  UNL     1       3.128   2.254  18.133  1.00  0.00    -0.355 OA
HETATM   16  C15 UNL     1       2.739   3.325  17.287  1.00  0.00     0.210 C 
ENDBRANCH   6  15
BRANCH   1  17
HETATM   17  C8  UNL     1       5.105   3.078  19.852  1.00  0.00     0.144 C 
BRANCH  17  18
HETATM   18  C7  UNL     1       5.729   4.399  19.645  1.00  0.00     0.222 C 
HETATM   19  N1  UNL     1       6.323   5.166  20.672  1.00  0.00    -0.356 N 
ATOM     20  H1  UNL     1       6.322   4.789  21.619  1.00  0.00     0.162 HD
HETATM   21  O4  UNL     1       5.740   4.882  18.491  1.00  0.00    -0.273 OA
BRANCH  19  22
HETATM   22  C6  UNL     1       6.924   6.443  20.452  1.00  0.00     0.084 C 
HETATM   23  C5  UNL     1       5.935   7.586  20.665  1.00  0.00     0.028 C 
HETATM   24  C4  UNL     1       6.476   8.772  19.894  1.00  0.00     0.050 C 
HETATM   25  C3  UNL     1       7.899   8.994  20.325  1.00  0.00     0.145 C 
HETATM   26  C24 UNL     1       8.274   8.225  21.568  1.00  0.00     0.050 C 
HETATM   27  C23 UNL     1       8.080   6.733  21.387  1.00  0.00     0.028 C 
BRANCH  25  28
HETATM   28  C2  UNL     1       8.043  10.447  20.674  1.00  0.00     0.293 C 
HETATM   29  O2  UNL     1       8.036  10.832  21.880  1.00  0.00    -0.262 OA
BRANCH  28  30
HETATM   30  O1  UNL     1       8.187  11.417  19.699  1.00  0.00    -0.324 OA
HETATM   31  C1  UNL     1       7.978  12.799  20.021  1.00  0.00     0.213 C 
ENDBRANCH  28  30
ENDBRANCH  25  28
BRANCH  25  32
HETATM   32  O3  UNL     1       8.742   8.684  19.255  1.00  0.00    -0.380 OA
ATOM     33  H3  UNL     1       9.203   7.873  19.437  1.00  0.00     0.211 HD
ENDBRANCH  25  32
ENDBRANCH  19  22
ENDBRANCH  17  18
ENDBRANCH   1  17
TORSDOF 7
ENDMDL
MODEL 5
REMARK VINA RESULT: -7.309663612      2.856      9.122
REMARK  7 active torsions:
REMARK  status: ('A' for Active; 'I' for Inactive)
REMARK    1  A    between atoms: O1_2  and  C2_3 
REMARK    2  A    between atoms: C2_3  and  C3_5 
REMARK    3  A    between atoms: C3_5  and  O3_6 
REMARK    4  A    between atoms: C6_10  and  N1_11 
REMARK       I    between atoms: N1_11  and  C7_13 
REMARK    5  A    between atoms: C7_13  and  C8_15 
REMARK    6  A    between atoms: C8_15  and  C9_16 
REMARK    7  A    between atoms: C14_21  and  O5_22 
ROOT
HETATM    1  C9  UNL     1       5.480   7.881  21.976  1.00  0.00    -0.009 A 
HETATM    2  C10 UNL     1       6.284   8.527  21.059  1.00  0.00    -0.042 A 
HETATM    3  C11 UNL     1       7.555   8.975  21.424  1.00  0.00    -0.044 A 
HETATM    4  C12 UNL     1       8.050   8.794  22.697  1.00  0.00    -0.041 A 
HETATM    5  C13 UNL     1       7.247   8.151  23.610  1.00  0.00    -0.016 A 
HETATM    6  C14 UNL     1       5.982   7.707  23.240  1.00  0.00     0.082 A 
HETATM    7  C16 UNL     1       7.991   8.081  24.893  1.00  0.00     0.061 C 
HETATM    8  C17 UNL     1       9.424   8.065  24.408  1.00  0.00     0.101 C 
HETATM    9  C18 UNL     1      10.350   8.483  25.455  1.00  0.00     0.064 C 
HETATM   10  N2  UNL     1      11.088   8.806  26.284  1.00  0.00    -0.197 NA
HETATM   11  C19 UNL     1       9.353   9.167  23.340  1.00  0.00     0.059 C 
HETATM   12  C20 UNL     1       8.213   9.637  20.259  1.00  0.00     0.040 C 
HETATM   13  C21 UNL     1       6.989  10.066  19.462  1.00  0.00     0.009 C 
HETATM   14  C22 UNL     1       6.087   8.876  19.638  1.00  0.00     0.040 C 
ENDROOT
BRANCH   6  15
HETATM   15  O5  UNL     1       5.195   7.064  24.171  1.00  0.00    -0.355 OA
HETATM   16  C15 UNL     1       4.256   7.847  24.892  1.00  0.00     0.210 C 
ENDBRANCH   6  15
BRANCH   1  17
HETATM   17  C8  UNL     1       4.136   7.396  21.658  1.00  0.00     0.144 C 
BRANCH  17  18
HETATM   18  C7  UNL     1       4.120   6.137  20.889  1.00  0.00     0.222 C 
HETATM   19  N1  UNL     1       5.168   5.189  20.896  1.00  0.00    -0.356 N 
ATOM     20  H1  UNL     1       5.990   5.383  21.467  1.00  0.00     0.162 HD
HETATM   21  O4  UNL     1       3.122   5.880  20.181  1.00  0.00    -0.273 OA
BRANCH  19  22
HETATM   22  C6  UNL     1       5.134   3.974  20.147  1.00  0.00     0.084 C 
HETATM   23  C5  UNL     1       5.599   4.177  18.707  1.00  0.00     0.028 C 
HETATM   24  C4  UNL     1       5.013   3.038  17.901  1.00  0.00     0.050 C 
HETATM   25  C3  UNL     1       5.389   1.749  18.578  1.00  0.00     0.145 C 
HETATM   26  C24 UNL     1       6.456   1.917  19.631  1.00  0.00     0.050 C 
HETATM   27  C23 UNL     1       6.034   2.893  20.711  1.00  0.00     0.028 C 
BRANCH  25  28
HETATM   28  C2  UNL     1       5.972   0.844  17.533  1.00  0.00     0.293 C 
HETATM   29  O2  UNL     1       7.191   0.503  17.572  1.00  0.00    -0.262 OA
BRANCH  28  30
HETATM   30  O1  UNL     1       5.208   0.349  16.493  1.00  0.00    -0.324 OA
HETATM   31  C1  UNL     1       5.767  -0.605  15.577  1.00  0.00     0.213 C 
ENDBRANCH  28  30
ENDBRANCH  25  28
BRANCH  25  32
HETATM   32  O3  UNL     1       4.232   1.169  19.107  1.00  0.00    -0.380 OA
ATOM     33  H3  UNL     1       3.649   1.851  19.421  1.00  0.00     0.211 HD
ENDBRANCH  25  32
ENDBRANCH  19  22
ENDBRANCH  17  18
ENDBRANCH   1  17
TORSDOF 7
ENDMDL
