MODEL 1
REMARK VINA RESULT: -5.982638423      0.000      0.000
REMARK  9 active torsions:
REMARK  status: ('A' for Active; 'I' for Inactive)
REMARK    1  A    between atoms: C3_3  and  C4_4 
REMARK    2  A    between atoms: C5_7  and  O1_8 
REMARK    3  A    between atoms: C6_10  and  C7_11 
REMARK    4  A    between atoms: C7_11  and  C8_12 
REMARK    5  A    between atoms: C13_22  and  O3_23 
REMARK    6  A    between atoms: C14_25  and  C15_26 
REMARK    7  A    between atoms: C15_26  and  C16_27 
REMARK    8  A    between atoms: C16_27  and  C17_28 
REMARK    9  A    between atoms: C19_32  and  O4_33 
ROOT
HETATM    1  C1  UNL     1      11.589  -4.168  23.649  1.00  0.00     0.012 C 
HETATM    2  C2  UNL     1      12.711  -4.190  23.206  1.00  0.00    -0.115 C 
HETATM    3  C3  UNL     1      14.094  -4.193  22.670  1.00  0.00     0.128 C 
ENDROOT
BRANCH   3   4
HETATM    4  C4  UNL     1      13.915  -4.254  21.135  1.00  0.00     0.194 C 
HETATM    5  N1  UNL     1      15.081  -3.797  20.482  1.00  0.00    -0.358 N 
HETATM    6  C5  UNL     1      15.683  -4.026  19.253  1.00  0.00     0.135 C 
ATOM      7  H1  UNL     1      15.609  -3.137  21.053  1.00  0.00     0.162 HD
HETATM    8  C6  UNL     1      15.072  -4.129  17.918  1.00  0.00     0.159 C 
HETATM    9  N2  UNL     1      16.063  -4.498  16.905  1.00  0.00    -0.347 N 
HETATM   10  C10 UNL     1      16.258  -5.717  16.269  1.00  0.00     0.240 C 
ATOM     11  H2  UNL     1      16.701  -3.753  16.625  1.00  0.00     0.163 HD
HETATM   12  O2  UNL     1      17.452  -6.198  16.359  1.00  0.00    -0.271 OA
HETATM   13  C11 UNL     1      15.316  -6.541  15.510  1.00  0.00     0.171 C 
HETATM   14  C12 UNL     1      14.487  -5.695  14.528  1.00  0.00     0.042 C 
HETATM   15  N3  UNL     1      14.516  -7.484  16.196  1.00  0.00    -0.360 N 
HETATM   16  C13 UNL     1      14.543  -8.050  17.484  1.00  0.00     0.135 C 
ATOM     17  H3  UNL     1      13.744  -7.833  15.629  1.00  0.00     0.162 HD
HETATM   18  C14 UNL     1      15.640  -8.634  18.254  1.00  0.00     0.158 C 
HETATM   19  N4  UNL     1      16.079  -7.780  19.372  1.00  0.00    -0.360 N 
HETATM   20  C19 UNL     1      15.821  -7.755  20.713  1.00  0.00     0.142 C 
ATOM     21  H4  UNL     1      16.719  -7.042  19.079  1.00  0.00     0.162 HD
HETATM   22  C20 UNL     1      14.638  -7.538  21.569  1.00  0.00     0.202 C 
HETATM   23  C21 UNL     1      13.993  -8.841  22.020  1.00  0.00     0.049 C 
HETATM   24  O5  UNL     1      13.652  -6.717  21.133  1.00  0.00    -0.306 OA
HETATM   25  C22 UNL     1      13.291  -5.511  20.715  1.00  0.00     0.283 C 
HETATM   26  O6  UNL     1      12.326  -5.327  19.874  1.00  0.00    -0.263 OA
BRANCH   6  27
HETATM   27  O1  UNL     1      16.974  -4.179  19.254  1.00  0.00    -0.348 OA
ATOM     28  H1  UNL     1      17.465  -3.660  18.629  1.00  0.00     0.219 HD
ENDBRANCH   6  27
BRANCH   8  29
HETATM   29  C7  UNL     1      14.408  -2.863  17.521  1.00  0.00     0.033 C 
BRANCH  29  30
HETATM   30  C8  UNL     1      15.227  -1.745  17.000  1.00  0.00    -0.002 C 
HETATM   31  C9  UNL     1      14.561  -0.510  16.529  1.00  0.00     0.005 C 
ENDBRANCH  29  30
ENDBRANCH   8  29
BRANCH  16  32
HETATM   32  O3  UNL     1      13.408  -8.066  18.126  1.00  0.00    -0.348 OA
ATOM     33  H3  UNL     1      13.025  -8.923  18.274  1.00  0.00     0.219 HD
ENDBRANCH  16  32
BRANCH  18  34
HETATM   34  C15 UNL     1      15.572 -10.070  18.659  1.00  0.00     0.033 C 
BRANCH  34  35
HETATM   35  C16 UNL     1      16.804 -10.780  19.059  1.00  0.00     0.002 C 
BRANCH  35  36
HETATM   36  C17 UNL     1      18.030 -10.594  18.238  1.00  0.00    -0.004 C 
HETATM   37  C18 UNL     1      18.444 -11.926  17.612  1.00  0.00     0.005 C 
ENDBRANCH  35  36
ENDBRANCH  34  35
ENDBRANCH  18  34
BRANCH  20  38
HETATM   38  O4  UNL     1      16.820  -7.967  21.524  1.00  0.00    -0.348 OA
ATOM     39  H4  UNL     1      17.030  -7.284  22.151  1.00  0.00     0.219 HD
ENDBRANCH  20  38
ENDBRANCH   3   4
TORSDOF 9
ENDMDL
MODEL 2
REMARK VINA RESULT: -5.946736315      2.004      6.116
REMARK  9 active torsions:
REMARK  status: ('A' for Active; 'I' for Inactive)
REMARK    1  A    between atoms: C3_3  and  C4_4 
REMARK    2  A    between atoms: C5_7  and  O1_8 
REMARK    3  A    between atoms: C6_10  and  C7_11 
REMARK    4  A    between atoms: C7_11  and  C8_12 
REMARK    5  A    between atoms: C13_22  and  O3_23 
REMARK    6  A    between atoms: C14_25  and  C15_26 
REMARK    7  A    between atoms: C15_26  and  C16_27 
REMARK    8  A    between atoms: C16_27  and  C17_28 
REMARK    9  A    between atoms: C19_32  and  O4_33 
ROOT
HETATM    1  C1  UNL     1      15.711 -12.780  20.267  1.00  0.00     0.012 C 
HETATM    2  C2  UNL     1      15.003 -11.979  19.708  1.00  0.00    -0.115 C 
HETATM    3  C3  UNL     1      14.132 -11.010  19.000  1.00  0.00     0.128 C 
ENDROOT
BRANCH   3   4
HETATM    4  C4  UNL     1      15.039  -9.784  18.749  1.00  0.00     0.194 C 
HETATM    5  N1  UNL     1      14.603  -9.070  17.611  1.00  0.00    -0.358 N 
HETATM    6  C5  UNL     1      14.680  -7.754  17.176  1.00  0.00     0.135 C 
ATOM      7  H1  UNL     1      14.112  -9.667  16.946  1.00  0.00     0.162 HD
HETATM    8  C6  UNL     1      15.813  -6.817  17.231  1.00  0.00     0.159 C 
HETATM    9  N2  UNL     1      15.425  -5.483  16.767  1.00  0.00    -0.347 N 
HETATM   10  C10 UNL     1      15.190  -4.330  17.506  1.00  0.00     0.240 C 
ATOM     11  H2  UNL     1      15.311  -5.386  15.758  1.00  0.00     0.163 HD
HETATM   12  O2  UNL     1      14.039  -3.780  17.313  1.00  0.00    -0.271 OA
HETATM   13  C11 UNL     1      16.051  -3.640  18.468  1.00  0.00     0.171 C 
HETATM   14  C12 UNL     1      17.491  -3.507  17.946  1.00  0.00     0.042 C 
HETATM   15  N3  UNL     1      16.018  -4.033  19.826  1.00  0.00    -0.360 N 
HETATM   16  C13 UNL     1      15.149  -4.817  20.607  1.00  0.00     0.135 C 
ATOM     17  H3  UNL     1      16.805  -3.665  20.362  1.00  0.00     0.162 HD
HETATM   18  C14 UNL     1      13.692  -4.809  20.723  1.00  0.00     0.158 C 
HETATM   19  N4  UNL     1      13.056  -5.975  20.085  1.00  0.00    -0.360 N 
HETATM   20  C19 UNL     1      12.581  -7.173  20.540  1.00  0.00     0.142 C 
ATOM     21  H4  UNL     1      12.945  -5.863  19.078  1.00  0.00     0.162 HD
HETATM   22  C20 UNL     1      13.152  -8.372  21.185  1.00  0.00     0.202 C 
HETATM   23  C21 UNL     1      12.998  -8.352  22.699  1.00  0.00     0.049 C 
HETATM   24  O5  UNL     1      14.429  -8.726  20.904  1.00  0.00    -0.306 OA
HETATM   25  C22 UNL     1      15.330  -9.064  19.991  1.00  0.00     0.283 C 
HETATM   26  O6  UNL     1      16.587  -8.784  20.118  1.00  0.00    -0.263 OA
BRANCH   6  27
HETATM   27  O1  UNL     1      13.606  -7.252  16.642  1.00  0.00    -0.348 OA
ATOM     28  H1  UNL     1      12.884  -7.066  17.231  1.00  0.00     0.219 HD
ENDBRANCH   6  27
BRANCH   8  29
HETATM   29  C7  UNL     1      16.963  -7.302  16.429  1.00  0.00     0.033 C 
BRANCH  29  30
HETATM   30  C8  UNL     1      17.961  -8.198  17.057  1.00  0.00    -0.002 C 
HETATM   31  C9  UNL     1      18.091  -9.593  16.582  1.00  0.00     0.005 C 
ENDBRANCH  29  30
ENDBRANCH   8  29
BRANCH  16  32
HETATM   32  O3  UNL     1      15.714  -5.716  21.364  1.00  0.00    -0.348 OA
ATOM     33  H3  UNL     1      15.900  -6.551  20.952  1.00  0.00     0.219 HD
ENDBRANCH  16  32
BRANCH  18  34
HETATM   34  C15 UNL     1      13.061  -4.497  22.040  1.00  0.00     0.033 C 
BRANCH  34  35
HETATM   35  C16 UNL     1      13.834  -3.780  23.074  1.00  0.00     0.002 C 
BRANCH  35  36
HETATM   36  C17 UNL     1      13.575  -4.096  24.503  1.00  0.00    -0.004 C 
HETATM   37  C18 UNL     1      14.211  -3.030  25.397  1.00  0.00     0.005 C 
ENDBRANCH  35  36
ENDBRANCH  34  35
ENDBRANCH  18  34
BRANCH  20  38
HETATM   38  O4  UNL     1      11.305  -7.404  20.412  1.00  0.00    -0.348 OA
ATOM     39  H4  UNL     1      10.738  -7.157  21.133  1.00  0.00     0.219 HD
ENDBRANCH  20  38
ENDBRANCH   3   4
TORSDOF 9
ENDMDL
MODEL 3
REMARK VINA RESULT: -5.932266831      3.055      6.366
REMARK  9 active torsions:
REMARK  status: ('A' for Active; 'I' for Inactive)
REMARK    1  A    between atoms: C3_3  and  C4_4 
REMARK    2  A    between atoms: C5_7  and  O1_8 
REMARK    3  A    between atoms: C6_10  and  C7_11 
REMARK    4  A    between atoms: C7_11  and  C8_12 
REMARK    5  A    between atoms: C13_22  and  O3_23 
REMARK    6  A    between atoms: C14_25  and  C15_26 
REMARK    7  A    between atoms: C15_26  and  C16_27 
REMARK    8  A    between atoms: C16_27  and  C17_28 
REMARK    9  A    between atoms: C19_32  and  O4_33 
ROOT
HETATM    1  C1  UNL     1      13.140 -12.225  23.638  1.00  0.00     0.012 C 
HETATM    2  C2  UNL     1      13.573 -11.447  22.825  1.00  0.00    -0.115 C 
HETATM    3  C3  UNL     1      14.118 -10.478  21.844  1.00  0.00     0.128 C 
ENDROOT
BRANCH   3   4
HETATM    4  C4  UNL     1      12.893  -9.648  21.396  1.00  0.00     0.194 C 
HETATM    5  N1  UNL     1      12.464  -8.796  22.438  1.00  0.00    -0.358 N 
HETATM    6  C5  UNL     1      11.795  -7.582  22.513  1.00  0.00     0.135 C 
ATOM      7  H1  UNL     1      12.705  -9.160  23.359  1.00  0.00     0.162 HD
HETATM    8  C6  UNL     1      10.626  -7.111  21.755  1.00  0.00     0.159 C 
HETATM    9  N2  UNL     1      10.314  -5.714  22.066  1.00  0.00    -0.347 N 
HETATM   10  C10 UNL     1      10.536  -4.573  21.305  1.00  0.00     0.240 C 
ATOM     11  H2  UNL     1       9.871  -5.556  22.971  1.00  0.00     0.163 HD
HETATM   12  O2  UNL     1      11.212  -3.645  21.892  1.00  0.00    -0.271 OA
HETATM   13  C11 UNL     1      10.117  -4.261  19.938  1.00  0.00     0.171 C 
HETATM   14  C12 UNL     1       8.645  -4.635  19.697  1.00  0.00     0.042 C 
HETATM   15  N3  UNL     1      10.942  -4.654  18.858  1.00  0.00    -0.360 N 
HETATM   16  C13 UNL     1      12.272  -5.098  18.742  1.00  0.00     0.135 C 
ATOM     17  H3  UNL     1      10.464  -4.603  17.958  1.00  0.00     0.162 HD
HETATM   18  C14 UNL     1      13.513  -4.574  19.313  1.00  0.00     0.158 C 
HETATM   19  N4  UNL     1      14.052  -5.420  20.392  1.00  0.00    -0.360 N 
HETATM   20  C19 UNL     1      15.020  -6.382  20.459  1.00  0.00     0.142 C 
ATOM     21  H4  UNL     1      13.603  -5.249  21.292  1.00  0.00     0.162 HD
HETATM   22  C20 UNL     1      15.234  -7.723  19.879  1.00  0.00     0.202 C 
HETATM   23  C21 UNL     1      16.115  -7.690  18.638  1.00  0.00     0.049 C 
HETATM   24  O5  UNL     1      14.160  -8.501  19.603  1.00  0.00    -0.306 OA
HETATM   25  C22 UNL     1      13.068  -9.113  20.044  1.00  0.00     0.283 C 
HETATM   26  O6  UNL     1      12.029  -9.302  19.298  1.00  0.00    -0.263 OA
BRANCH   6  27
HETATM   27  O1  UNL     1      12.251  -6.716  23.369  1.00  0.00    -0.348 OA
ATOM     28  H1  UNL     1      13.026  -6.966  23.857  1.00  0.00     0.219 HD
ENDBRANCH   6  27
BRANCH   8  29
HETATM   29  C7  UNL     1       9.431  -7.952  22.014  1.00  0.00     0.033 C 
BRANCH  29  30
HETATM   30  C8  UNL     1       8.908  -8.823  20.937  1.00  0.00    -0.002 C 
HETATM   31  C9  UNL     1       8.767  -8.285  19.566  1.00  0.00     0.005 C 
ENDBRANCH  29  30
ENDBRANCH   8  29
BRANCH  16  32
HETATM   32  O3  UNL     1      12.460  -6.158  18.008  1.00  0.00    -0.348 OA
ATOM     33  H3  UNL     1      13.185  -6.718  18.260  1.00  0.00     0.219 HD
ENDBRANCH  16  32
BRANCH  18  34
HETATM   34  C15 UNL     1      14.596  -4.094  18.404  1.00  0.00     0.033 C 
BRANCH  34  35
HETATM   35  C16 UNL     1      15.606  -3.139  18.905  1.00  0.00     0.002 C 
BRANCH  35  36
HETATM   36  C17 UNL     1      17.034  -3.375  18.569  1.00  0.00    -0.004 C 
HETATM   37  C18 UNL     1      17.139  -4.336  17.384  1.00  0.00     0.005 C 
ENDBRANCH  35  36
ENDBRANCH  34  35
ENDBRANCH  18  34
BRANCH  20  38
HETATM   38  O4  UNL     1      16.061  -6.141  21.205  1.00  0.00    -0.348 OA
ATOM     39  H4  UNL     1      16.914  -6.147  20.786  1.00  0.00     0.219 HD
ENDBRANCH  20  38
ENDBRANCH   3   4
TORSDOF 9
ENDMDL
MODEL 4
REMARK VINA RESULT: -5.817339288      4.446      6.402
REMARK  9 active torsions:
REMARK  status: ('A' for Active; 'I' for Inactive)
REMARK    1  A    between atoms: C3_3  and  C4_4 
REMARK    2  A    between atoms: C5_7  and  O1_8 
REMARK    3  A    between atoms: C6_10  and  C7_11 
REMARK    4  A    between atoms: C7_11  and  C8_12 
REMARK    5  A    between atoms: C13_22  and  O3_23 
REMARK    6  A    between atoms: C14_25  and  C15_26 
REMARK    7  A    between atoms: C15_26  and  C16_27 
REMARK    8  A    between atoms: C16_27  and  C17_28 
REMARK    9  A    between atoms: C19_32  and  O4_33 
ROOT
HETATM    1  C1  UNL     1       4.997  -6.949  21.051  1.00  0.00     0.012 C 
HETATM    2  C2  UNL     1       5.855  -7.764  20.818  1.00  0.00    -0.115 C 
HETATM    3  C3  UNL     1       6.910  -8.773  20.555  1.00  0.00     0.128 C 
ENDROOT
BRANCH   3   4
HETATM    4  C4  UNL     1       8.173  -7.941  20.235  1.00  0.00     0.194 C 
HETATM    5  N1  UNL     1       8.448  -7.036  21.285  1.00  0.00    -0.358 N 
HETATM    6  C5  UNL     1       9.583  -6.412  21.784  1.00  0.00     0.135 C 
ATOM      7  H1  UNL     1       7.608  -6.777  21.801  1.00  0.00     0.162 HD
HETATM    8  C6  UNL     1      10.701  -5.788  21.059  1.00  0.00     0.159 C 
HETATM    9  N2  UNL     1      11.755  -5.352  21.978  1.00  0.00    -0.347 N 
HETATM   10  C10 UNL     1      12.998  -5.922  22.225  1.00  0.00     0.240 C 
ATOM     11  H2  UNL     1      11.548  -4.509  22.513  1.00  0.00     0.163 HD
HETATM   12  O2  UNL     1      13.239  -6.198  23.461  1.00  0.00    -0.271 OA
HETATM   13  C11 UNL     1      14.079  -6.255  21.296  1.00  0.00     0.171 C 
HETATM   14  C12 UNL     1      14.342  -5.112  20.300  1.00  0.00     0.042 C 
HETATM   15  N3  UNL     1      14.074  -7.517  20.658  1.00  0.00    -0.360 N 
HETATM   16  C13 UNL     1      13.381  -8.725  20.862  1.00  0.00     0.135 C 
ATOM     17  H3  UNL     1      14.722  -7.563  19.871  1.00  0.00     0.162 HD
HETATM   18  C14 UNL     1      13.137  -9.498  22.078  1.00  0.00     0.158 C 
HETATM   19  N4  UNL     1      11.740  -9.419  22.541  1.00  0.00    -0.360 N 
HETATM   20  C19 UNL     1      10.644 -10.225  22.413  1.00  0.00     0.142 C 
ATOM     21  H4  UNL     1      11.548  -8.574  23.077  1.00  0.00     0.162 HD
HETATM   22  C20 UNL     1       9.803 -10.714  21.303  1.00  0.00     0.202 C 
HETATM   23  C21 UNL     1      10.207 -12.104  20.830  1.00  0.00     0.049 C 
HETATM   24  O5  UNL     1       9.641  -9.935  20.206  1.00  0.00    -0.306 OA
HETATM   25  C22 UNL     1       9.248  -8.776  19.695  1.00  0.00     0.283 C 
HETATM   26  O6  UNL     1       9.791  -8.262  18.640  1.00  0.00    -0.263 OA
BRANCH   6  27
HETATM   27  O1  UNL     1       9.701  -6.363  23.078  1.00  0.00    -0.348 OA
ATOM     28  H1  UNL     1      10.585  -6.360  23.426  1.00  0.00     0.219 HD
ENDBRANCH   6  27
BRANCH   8  29
HETATM   29  C7  UNL     1      10.249  -4.634  20.244  1.00  0.00     0.033 C 
BRANCH  29  30
HETATM   30  C8  UNL     1       9.156  -3.772  20.749  1.00  0.00    -0.002 C 
HETATM   31  C9  UNL     1       7.845  -3.778  20.061  1.00  0.00     0.005 C 
ENDBRANCH  29  30
ENDBRANCH   8  29
BRANCH  16  32
HETATM   32  O3  UNL     1      12.852  -9.267  19.801  1.00  0.00    -0.348 OA
ATOM     33  H3  UNL     1      11.993  -9.656  19.916  1.00  0.00     0.219 HD
ENDBRANCH  16  32
BRANCH  18  34
HETATM   34  C15 UNL     1      13.669 -10.889  22.185  1.00  0.00     0.033 C 
BRANCH  34  35
HETATM   35  C16 UNL     1      13.680 -11.573  23.494  1.00  0.00     0.002 C 
BRANCH  35  36
HETATM   36  C17 UNL     1      13.943 -13.035  23.530  1.00  0.00    -0.004 C 
HETATM   37  C18 UNL     1      14.954 -13.355  24.634  1.00  0.00     0.005 C 
ENDBRANCH  35  36
ENDBRANCH  34  35
ENDBRANCH  18  34
BRANCH  20  38
HETATM   38  O4  UNL     1      10.142 -10.740  23.500  1.00  0.00    -0.348 OA
ATOM     39  H4  UNL     1       9.494 -11.428  23.403  1.00  0.00     0.219 HD
ENDBRANCH  20  38
ENDBRANCH   3   4
TORSDOF 9
ENDMDL
MODEL 5
REMARK VINA RESULT: -5.748714313      2.868      4.228
REMARK  9 active torsions:
REMARK  status: ('A' for Active; 'I' for Inactive)
REMARK    1  A    between atoms: C3_3  and  C4_4 
REMARK    2  A    between atoms: C5_7  and  O1_8 
REMARK    3  A    between atoms: C6_10  and  C7_11 
REMARK    4  A    between atoms: C7_11  and  C8_12 
REMARK    5  A    between atoms: C13_22  and  O3_23 
REMARK    6  A    between atoms: C14_25  and  C15_26 
REMARK    7  A    between atoms: C15_26  and  C16_27 
REMARK    8  A    between atoms: C16_27  and  C17_28 
REMARK    9  A    between atoms: C19_32  and  O4_33 
ROOT
HETATM    1  C1  UNL     1       8.219  -4.155  21.165  1.00  0.00     0.012 C 
HETATM    2  C2  UNL     1       8.953  -5.010  21.594  1.00  0.00    -0.115 C 
HETATM    3  C3  UNL     1       9.863  -6.046  22.141  1.00  0.00     0.128 C 
ENDROOT
BRANCH   3   4
HETATM    4  C4  UNL     1      10.956  -6.212  21.059  1.00  0.00     0.194 C 
HETATM    5  N1  UNL     1      12.203  -5.758  21.542  1.00  0.00    -0.358 N 
HETATM    6  C5  UNL     1      13.534  -6.046  21.273  1.00  0.00     0.135 C 
ATOM      7  H1  UNL     1      12.102  -5.046  22.265  1.00  0.00     0.162 HD
HETATM    8  C6  UNL     1      14.201  -6.255  19.978  1.00  0.00     0.159 C 
HETATM    9  N2  UNL     1      15.599  -6.654  20.156  1.00  0.00    -0.347 N 
HETATM   10  C10 UNL     1      16.183  -7.905  19.999  1.00  0.00     0.240 C 
ATOM     11  H2  UNL     1      16.235  -5.908  20.436  1.00  0.00     0.163 HD
HETATM   12  O2  UNL     1      16.837  -8.339  21.023  1.00  0.00    -0.271 OA
HETATM   13  C11 UNL     1      16.172  -8.807  18.846  1.00  0.00     0.171 C 
HETATM   14  C12 UNL     1      16.455  -8.054  17.535  1.00  0.00     0.042 C 
HETATM   15  N3  UNL     1      15.110  -9.730  18.703  1.00  0.00    -0.360 N 
HETATM   16  C13 UNL     1      14.098 -10.211  19.554  1.00  0.00     0.135 C 
ATOM     17  H3  UNL     1      15.068 -10.141  17.770  1.00  0.00     0.162 HD
HETATM   18  C14 UNL     1      14.155 -10.707  20.929  1.00  0.00     0.158 C 
HETATM   19  N4  UNL     1      13.574  -9.769  21.905  1.00  0.00    -0.360 N 
HETATM   20  C19 UNL     1      12.362  -9.666  22.527  1.00  0.00     0.142 C 
ATOM     21  H4  UNL     1      14.222  -9.031  22.179  1.00  0.00     0.162 HD
HETATM   22  C20 UNL     1      10.965  -9.434  22.111  1.00  0.00     0.202 C 
HETATM   23  C21 UNL     1      10.173 -10.727  21.969  1.00  0.00     0.049 C 
HETATM   24  O5  UNL     1      10.722  -8.677  21.014  1.00  0.00    -0.306 OA
HETATM   25  C22 UNL     1      10.863  -7.513  20.394  1.00  0.00     0.283 C 
HETATM   26  O6  UNL     1      10.931  -7.416  19.106  1.00  0.00    -0.263 OA
BRANCH   6  27
HETATM   27  O1  UNL     1      14.327  -6.155  22.297  1.00  0.00    -0.348 OA
ATOM     28  H1  UNL     1      14.264  -6.957  22.802  1.00  0.00     0.219 HD
ENDBRANCH   6  27
BRANCH   8  29
HETATM   29  C7  UNL     1      14.141  -5.040  19.129  1.00  0.00     0.033 C 
BRANCH  29  30
HETATM   30  C8  UNL     1      15.397  -4.356  18.747  1.00  0.00    -0.002 C 
HETATM   31  C9  UNL     1      15.712  -3.030  19.324  1.00  0.00     0.005 C 
ENDBRANCH  29  30
ENDBRANCH   8  29
BRANCH  16  32
HETATM   32  O3  UNL     1      12.892 -10.224  19.060  1.00  0.00    -0.348 OA
ATOM     33  H3  UNL     1      12.275  -9.616  19.450  1.00  0.00     0.219 HD
ENDBRANCH  16  32
BRANCH  18  34
HETATM   34  C15 UNL     1      13.752 -12.116  21.219  1.00  0.00     0.033 C 
BRANCH  34  35
HETATM   35  C16 UNL     1      14.475 -12.889  22.250  1.00  0.00     0.002 C 
BRANCH  35  36
HETATM   36  C17 UNL     1      13.940 -12.898  23.637  1.00  0.00    -0.004 C 
HETATM   37  C18 UNL     1      14.961 -13.530  24.584  1.00  0.00     0.005 C 
ENDBRANCH  35  36
ENDBRANCH  34  35
ENDBRANCH  18  34
BRANCH  20  38
HETATM   38  O4  UNL     1      12.336  -9.792  23.824  1.00  0.00    -0.348 OA
ATOM     39  H4  UNL     1      12.691 -10.592  24.196  1.00  0.00     0.219 HD
ENDBRANCH  20  38
ENDBRANCH   3   4
TORSDOF 9
ENDMDL
