MODEL 1
REMARK VINA RESULT: -8.912809647      0.000      0.000
REMARK  8 active torsions:
REMARK  status: ('A' for Active; 'I' for Inactive)
REMARK    1  A    between atoms: C2_2  and  C3_3 
REMARK    2  A    between atoms: C3_3  and  C4_5 
REMARK    3  A    between atoms: C13_14  and  C15_16 
REMARK    4  A    between atoms: C17_20  and  N1_21 
REMARK       I    between atoms: N1_21  and  C18_23 
REMARK    5  A    between atoms: C18_23  and  C19_25 
REMARK    6  A    between atoms: C19_25  and  C20_26 
REMARK    7  A    between atoms: C21_27  and  O5_29 
REMARK    8  A    between atoms: C28_36  and  O6_37 
ROOT
HETATM    1  C4  UNL     1      -0.668 -11.430  22.829  1.00  0.00     0.028 C 
HETATM    2  C5  UNL     1      -0.413 -10.035  23.428  1.00  0.00     0.024 C 
HETATM    3  C6  UNL     1       0.568 -11.762  21.959  1.00  0.00     0.026 C 
HETATM    4  C7  UNL     1       0.871 -13.188  22.236  1.00  0.00     0.035 C 
HETATM    5  C8  UNL     1       2.118 -13.708  21.677  1.00  0.00    -0.030 C 
HETATM    6  C9  UNL     1       1.739 -14.119  20.224  1.00  0.00     0.016 C 
HETATM    7  C10 UNL     1       2.933 -12.440  21.426  1.00  0.00     0.010 C 
HETATM    8  C11 UNL     1       4.226 -12.696  20.698  1.00  0.00     0.002 C 
HETATM    9  C12 UNL     1       4.974 -13.604  21.569  1.00  0.00     0.020 C 
HETATM   10  C13 UNL     1       4.270 -14.922  21.827  1.00  0.00     0.051 C 
HETATM   11  C14 UNL     1       4.447 -15.699  20.505  1.00  0.00     0.027 C 
HETATM   12  C16 UNL     1       2.846 -14.856  22.259  1.00  0.00     0.036 C 
HETATM   13  C17 UNL     1       2.539 -15.406  23.601  1.00  0.00     0.094 C 
HETATM   14  C23 UNL     1       1.071 -15.795  23.839  1.00  0.00     0.062 C 
HETATM   15  C24 UNL     1       0.171 -14.657  23.902  1.00  0.00    -0.047 A 
HETATM   16  C25 UNL     1      -1.114 -14.714  24.121  1.00  0.00    -0.020 A 
HETATM   17  C26 UNL     1      -1.737 -13.353  24.113  1.00  0.00     0.036 A 
HETATM   18  C27 UNL     1      -0.604 -12.422  23.906  1.00  0.00     0.044 A 
HETATM   19  C28 UNL     1       0.640 -13.257  23.697  1.00  0.00     0.090 A 
ENDROOT
BRANCH  13  20
HETATM   20  N1  UNL     1       3.032 -16.814  23.675  1.00  0.00    -0.355 N 
HETATM   21  C18 UNL     1       3.687 -17.327  24.808  1.00  0.00     0.221 C 
HETATM   22  O4  UNL     1       3.858 -16.549  25.802  1.00  0.00    -0.273 OA
ATOM     23  H1  UNL     1       2.888 -17.427  22.873  1.00  0.00     0.162 HD
BRANCH  21  24
HETATM   24  C19 UNL     1       4.185 -18.709  24.911  1.00  0.00     0.133 C 
BRANCH  24  25
HETATM   25  C20 UNL     1       3.223 -19.645  25.473  1.00  0.00     0.035 C 
HETATM   26  C21 UNL     1       3.356 -20.937  25.280  1.00  0.00     0.148 C 
HETATM   27  N2  UNL     1       4.443 -21.426  24.522  1.00  0.00    -0.075 NA
BRANCH  26  28
HETATM   28  O5  UNL     1       2.437 -21.853  25.815  1.00  0.00    -0.343 OA
HETATM   29  C22 UNL     1       1.327 -21.389  26.586  1.00  0.00     0.211 C 
ENDBRANCH  26  28
ENDBRANCH  24  25
ENDBRANCH  21  24
ENDBRANCH  13  20
BRANCH  10  30
HETATM   30  C15 UNL     1       5.267 -15.543  22.733  1.00  0.00     0.181 C 
HETATM   31  O2  UNL     1       5.746 -16.697  22.606  1.00  0.00    -0.647 OA
HETATM   32  O3  UNL     1       5.732 -14.796  23.827  1.00  0.00    -0.647 OA
ENDBRANCH  10  30
BRANCH  19  33
HETATM   33  O6  UNL     1       1.644 -12.961  24.542  1.00  0.00    -0.384 OA
ATOM     34  H6  UNL     1       1.450 -12.781  25.455  1.00  0.00     0.211 HD
ENDBRANCH  19  33
BRANCH   1  35
HETATM   35  C3  UNL     1      -1.878 -11.362  22.007  1.00  0.00     0.157 C 
HETATM   36  O1  UNL     1      -2.857 -10.588  22.346  1.00  0.00    -0.292 OA
BRANCH  35  37
HETATM   37  C2  UNL     1      -2.098 -12.114  20.792  1.00  0.00     0.041 C 
HETATM   38  C1  UNL     1      -2.556 -13.324  20.664  1.00  0.00     0.015 C 
ENDBRANCH  35  37
ENDBRANCH   1  35
TORSDOF 8
ENDMDL
MODEL 2
REMARK VINA RESULT: -8.782291325      1.713      1.992
REMARK  8 active torsions:
REMARK  status: ('A' for Active; 'I' for Inactive)
REMARK    1  A    between atoms: C2_2  and  C3_3 
REMARK    2  A    between atoms: C3_3  and  C4_5 
REMARK    3  A    between atoms: C13_14  and  C15_16 
REMARK    4  A    between atoms: C17_20  and  N1_21 
REMARK       I    between atoms: N1_21  and  C18_23 
REMARK    5  A    between atoms: C18_23  and  C19_25 
REMARK    6  A    between atoms: C19_25  and  C20_26 
REMARK    7  A    between atoms: C21_27  and  O5_29 
REMARK    8  A    between atoms: C28_36  and  O6_37 
ROOT
HETATM    1  C4  UNL     1      -0.867 -10.912  21.982  1.00  0.00     0.028 C 
HETATM    2  C5  UNL     1      -0.729  -9.382  21.879  1.00  0.00     0.024 C 
HETATM    3  C6  UNL     1       0.290 -11.509  21.145  1.00  0.00     0.026 C 
HETATM    4  C7  UNL     1       0.810 -12.643  21.949  1.00  0.00     0.035 C 
HETATM    5  C8  UNL     1       2.039 -13.271  21.467  1.00  0.00    -0.030 C 
HETATM    6  C9  UNL     1       1.548 -14.306  20.412  1.00  0.00     0.016 C 
HETATM    7  C10 UNL     1       2.643 -12.192  20.569  1.00  0.00     0.010 C 
HETATM    8  C11 UNL     1       3.863 -12.655  19.817  1.00  0.00     0.002 C 
HETATM    9  C12 UNL     1       4.823 -13.034  20.854  1.00  0.00     0.020 C 
HETATM   10  C13 UNL     1       4.336 -14.148  21.761  1.00  0.00     0.051 C 
HETATM   11  C14 UNL     1       4.455 -15.414  20.888  1.00  0.00     0.027 C 
HETATM   12  C16 UNL     1       2.977 -13.993  22.353  1.00  0.00     0.036 C 
HETATM   13  C17 UNL     1       2.908 -13.915  23.832  1.00  0.00     0.094 C 
HETATM   14  C23 UNL     1       1.543 -14.257  24.452  1.00  0.00     0.062 C 
HETATM   15  C24 UNL     1       0.515 -13.271  24.172  1.00  0.00    -0.047 A 
HETATM   16  C25 UNL     1      -0.717 -13.311  24.603  1.00  0.00    -0.020 A 
HETATM   17  C26 UNL     1      -1.510 -12.139  24.120  1.00  0.00     0.036 A 
HETATM   18  C27 UNL     1      -0.544 -11.321  23.353  1.00  0.00     0.044 A 
HETATM   19  C28 UNL     1       0.766 -12.077  23.316  1.00  0.00     0.090 A 
ENDROOT
BRANCH  13  20
HETATM   20  N1  UNL     1       3.589 -15.109  24.416  1.00  0.00    -0.355 N 
HETATM   21  C18 UNL     1       3.126 -16.420  24.211  1.00  0.00     0.221 C 
HETATM   22  O4  UNL     1       2.084 -16.580  23.496  1.00  0.00    -0.273 OA
ATOM     23  H1  UNL     1       4.423 -14.968  24.986  1.00  0.00     0.162 HD
BRANCH  21  24
HETATM   24  C19 UNL     1       3.775 -17.616  24.774  1.00  0.00     0.133 C 
BRANCH  24  25
HETATM   25  C20 UNL     1       4.919 -18.085  24.006  1.00  0.00     0.035 C 
HETATM   26  C21 UNL     1       5.197 -19.367  23.936  1.00  0.00     0.148 C 
HETATM   27  N2  UNL     1       4.379 -20.301  24.609  1.00  0.00    -0.075 NA
BRANCH  26  28
HETATM   28  O5  UNL     1       6.296 -19.836  23.200  1.00  0.00    -0.343 OA
HETATM   29  C22 UNL     1       7.601 -19.839  23.784  1.00  0.00     0.211 C 
ENDBRANCH  26  28
ENDBRANCH  24  25
ENDBRANCH  21  24
ENDBRANCH  13  20
BRANCH  10  30
HETATM   30  C15 UNL     1       5.507 -14.238  22.667  1.00  0.00     0.181 C 
HETATM   31  O2  UNL     1       6.198 -15.267  22.863  1.00  0.00    -0.647 OA
HETATM   32  O3  UNL     1       5.896 -13.086  23.371  1.00  0.00    -0.647 OA
ENDBRANCH  10  30
BRANCH  19  33
HETATM   33  O6  UNL     1       1.815 -11.372  23.776  1.00  0.00    -0.384 OA
ATOM     34  H6  UNL     1       2.010 -11.374  24.706  1.00  0.00     0.211 HD
ENDBRANCH  19  33
BRANCH   1  35
HETATM   35  C3  UNL     1      -2.165 -11.295  21.422  1.00  0.00     0.157 C 
HETATM   36  O1  UNL     1      -3.229 -10.621  21.715  1.00  0.00    -0.292 OA
BRANCH  35  37
HETATM   37  C2  UNL     1      -2.386 -12.409  20.528  1.00  0.00     0.041 C 
HETATM   38  C1  UNL     1      -2.660 -13.644  20.830  1.00  0.00     0.015 C 
ENDBRANCH  35  37
ENDBRANCH   1  35
TORSDOF 8
ENDMDL
MODEL 3
REMARK VINA RESULT: -8.607132797      1.207      1.622
REMARK  8 active torsions:
REMARK  status: ('A' for Active; 'I' for Inactive)
REMARK    1  A    between atoms: C2_2  and  C3_3 
REMARK    2  A    between atoms: C3_3  and  C4_5 
REMARK    3  A    between atoms: C13_14  and  C15_16 
REMARK    4  A    between atoms: C17_20  and  N1_21 
REMARK       I    between atoms: N1_21  and  C18_23 
REMARK    5  A    between atoms: C18_23  and  C19_25 
REMARK    6  A    between atoms: C19_25  and  C20_26 
REMARK    7  A    between atoms: C21_27  and  O5_29 
REMARK    8  A    between atoms: C28_36  and  O6_37 
ROOT
HETATM    1  C4  UNL     1      -0.666 -11.212  22.773  1.00  0.00     0.028 C 
HETATM    2  C5  UNL     1      -0.360  -9.810  23.330  1.00  0.00     0.024 C 
HETATM    3  C6  UNL     1       0.545 -11.603  21.891  1.00  0.00     0.026 C 
HETATM    4  C7  UNL     1       0.811 -13.029  22.202  1.00  0.00     0.035 C 
HETATM    5  C8  UNL     1       2.032 -13.601  21.635  1.00  0.00    -0.030 C 
HETATM    6  C9  UNL     1       1.616 -14.039  20.200  1.00  0.00     0.016 C 
HETATM    7  C10 UNL     1       2.879 -12.364  21.337  1.00  0.00     0.010 C 
HETATM    8  C11 UNL     1       4.152 -12.677  20.595  1.00  0.00     0.002 C 
HETATM    9  C12 UNL     1       4.888 -13.583  21.476  1.00  0.00     0.020 C 
HETATM   10  C13 UNL     1       4.151 -14.874  21.781  1.00  0.00     0.051 C 
HETATM   11  C14 UNL     1       4.281 -15.690  20.478  1.00  0.00     0.027 C 
HETATM   12  C16 UNL     1       2.737 -14.754  22.236  1.00  0.00     0.036 C 
HETATM   13  C17 UNL     1       2.437 -15.260  23.597  1.00  0.00     0.094 C 
HETATM   14  C23 UNL     1       0.963 -15.598  23.870  1.00  0.00     0.062 C 
HETATM   15  C24 UNL     1       0.099 -14.433  23.918  1.00  0.00    -0.047 A 
HETATM   16  C25 UNL     1      -1.184 -14.446  24.159  1.00  0.00    -0.020 A 
HETATM   17  C26 UNL     1      -1.767 -13.069  24.126  1.00  0.00     0.036 A 
HETATM   18  C27 UNL     1      -0.612 -12.177  23.875  1.00  0.00     0.044 A 
HETATM   19  C28 UNL     1       0.604 -13.054  23.667  1.00  0.00     0.090 A 
ENDROOT
BRANCH  13  20
HETATM   20  N1  UNL     1       2.891 -16.679  23.701  1.00  0.00    -0.355 N 
HETATM   21  C18 UNL     1       3.460 -17.207  24.872  1.00  0.00     0.221 C 
HETATM   22  O4  UNL     1       3.587 -16.434  25.875  1.00  0.00    -0.273 OA
ATOM     23  H1  UNL     1       2.784 -17.288  22.890  1.00  0.00     0.162 HD
BRANCH  21  24
HETATM   24  C19 UNL     1       3.917 -18.601  25.005  1.00  0.00     0.133 C 
BRANCH  24  25
HETATM   25  C20 UNL     1       5.165 -18.883  24.312  1.00  0.00     0.035 C 
HETATM   26  C21 UNL     1       5.506 -20.118  24.024  1.00  0.00     0.148 C 
HETATM   27  N2  UNL     1       4.654 -21.185  24.388  1.00  0.00    -0.075 NA
BRANCH  26  28
HETATM   28  O5  UNL     1       6.706 -20.408  23.356  1.00  0.00    -0.343 OA
HETATM   29  C22 UNL     1       7.910 -19.726  23.715  1.00  0.00     0.211 C 
ENDBRANCH  26  28
ENDBRANCH  24  25
ENDBRANCH  21  24
ENDBRANCH  13  20
BRANCH  10  30
HETATM   30  C15 UNL     1       5.145 -15.500  22.686  1.00  0.00     0.181 C 
HETATM   31  O2  UNL     1       5.675 -16.625  22.518  1.00  0.00    -0.647 OA
HETATM   32  O3  UNL     1       5.545 -14.791  23.831  1.00  0.00    -0.647 OA
ENDBRANCH  10  30
BRANCH  19  33
HETATM   33  O6  UNL     1       1.631 -12.765  24.487  1.00  0.00    -0.384 OA
ATOM     34  H6  UNL     1       1.656 -11.925  24.929  1.00  0.00     0.211 HD
ENDBRANCH  19  33
BRANCH   1  35
HETATM   35  C3  UNL     1      -1.888 -11.130  21.970  1.00  0.00     0.157 C 
HETATM   36  O1  UNL     1      -2.841 -10.325  22.309  1.00  0.00    -0.292 OA
BRANCH  35  37
HETATM   37  C2  UNL     1      -2.147 -11.900  20.774  1.00  0.00     0.041 C 
HETATM   38  C1  UNL     1      -2.557 -13.131  20.680  1.00  0.00     0.015 C 
ENDBRANCH  35  37
ENDBRANCH   1  35
TORSDOF 8
ENDMDL
MODEL 4
REMARK VINA RESULT: -7.871829888      5.757     11.894
REMARK  8 active torsions:
REMARK  status: ('A' for Active; 'I' for Inactive)
REMARK    1  A    between atoms: C2_2  and  C3_3 
REMARK    2  A    between atoms: C3_3  and  C4_5 
REMARK    3  A    between atoms: C13_14  and  C15_16 
REMARK    4  A    between atoms: C17_20  and  N1_21 
REMARK       I    between atoms: N1_21  and  C18_23 
REMARK    5  A    between atoms: C18_23  and  C19_25 
REMARK    6  A    between atoms: C19_25  and  C20_26 
REMARK    7  A    between atoms: C21_27  and  O5_29 
REMARK    8  A    between atoms: C28_36  and  O6_37 
ROOT
HETATM    1  C4  UNL     1      -1.963 -25.665  29.383  1.00  0.00     0.028 C 
HETATM    2  C5  UNL     1      -3.445 -25.250  29.403  1.00  0.00     0.024 C 
HETATM    3  C6  UNL     1      -1.694 -26.246  27.973  1.00  0.00     0.026 C 
HETATM    4  C7  UNL     1      -0.371 -25.705  27.573  1.00  0.00     0.035 C 
HETATM    5  C8  UNL     1       0.041 -25.953  26.192  1.00  0.00    -0.030 C 
HETATM    6  C9  UNL     1       0.686 -27.370  26.237  1.00  0.00     0.016 C 
HETATM    7  C10 UNL     1      -1.283 -26.250  25.490  1.00  0.00     0.010 C 
HETATM    8  C11 UNL     1      -1.115 -26.694  24.061  1.00  0.00     0.002 C 
HETATM    9  C12 UNL     1      -0.439 -25.578  23.397  1.00  0.00     0.020 C 
HETATM   10  C13 UNL     1       0.919 -25.249  23.987  1.00  0.00     0.051 C 
HETATM   11  C14 UNL     1       1.830 -26.385  23.475  1.00  0.00     0.027 C 
HETATM   12  C16 UNL     1       0.993 -25.085  25.466  1.00  0.00     0.036 C 
HETATM   13  C17 UNL     1       1.402 -23.749  25.962  1.00  0.00     0.094 C 
HETATM   14  C23 UNL     1       1.955 -23.714  27.396  1.00  0.00     0.062 C 
HETATM   15  C24 UNL     1       0.952 -23.982  28.411  1.00  0.00    -0.047 A 
HETATM   16  C25 UNL     1       1.156 -23.984  29.701  1.00  0.00    -0.020 A 
HETATM   17  C26 UNL     1      -0.094 -24.308  30.457  1.00  0.00     0.036 A 
HETATM   18  C27 UNL     1      -1.136 -24.454  29.417  1.00  0.00     0.044 A 
HETATM   19  C28 UNL     1      -0.460 -24.314  28.070  1.00  0.00     0.090 A 
ENDROOT
BRANCH  13  20
HETATM   20  N1  UNL     1       2.707 -23.376  25.339  1.00  0.00    -0.355 N 
HETATM   21  C18 UNL     1       3.130 -22.042  25.211  1.00  0.00     0.221 C 
HETATM   22  O4  UNL     1       2.361 -21.127  25.649  1.00  0.00    -0.273 OA
ATOM     23  H1  UNL     1       3.315 -24.118  24.992  1.00  0.00     0.162 HD
BRANCH  21  24
HETATM   24  C19 UNL     1       4.410 -21.643  24.601  1.00  0.00     0.133 C 
BRANCH  24  25
HETATM   25  C20 UNL     1       4.596 -20.203  24.503  1.00  0.00     0.035 C 
HETATM   26  C21 UNL     1       5.577 -19.702  23.789  1.00  0.00     0.148 C 
HETATM   27  N2  UNL     1       6.462 -20.568  23.107  1.00  0.00    -0.075 NA
BRANCH  26  28
HETATM   28  O5  UNL     1       5.771 -18.316  23.683  1.00  0.00    -0.343 OA
HETATM   29  C22 UNL     1       4.990 -17.551  22.763  1.00  0.00     0.211 C 
ENDBRANCH  26  28
ENDBRANCH  24  25
ENDBRANCH  21  24
ENDBRANCH  13  20
BRANCH  10  30
HETATM   30  C15 UNL     1       1.275 -24.099  23.120  1.00  0.00     0.181 C 
HETATM   31  O2  UNL     1       2.323 -24.001  22.435  1.00  0.00    -0.647 OA
HETATM   32  O3  UNL     1       0.378 -23.022  23.038  1.00  0.00    -0.647 OA
ENDBRANCH  10  30
BRANCH  19  33
HETATM   33  O6  UNL     1      -0.998 -23.362  27.286  1.00  0.00    -0.384 OA
ATOM     34  H6  UNL     1      -0.711 -22.461  27.379  1.00  0.00     0.211 HD
ENDBRANCH  19  33
BRANCH   1  35
HETATM   35  C3  UNL     1      -1.756 -26.685  30.413  1.00  0.00     0.157 C 
HETATM   36  O1  UNL     1      -2.177 -26.491  31.620  1.00  0.00    -0.292 OA
BRANCH  35  37
HETATM   37  C2  UNL     1      -1.095 -27.953  30.203  1.00  0.00     0.041 C 
HETATM   38  C1  UNL     1       0.171 -28.231  30.312  1.00  0.00     0.015 C 
ENDBRANCH  35  37
ENDBRANCH   1  35
TORSDOF 8
ENDMDL
MODEL 5
REMARK VINA RESULT: -7.477834029      2.353      3.007
REMARK  8 active torsions:
REMARK  status: ('A' for Active; 'I' for Inactive)
REMARK    1  A    between atoms: C2_2  and  C3_3 
REMARK    2  A    between atoms: C3_3  and  C4_5 
REMARK    3  A    between atoms: C13_14  and  C15_16 
REMARK    4  A    between atoms: C17_20  and  N1_21 
REMARK       I    between atoms: N1_21  and  C18_23 
REMARK    5  A    between atoms: C18_23  and  C19_25 
REMARK    6  A    between atoms: C19_25  and  C20_26 
REMARK    7  A    between atoms: C21_27  and  O5_29 
REMARK    8  A    between atoms: C28_36  and  O6_37 
ROOT
HETATM    1  C4  UNL     1      -0.954 -10.672  21.896  1.00  0.00     0.028 C 
HETATM    2  C5  UNL     1      -0.799  -9.559  20.844  1.00  0.00     0.024 C 
HETATM    3  C6  UNL     1      -0.757 -12.011  21.143  1.00  0.00     0.026 C 
HETATM    4  C7  UNL     1       0.078 -12.846  22.042  1.00  0.00     0.035 C 
HETATM    5  C8  UNL     1       0.570 -14.106  21.487  1.00  0.00    -0.030 C 
HETATM    6  C9  UNL     1      -0.599 -15.106  21.721  1.00  0.00     0.016 C 
HETATM    7  C10 UNL     1       0.469 -13.876  19.979  1.00  0.00     0.010 C 
HETATM    8  C11 UNL     1       0.781 -15.104  19.165  1.00  0.00     0.002 C 
HETATM    9  C12 UNL     1       2.156 -15.453  19.524  1.00  0.00     0.020 C 
HETATM   10  C13 UNL     1       2.344 -15.762  20.997  1.00  0.00     0.051 C 
HETATM   11  C14 UNL     1       1.717 -17.163  21.163  1.00  0.00     0.027 C 
HETATM   12  C16 UNL     1       1.796 -14.777  21.971  1.00  0.00     0.036 C 
HETATM   13  C17 UNL     1       2.779 -14.112  22.859  1.00  0.00     0.094 C 
HETATM   14  C23 UNL     1       2.205 -13.507  24.151  1.00  0.00     0.062 C 
HETATM   15  C24 UNL     1       1.358 -12.350  23.924  1.00  0.00    -0.047 A 
HETATM   16  C25 UNL     1       0.773 -11.642  24.851  1.00  0.00    -0.020 A 
HETATM   17  C26 UNL     1      -0.032 -10.524  24.266  1.00  0.00     0.036 A 
HETATM   18  C27 UNL     1       0.194 -10.620  22.806  1.00  0.00     0.044 A 
HETATM   19  C28 UNL     1       1.043 -11.848  22.556  1.00  0.00     0.090 A 
ENDROOT
BRANCH  13  20
HETATM   20  N1  UNL     1       3.572 -15.155  23.576  1.00  0.00    -0.355 N 
HETATM   21  C18 UNL     1       4.866 -14.915  24.070  1.00  0.00     0.221 C 
HETATM   22  O4  UNL     1       5.368 -13.759  23.892  1.00  0.00    -0.273 OA
ATOM     23  H1  UNL     1       3.159 -16.077  23.713  1.00  0.00     0.162 HD
BRANCH  21  24
HETATM   24  C19 UNL     1       5.672 -15.922  24.780  1.00  0.00     0.133 C 
BRANCH  24  25
HETATM   25  C20 UNL     1       6.079 -17.047  23.951  1.00  0.00     0.035 C 
HETATM   26  C21 UNL     1       5.401 -18.171  23.970  1.00  0.00     0.148 C 
HETATM   27  N2  UNL     1       4.265 -18.292  24.800  1.00  0.00    -0.075 NA
BRANCH  26  28
HETATM   28  O5  UNL     1       5.780 -19.265  23.176  1.00  0.00    -0.343 OA
HETATM   29  C22 UNL     1       6.936 -20.033  23.518  1.00  0.00     0.211 C 
ENDBRANCH  26  28
ENDBRANCH  24  25
ENDBRANCH  21  24
ENDBRANCH  13  20
BRANCH  10  30
HETATM   30  C15 UNL     1       3.803 -16.032  20.993  1.00  0.00     0.181 C 
HETATM   31  O2  UNL     1       4.335 -17.160  21.133  1.00  0.00    -0.647 OA
HETATM   32  O3  UNL     1       4.680 -14.950  20.813  1.00  0.00    -0.647 OA
ENDBRANCH  10  30
BRANCH  19  33
HETATM   33  O6  UNL     1       2.172 -11.600  21.868  1.00  0.00    -0.384 OA
ATOM     34  H6  UNL     1       3.000 -11.937  22.188  1.00  0.00     0.211 HD
ENDBRANCH  19  33
BRANCH   1  35
HETATM   35  C3  UNL     1      -2.302 -10.587  22.460  1.00  0.00     0.157 C 
HETATM   36  O1  UNL     1      -2.868  -9.438  22.632  1.00  0.00    -0.292 OA
BRANCH  35  37
HETATM   37  C2  UNL     1      -3.105 -11.719  22.864  1.00  0.00     0.041 C 
HETATM   38  C1  UNL     1      -3.010 -12.428  23.951  1.00  0.00     0.015 C 
ENDBRANCH  35  37
ENDBRANCH   1  35
TORSDOF 8
ENDMDL
