MODEL 1
REMARK VINA RESULT: -5.870247606      0.000      0.000
REMARK  4 active torsions:
REMARK  status: ('A' for Active; 'I' for Inactive)
REMARK    1  A    between atoms: C2_2  and  O1_3 
REMARK    2  A    between atoms: C4_6  and  O2_7 
REMARK    3  A    between atoms: C5_9  and  O3_10 
REMARK    4  A    between atoms: C9_15  and  O4_16 
ROOT
HETATM    1  C1  UNL     1      13.334  13.908  19.565  1.00  0.00     0.049 C 
HETATM    2  C2  UNL     1      13.269  15.104  18.603  1.00  0.00     0.088 C 
HETATM    3  C3  UNL     1      12.382  14.688  17.477  1.00  0.00     0.075 C 
HETATM    4  C4  UNL     1      12.418  15.552  16.281  1.00  0.00     0.150 C 
HETATM    5  C5  UNL     1      13.573  16.467  16.155  1.00  0.00     0.154 C 
HETATM    6  C6  UNL     1      14.806  16.086  16.874  1.00  0.00     0.054 A 
HETATM    7  C7  UNL     1      15.485  17.301  17.507  1.00  0.00     0.013 A 
HETATM    8  C8  UNL     1      15.218  16.709  18.863  1.00  0.00     0.042 A 
HETATM    9  C9  UNL     1      14.650  15.475  18.202  1.00  0.00     0.094 A 
ENDROOT
BRANCH   2  10
HETATM   10  O1  UNL     1      12.739  16.157  19.362  1.00  0.00    -0.387 OA
ATOM     11  H1  UNL     1      13.268  16.914  19.140  1.00  0.00     0.210 HD
ENDBRANCH   2  10
BRANCH   9  12
HETATM   12  O4  UNL     1      15.544  14.405  18.403  1.00  0.00    -0.386 OA
ATOM     13  H4  UNL     1      16.437  14.663  18.207  1.00  0.00     0.210 HD
ENDBRANCH   9  12
BRANCH   4  14
HETATM   14  O2  UNL     1      12.318  14.718  15.143  1.00  0.00    -0.393 OA
ATOM     15  H2  UNL     1      11.890  15.215  14.456  1.00  0.00     0.210 HD
ENDBRANCH   4  14
BRANCH   5  16
HETATM   16  O3  UNL     1      13.891  16.553  14.778  1.00  0.00    -0.393 OA
ATOM     17  H3  UNL     1      13.959  17.475  14.563  1.00  0.00     0.210 HD
ENDBRANCH   5  16
TORSDOF 4
ENDMDL
MODEL 2
REMARK VINA RESULT: -5.354795687      1.206      3.040
REMARK  4 active torsions:
REMARK  status: ('A' for Active; 'I' for Inactive)
REMARK    1  A    between atoms: C2_2  and  O1_3 
REMARK    2  A    between atoms: C4_6  and  O2_7 
REMARK    3  A    between atoms: C5_9  and  O3_10 
REMARK    4  A    between atoms: C9_15  and  O4_16 
ROOT
HETATM    1  C1  UNL     1      14.803  16.223  19.831  1.00  0.00     0.049 C 
HETATM    2  C2  UNL     1      14.646  15.924  18.331  1.00  0.00     0.088 C 
HETATM    3  C3  UNL     1      15.442  16.962  17.612  1.00  0.00     0.075 C 
HETATM    4  C4  UNL     1      15.191  17.068  16.161  1.00  0.00     0.150 C 
HETATM    5  C5  UNL     1      13.946  16.452  15.653  1.00  0.00     0.154 C 
HETATM    6  C6  UNL     1      12.842  16.288  16.621  1.00  0.00     0.054 A 
HETATM    7  C7  UNL     1      12.121  14.953  16.429  1.00  0.00     0.013 A 
HETATM    8  C8  UNL     1      12.591  14.535  17.794  1.00  0.00     0.042 A 
HETATM    9  C9  UNL     1      13.200  15.902  17.994  1.00  0.00     0.094 A 
ENDROOT
BRANCH   2  10
HETATM   10  O1  UNL     1      15.151  14.627  18.161  1.00  0.00    -0.387 OA
ATOM     11  H1  UNL     1      15.940  14.733  17.642  1.00  0.00     0.210 HD
ENDBRANCH   2  10
BRANCH   9  12
HETATM   12  O4  UNL     1      12.442  16.597  18.956  1.00  0.00    -0.386 OA
ATOM     13  H4  UNL     1      11.792  17.153  18.544  1.00  0.00     0.210 HD
ENDBRANCH   9  12
BRANCH   4  14
HETATM   14  O2  UNL     1      15.247  18.438  15.813  1.00  0.00    -0.393 OA
ATOM     15  H2  UNL     1      15.326  18.494  14.868  1.00  0.00     0.210 HD
ENDBRANCH   4  14
BRANCH   5  16
HETATM   16  O3  UNL     1      13.473  17.273  14.601  1.00  0.00    -0.393 OA
ATOM     17  H3  UNL     1      12.598  16.974  14.384  1.00  0.00     0.210 HD
ENDBRANCH   5  16
TORSDOF 4
ENDMDL
MODEL 3
REMARK VINA RESULT: -5.350589733      1.907      3.401
REMARK  4 active torsions:
REMARK  status: ('A' for Active; 'I' for Inactive)
REMARK    1  A    between atoms: C2_2  and  O1_3 
REMARK    2  A    between atoms: C4_6  and  O2_7 
REMARK    3  A    between atoms: C5_9  and  O3_10 
REMARK    4  A    between atoms: C9_15  and  O4_16 
ROOT
HETATM    1  C1  UNL     1      14.957  16.773  13.967  1.00  0.00     0.049 C 
HETATM    2  C2  UNL     1      14.232  16.224  15.206  1.00  0.00     0.088 C 
HETATM    3  C3  UNL     1      12.806  16.036  14.807  1.00  0.00     0.075 C 
HETATM    4  C4  UNL     1      11.856  15.815  15.914  1.00  0.00     0.150 C 
HETATM    5  C5  UNL     1      12.314  16.190  17.270  1.00  0.00     0.154 C 
HETATM    6  C6  UNL     1      13.379  17.209  17.354  1.00  0.00     0.054 A 
HETATM    7  C7  UNL     1      14.396  16.870  18.445  1.00  0.00     0.013 A 
HETATM    8  C8  UNL     1      15.445  16.715  17.380  1.00  0.00     0.042 A 
HETATM    9  C9  UNL     1      14.443  17.158  16.340  1.00  0.00     0.094 A 
ENDROOT
BRANCH   2  10
HETATM   10  O1  UNL     1      14.882  15.019  15.509  1.00  0.00    -0.387 OA
ATOM     11  H1  UNL     1      15.602  15.262  16.080  1.00  0.00     0.210 HD
ENDBRANCH   2  10
BRANCH   9  12
HETATM   12  O4  UNL     1      14.804  18.440  15.884  1.00  0.00    -0.386 OA
ATOM     13  H4  UNL     1      14.848  19.061  16.602  1.00  0.00     0.210 HD
ENDBRANCH   9  12
BRANCH   4  14
HETATM   14  O2  UNL     1      10.653  16.487  15.591  1.00  0.00    -0.393 OA
ATOM     15  H2  UNL     1      10.866  17.397  15.422  1.00  0.00     0.210 HD
ENDBRANCH   4  14
BRANCH   5  16
HETATM   16  O3  UNL     1      11.188  16.690  17.968  1.00  0.00    -0.393 OA
ATOM     17  H3  UNL     1      11.475  17.454  18.453  1.00  0.00     0.210 HD
ENDBRANCH   5  16
TORSDOF 4
ENDMDL
MODEL 4
REMARK VINA RESULT: -5.308162957      1.604      2.554
REMARK  4 active torsions:
REMARK  status: ('A' for Active; 'I' for Inactive)
REMARK    1  A    between atoms: C2_2  and  O1_3 
REMARK    2  A    between atoms: C4_6  and  O2_7 
REMARK    3  A    between atoms: C5_9  and  O3_10 
REMARK    4  A    between atoms: C9_15  and  O4_16 
ROOT
HETATM    1  C1  UNL     1      12.530  14.457  17.910  1.00  0.00     0.049 C 
HETATM    2  C2  UNL     1      13.385  15.700  18.206  1.00  0.00     0.088 C 
HETATM    3  C3  UNL     1      13.758  16.277  16.882  1.00  0.00     0.075 C 
HETATM    4  C4  UNL     1      14.831  17.290  16.905  1.00  0.00     0.150 C 
HETATM    5  C5  UNL     1      15.675  17.338  18.119  1.00  0.00     0.154 C 
HETATM    6  C6  UNL     1      15.760  16.101  18.921  1.00  0.00     0.054 A 
HETATM    7  C7  UNL     1      15.740  16.401  20.420  1.00  0.00     0.013 A 
HETATM    8  C8  UNL     1      14.429  15.673  20.520  1.00  0.00     0.042 A 
HETATM    9  C9  UNL     1      14.533  15.302  19.059  1.00  0.00     0.094 A 
ENDROOT
BRANCH   2  10
HETATM   10  O1  UNL     1      12.556  16.543  18.960  1.00  0.00    -0.387 OA
ATOM     11  H1  UNL     1      13.144  17.024  19.531  1.00  0.00     0.210 HD
ENDBRANCH   2  10
BRANCH   9  12
HETATM   12  O4  UNL     1      14.786  13.920  18.962  1.00  0.00    -0.386 OA
ATOM     13  H4  UNL     1      15.465  13.739  18.323  1.00  0.00     0.210 HD
ENDBRANCH   9  12
BRANCH   4  14
HETATM   14  O2  UNL     1      15.628  17.100  15.751  1.00  0.00    -0.393 OA
ATOM     15  H2  UNL     1      16.539  17.179  16.012  1.00  0.00     0.210 HD
ENDBRANCH   4  14
BRANCH   5  16
HETATM   16  O3  UNL     1      16.988  17.668  17.702  1.00  0.00    -0.393 OA
ATOM     17  H3  UNL     1      17.564  16.986  18.025  1.00  0.00     0.210 HD
ENDBRANCH   5  16
TORSDOF 4
ENDMDL
MODEL 5
REMARK VINA RESULT: -5.244767937      1.140      1.653
REMARK  4 active torsions:
REMARK  status: ('A' for Active; 'I' for Inactive)
REMARK    1  A    between atoms: C2_2  and  O1_3 
REMARK    2  A    between atoms: C4_6  and  O2_7 
REMARK    3  A    between atoms: C5_9  and  O3_10 
REMARK    4  A    between atoms: C9_15  and  O4_16 
ROOT
HETATM    1  C1  UNL     1      12.712  14.336  18.236  1.00  0.00     0.049 C 
HETATM    2  C2  UNL     1      13.313  15.728  17.984  1.00  0.00     0.088 C 
HETATM    3  C3  UNL     1      13.032  16.054  16.555  1.00  0.00     0.075 C 
HETATM    4  C4  UNL     1      13.781  17.198  16.000  1.00  0.00     0.150 C 
HETATM    5  C5  UNL     1      14.980  17.635  16.748  1.00  0.00     0.154 C 
HETATM    6  C6  UNL     1      15.629  16.628  17.611  1.00  0.00     0.054 A 
HETATM    7  C7  UNL     1      16.098  17.240  18.932  1.00  0.00     0.013 A 
HETATM    8  C8  UNL     1      15.116  16.361  19.655  1.00  0.00     0.042 A 
HETATM    9  C9  UNL     1      14.753  15.703  18.345  1.00  0.00     0.094 A 
ENDROOT
BRANCH   2  10
HETATM   10  O1  UNL     1      12.656  16.580  18.883  1.00  0.00    -0.387 OA
ATOM     11  H1  UNL     1      11.812  16.759  18.484  1.00  0.00     0.210 HD
ENDBRANCH   2  10
BRANCH   9  12
HETATM   12  O4  UNL     1      15.255  14.387  18.348  1.00  0.00    -0.386 OA
ATOM     13  H4  UNL     1      16.146  14.360  18.675  1.00  0.00     0.210 HD
ENDBRANCH   9  12
BRANCH   4  14
HETATM   14  O2  UNL     1      14.116  16.885  14.661  1.00  0.00    -0.393 OA
ATOM     15  H2  UNL     1      13.730  17.550  14.103  1.00  0.00     0.210 HD
ENDBRANCH   4  14
BRANCH   5  16
HETATM   16  O3  UNL     1      15.935  18.061  15.794  1.00  0.00    -0.393 OA
ATOM     17  H3  UNL     1      15.574  17.879  14.935  1.00  0.00     0.210 HD
ENDBRANCH   5  16
TORSDOF 4
ENDMDL
