MODEL 1
REMARK VINA RESULT: -6.569895994      0.000      0.000
REMARK  4 active torsions:
REMARK  status: ('A' for Active; 'I' for Inactive)
REMARK    1  A    between atoms: O1_1  and  C1_3 
REMARK    2  A    between atoms: C6_8  and  O2_9 
REMARK    3  A    between atoms: C8_12  and  O3_13 
REMARK    4  A    between atoms: C10_16  and  O4_17 
ROOT
HETATM    1  C1  UNL     1      14.666  17.247  17.283  1.00  0.00     0.128 C 
HETATM    2  C2  UNL     1      15.897  17.405  18.200  1.00  0.00     0.040 C 
HETATM    3  C3  UNL     1      15.880  16.170  19.116  1.00  0.00     0.026 C 
HETATM    4  C4  UNL     1      15.194  16.449  20.423  1.00  0.00     0.011 C 
HETATM    5  C5  UNL     1      14.115  15.413  20.614  1.00  0.00     0.041 C 
HETATM    6  C6  UNL     1      14.114  14.515  19.407  1.00  0.00     0.092 C 
HETATM    7  C7  UNL     1      12.745  14.469  18.723  1.00  0.00     0.073 C 
HETATM    8  C8  UNL     1      12.816  15.495  17.573  1.00  0.00     0.130 C 
HETATM    9  C9  UNL     1      13.851  16.365  18.081  1.00  0.00     0.081 C 
HETATM   10  C10 UNL     1      14.919  15.294  18.425  1.00  0.00     0.101 C 
ENDROOT
BRANCH   1  11
HETATM   11  O1  UNL     1      15.130  16.741  16.096  1.00  0.00    -0.395 OA
ATOM     12  H1  UNL     1      14.478  16.118  15.798  1.00  0.00     0.210 HD
ENDBRANCH   1  11
BRANCH   8  13
HETATM   13  O3  UNL     1      11.562  16.056  17.410  1.00  0.00    -0.395 OA
ATOM     14  H3  UNL     1      11.653  16.848  16.894  1.00  0.00     0.210 HD
ENDBRANCH   8  13
BRANCH  10  15
HETATM   15  O4  UNL     1      15.352  14.624  17.334  1.00  0.00    -0.386 OA
ATOM     16  H4  UNL     1      16.265  14.361  17.310  1.00  0.00     0.210 HD
ENDBRANCH  10  15
BRANCH   6  17
HETATM   17  O2  UNL     1      14.630  13.264  19.637  1.00  0.00    -0.387 OA
ATOM     18  H2  UNL     1      14.536  12.664  18.906  1.00  0.00     0.210 HD
ENDBRANCH   6  17
TORSDOF 4
ENDMDL
MODEL 2
REMARK VINA RESULT: -6.537908335      1.538      2.680
REMARK  4 active torsions:
REMARK  status: ('A' for Active; 'I' for Inactive)
REMARK    1  A    between atoms: O1_1  and  C1_3 
REMARK    2  A    between atoms: C6_8  and  O2_9 
REMARK    3  A    between atoms: C8_12  and  O3_13 
REMARK    4  A    between atoms: C10_16  and  O4_17 
ROOT
HETATM    1  C1  UNL     1      12.203  17.514  17.014  1.00  0.00     0.128 C 
HETATM    2  C2  UNL     1      13.240  17.580  15.874  1.00  0.00     0.040 C 
HETATM    3  C3  UNL     1      14.385  16.654  16.314  1.00  0.00     0.026 C 
HETATM    4  C4  UNL     1      15.484  17.409  17.006  1.00  0.00     0.011 C 
HETATM    5  C5  UNL     1      15.727  16.757  18.343  1.00  0.00     0.041 C 
HETATM    6  C6  UNL     1      14.755  15.619  18.490  1.00  0.00     0.092 C 
HETATM    7  C7  UNL     1      13.899  15.751  19.753  1.00  0.00     0.073 C 
HETATM    8  C8  UNL     1      12.580  16.409  19.298  1.00  0.00     0.130 C 
HETATM    9  C9  UNL     1      13.040  17.089  18.110  1.00  0.00     0.081 C 
HETATM   10  C10 UNL     1      13.761  15.904  17.417  1.00  0.00     0.101 C 
ENDROOT
BRANCH   1  11
HETATM   11  O1  UNL     1      11.236  16.631  16.609  1.00  0.00    -0.395 OA
ATOM     12  H1  UNL     1      10.535  16.689  17.248  1.00  0.00     0.210 HD
ENDBRANCH   1  11
BRANCH   8  13
HETATM   13  O3  UNL     1      12.113  17.208  20.327  1.00  0.00    -0.395 OA
ATOM     14  H3  UNL     1      11.720  17.985  19.948  1.00  0.00     0.210 HD
ENDBRANCH   8  13
BRANCH  10  15
HETATM   15  O4  UNL     1      12.917  14.900  17.095  1.00  0.00    -0.386 OA
ATOM     16  H4  UNL     1      11.984  15.072  17.149  1.00  0.00     0.210 HD
ENDBRANCH  10  15
BRANCH   6  17
HETATM   17  O2  UNL     1      15.322  14.376  18.366  1.00  0.00    -0.387 OA
ATOM     18  H2  UNL     1      14.808  13.674  18.748  1.00  0.00     0.210 HD
ENDBRANCH   6  17
TORSDOF 4
ENDMDL
MODEL 3
REMARK VINA RESULT: -6.371303309      1.380      2.773
REMARK  4 active torsions:
REMARK  status: ('A' for Active; 'I' for Inactive)
REMARK    1  A    between atoms: O1_1  and  C1_3 
REMARK    2  A    between atoms: C6_8  and  O2_9 
REMARK    3  A    between atoms: C8_12  and  O3_13 
REMARK    4  A    between atoms: C10_16  and  O4_17 
ROOT
HETATM    1  C1  UNL     1      15.948  17.099  19.113  1.00  0.00     0.128 C 
HETATM    2  C2  UNL     1      15.103  16.685  20.336  1.00  0.00     0.040 C 
HETATM    3  C3  UNL     1      13.900  15.924  19.758  1.00  0.00     0.026 C 
HETATM    4  C4  UNL     1      12.709  16.819  19.565  1.00  0.00     0.011 C 
HETATM    5  C5  UNL     1      12.256  16.689  18.132  1.00  0.00     0.041 C 
HETATM    6  C6  UNL     1      13.189  15.739  17.434  1.00  0.00     0.092 C 
HETATM    7  C7  UNL     1      13.838  16.370  16.198  1.00  0.00     0.073 C 
HETATM    8  C8  UNL     1      15.214  16.888  16.666  1.00  0.00     0.130 C 
HETATM    9  C9  UNL     1      14.948  17.059  18.074  1.00  0.00     0.081 C 
HETATM   10  C10 UNL     1      14.340  15.665  18.377  1.00  0.00     0.101 C 
ENDROOT
BRANCH   1  11
HETATM   11  O1  UNL     1      16.964  16.183  19.016  1.00  0.00    -0.395 OA
ATOM     12  H1  UNL     1      16.605  15.352  19.307  1.00  0.00     0.210 HD
ENDBRANCH   1  11
BRANCH   8  13
HETATM   13  O3  UNL     1      15.516  18.032  15.949  1.00  0.00    -0.395 OA
ATOM     14  H3  UNL     1      16.165  18.527  16.435  1.00  0.00     0.210 HD
ENDBRANCH   8  13
BRANCH  10  15
HETATM   15  O4  UNL     1      15.221  14.661  18.176  1.00  0.00    -0.386 OA
ATOM     16  H4  UNL     1      14.951  13.942  17.616  1.00  0.00     0.210 HD
ENDBRANCH  10  15
BRANCH   6  17
HETATM   17  O2  UNL     1      12.644  14.507  17.171  1.00  0.00    -0.387 OA
ATOM     18  H2  UNL     1      13.163  13.776  17.486  1.00  0.00     0.210 HD
ENDBRANCH   6  17
TORSDOF 4
ENDMDL
MODEL 4
REMARK VINA RESULT: -6.124376734      1.442      3.194
REMARK  4 active torsions:
REMARK  status: ('A' for Active; 'I' for Inactive)
REMARK    1  A    between atoms: O1_1  and  C1_3 
REMARK    2  A    between atoms: C6_8  and  O2_9 
REMARK    3  A    between atoms: C8_12  and  O3_13 
REMARK    4  A    between atoms: C10_16  and  O4_17 
ROOT
HETATM    1  C1  UNL     1      15.969  16.084  19.186  1.00  0.00     0.128 C 
HETATM    2  C2  UNL     1      15.979  17.233  18.158  1.00  0.00     0.040 C 
HETATM    3  C3  UNL     1      14.571  17.240  17.543  1.00  0.00     0.026 C 
HETATM    4  C4  UNL     1      14.510  16.447  16.268  1.00  0.00     0.011 C 
HETATM    5  C5  UNL     1      13.403  15.433  16.402  1.00  0.00     0.041 C 
HETATM    6  C6  UNL     1      12.802  15.578  17.773  1.00  0.00     0.092 C 
HETATM    7  C7  UNL     1      12.840  14.266  18.562  1.00  0.00     0.073 C 
HETATM    8  C8  UNL     1      14.102  14.345  19.447  1.00  0.00     0.130 C 
HETATM    9  C9  UNL     1      14.887  15.279  18.674  1.00  0.00     0.081 C 
HETATM   10  C10 UNL     1      13.824  16.393  18.489  1.00  0.00     0.101 C 
ENDROOT
BRANCH   1  11
HETATM   11  O1  UNL     1      15.769  16.663  20.413  1.00  0.00    -0.395 OA
ATOM     12  H1  UNL     1      14.898  16.405  20.693  1.00  0.00     0.210 HD
ENDBRANCH   1  11
BRANCH   8  13
HETATM   13  O3  UNL     1      14.617  13.069  19.586  1.00  0.00    -0.395 OA
ATOM     14  H3  UNL     1      14.204  12.659  20.337  1.00  0.00     0.210 HD
ENDBRANCH   8  13
BRANCH  10  15
HETATM   15  O4  UNL     1      13.442  16.946  19.660  1.00  0.00    -0.386 OA
ATOM     16  H4  UNL     1      12.776  16.494  20.166  1.00  0.00     0.210 HD
ENDBRANCH  10  15
BRANCH   6  17
HETATM   17  O2  UNL     1      11.560  16.163  17.784  1.00  0.00    -0.387 OA
ATOM     18  H2  UNL     1      11.529  17.017  17.369  1.00  0.00     0.210 HD
ENDBRANCH   6  17
TORSDOF 4
ENDMDL
MODEL 5
REMARK VINA RESULT: -6.116559001      1.194      1.625
REMARK  4 active torsions:
REMARK  status: ('A' for Active; 'I' for Inactive)
REMARK    1  A    between atoms: O1_1  and  C1_3 
REMARK    2  A    between atoms: C6_8  and  O2_9 
REMARK    3  A    between atoms: C8_12  and  O3_13 
REMARK    4  A    between atoms: C10_16  and  O4_17 
ROOT
HETATM    1  C1  UNL     1      13.725  17.730  16.110  1.00  0.00     0.128 C 
HETATM    2  C2  UNL     1      15.243  17.998  16.157  1.00  0.00     0.040 C 
HETATM    3  C3  UNL     1      15.820  16.901  17.065  1.00  0.00     0.026 C 
HETATM    4  C4  UNL     1      15.956  17.362  18.489  1.00  0.00     0.011 C 
HETATM    5  C5  UNL     1      15.237  16.373  19.370  1.00  0.00     0.041 C 
HETATM    6  C6  UNL     1      14.629  15.319  18.487  1.00  0.00     0.092 C 
HETATM    7  C7  UNL     1      13.116  15.194  18.695  1.00  0.00     0.073 C 
HETATM    8  C8  UNL     1      12.469  16.053  17.588  1.00  0.00     0.130 C 
HETATM    9  C9  UNL     1      13.550  16.973  17.325  1.00  0.00     0.081 C 
HETATM   10  C10 UNL     1      14.699  15.948  17.138  1.00  0.00     0.101 C 
ENDROOT
BRANCH   1  11
HETATM   11  O1  UNL     1      13.486  17.061  14.936  1.00  0.00    -0.395 OA
ATOM     12  H1  UNL     1      13.342  16.152  15.170  1.00  0.00     0.210 HD
ENDBRANCH   1  11
BRANCH   8  13
HETATM   13  O3  UNL     1      11.300  16.598  18.087  1.00  0.00    -0.395 OA
ATOM     14  H3  UNL     1      10.634  15.920  18.098  1.00  0.00     0.210 HD
ENDBRANCH   8  13
BRANCH  10  15
HETATM   15  O4  UNL     1      14.500  15.131  16.081  1.00  0.00    -0.386 OA
ATOM     16  H4  UNL     1      13.866  15.403  15.427  1.00  0.00     0.210 HD
ENDBRANCH  10  15
BRANCH   6  17
HETATM   17  O2  UNL     1      15.268  14.106  18.537  1.00  0.00    -0.387 OA
ATOM     18  H2  UNL     1      16.157  14.121  18.201  1.00  0.00     0.210 HD
ENDBRANCH   6  17
TORSDOF 4
ENDMDL
