MODEL 1
REMARK VINA RESULT: -6.060752739      0.000      0.000
REMARK  5 active torsions:
REMARK  status: ('A' for Active; 'I' for Inactive)
REMARK    1  A    between atoms: C2_2  and  C4_4 
REMARK    2  A    between atoms: C5_5  and  C6_6 
REMARK    3  A    between atoms: C6_6  and  O1_7 
REMARK    4  A    between atoms: C8_11  and  O3_12 
REMARK    5  A    between atoms: C9_14  and  O4_15 
ROOT
HETATM    1  C6  UNL     1      13.945  16.281  19.194  1.00  0.00     0.259 C 
HETATM    2  O2  UNL     1      13.990  17.063  18.072  1.00  0.00    -0.340 OA
HETATM    3  C7  UNL     1      13.623  16.331  16.978  1.00  0.00     0.207 C 
HETATM    4  C8  UNL     1      13.077  15.002  17.462  1.00  0.00     0.177 C 
HETATM    5  C9  UNL     1      13.929  14.836  18.731  1.00  0.00     0.224 C 
ENDROOT
BRANCH   1   6
HETATM    6  C5  UNL     1      15.038  16.490  20.121  1.00  0.00    -0.035 C 
HETATM    7  C4  UNL     1      15.937  16.682  20.896  1.00  0.00    -0.097 C 
BRANCH   7   8
HETATM    8  C2  UNL     1      17.024  16.940  21.842  1.00  0.00     0.057 C 
HETATM    9  C1  UNL     1      18.105  17.697  21.102  1.00  0.00     0.023 C 
HETATM   10  C3  UNL     1      16.540  17.727  23.043  1.00  0.00     0.023 C 
ENDBRANCH   7   8
ENDBRANCH   1   6
BRANCH   1  11
HETATM   11  O1  UNL     1      12.690  16.501  19.804  1.00  0.00    -0.353 OA
ATOM     12  H1  UNL     1      12.002  16.626  19.160  1.00  0.00     0.214 HD
ENDBRANCH   1  11
BRANCH   5  13
HETATM   13  O4  UNL     1      15.203  14.502  18.311  1.00  0.00    -0.386 OA
ATOM     14  H4  UNL     1      15.354  14.906  17.465  1.00  0.00     0.210 HD
ENDBRANCH   5  13
BRANCH   4  15
HETATM   15  O3  UNL     1      11.737  15.106  17.853  1.00  0.00    -0.391 OA
ATOM     16  H3  UNL     1      11.389  14.269  18.137  1.00  0.00     0.210 HD
ENDBRANCH   4  15
TORSDOF 5
ENDMDL
MODEL 2
REMARK VINA RESULT: -5.955623239      1.910      2.670
REMARK  5 active torsions:
REMARK  status: ('A' for Active; 'I' for Inactive)
REMARK    1  A    between atoms: C2_2  and  C4_4 
REMARK    2  A    between atoms: C5_5  and  C6_6 
REMARK    3  A    between atoms: C6_6  and  O1_7 
REMARK    4  A    between atoms: C8_11  and  O3_12 
REMARK    5  A    between atoms: C9_14  and  O4_15 
ROOT
HETATM    1  C6  UNL     1      12.201  16.818  17.612  1.00  0.00     0.259 C 
HETATM    2  O2  UNL     1      12.498  17.997  16.982  1.00  0.00    -0.340 OA
HETATM    3  C7  UNL     1      12.475  17.819  15.627  1.00  0.00     0.207 C 
HETATM    4  C8  UNL     1      11.895  16.449  15.340  1.00  0.00     0.177 C 
HETATM    5  C9  UNL     1      12.388  15.709  16.594  1.00  0.00     0.224 C 
ENDROOT
BRANCH   1   6
HETATM    6  C5  UNL     1      12.995  16.547  18.791  1.00  0.00    -0.035 C 
HETATM    7  C4  UNL     1      13.653  16.300  19.767  1.00  0.00    -0.097 C 
BRANCH   7   8
HETATM    8  C2  UNL     1      14.450  15.976  20.951  1.00  0.00     0.057 C 
HETATM    9  C1  UNL     1      15.751  16.742  20.851  1.00  0.00     0.023 C 
HETATM   10  C3  UNL     1      13.716  16.326  22.229  1.00  0.00     0.023 C 
ENDBRANCH   7   8
ENDBRANCH   1   6
BRANCH   1  11
HETATM   11  O1  UNL     1      10.819  16.841  17.903  1.00  0.00    -0.353 OA
ATOM     12  H1  UNL     1      10.291  16.759  17.117  1.00  0.00     0.214 HD
ENDBRANCH   1  11
BRANCH   5  13
HETATM   13  O4  UNL     1      13.744  15.502  16.424  1.00  0.00    -0.386 OA
ATOM     14  H4  UNL     1      14.037  16.030  15.691  1.00  0.00     0.210 HD
ENDBRANCH   5  13
BRANCH   4  15
HETATM   15  O3  UNL     1      10.496  16.464  15.371  1.00  0.00    -0.391 OA
ATOM     16  H3  UNL     1      10.145  17.249  14.967  1.00  0.00     0.210 HD
ENDBRANCH   4  15
TORSDOF 5
ENDMDL
MODEL 3
REMARK VINA RESULT: -5.775649662      1.286      2.377
REMARK  5 active torsions:
REMARK  status: ('A' for Active; 'I' for Inactive)
REMARK    1  A    between atoms: C2_2  and  C4_4 
REMARK    2  A    between atoms: C5_5  and  C6_6 
REMARK    3  A    between atoms: C6_6  and  O1_7 
REMARK    4  A    between atoms: C8_11  and  O3_12 
REMARK    5  A    between atoms: C9_14  and  O4_15 
ROOT
HETATM    1  C6  UNL     1      14.921  15.623  19.517  1.00  0.00     0.259 C 
HETATM    2  O2  UNL     1      14.642  14.301  19.739  1.00  0.00    -0.340 OA
HETATM    3  C7  UNL     1      13.450  13.972  19.158  1.00  0.00     0.207 C 
HETATM    4  C8  UNL     1      13.013  15.134  18.288  1.00  0.00     0.177 C 
HETATM    5  C9  UNL     1      13.623  16.288  19.099  1.00  0.00     0.224 C 
ENDROOT
BRANCH   1   6
HETATM    6  C5  UNL     1      15.491  16.320  20.651  1.00  0.00    -0.035 C 
HETATM    7  C4  UNL     1      15.979  16.884  21.594  1.00  0.00    -0.097 C 
BRANCH   7   8
HETATM    8  C2  UNL     1      16.590  17.552  22.744  1.00  0.00     0.057 C 
HETATM    9  C1  UNL     1      16.035  16.907  23.996  1.00  0.00     0.023 C 
HETATM   10  C3  UNL     1      18.100  17.450  22.709  1.00  0.00     0.023 C 
ENDBRANCH   7   8
ENDBRANCH   1   6
BRANCH   1  11
HETATM   11  O1  UNL     1      15.764  15.684  18.385  1.00  0.00    -0.353 OA
ATOM     12  H1  UNL     1      15.928  16.580  18.115  1.00  0.00     0.214 HD
ENDBRANCH   1  11
BRANCH   5  13
HETATM   13  O4  UNL     1      12.834  16.443  20.223  1.00  0.00    -0.386 OA
ATOM     14  H4  UNL     1      12.332  17.244  20.128  1.00  0.00     0.210 HD
ENDBRANCH   5  13
BRANCH   4  15
HETATM   15  O3  UNL     1      13.640  15.106  17.037  1.00  0.00    -0.391 OA
ATOM     16  H3  UNL     1      13.111  15.529  16.370  1.00  0.00     0.210 HD
ENDBRANCH   4  15
TORSDOF 5
ENDMDL
MODEL 4
REMARK VINA RESULT: -5.629088996      1.005      1.321
REMARK  5 active torsions:
REMARK  status: ('A' for Active; 'I' for Inactive)
REMARK    1  A    between atoms: C2_2  and  C4_4 
REMARK    2  A    between atoms: C5_5  and  C6_6 
REMARK    3  A    between atoms: C6_6  and  O1_7 
REMARK    4  A    between atoms: C8_11  and  O3_12 
REMARK    5  A    between atoms: C9_14  and  O4_15 
ROOT
HETATM    1  C6  UNL     1      13.651  16.056  19.382  1.00  0.00     0.259 C 
HETATM    2  O2  UNL     1      12.659  16.994  19.473  1.00  0.00    -0.340 OA
HETATM    3  C7  UNL     1      12.083  17.184  18.248  1.00  0.00     0.207 C 
HETATM    4  C8  UNL     1      12.602  16.111  17.312  1.00  0.00     0.177 C 
HETATM    5  C9  UNL     1      14.004  15.921  17.913  1.00  0.00     0.224 C 
ENDROOT
BRANCH   1   6
HETATM    6  C5  UNL     1      14.841  16.358  20.150  1.00  0.00    -0.035 C 
HETATM    7  C4  UNL     1      15.819  16.602  20.806  1.00  0.00    -0.097 C 
BRANCH   7   8
HETATM    8  C2  UNL     1      16.998  16.891  21.624  1.00  0.00     0.057 C 
HETATM    9  C1  UNL     1      18.001  17.606  20.744  1.00  0.00     0.023 C 
HETATM   10  C3  UNL     1      16.643  17.734  22.831  1.00  0.00     0.023 C 
ENDBRANCH   7   8
ENDBRANCH   1   6
BRANCH   1  11
HETATM   11  O1  UNL     1      13.086  14.817  19.755  1.00  0.00    -0.353 OA
ATOM     12  H1  UNL     1      12.149  14.793  19.596  1.00  0.00     0.214 HD
ENDBRANCH   1  11
BRANCH   5  13
HETATM   13  O4  UNL     1      14.747  17.027  17.543  1.00  0.00    -0.386 OA
ATOM     14  H4  UNL     1      14.423  17.779  18.025  1.00  0.00     0.210 HD
ENDBRANCH   5  13
BRANCH   4  15
HETATM   15  O3  UNL     1      11.901  14.909  17.464  1.00  0.00    -0.391 OA
ATOM     16  H3  UNL     1      12.429  14.161  17.212  1.00  0.00     0.210 HD
ENDBRANCH   4  15
TORSDOF 5
ENDMDL
MODEL 5
REMARK VINA RESULT: -5.528410262      1.177      1.727
REMARK  5 active torsions:
REMARK  status: ('A' for Active; 'I' for Inactive)
REMARK    1  A    between atoms: C2_2  and  C4_4 
REMARK    2  A    between atoms: C5_5  and  C6_6 
REMARK    3  A    between atoms: C6_6  and  O1_7 
REMARK    4  A    between atoms: C8_11  and  O3_12 
REMARK    5  A    between atoms: C9_14  and  O4_15 
ROOT
HETATM    1  C6  UNL     1      14.136  15.930  19.724  1.00  0.00     0.259 C 
HETATM    2  O2  UNL     1      13.005  16.691  19.603  1.00  0.00    -0.340 OA
HETATM    3  C7  UNL     1      12.626  16.759  18.292  1.00  0.00     0.207 C 
HETATM    4  C8  UNL     1      13.465  15.771  17.507  1.00  0.00     0.177 C 
HETATM    5  C9  UNL     1      14.754  15.829  18.341  1.00  0.00     0.224 C 
ENDROOT
BRANCH   1   6
HETATM    6  C5  UNL     1      15.111  16.441  20.665  1.00  0.00    -0.035 C 
HETATM    7  C4  UNL     1      15.907  16.881  21.451  1.00  0.00    -0.097 C 
BRANCH   7   8
HETATM    8  C2  UNL     1      16.862  17.435  22.412  1.00  0.00     0.057 C 
HETATM    9  C1  UNL     1      16.391  17.051  23.798  1.00  0.00     0.023 C 
HETATM   10  C3  UNL     1      18.265  16.926  22.159  1.00  0.00     0.023 C 
ENDBRANCH   7   8
ENDBRANCH   1   6
BRANCH   1  11
HETATM   11  O1  UNL     1      13.723  14.621  20.054  1.00  0.00    -0.353 OA
ATOM     12  H1  UNL     1      12.834  14.605  20.389  1.00  0.00     0.214 HD
ENDBRANCH   1  11
BRANCH   5  13
HETATM   13  O4  UNL     1      15.361  17.037  18.050  1.00  0.00    -0.386 OA
ATOM     14  H4  UNL     1      14.994  17.366  17.238  1.00  0.00     0.210 HD
ENDBRANCH   5  13
BRANCH   4  15
HETATM   15  O3  UNL     1      12.951  14.472  17.596  1.00  0.00    -0.391 OA
ATOM     16  H3  UNL     1      13.037  14.005  16.774  1.00  0.00     0.210 HD
ENDBRANCH   4  15
TORSDOF 5
ENDMDL
