MODEL 1
REMARK VINA RESULT: -5.926598893      0.000      0.000
REMARK  6 active torsions:
REMARK  status: ('A' for Active; 'I' for Inactive)
REMARK    1  A    between atoms: N2_3  and  S1_5 
REMARK    2  A    between atoms: S1_5  and  N3_8 
REMARK    3  A    between atoms: N3_8  and  C2_10 
REMARK    4  A    between atoms: C2_10  and  C3_11 
REMARK    5  A    between atoms: C3_11  and  O3_12 
REMARK    6  A    between atoms: O3_12  and  C4_13 
ROOT
HETATM    1  N1  UNL     1     -12.287 -23.108  18.584  1.00  0.00    -0.171 NA
HETATM    2  C1  UNL     1     -13.236 -22.479  18.323  1.00  0.00     0.193 C 
HETATM    3  N2  UNL     1     -14.373 -21.733  18.027  1.00  0.00    -0.204 N 
ATOM      4  H2  UNL     1     -14.625 -20.914  18.581  1.00  0.00     0.192 HD
ENDROOT
BRANCH   3   5
HETATM    5  S1  UNL     1     -15.352 -22.244  16.683  1.00  0.00     0.327 S 
HETATM    6  O1  UNL     1     -16.770 -22.363  17.161  1.00  0.00    -0.182 OA
HETATM    7  O2  UNL     1     -14.816 -23.593  16.228  1.00  0.00    -0.182 OA
BRANCH   5   8
HETATM    8  N3  UNL     1     -15.282 -21.088  15.427  1.00  0.00    -0.300 N 
ATOM      9  H3  UNL     1     -15.727 -20.171  15.456  1.00  0.00     0.173 HD
BRANCH   8  10
HETATM   10  C2  UNL     1     -14.498 -21.596  14.309  1.00  0.00     0.160 C 
BRANCH  10  11
HETATM   11  C3  UNL     1     -13.109 -21.031  14.441  1.00  0.00     0.199 C 
BRANCH  11  12
HETATM   12  O3  UNL     1     -12.190 -22.036  14.729  1.00  0.00    -0.320 OA
BRANCH  12  13
HETATM   13  C4  UNL     1     -11.087 -21.848  15.516  1.00  0.00     0.225 A 
HETATM   14  N4  UNL     1     -10.530 -20.737  16.042  1.00  0.00    -0.314 N 
HETATM   15  C5  UNL     1      -9.440 -21.056  16.755  1.00  0.00     0.148 A 
ATOM     16  H4  UNL     1     -10.887 -19.790  15.916  1.00  0.00     0.170 HD
HETATM   17  C6  UNL     1      -8.506 -20.340  17.492  1.00  0.00     0.277 A 
HETATM   18  C8  UNL     1      -9.277 -22.422  16.693  1.00  0.00     0.142 A 
HETATM   19  O4  UNL     1      -8.672 -19.077  17.539  1.00  0.00    -0.266 OA
HETATM   20  N5  UNL     1      -7.480 -20.934  18.125  1.00  0.00    -0.318 N 
HETATM   21  C7  UNL     1      -7.351 -22.275  18.043  1.00  0.00     0.185 A 
ATOM     22  H5  UNL     1      -6.810 -20.380  18.659  1.00  0.00     0.169 HD
HETATM   23  N6  UNL     1      -8.241 -22.987  17.337  1.00  0.00    -0.336 N 
ATOM     24  H6  UNL     1      -8.127 -23.999  17.287  1.00  0.00     0.168 HD
HETATM   25  N7  UNL     1     -10.286 -22.870  15.939  1.00  0.00    -0.306 N 
ATOM     26  H7  UNL     1     -10.439 -23.852  15.708  1.00  0.00     0.171 HD
ENDBRANCH  12  13
ENDBRANCH  11  12
ENDBRANCH  10  11
ENDBRANCH   8  10
ENDBRANCH   5   8
ENDBRANCH   3   5
TORSDOF 6
ENDMDL
MODEL 2
REMARK VINA RESULT: -5.844889656      2.652      6.400
REMARK  6 active torsions:
REMARK  status: ('A' for Active; 'I' for Inactive)
REMARK    1  A    between atoms: N2_3  and  S1_5 
REMARK    2  A    between atoms: S1_5  and  N3_8 
REMARK    3  A    between atoms: N3_8  and  C2_10 
REMARK    4  A    between atoms: C2_10  and  C3_11 
REMARK    5  A    between atoms: C3_11  and  O3_12 
REMARK    6  A    between atoms: O3_12  and  C4_13 
ROOT
HETATM    1  N1  UNL     1      -6.868 -19.152  16.527  1.00  0.00    -0.171 NA
HETATM    2  C1  UNL     1      -6.740 -20.136  17.144  1.00  0.00     0.193 C 
HETATM    3  N2  UNL     1      -6.587 -21.318  17.863  1.00  0.00    -0.204 N 
ATOM      4  H2  UNL     1      -5.771 -21.915  17.729  1.00  0.00     0.192 HD
ENDROOT
BRANCH   3   5
HETATM    5  S1  UNL     1      -7.836 -21.744  18.998  1.00  0.00     0.327 S 
HETATM    6  O1  UNL     1      -8.890 -20.676  18.949  1.00  0.00    -0.182 OA
HETATM    7  O2  UNL     1      -7.187 -21.808  20.372  1.00  0.00    -0.182 OA
BRANCH   5   8
HETATM    8  N3  UNL     1      -8.538 -23.241  18.568  1.00  0.00    -0.300 N 
ATOM      9  H3  UNL     1      -9.217 -23.749  19.136  1.00  0.00     0.173 HD
BRANCH   8  10
HETATM   10  C2  UNL     1      -8.032 -23.691  17.279  1.00  0.00     0.160 C 
BRANCH  10  11
HETATM   11  C3  UNL     1      -9.219 -24.105  16.449  1.00  0.00     0.199 C 
BRANCH  11  12
HETATM   12  O3  UNL     1      -9.776 -23.007  15.799  1.00  0.00    -0.320 OA
BRANCH  12  13
HETATM   13  C4  UNL     1     -11.099 -22.667  15.888  1.00  0.00     0.225 A 
HETATM   14  N4  UNL     1     -11.925 -22.022  15.037  1.00  0.00    -0.314 N 
HETATM   15  C5  UNL     1     -13.151 -21.921  15.569  1.00  0.00     0.148 A 
ATOM     16  H4  UNL     1     -11.655 -21.663  14.122  1.00  0.00     0.170 HD
HETATM   17  C6  UNL     1     -14.358 -21.372  15.153  1.00  0.00     0.277 A 
HETATM   18  C8  UNL     1     -13.128 -22.518  16.809  1.00  0.00     0.142 A 
HETATM   19  O4  UNL     1     -14.362 -20.823  14.003  1.00  0.00    -0.266 OA
HETATM   20  N5  UNL     1     -15.467 -21.413  15.911  1.00  0.00    -0.318 N 
HETATM   21  C7  UNL     1     -15.408 -22.007  17.121  1.00  0.00     0.185 A 
ATOM     22  H5  UNL     1     -16.338 -21.001  15.577  1.00  0.00     0.169 HD
HETATM   23  N6  UNL     1     -14.254 -22.543  17.545  1.00  0.00    -0.336 N 
ATOM     24  H6  UNL     1     -14.228 -22.988  18.462  1.00  0.00     0.168 HD
HETATM   25  N7  UNL     1     -11.876 -22.959  16.972  1.00  0.00    -0.306 N 
ATOM     26  H7  UNL     1     -11.543 -23.451  17.801  1.00  0.00     0.171 HD
ENDBRANCH  12  13
ENDBRANCH  11  12
ENDBRANCH  10  11
ENDBRANCH   8  10
ENDBRANCH   5   8
ENDBRANCH   3   5
TORSDOF 6
ENDMDL
MODEL 3
REMARK VINA RESULT: -5.796800201      1.685      2.685
REMARK  6 active torsions:
REMARK  status: ('A' for Active; 'I' for Inactive)
REMARK    1  A    between atoms: N2_3  and  S1_5 
REMARK    2  A    between atoms: S1_5  and  N3_8 
REMARK    3  A    between atoms: N3_8  and  C2_10 
REMARK    4  A    between atoms: C2_10  and  C3_11 
REMARK    5  A    between atoms: C3_11  and  O3_12 
REMARK    6  A    between atoms: O3_12  and  C4_13 
ROOT
HETATM    1  N1  UNL     1     -11.046 -21.387  14.671  1.00  0.00    -0.171 NA
HETATM    2  C1  UNL     1     -11.974 -22.062  14.890  1.00  0.00     0.193 C 
HETATM    3  N2  UNL     1     -13.080 -22.871  15.134  1.00  0.00    -0.204 N 
ATOM      4  H2  UNL     1     -13.038 -23.880  14.990  1.00  0.00     0.192 HD
ENDROOT
BRANCH   3   5
HETATM    5  S1  UNL     1     -14.539 -22.104  15.693  1.00  0.00     0.327 S 
HETATM    6  O1  UNL     1     -15.678 -23.055  15.468  1.00  0.00    -0.182 OA
HETATM    7  O2  UNL     1     -14.717 -20.835  14.873  1.00  0.00    -0.182 OA
BRANCH   5   8
HETATM    8  N3  UNL     1     -14.423 -21.758  17.362  1.00  0.00    -0.300 N 
ATOM      9  H3  UNL     1     -14.388 -20.819  17.760  1.00  0.00     0.173 HD
BRANCH   8  10
HETATM   10  C2  UNL     1     -14.380 -22.990  18.137  1.00  0.00     0.160 C 
BRANCH  10  11
HETATM   11  C3  UNL     1     -13.125 -22.956  18.968  1.00  0.00     0.199 C 
BRANCH  11  12
HETATM   12  O3  UNL     1     -12.029 -23.390  18.229  1.00  0.00    -0.320 OA
BRANCH  12  13
HETATM   13  C4  UNL     1     -10.885 -22.655  18.070  1.00  0.00     0.225 A 
HETATM   14  N4  UNL     1     -10.666 -21.324  18.014  1.00  0.00    -0.314 N 
HETATM   15  C5  UNL     1      -9.359 -21.076  17.845  1.00  0.00     0.148 A 
ATOM     16  H4  UNL     1     -11.390 -20.610  18.089  1.00  0.00     0.170 HD
HETATM   17  C6  UNL     1      -8.588 -19.927  17.724  1.00  0.00     0.277 A 
HETATM   18  C8  UNL     1      -8.701 -22.283  17.788  1.00  0.00     0.142 A 
HETATM   19  O4  UNL     1      -9.213 -18.818  17.779  1.00  0.00    -0.266 OA
HETATM   20  N5  UNL     1      -7.255 -19.969  17.558  1.00  0.00    -0.318 N 
HETATM   21  C7  UNL     1      -6.642 -21.171  17.507  1.00  0.00     0.185 A 
ATOM     22  H5  UNL     1      -6.716 -19.108  17.472  1.00  0.00     0.169 HD
HETATM   23  N6  UNL     1      -7.366 -22.293  17.621  1.00  0.00    -0.336 N 
ATOM     24  H6  UNL     1      -6.886 -23.192  17.580  1.00  0.00     0.168 HD
HETATM   25  N7  UNL     1      -9.649 -23.216  17.927  1.00  0.00    -0.306 N 
ATOM     26  H7  UNL     1      -9.471 -24.220  17.926  1.00  0.00     0.171 HD
ENDBRANCH  12  13
ENDBRANCH  11  12
ENDBRANCH  10  11
ENDBRANCH   8  10
ENDBRANCH   5   8
ENDBRANCH   3   5
TORSDOF 6
ENDMDL
MODEL 4
REMARK VINA RESULT: -5.792059877      2.587      6.073
REMARK  6 active torsions:
REMARK  status: ('A' for Active; 'I' for Inactive)
REMARK    1  A    between atoms: N2_3  and  S1_5 
REMARK    2  A    between atoms: S1_5  and  N3_8 
REMARK    3  A    between atoms: N3_8  and  C2_10 
REMARK    4  A    between atoms: C2_10  and  C3_11 
REMARK    5  A    between atoms: C3_11  and  O3_12 
REMARK    6  A    between atoms: O3_12  and  C4_13 
ROOT
HETATM    1  N1  UNL     1     -10.218 -19.918  20.461  1.00  0.00    -0.171 NA
HETATM    2  C1  UNL     1      -9.906 -19.546  19.398  1.00  0.00     0.193 C 
HETATM    3  N2  UNL     1      -9.550 -19.107  18.126  1.00  0.00    -0.204 N 
ATOM      4  H2  UNL     1     -10.001 -18.296  17.703  1.00  0.00     0.192 HD
ENDROOT
BRANCH   3   5
HETATM    5  S1  UNL     1      -8.310 -19.987  17.281  1.00  0.00     0.327 S 
HETATM    6  O1  UNL     1      -7.205 -19.027  16.948  1.00  0.00    -0.182 OA
HETATM    7  O2  UNL     1      -8.943 -20.550  16.018  1.00  0.00    -0.182 OA
BRANCH   5   8
HETATM    8  N3  UNL     1      -7.687 -21.231  18.274  1.00  0.00    -0.300 N 
ATOM      9  H3  UNL     1      -7.205 -21.081  19.161  1.00  0.00     0.173 HD
BRANCH   8  10
HETATM   10  C2  UNL     1      -7.941 -22.535  17.677  1.00  0.00     0.160 C 
BRANCH  10  11
HETATM   11  C3  UNL     1      -9.193 -23.083  18.309  1.00  0.00     0.199 C 
BRANCH  11  12
HETATM   12  O3  UNL     1      -9.998 -23.702  17.357  1.00  0.00    -0.320 OA
BRANCH  12  13
HETATM   13  C4  UNL     1     -11.134 -23.137  16.844  1.00  0.00     0.225 A 
HETATM   14  N4  UNL     1     -12.387 -23.023  17.334  1.00  0.00    -0.314 N 
HETATM   15  C5  UNL     1     -13.171 -22.380  16.457  1.00  0.00     0.148 A 
ATOM     16  H4  UNL     1     -12.693 -23.375  18.241  1.00  0.00     0.170 HD
HETATM   17  C6  UNL     1     -14.506 -21.996  16.434  1.00  0.00     0.277 A 
HETATM   18  C8  UNL     1     -12.408 -22.063  15.356  1.00  0.00     0.142 A 
HETATM   19  O4  UNL     1     -15.199 -22.296  17.460  1.00  0.00    -0.266 OA
HETATM   20  N5  UNL     1     -15.049 -21.342  15.392  1.00  0.00    -0.318 N 
HETATM   21  C7  UNL     1     -14.270 -21.047  14.330  1.00  0.00     0.185 A 
ATOM     22  H5  UNL     1     -16.032 -21.073  15.406  1.00  0.00     0.169 HD
HETATM   23  N6  UNL     1     -12.979 -21.408  14.330  1.00  0.00    -0.336 N 
ATOM     24  H6  UNL     1     -12.407 -21.177  13.518  1.00  0.00     0.168 HD
HETATM   25  N7  UNL     1     -11.184 -22.533  15.621  1.00  0.00    -0.306 N 
ATOM     26  H7  UNL     1     -10.388 -22.451  14.989  1.00  0.00     0.171 HD
ENDBRANCH  12  13
ENDBRANCH  11  12
ENDBRANCH  10  11
ENDBRANCH   8  10
ENDBRANCH   5   8
ENDBRANCH   3   5
TORSDOF 6
ENDMDL
MODEL 5
REMARK VINA RESULT: -5.716168174      2.635      6.023
REMARK  6 active torsions:
REMARK  status: ('A' for Active; 'I' for Inactive)
REMARK    1  A    between atoms: N2_3  and  S1_5 
REMARK    2  A    between atoms: S1_5  and  N3_8 
REMARK    3  A    between atoms: N3_8  and  C2_10 
REMARK    4  A    between atoms: C2_10  and  C3_11 
REMARK    5  A    between atoms: C3_11  and  O3_12 
REMARK    6  A    between atoms: O3_12  and  C4_13 
ROOT
HETATM    1  N1  UNL     1      -9.540 -20.608  20.248  1.00  0.00    -0.171 NA
HETATM    2  C1  UNL     1      -9.658 -20.250  19.142  1.00  0.00     0.193 C 
HETATM    3  N2  UNL     1      -9.817 -19.825  17.827  1.00  0.00    -0.204 N 
ATOM      4  H2  UNL     1     -10.394 -19.015  17.600  1.00  0.00     0.192 HD
ENDROOT
BRANCH   3   5
HETATM    5  S1  UNL     1      -8.999 -20.722  16.580  1.00  0.00     0.327 S 
HETATM    6  O1  UNL     1      -7.811 -19.919  16.135  1.00  0.00    -0.182 OA
HETATM    7  O2  UNL     1      -9.990 -20.909  15.441  1.00  0.00    -0.182 OA
BRANCH   5   8
HETATM    8  N3  UNL     1      -8.459 -22.224  17.191  1.00  0.00    -0.300 N 
ATOM      9  H3  UNL     1      -7.666 -22.344  17.821  1.00  0.00     0.173 HD
BRANCH   8  10
HETATM   10  C2  UNL     1      -9.290 -23.308  16.685  1.00  0.00     0.160 C 
BRANCH  10  11
HETATM   11  C3  UNL     1     -10.053 -23.873  17.855  1.00  0.00     0.199 C 
BRANCH  11  12
HETATM   12  O3  UNL     1     -11.223 -23.153  18.078  1.00  0.00    -0.320 OA
BRANCH  12  13
HETATM   13  C4  UNL     1     -12.231 -23.044  17.159  1.00  0.00     0.225 A 
HETATM   14  N4  UNL     1     -12.623 -22.026  16.365  1.00  0.00    -0.314 N 
HETATM   15  C5  UNL     1     -13.676 -22.396  15.622  1.00  0.00     0.148 A 
ATOM     16  H4  UNL     1     -12.183 -21.106  16.334  1.00  0.00     0.170 HD
HETATM   17  C6  UNL     1     -14.466 -21.775  14.663  1.00  0.00     0.277 A 
HETATM   18  C8  UNL     1     -13.985 -23.699  15.941  1.00  0.00     0.142 A 
HETATM   19  O4  UNL     1     -14.168 -20.569  14.380  1.00  0.00    -0.266 OA
HETATM   20  N5  UNL     1     -15.492 -22.401  14.060  1.00  0.00    -0.318 N 
HETATM   21  C7  UNL     1     -15.765 -23.679  14.397  1.00  0.00     0.185 A 
ATOM     22  H5  UNL     1     -16.053 -21.917  13.359  1.00  0.00     0.169 HD
HETATM   23  N6  UNL     1     -15.016 -24.299  15.320  1.00  0.00    -0.336 N 
ATOM     24  H6  UNL     1     -15.237 -25.264  15.562  1.00  0.00     0.168 HD
HETATM   25  N7  UNL     1     -13.094 -24.061  16.871  1.00  0.00    -0.306 N 
ATOM     26  H7  UNL     1     -13.063 -24.982  17.310  1.00  0.00     0.171 HD
ENDBRANCH  12  13
ENDBRANCH  11  12
ENDBRANCH  10  11
ENDBRANCH   8  10
ENDBRANCH   5   8
ENDBRANCH   3   5
TORSDOF 6
ENDMDL
