MODEL 1
REMARK VINA RESULT: -4.054889951      0.000      0.000
REMARK  1 active torsions:
REMARK  status: ('A' for Active; 'I' for Inactive)
REMARK    1  A    between atoms: C2_2  and  N1_3 
ROOT
HETATM    1  N1  UNL     1      31.063   5.630  27.878  1.00  0.00     0.018 N 
HETATM    2  C3  UNL     1      30.707   6.954  27.273  1.00  0.00     0.296 A 
HETATM    3  C4  UNL     1      30.776   6.735  28.734  1.00  0.00     0.240 A 
HETATM    4  C5  UNL     1      29.450   6.477  29.406  1.00  0.00     0.055 C 
HETATM    5  C6  UNL     1      28.924   5.301  28.613  1.00  0.00     0.145 C 
HETATM    6  N2  UNL     1      30.028   4.738  27.906  1.00  0.00    -0.046 NA
ENDROOT
BRANCH   1   7
HETATM    7  C2  UNL     1      32.423   5.251  27.707  1.00  0.00     0.256 C 
HETATM    8  C1  UNL     1      32.868   4.008  28.351  1.00  0.00     0.036 C 
ENDBRANCH   1   7
TORSDOF 1
ENDMDL
MODEL 2
REMARK VINA RESULT: -4.013532033      1.878      3.385
REMARK  1 active torsions:
REMARK  status: ('A' for Active; 'I' for Inactive)
REMARK    1  A    between atoms: C2_2  and  N1_3 
ROOT
HETATM    1  N1  UNL     1      29.967   7.331  29.163  1.00  0.00     0.018 N 
HETATM    2  C3  UNL     1      28.855   6.861  28.275  1.00  0.00     0.296 A 
HETATM    3  C4  UNL     1      29.345   6.075  29.429  1.00  0.00     0.240 A 
HETATM    4  C5  UNL     1      30.326   4.982  29.088  1.00  0.00     0.055 C 
HETATM    5  C6  UNL     1      31.397   5.747  28.343  1.00  0.00     0.145 C 
HETATM    6  N2  UNL     1      31.215   7.131  28.640  1.00  0.00    -0.046 NA
ENDROOT
BRANCH   1   7
HETATM    7  C2  UNL     1      29.631   8.435  29.994  1.00  0.00     0.256 C 
HETATM    8  C1  UNL     1      30.650   9.475  30.188  1.00  0.00     0.036 C 
ENDBRANCH   1   7
TORSDOF 1
ENDMDL
MODEL 3
REMARK VINA RESULT: -4.001477448      1.343      2.195
REMARK  1 active torsions:
REMARK  status: ('A' for Active; 'I' for Inactive)
REMARK    1  A    between atoms: C2_2  and  N1_3 
ROOT
HETATM    1  N1  UNL     1      30.485   5.987  28.733  1.00  0.00     0.018 N 
HETATM    2  C3  UNL     1      29.373   5.714  29.700  1.00  0.00     0.296 A 
HETATM    3  C4  UNL     1      29.134   6.176  28.315  1.00  0.00     0.240 A 
HETATM    4  C5  UNL     1      28.890   7.657  28.167  1.00  0.00     0.055 C 
HETATM    5  C6  UNL     1      30.120   8.241  28.827  1.00  0.00     0.145 C 
HETATM    6  N2  UNL     1      31.091   7.199  28.913  1.00  0.00    -0.046 NA
ENDROOT
BRANCH   1   7
HETATM    7  C2  UNL     1      31.170   4.825  28.280  1.00  0.00     0.256 C 
HETATM    8  C1  UNL     1      32.562   4.985  27.841  1.00  0.00     0.036 C 
ENDBRANCH   1   7
TORSDOF 1
ENDMDL
MODEL 4
REMARK VINA RESULT: -3.901341322      1.210      3.216
REMARK  1 active torsions:
REMARK  status: ('A' for Active; 'I' for Inactive)
REMARK    1  A    between atoms: C2_2  and  N1_3 
ROOT
HETATM    1  N1  UNL     1      30.181   6.058  28.597  1.00  0.00     0.018 N 
HETATM    2  C3  UNL     1      29.499   4.786  28.196  1.00  0.00     0.296 A 
HETATM    3  C4  UNL     1      30.637   4.820  29.140  1.00  0.00     0.240 A 
HETATM    4  C5  UNL     1      31.982   4.507  28.533  1.00  0.00     0.055 C 
HETATM    5  C6  UNL     1      32.058   5.519  27.410  1.00  0.00     0.145 C 
HETATM    6  N2  UNL     1      31.077   6.520  27.674  1.00  0.00    -0.046 NA
ENDROOT
BRANCH   1   7
HETATM    7  C2  UNL     1      29.401   6.907  29.430  1.00  0.00     0.256 C 
HETATM    8  C1  UNL     1      29.876   8.282  29.634  1.00  0.00     0.036 C 
ENDBRANCH   1   7
TORSDOF 1
ENDMDL
MODEL 5
REMARK VINA RESULT: -3.745945316      1.986      2.965
REMARK  1 active torsions:
REMARK  status: ('A' for Active; 'I' for Inactive)
REMARK    1  A    between atoms: C2_2  and  N1_3 
ROOT
HETATM    1  N1  UNL     1      29.857   6.947  29.106  1.00  0.00     0.018 N 
HETATM    2  C3  UNL     1      29.156   8.035  29.861  1.00  0.00     0.296 A 
HETATM    3  C4  UNL     1      28.886   7.748  28.435  1.00  0.00     0.240 A 
HETATM    4  C5  UNL     1      29.606   8.639  27.455  1.00  0.00     0.055 C 
HETATM    5  C6  UNL     1      31.049   8.460  27.876  1.00  0.00     0.145 C 
HETATM    6  N2  UNL     1      31.112   7.287  28.685  1.00  0.00    -0.046 NA
ENDROOT
BRANCH   1   7
HETATM    7  C2  UNL     1      29.488   5.629  29.493  1.00  0.00     0.256 C 
HETATM    8  C1  UNL     1      30.462   4.554  29.261  1.00  0.00     0.036 C 
ENDBRANCH   1   7
TORSDOF 1
ENDMDL
