MODEL 1
REMARK VINA RESULT: -4.369940959      0.000      0.000
REMARK  0 active torsions:
REMARK  status: ('A' for Active; 'I' for Inactive)
ROOT
HETATM    1  C1  UNL     1      31.190   4.761  28.632  1.00  0.00     0.055 C 
HETATM    2  C2  UNL     1      32.225   5.247  27.630  1.00  0.00     0.236 C 
HETATM    3  N1  UNL     1      32.221   6.701  27.706  1.00  0.00    -0.051 N 
ATOM      4  H11 UNL     1      33.003   7.107  27.194  1.00  0.00     0.279 HD
ATOM      5  H12 UNL     1      32.462   7.030  28.641  1.00  0.00     0.279 HD
HETATM    6  C3  UNL     1      30.935   7.244  27.255  1.00  0.00     0.467 C 
HETATM    7  N2  UNL     1      29.922   6.817  28.160  1.00  0.00    -0.040 N 
HETATM    8  C4  UNL     1      29.891   5.409  28.338  1.00  0.00     0.241 C 
HETATM    9  C5  UNL     1      28.627   7.454  28.193  1.00  0.00     0.267 A 
HETATM   10  C6  UNL     1      29.619   7.731  29.224  1.00  0.00     0.267 A 
ENDROOT
TORSDOF 0
ENDMDL
MODEL 2
REMARK VINA RESULT: -4.343338030      1.218      2.003
REMARK  0 active torsions:
REMARK  status: ('A' for Active; 'I' for Inactive)
ROOT
HETATM    1  C1  UNL     1      31.745   6.063  27.500  1.00  0.00     0.055 C 
HETATM    2  C2  UNL     1      31.568   4.670  28.084  1.00  0.00     0.236 C 
HETATM    3  N1  UNL     1      30.143   4.506  28.335  1.00  0.00    -0.051 N 
ATOM      4  H11 UNL     1      29.910   3.541  28.567  1.00  0.00     0.279 HD
ATOM      5  H12 UNL     1      29.597   4.596  27.479  1.00  0.00     0.279 HD
HETATM    6  C3  UNL     1      29.685   5.440  29.371  1.00  0.00     0.467 C 
HETATM    7  N2  UNL     1      29.830   6.767  28.877  1.00  0.00    -0.040 N 
HETATM    8  C4  UNL     1      31.145   7.053  28.424  1.00  0.00     0.241 C 
HETATM    9  C5  UNL     1      29.158   7.879  29.505  1.00  0.00     0.267 A 
HETATM   10  C6  UNL     1      28.665   7.325  28.251  1.00  0.00     0.267 A 
ENDROOT
TORSDOF 0
ENDMDL
MODEL 3
REMARK VINA RESULT: -3.892055385      1.358      2.401
REMARK  0 active torsions:
REMARK  status: ('A' for Active; 'I' for Inactive)
ROOT
HETATM    1  C1  UNL     1      30.835   5.396  28.078  1.00  0.00     0.055 C 
HETATM    2  C2  UNL     1      29.992   5.049  29.295  1.00  0.00     0.236 C 
HETATM    3  N1  UNL     1      28.937   6.051  29.365  1.00  0.00    -0.051 N 
ATOM      4  H11 UNL     1      28.224   5.800  30.049  1.00  0.00     0.279 HD
ATOM      5  H12 UNL     1      28.356   6.045  28.527  1.00  0.00     0.279 HD
HETATM    6  C3  UNL     1      29.497   7.381  29.627  1.00  0.00     0.467 C 
HETATM    7  N2  UNL     1      30.302   7.759  28.515  1.00  0.00    -0.040 N 
HETATM    8  C4  UNL     1      31.297   6.799  28.195  1.00  0.00     0.241 C 
HETATM    9  C5  UNL     1      30.705   9.130  28.312  1.00  0.00     0.267 A 
HETATM   10  C6  UNL     1      29.640   8.541  27.511  1.00  0.00     0.267 A 
ENDROOT
TORSDOF 0
ENDMDL
MODEL 4
REMARK VINA RESULT: -3.885061004      1.239      3.352
REMARK  0 active torsions:
REMARK  status: ('A' for Active; 'I' for Inactive)
ROOT
HETATM    1  C1  UNL     1      30.425   8.576  29.598  1.00  0.00     0.055 C 
HETATM    2  C2  UNL     1      28.953   8.286  29.852  1.00  0.00     0.236 C 
HETATM    3  N1  UNL     1      28.821   6.837  29.896  1.00  0.00    -0.051 N 
ATOM      4  H11 UNL     1      27.900   6.553  30.231  1.00  0.00     0.279 HD
ATOM      5  H12 UNL     1      29.388   6.429  30.640  1.00  0.00     0.279 HD
HETATM    6  C3  UNL     1      29.131   6.244  28.591  1.00  0.00     0.467 C 
HETATM    7  N2  UNL     1      30.503   6.487  28.299  1.00  0.00    -0.040 N 
HETATM    8  C4  UNL     1      30.854   7.860  28.375  1.00  0.00     0.241 C 
HETATM    9  C5  UNL     1      31.194   5.748  27.270  1.00  0.00     0.267 A 
HETATM   10  C6  UNL     1      31.410   5.442  28.678  1.00  0.00     0.267 A 
ENDROOT
TORSDOF 0
ENDMDL
MODEL 5
REMARK VINA RESULT: -3.818094478      1.090      2.626
REMARK  0 active torsions:
REMARK  status: ('A' for Active; 'I' for Inactive)
ROOT
HETATM    1  C1  UNL     1      29.686   8.156  27.984  1.00  0.00     0.055 C 
HETATM    2  C2  UNL     1      31.083   8.386  27.428  1.00  0.00     0.236 C 
HETATM    3  N1  UNL     1      31.558   7.091  26.962  1.00  0.00    -0.051 N 
ATOM      4  H11 UNL     1      32.417   7.178  26.419  1.00  0.00     0.279 HD
ATOM      5  H12 UNL     1      30.954   6.707  26.235  1.00  0.00     0.279 HD
HETATM    6  C3  UNL     1      31.718   6.158  28.083  1.00  0.00     0.467 C 
HETATM    7  N2  UNL     1      30.434   5.907  28.647  1.00  0.00    -0.040 N 
HETATM    8  C4  UNL     1      29.745   7.092  29.013  1.00  0.00     0.241 C 
HETATM    9  C5  UNL     1      30.207   4.785  29.527  1.00  0.00     0.267 A 
HETATM   10  C6  UNL     1      29.754   4.749  28.143  1.00  0.00     0.267 A 
ENDROOT
TORSDOF 0
ENDMDL
