MODEL 1
REMARK VINA RESULT: -6.005951164      0.000      0.000
REMARK  13 active torsions:
REMARK  status: ('A' for Active; 'I' for Inactive)
REMARK    1  A    between atoms: C2_2  and  C3_3 
REMARK    2  A    between atoms: C3_3  and  C4_4 
REMARK    3  A    between atoms: C4_4  and  C5_5 
REMARK    4  A    between atoms: C5_5  and  N1_6 
REMARK    5  A    between atoms: N1_6  and  C6_8 
REMARK    6  A    between atoms: C7_11  and  N3_12 
REMARK    7  A    between atoms: N3_12  and  C8_14 
REMARK    8  A    between atoms: C8_14  and  C9_15 
REMARK    9  A    between atoms: C9_15  and  O1_16 
REMARK   10  A    between atoms: N5_21  and  O2_23 
REMARK   11  A    between atoms: O2_23  and  C11_24 
REMARK   12  A    between atoms: C11_24  and  C12_25 
REMARK   13  A    between atoms: C12_25  and  N6_26 
ROOT
HETATM    1  C6  UNL     1      -1.890  13.620   9.062  1.00  0.00     0.707 A 
HETATM    2  N2  UNL     1      -0.792  14.076   8.464  1.00  0.00    -0.022 N 
ATOM      3  H2  UNL     1      -0.294  13.502   7.785  1.00  0.00     0.203 HD
HETATM    4  C7  UNL     1      -0.358  15.292   8.771  1.00  0.00     0.707 A 
HETATM    5  N4  UNL     1      -1.018  16.067   9.679  1.00  0.00    -0.020 N 
ATOM      6  H4  UNL     1      -0.659  16.997   9.893  1.00  0.00     0.203 HD
HETATM    7  C10 UNL     1      -2.127  15.634  10.297  1.00  0.00     0.731 A 
HETATM    8  N5  UNL     1      -2.756  16.322  11.138  1.00  0.00    -0.095 N 
ATOM      9  H5  UNL     1      -3.567  15.814  11.492  1.00  0.00     0.213 HD
HETATM   10  N7  UNL     1      -2.536  14.375   9.950  1.00  0.00    -0.020 N 
ATOM     11  H7  UNL     1      -3.374  13.998  10.391  1.00  0.00     0.203 HD
ENDROOT
BRANCH   8  12
HETATM   12  O2  UNL     1      -2.668  17.498  11.686  1.00  0.00    -0.265 OA
BRANCH  12  13
HETATM   13  C11 UNL     1      -2.040  18.045  12.779  1.00  0.00     0.229 C 
BRANCH  13  14
HETATM   14  C12 UNL     1      -0.794  17.293  13.204  1.00  0.00     0.258 C 
BRANCH  14  15
HETATM   15  N6  UNL     1       0.310  17.550  12.314  1.00  0.00    -0.077 N 
ATOM     16  H63 UNL     1       1.051  16.860  12.431  1.00  0.00     0.274 HD
ATOM     17  H62 UNL     1       0.061  17.353  11.345  1.00  0.00     0.274 HD
ATOM     18  H61 UNL     1       0.665  18.501  12.422  1.00  0.00     0.274 HD
ENDBRANCH  14  15
ENDBRANCH  13  14
ENDBRANCH  12  13
ENDBRANCH   8  12
BRANCH   4  19
HETATM   19  N3  UNL     1       0.693  15.735   8.201  1.00  0.00    -0.223 N 
ATOM     20  H3  UNL     1       0.750  16.720   7.941  1.00  0.00     0.177 HD
BRANCH  19  21
HETATM   21  C8  UNL     1       1.805  14.853   7.922  1.00  0.00     0.164 C 
BRANCH  21  22
HETATM   22  C9  UNL     1       2.107  14.840   6.417  1.00  0.00     0.184 C 
BRANCH  22  23
HETATM   23  O1  UNL     1       1.021  14.332   5.724  1.00  0.00    -0.399 OA
ATOM     24  H1  UNL     1       0.503  15.045   5.369  1.00  0.00     0.209 HD
ENDBRANCH  22  23
ENDBRANCH  21  22
ENDBRANCH  19  21
ENDBRANCH   4  19
BRANCH   1  25
HETATM   25  N1  UNL     1      -2.290  12.425   8.742  1.00  0.00    -0.225 N 
ATOM     26  H1  UNL     1      -2.656  12.216   7.813  1.00  0.00     0.177 HD
BRANCH  25  27
HETATM   27  C5  UNL     1      -2.194  11.401   9.768  1.00  0.00     0.138 C 
BRANCH  27  28
HETATM   28  C4  UNL     1      -2.988  10.177   9.388  1.00  0.00     0.020 C 
BRANCH  28  29
HETATM   29  C3  UNL     1      -4.430  10.385   9.700  1.00  0.00     0.001 C 
BRANCH  29  30
HETATM   30  C2  UNL     1      -5.138   9.112  10.070  1.00  0.00    -0.004 C 
HETATM   31  C1  UNL     1      -6.576   9.255   9.594  1.00  0.00     0.005 C 
ENDBRANCH  29  30
ENDBRANCH  28  29
ENDBRANCH  27  28
ENDBRANCH  25  27
ENDBRANCH   1  25
TORSDOF 13
ENDMDL
MODEL 2
REMARK VINA RESULT: -5.903041718      3.796      5.654
REMARK  13 active torsions:
REMARK  status: ('A' for Active; 'I' for Inactive)
REMARK    1  A    between atoms: C2_2  and  C3_3 
REMARK    2  A    between atoms: C3_3  and  C4_4 
REMARK    3  A    between atoms: C4_4  and  C5_5 
REMARK    4  A    between atoms: C5_5  and  N1_6 
REMARK    5  A    between atoms: N1_6  and  C6_8 
REMARK    6  A    between atoms: C7_11  and  N3_12 
REMARK    7  A    between atoms: N3_12  and  C8_14 
REMARK    8  A    between atoms: C8_14  and  C9_15 
REMARK    9  A    between atoms: C9_15  and  O1_16 
REMARK   10  A    between atoms: N5_21  and  O2_23 
REMARK   11  A    between atoms: O2_23  and  C11_24 
REMARK   12  A    between atoms: C11_24  and  C12_25 
REMARK   13  A    between atoms: C12_25  and  N6_26 
ROOT
HETATM    1  C6  UNL     1      -0.297  16.871  10.786  1.00  0.00     0.707 A 
HETATM    2  N2  UNL     1      -0.012  16.861   9.487  1.00  0.00    -0.022 N 
ATOM      3  H2  UNL     1      -0.276  17.645   8.891  1.00  0.00     0.203 HD
HETATM    4  C7  UNL     1       0.623  15.811   8.982  1.00  0.00     0.707 A 
HETATM    5  N4  UNL     1       0.980  14.758   9.771  1.00  0.00    -0.020 N 
ATOM      6  H4  UNL     1       1.468  13.965   9.353  1.00  0.00     0.203 HD
HETATM    7  C10 UNL     1       0.707  14.740  11.084  1.00  0.00     0.731 A 
HETATM    8  N5  UNL     1       1.021  13.786  11.838  1.00  0.00    -0.095 N 
ATOM      9  H5  UNL     1       0.723  13.964  12.797  1.00  0.00     0.213 HD
HETATM   10  N7  UNL     1       0.051  15.843  11.560  1.00  0.00    -0.020 N 
ATOM     11  H7  UNL     1      -0.182  15.880  12.552  1.00  0.00     0.203 HD
ENDROOT
BRANCH   8  12
HETATM   12  O2  UNL     1       1.619  12.635  11.743  1.00  0.00    -0.265 OA
BRANCH  12  13
HETATM   13  C11 UNL     1       1.358  11.420  11.155  1.00  0.00     0.229 C 
BRANCH  13  14
HETATM   14  C12 UNL     1       2.070  11.219   9.831  1.00  0.00     0.258 C 
BRANCH  14  15
HETATM   15  N6  UNL     1       1.711   9.963   9.223  1.00  0.00    -0.077 N 
ATOM     16  H63 UNL     1       0.722   9.754   9.355  1.00  0.00     0.274 HD
ATOM     17  H62 UNL     1       1.725  10.024   8.205  1.00  0.00     0.274 HD
ATOM     18  H61 UNL     1       2.301   9.201   9.559  1.00  0.00     0.274 HD
ENDBRANCH  14  15
ENDBRANCH  13  14
ENDBRANCH  12  13
ENDBRANCH   8  12
BRANCH   4  19
HETATM   19  N3  UNL     1       0.900  15.795   7.738  1.00  0.00    -0.223 N 
ATOM     20  H3  UNL     1       0.230  16.169   7.066  1.00  0.00     0.177 HD
BRANCH  19  21
HETATM   21  C8  UNL     1       2.157  15.251   7.271  1.00  0.00     0.164 C 
BRANCH  21  22
HETATM   22  C9  UNL     1       1.950  14.489   5.954  1.00  0.00     0.184 C 
BRANCH  22  23
HETATM   23  O1  UNL     1       2.387  13.183   6.094  1.00  0.00    -0.399 OA
ATOM     24  H1  UNL     1       3.332  13.147   6.000  1.00  0.00     0.209 HD
ENDBRANCH  22  23
ENDBRANCH  21  22
ENDBRANCH  19  21
ENDBRANCH   4  19
BRANCH   1  25
HETATM   25  N1  UNL     1      -0.920  17.913  11.252  1.00  0.00    -0.225 N 
ATOM     26  H1  UNL     1      -1.046  18.754  10.690  1.00  0.00     0.177 HD
BRANCH  25  27
HETATM   27  C5  UNL     1      -1.429  17.824  12.611  1.00  0.00     0.138 C 
BRANCH  27  28
HETATM   28  C4  UNL     1      -2.781  18.482  12.727  1.00  0.00     0.020 C 
BRANCH  28  29
HETATM   29  C3  UNL     1      -3.719  17.595  13.470  1.00  0.00     0.001 C 
BRANCH  29  30
HETATM   30  C2  UNL     1      -3.547  16.142  13.124  1.00  0.00    -0.004 C 
HETATM   31  C1  UNL     1      -3.534  15.376  14.439  1.00  0.00     0.005 C 
ENDBRANCH  29  30
ENDBRANCH  28  29
ENDBRANCH  27  28
ENDBRANCH  25  27
ENDBRANCH   1  25
TORSDOF 13
ENDMDL
MODEL 3
REMARK VINA RESULT: -5.894378814      0.937      1.233
REMARK  13 active torsions:
REMARK  status: ('A' for Active; 'I' for Inactive)
REMARK    1  A    between atoms: C2_2  and  C3_3 
REMARK    2  A    between atoms: C3_3  and  C4_4 
REMARK    3  A    between atoms: C4_4  and  C5_5 
REMARK    4  A    between atoms: C5_5  and  N1_6 
REMARK    5  A    between atoms: N1_6  and  C6_8 
REMARK    6  A    between atoms: C7_11  and  N3_12 
REMARK    7  A    between atoms: N3_12  and  C8_14 
REMARK    8  A    between atoms: C8_14  and  C9_15 
REMARK    9  A    between atoms: C9_15  and  O1_16 
REMARK   10  A    between atoms: N5_21  and  O2_23 
REMARK   11  A    between atoms: O2_23  and  C11_24 
REMARK   12  A    between atoms: C11_24  and  C12_25 
REMARK   13  A    between atoms: C12_25  and  N6_26 
ROOT
HETATM    1  C6  UNL     1      -1.807  13.557   9.206  1.00  0.00     0.707 A 
HETATM    2  N2  UNL     1      -0.750  14.041   8.560  1.00  0.00    -0.022 N 
ATOM      3  H2  UNL     1      -0.241  13.465   7.890  1.00  0.00     0.203 HD
HETATM    4  C7  UNL     1      -0.371  15.289   8.803  1.00  0.00     0.707 A 
HETATM    5  N4  UNL     1      -1.045  16.068   9.696  1.00  0.00    -0.020 N 
ATOM      6  H4  UNL     1      -0.729  17.024   9.862  1.00  0.00     0.203 HD
HETATM    7  C10 UNL     1      -2.114  15.607  10.363  1.00  0.00     0.731 A 
HETATM    8  N5  UNL     1      -2.756  16.297  11.193  1.00  0.00    -0.095 N 
ATOM      9  H5  UNL     1      -3.529  15.765  11.590  1.00  0.00     0.213 HD
HETATM   10  N7  UNL     1      -2.467  14.315  10.080  1.00  0.00    -0.020 N 
ATOM     11  H7  UNL     1      -3.273  13.915  10.561  1.00  0.00     0.203 HD
ENDROOT
BRANCH   8  12
HETATM   12  O2  UNL     1      -2.714  17.499  11.689  1.00  0.00    -0.265 OA
BRANCH  12  13
HETATM   13  C11 UNL     1      -2.045  18.135  12.707  1.00  0.00     0.229 C 
BRANCH  13  14
HETATM   14  C12 UNL     1      -0.831  17.375  13.206  1.00  0.00     0.258 C 
BRANCH  14  15
HETATM   15  N6  UNL     1       0.299  17.547  12.329  1.00  0.00    -0.077 N 
ATOM     16  H63 UNL     1       1.010  18.145  12.750  1.00  0.00     0.274 HD
ATOM     17  H62 UNL     1       0.842  16.688  12.248  1.00  0.00     0.274 HD
ATOM     18  H61 UNL     1       0.013  17.895  11.413  1.00  0.00     0.274 HD
ENDBRANCH  14  15
ENDBRANCH  13  14
ENDBRANCH  12  13
ENDBRANCH   8  12
BRANCH   4  19
HETATM   19  N3  UNL     1       0.641  15.760   8.186  1.00  0.00    -0.223 N 
ATOM     20  H3  UNL     1       0.633  16.730   7.869  1.00  0.00     0.177 HD
BRANCH  19  21
HETATM   21  C8  UNL     1       1.798  14.930   7.932  1.00  0.00     0.164 C 
BRANCH  21  22
HETATM   22  C9  UNL     1       2.099  14.884   6.428  1.00  0.00     0.184 C 
BRANCH  22  23
HETATM   23  O1  UNL     1       1.031  14.318   5.752  1.00  0.00    -0.399 OA
ATOM     24  H1  UNL     1       1.116  13.372   5.748  1.00  0.00     0.209 HD
ENDBRANCH  22  23
ENDBRANCH  21  22
ENDBRANCH  19  21
ENDBRANCH   4  19
BRANCH   1  25
HETATM   25  N1  UNL     1      -2.153  12.330   8.947  1.00  0.00    -0.225 N 
ATOM     26  H1  UNL     1      -1.832  11.852   8.106  1.00  0.00     0.177 HD
BRANCH  25  27
HETATM   27  C5  UNL     1      -3.020  11.674   9.911  1.00  0.00     0.138 C 
BRANCH  27  28
HETATM   28  C4  UNL     1      -3.379  10.281   9.455  1.00  0.00     0.020 C 
BRANCH  28  29
HETATM   29  C3  UNL     1      -2.149   9.543   9.052  1.00  0.00     0.001 C 
BRANCH  29  30
HETATM   30  C2  UNL     1      -2.196   8.086   9.418  1.00  0.00    -0.004 C 
HETATM   31  C1  UNL     1      -3.163   7.957  10.586  1.00  0.00     0.005 C 
ENDBRANCH  29  30
ENDBRANCH  28  29
ENDBRANCH  27  28
ENDBRANCH  25  27
ENDBRANCH   1  25
TORSDOF 13
ENDMDL
MODEL 4
REMARK VINA RESULT: -5.875307165      1.253      3.929
REMARK  13 active torsions:
REMARK  status: ('A' for Active; 'I' for Inactive)
REMARK    1  A    between atoms: C2_2  and  C3_3 
REMARK    2  A    between atoms: C3_3  and  C4_4 
REMARK    3  A    between atoms: C4_4  and  C5_5 
REMARK    4  A    between atoms: C5_5  and  N1_6 
REMARK    5  A    between atoms: N1_6  and  C6_8 
REMARK    6  A    between atoms: C7_11  and  N3_12 
REMARK    7  A    between atoms: N3_12  and  C8_14 
REMARK    8  A    between atoms: C8_14  and  C9_15 
REMARK    9  A    between atoms: C9_15  and  O1_16 
REMARK   10  A    between atoms: N5_21  and  O2_23 
REMARK   11  A    between atoms: O2_23  and  C11_24 
REMARK   12  A    between atoms: C11_24  and  C12_25 
REMARK   13  A    between atoms: C12_25  and  N6_26 
ROOT
HETATM    1  C6  UNL     1      -2.351  13.116   9.313  1.00  0.00     0.707 A 
HETATM    2  N2  UNL     1      -2.783  14.125  10.063  1.00  0.00    -0.022 N 
ATOM      3  H2  UNL     1      -3.620  14.025  10.638  1.00  0.00     0.203 HD
HETATM    4  C7  UNL     1      -2.106  15.266  10.049  1.00  0.00     0.707 A 
HETATM    5  N4  UNL     1      -0.987  15.410   9.284  1.00  0.00    -0.020 N 
ATOM      6  H4  UNL     1      -0.487  16.300   9.295  1.00  0.00     0.203 HD
HETATM    7  C10 UNL     1      -0.526  14.410   8.518  1.00  0.00     0.731 A 
HETATM    8  N5  UNL     1       0.500  14.511   7.802  1.00  0.00    -0.095 N 
ATOM      9  H5  UNL     1       0.680  13.643   7.296  1.00  0.00     0.213 HD
HETATM   10  N7  UNL     1      -1.257  13.254   8.564  1.00  0.00    -0.020 N 
ATOM     11  H7  UNL     1      -0.950  12.462   7.999  1.00  0.00     0.203 HD
ENDROOT
BRANCH   8  12
HETATM   12  O2  UNL     1       1.400  15.408   7.521  1.00  0.00    -0.265 OA
BRANCH  12  13
HETATM   13  C11 UNL     1       2.649  15.747   7.982  1.00  0.00     0.229 C 
BRANCH  13  14
HETATM   14  C12 UNL     1       2.772  15.704   9.494  1.00  0.00     0.258 C 
BRANCH  14  15
HETATM   15  N6  UNL     1       2.006  16.753  10.117  1.00  0.00    -0.077 N 
ATOM     16  H63 UNL     1       1.434  17.252   9.436  1.00  0.00     0.274 HD
ATOM     17  H62 UNL     1       1.261  16.374  10.702  1.00  0.00     0.274 HD
ATOM     18  H61 UNL     1       2.604  17.392  10.643  1.00  0.00     0.274 HD
ENDBRANCH  14  15
ENDBRANCH  13  14
ENDBRANCH  12  13
ENDBRANCH   8  12
BRANCH   4  19
HETATM   19  N3  UNL     1      -2.515  16.237  10.766  1.00  0.00    -0.223 N 
ATOM     20  H3  UNL     1      -3.203  16.889  10.390  1.00  0.00     0.177 HD
BRANCH  19  21
HETATM   21  C8  UNL     1      -2.011  16.422  12.110  1.00  0.00     0.164 C 
BRANCH  21  22
HETATM   22  C9  UNL     1      -1.038  17.609  12.154  1.00  0.00     0.184 C 
BRANCH  22  23
HETATM   23  O1  UNL     1      -0.843  18.104  10.875  1.00  0.00    -0.399 OA
ATOM     24  H1  UNL     1      -0.613  17.395  10.286  1.00  0.00     0.209 HD
ENDBRANCH  22  23
ENDBRANCH  21  22
ENDBRANCH  19  21
ENDBRANCH   4  19
BRANCH   1  25
HETATM   25  N1  UNL     1      -3.036  12.011   9.347  1.00  0.00    -0.225 N 
ATOM     26  H1  UNL     1      -4.054  12.013   9.291  1.00  0.00     0.177 HD
BRANCH  25  27
HETATM   27  C5  UNL     1      -2.285  10.773   9.468  1.00  0.00     0.138 C 
BRANCH  27  28
HETATM   28  C4  UNL     1      -3.203   9.606   9.729  1.00  0.00     0.020 C 
BRANCH  28  29
HETATM   29  C3  UNL     1      -4.616  10.074   9.806  1.00  0.00     0.001 C 
BRANCH  29  30
HETATM   30  C2  UNL     1      -5.571   8.984  10.206  1.00  0.00    -0.004 C 
HETATM   31  C1  UNL     1      -6.877   9.255   9.472  1.00  0.00     0.005 C 
ENDBRANCH  29  30
ENDBRANCH  28  29
ENDBRANCH  27  28
ENDBRANCH  25  27
ENDBRANCH   1  25
TORSDOF 13
ENDMDL
MODEL 5
REMARK VINA RESULT: -5.856411484      1.221      1.356
REMARK  13 active torsions:
REMARK  status: ('A' for Active; 'I' for Inactive)
REMARK    1  A    between atoms: C2_2  and  C3_3 
REMARK    2  A    between atoms: C3_3  and  C4_4 
REMARK    3  A    between atoms: C4_4  and  C5_5 
REMARK    4  A    between atoms: C5_5  and  N1_6 
REMARK    5  A    between atoms: N1_6  and  C6_8 
REMARK    6  A    between atoms: C7_11  and  N3_12 
REMARK    7  A    between atoms: N3_12  and  C8_14 
REMARK    8  A    between atoms: C8_14  and  C9_15 
REMARK    9  A    between atoms: C9_15  and  O1_16 
REMARK   10  A    between atoms: N5_21  and  O2_23 
REMARK   11  A    between atoms: O2_23  and  C11_24 
REMARK   12  A    between atoms: C11_24  and  C12_25 
REMARK   13  A    between atoms: C12_25  and  N6_26 
ROOT
HETATM    1  C6  UNL     1      -1.849  13.563   9.090  1.00  0.00     0.707 A 
HETATM    2  N2  UNL     1      -0.721  13.982   8.522  1.00  0.00    -0.022 N 
ATOM      3  H2  UNL     1      -0.218  13.386   7.864  1.00  0.00     0.203 HD
HETATM    4  C7  UNL     1      -0.262  15.188   8.829  1.00  0.00     0.707 A 
HETATM    5  N4  UNL     1      -0.927  15.991   9.708  1.00  0.00    -0.020 N 
ATOM      6  H4  UNL     1      -0.548  16.914   9.924  1.00  0.00     0.203 HD
HETATM    7  C10 UNL     1      -2.066  15.597  10.296  1.00  0.00     0.731 A 
HETATM    8  N5  UNL     1      -2.701  16.311  11.110  1.00  0.00    -0.095 N 
ATOM      9  H5  UNL     1      -3.536  15.830  11.444  1.00  0.00     0.213 HD
HETATM   10  N7  UNL     1      -2.500  14.346   9.950  1.00  0.00    -0.020 N 
ATOM     11  H7  UNL     1      -3.362  13.997  10.369  1.00  0.00     0.203 HD
ENDROOT
BRANCH   8  12
HETATM   12  O2  UNL     1      -2.597  17.491  11.648  1.00  0.00    -0.265 OA
BRANCH  12  13
HETATM   13  C11 UNL     1      -2.042  18.022  12.788  1.00  0.00     0.229 C 
BRANCH  13  14
HETATM   14  C12 UNL     1      -0.774  17.319  13.232  1.00  0.00     0.258 C 
BRANCH  14  15
HETATM   15  N6  UNL     1       0.307  17.540  12.305  1.00  0.00    -0.077 N 
ATOM     16  H63 UNL     1       0.680  18.485  12.386  1.00  0.00     0.274 HD
ATOM     17  H62 UNL     1       1.141  17.017  12.573  1.00  0.00     0.274 HD
ATOM     18  H61 UNL     1       0.027  17.330  11.346  1.00  0.00     0.274 HD
ENDBRANCH  14  15
ENDBRANCH  13  14
ENDBRANCH  12  13
ENDBRANCH   8  12
BRANCH   4  19
HETATM   19  N3  UNL     1       0.818  15.595   8.288  1.00  0.00    -0.223 N 
ATOM     20  H3  UNL     1       0.805  16.424   7.693  1.00  0.00     0.177 HD
BRANCH  19  21
HETATM   21  C8  UNL     1       2.062  14.891   8.510  1.00  0.00     0.164 C 
BRANCH  21  22
HETATM   22  C9  UNL     1       2.770  15.443   9.756  1.00  0.00     0.184 C 
BRANCH  22  23
HETATM   23  O1  UNL     1       2.213  16.660  10.112  1.00  0.00    -0.399 OA
ATOM     24  H1  UNL     1       2.033  16.672  11.045  1.00  0.00     0.209 HD
ENDBRANCH  22  23
ENDBRANCH  21  22
ENDBRANCH  19  21
ENDBRANCH   4  19
BRANCH   1  25
HETATM   25  N1  UNL     1      -2.273  12.376   8.771  1.00  0.00    -0.225 N 
ATOM     26  H1  UNL     1      -2.600  12.163   7.828  1.00  0.00     0.177 HD
BRANCH  25  27
HETATM   27  C5  UNL     1      -2.261  11.369   9.817  1.00  0.00     0.138 C 
BRANCH  27  28
HETATM   28  C4  UNL     1      -3.067  10.159   9.413  1.00  0.00     0.020 C 
BRANCH  28  29
HETATM   29  C3  UNL     1      -4.510  10.384   9.709  1.00  0.00     0.001 C 
BRANCH  29  30
HETATM   30  C2  UNL     1      -5.237   9.118  10.066  1.00  0.00    -0.004 C 
HETATM   31  C1  UNL     1      -6.660   9.267   9.545  1.00  0.00     0.005 C 
ENDBRANCH  29  30
ENDBRANCH  28  29
ENDBRANCH  27  28
ENDBRANCH  25  27
ENDBRANCH   1  25
TORSDOF 13
ENDMDL
