MODEL 1
REMARK VINA RESULT: -6.425094413      0.000      0.000
REMARK  15 active torsions:
REMARK  status: ('A' for Active; 'I' for Inactive)
REMARK    1  A    between atoms: N1_1  and  C1_5 
REMARK    2  A    between atoms: C1_5  and  C2_6 
REMARK    3  A    between atoms: C2_6  and  N2_7 
REMARK    4  A    between atoms: N2_7  and  C3_9 
REMARK    5  A    between atoms: C4_12  and  N4_13 
REMARK    6  A    between atoms: N4_13  and  O1_15 
REMARK    7  A    between atoms: C5_19  and  N6_20 
REMARK    8  A    between atoms: N6_20  and  C6_22 
REMARK    9  A    between atoms: C6_22  and  C7_23 
REMARK   10  A    between atoms: C7_23  and  C8_24 
REMARK   11  A    between atoms: C8_24  and  C9_25 
REMARK   12  A    between atoms: C9_25  and  C10_26 
REMARK   13  A    between atoms: C10_26  and  N7_27 
REMARK   14  A    between atoms: N7_27  and  N8_28 
REMARK   15  A    between atoms: N7_27  and  O2_31 
ROOT
HETATM    1  C3  UNL     1      -1.198  16.473  14.012  1.00  0.00     0.707 A 
HETATM    2  N3  UNL     1      -2.330  17.131  13.745  1.00  0.00    -0.020 N 
ATOM      3  H3  UNL     1      -3.121  17.075  14.387  1.00  0.00     0.203 HD
HETATM    4  C4  UNL     1      -2.418  17.867  12.627  1.00  0.00     0.731 A 
HETATM    5  N5  UNL     1      -1.377  17.940  11.787  1.00  0.00    -0.020 N 
ATOM      6  H5  UNL     1      -1.459  18.504  10.940  1.00  0.00     0.203 HD
HETATM    7  C5  UNL     1      -0.230  17.290  12.030  1.00  0.00     0.707 A 
HETATM    8  N9  UNL     1      -0.141  16.553  13.149  1.00  0.00    -0.022 N 
ATOM      9  H9  UNL     1       0.721  16.049  13.357  1.00  0.00     0.203 HD
ENDROOT
BRANCH   7  10
HETATM   10  N6  UNL     1       0.771  17.372  11.199  1.00  0.00    -0.225 N 
ATOM     11  H6  UNL     1       1.505  18.068  11.338  1.00  0.00     0.177 HD
BRANCH  10  12
HETATM   12  C6  UNL     1       0.822  16.460  10.077  1.00  0.00     0.138 C 
BRANCH  12  13
HETATM   13  C7  UNL     1       2.037  15.541  10.267  1.00  0.00     0.020 C 
BRANCH  13  14
HETATM   14  C8  UNL     1       3.049  15.774   9.181  1.00  0.00     0.007 C 
BRANCH  14  15
HETATM   15  C9  UNL     1       2.461  16.164   7.874  1.00  0.00     0.049 C 
BRANCH  15  16
HETATM   16  C10 UNL     1       2.682  15.260   6.725  1.00  0.00     0.115 C 
BRANCH  16  17
HETATM   17  N7  UNL     1       1.570  14.472   6.386  1.00  0.00    -0.186 N 
BRANCH  17  18
HETATM   18  N8  UNL     1       0.571  14.251   7.270  1.00  0.00    -0.320 N 
ATOM     19  H82 UNL     1      -0.004  15.061   7.502  1.00  0.00     0.179 HD
ATOM     20  H81 UNL     1       0.669  13.564   8.017  1.00  0.00     0.179 HD
ENDBRANCH  17  18
BRANCH  17  21
HETATM   21  O2  UNL     1       1.204  14.531   5.089  1.00  0.00    -0.269 OA
ATOM     22  H2  UNL     1       0.292  14.326   4.920  1.00  0.00     0.247 HD
ENDBRANCH  17  21
ENDBRANCH  16  17
ENDBRANCH  15  16
ENDBRANCH  14  15
ENDBRANCH  13  14
ENDBRANCH  12  13
ENDBRANCH  10  12
ENDBRANCH   7  10
BRANCH   4  23
HETATM   23  N4  UNL     1      -3.531  18.494  12.398  1.00  0.00    -0.098 N 
ATOM     24  H4  UNL     1      -3.706  18.947  11.501  1.00  0.00     0.213 HD
BRANCH  23  25
HETATM   25  O1  UNL     1      -4.464  18.528  13.403  1.00  0.00    -0.276 OA
ATOM     26  H1  UNL     1      -4.150  18.586  14.298  1.00  0.00     0.245 HD
ENDBRANCH  23  25
ENDBRANCH   4  23
BRANCH   1  27
HETATM   27  N2  UNL     1      -1.101  15.765  15.080  1.00  0.00    -0.223 N 
ATOM     28  H2  UNL     1      -1.925  15.710  15.679  1.00  0.00     0.177 HD
BRANCH  27  29
HETATM   29  C2  UNL     1       0.055  15.053  15.501  1.00  0.00     0.165 C 
BRANCH  29  30
HETATM   30  C1  UNL     1      -0.010  14.626  16.958  1.00  0.00     0.249 C 
BRANCH  30  31
HETATM   31  N1  UNL     1      -0.354  15.763  17.788  1.00  0.00    -0.078 N 
ATOM     32  H13 UNL     1       0.365  16.487  17.763  1.00  0.00     0.274 HD
ATOM     33  H12 UNL     1      -1.124  16.306  17.395  1.00  0.00     0.274 HD
ATOM     34  H11 UNL     1      -0.550  15.451  18.739  1.00  0.00     0.274 HD
ENDBRANCH  30  31
ENDBRANCH  29  30
ENDBRANCH  27  29
ENDBRANCH   1  27
TORSDOF 15
ENDMDL
MODEL 2
REMARK VINA RESULT: -6.231062090      3.170      4.901
REMARK  15 active torsions:
REMARK  status: ('A' for Active; 'I' for Inactive)
REMARK    1  A    between atoms: N1_1  and  C1_5 
REMARK    2  A    between atoms: C1_5  and  C2_6 
REMARK    3  A    between atoms: C2_6  and  N2_7 
REMARK    4  A    between atoms: N2_7  and  C3_9 
REMARK    5  A    between atoms: C4_12  and  N4_13 
REMARK    6  A    between atoms: N4_13  and  O1_15 
REMARK    7  A    between atoms: C5_19  and  N6_20 
REMARK    8  A    between atoms: N6_20  and  C6_22 
REMARK    9  A    between atoms: C6_22  and  C7_23 
REMARK   10  A    between atoms: C7_23  and  C8_24 
REMARK   11  A    between atoms: C8_24  and  C9_25 
REMARK   12  A    between atoms: C9_25  and  C10_26 
REMARK   13  A    between atoms: C10_26  and  N7_27 
REMARK   14  A    between atoms: N7_27  and  N8_28 
REMARK   15  A    between atoms: N7_27  and  O2_31 
ROOT
HETATM    1  C3  UNL     1       0.178  16.991  11.135  1.00  0.00     0.707 A 
HETATM    2  N3  UNL     1       1.285  17.066  10.390  1.00  0.00    -0.020 N 
ATOM      3  H3  UNL     1       2.110  17.552  10.742  1.00  0.00     0.203 HD
HETATM    4  C4  UNL     1       1.305  16.496   9.176  1.00  0.00     0.731 A 
HETATM    5  N5  UNL     1       0.221  15.857   8.716  1.00  0.00    -0.020 N 
ATOM      6  H5  UNL     1       0.250  15.429   7.790  1.00  0.00     0.203 HD
HETATM    7  C5  UNL     1      -0.903  15.767   9.442  1.00  0.00     0.707 A 
HETATM    8  N9  UNL     1      -0.923  16.338  10.657  1.00  0.00    -0.022 N 
ATOM      9  H9  UNL     1      -1.767  16.283  11.229  1.00  0.00     0.203 HD
ENDROOT
BRANCH   7  10
HETATM   10  N6  UNL     1      -1.948  15.142   8.976  1.00  0.00    -0.225 N 
ATOM     11  H6  UNL     1      -2.818  15.645   8.799  1.00  0.00     0.177 HD
BRANCH  10  12
HETATM   12  C6  UNL     1      -1.851  13.722   8.715  1.00  0.00     0.138 C 
BRANCH  12  13
HETATM   13  C7  UNL     1      -2.532  12.979   9.873  1.00  0.00     0.020 C 
BRANCH  13  14
HETATM   14  C8  UNL     1      -1.524  12.190  10.658  1.00  0.00     0.007 C 
BRANCH  14  15
HETATM   15  C9  UNL     1      -0.355  11.734   9.865  1.00  0.00     0.049 C 
BRANCH  15  16
HETATM   16  C10 UNL     1       0.985  11.869  10.476  1.00  0.00     0.115 C 
BRANCH  16  17
HETATM   17  N7  UNL     1       1.461  13.189  10.542  1.00  0.00    -0.186 N 
BRANCH  17  18
HETATM   18  N8  UNL     1       1.601  13.824  11.727  1.00  0.00    -0.320 N 
ATOM     19  H82 UNL     1       0.777  14.322  12.065  1.00  0.00     0.179 HD
ATOM     20  H81 UNL     1       2.494  14.229  12.007  1.00  0.00     0.179 HD
ENDBRANCH  17  18
BRANCH  17  21
HETATM   21  O2  UNL     1       2.354  13.521   9.588  1.00  0.00    -0.269 OA
ATOM     22  H2  UNL     1       1.991  13.989   8.845  1.00  0.00     0.247 HD
ENDBRANCH  17  21
ENDBRANCH  16  17
ENDBRANCH  15  16
ENDBRANCH  14  15
ENDBRANCH  13  14
ENDBRANCH  12  13
ENDBRANCH  10  12
ENDBRANCH   7  10
BRANCH   4  23
HETATM   23  N4  UNL     1       2.396  16.587   8.479  1.00  0.00    -0.098 N 
ATOM     24  H4  UNL     1       2.379  16.915   7.514  1.00  0.00     0.213 HD
BRANCH  23  25
HETATM   25  O1  UNL     1       3.573  16.226   9.085  1.00  0.00    -0.276 OA
ATOM     26  H1  UNL     1       4.368  16.262   8.565  1.00  0.00     0.245 HD
ENDBRANCH  23  25
ENDBRANCH   4  23
BRANCH   1  27
HETATM   27  N2  UNL     1       0.148  17.533  12.299  1.00  0.00    -0.223 N 
ATOM     28  H2  UNL     1       0.959  18.084  12.579  1.00  0.00     0.177 HD
BRANCH  27  29
HETATM   29  C2  UNL     1      -0.920  17.430  13.233  1.00  0.00     0.165 C 
BRANCH  29  30
HETATM   30  C1  UNL     1      -0.696  16.339  14.269  1.00  0.00     0.249 C 
BRANCH  30  31
HETATM   31  N1  UNL     1      -1.972  15.828  14.727  1.00  0.00    -0.078 N 
ATOM     32  H13 UNL     1      -2.746  16.439  14.466  1.00  0.00     0.274 HD
ATOM     33  H12 UNL     1      -2.260  14.996  14.211  1.00  0.00     0.274 HD
ATOM     34  H11 UNL     1      -1.937  15.663  15.733  1.00  0.00     0.274 HD
ENDBRANCH  30  31
ENDBRANCH  29  30
ENDBRANCH  27  29
ENDBRANCH   1  27
TORSDOF 15
ENDMDL
MODEL 3
REMARK VINA RESULT: -6.197655497      2.367      2.622
REMARK  15 active torsions:
REMARK  status: ('A' for Active; 'I' for Inactive)
REMARK    1  A    between atoms: N1_1  and  C1_5 
REMARK    2  A    between atoms: C1_5  and  C2_6 
REMARK    3  A    between atoms: C2_6  and  N2_7 
REMARK    4  A    between atoms: N2_7  and  C3_9 
REMARK    5  A    between atoms: C4_12  and  N4_13 
REMARK    6  A    between atoms: N4_13  and  O1_15 
REMARK    7  A    between atoms: C5_19  and  N6_20 
REMARK    8  A    between atoms: N6_20  and  C6_22 
REMARK    9  A    between atoms: C6_22  and  C7_23 
REMARK   10  A    between atoms: C7_23  and  C8_24 
REMARK   11  A    between atoms: C8_24  and  C9_25 
REMARK   12  A    between atoms: C9_25  and  C10_26 
REMARK   13  A    between atoms: C10_26  and  N7_27 
REMARK   14  A    between atoms: N7_27  and  N8_28 
REMARK   15  A    between atoms: N7_27  and  O2_31 
ROOT
HETATM    1  C3  UNL     1      -0.886  16.593  14.009  1.00  0.00     0.707 A 
HETATM    2  N3  UNL     1      -2.058  17.196  13.787  1.00  0.00    -0.020 N 
ATOM      3  H3  UNL     1      -2.782  17.191  14.506  1.00  0.00     0.203 HD
HETATM    4  C4  UNL     1      -2.276  17.807  12.614  1.00  0.00     0.731 A 
HETATM    5  N5  UNL     1      -1.323  17.811  11.672  1.00  0.00    -0.020 N 
ATOM      6  H5  UNL     1      -1.503  18.280  10.784  1.00  0.00     0.203 HD
HETATM    7  C5  UNL     1      -0.138  17.214  11.867  1.00  0.00     0.707 A 
HETATM    8  N9  UNL     1       0.080  16.602  13.042  1.00  0.00    -0.022 N 
ATOM      9  H9  UNL     1       0.973  16.141  13.215  1.00  0.00     0.203 HD
ENDROOT
BRANCH   7  10
HETATM   10  N6  UNL     1       0.776  17.229  10.938  1.00  0.00    -0.225 N 
ATOM     11  H6  UNL     1       1.729  17.522  11.152  1.00  0.00     0.177 HD
BRANCH  10  12
HETATM   12  C6  UNL     1       0.412  16.822   9.597  1.00  0.00     0.138 C 
BRANCH  12  13
HETATM   13  C7  UNL     1       1.703  16.508   8.830  1.00  0.00     0.020 C 
BRANCH  13  14
HETATM   14  C8  UNL     1       2.479  15.425   9.525  1.00  0.00     0.007 C 
BRANCH  14  15
HETATM   15  C9  UNL     1       2.043  14.048   9.182  1.00  0.00     0.049 C 
BRANCH  15  16
HETATM   16  C10 UNL     1       1.707  13.137  10.297  1.00  0.00     0.115 C 
BRANCH  16  17
HETATM   17  N7  UNL     1       0.904  13.714  11.295  1.00  0.00    -0.186 N 
BRANCH  17  18
HETATM   18  N8  UNL     1      -0.439  13.555  11.293  1.00  0.00    -0.320 N 
ATOM     19  H82 UNL     1      -0.985  14.388  11.074  1.00  0.00     0.179 HD
ATOM     20  H81 UNL     1      -0.894  12.896  11.924  1.00  0.00     0.179 HD
ENDBRANCH  17  18
BRANCH  17  21
HETATM   21  O2  UNL     1       1.483  13.806  12.509  1.00  0.00    -0.269 OA
ATOM     22  H2  UNL     1       1.585  12.981  12.968  1.00  0.00     0.247 HD
ENDBRANCH  17  21
ENDBRANCH  16  17
ENDBRANCH  15  16
ENDBRANCH  14  15
ENDBRANCH  13  14
ENDBRANCH  12  13
ENDBRANCH  10  12
ENDBRANCH   7  10
BRANCH   4  23
HETATM   23  N4  UNL     1      -3.424  18.383  12.432  1.00  0.00    -0.098 N 
ATOM     24  H4  UNL     1      -3.698  18.735  11.515  1.00  0.00     0.213 HD
BRANCH  23  25
HETATM   25  O1  UNL     1      -4.258  18.503  13.515  1.00  0.00    -0.276 OA
ATOM     26  H1  UNL     1      -5.134  18.141  13.442  1.00  0.00     0.245 HD
ENDBRANCH  23  25
ENDBRANCH   4  23
BRANCH   1  27
HETATM   27  N2  UNL     1      -0.666  16.004  15.130  1.00  0.00    -0.223 N 
ATOM     28  H2  UNL     1      -0.763  16.564  15.977  1.00  0.00     0.177 HD
BRANCH  27  29
HETATM   29  C2  UNL     1      -0.300  14.640  15.291  1.00  0.00     0.165 C 
BRANCH  29  30
HETATM   30  C1  UNL     1       0.923  14.457  16.177  1.00  0.00     0.249 C 
BRANCH  30  31
HETATM   31  N1  UNL     1       2.068  14.101  15.365  1.00  0.00    -0.078 N 
ATOM     32  H13 UNL     1       1.798  13.594  14.522  1.00  0.00     0.274 HD
ATOM     33  H12 UNL     1       2.490  14.916  14.919  1.00  0.00     0.274 HD
ATOM     34  H11 UNL     1       2.742  13.580  15.927  1.00  0.00     0.274 HD
ENDBRANCH  30  31
ENDBRANCH  29  30
ENDBRANCH  27  29
ENDBRANCH   1  27
TORSDOF 15
ENDMDL
MODEL 4
REMARK VINA RESULT: -6.192023984      2.097      2.319
REMARK  15 active torsions:
REMARK  status: ('A' for Active; 'I' for Inactive)
REMARK    1  A    between atoms: N1_1  and  C1_5 
REMARK    2  A    between atoms: C1_5  and  C2_6 
REMARK    3  A    between atoms: C2_6  and  N2_7 
REMARK    4  A    between atoms: N2_7  and  C3_9 
REMARK    5  A    between atoms: C4_12  and  N4_13 
REMARK    6  A    between atoms: N4_13  and  O1_15 
REMARK    7  A    between atoms: C5_19  and  N6_20 
REMARK    8  A    between atoms: N6_20  and  C6_22 
REMARK    9  A    between atoms: C6_22  and  C7_23 
REMARK   10  A    between atoms: C7_23  and  C8_24 
REMARK   11  A    between atoms: C8_24  and  C9_25 
REMARK   12  A    between atoms: C9_25  and  C10_26 
REMARK   13  A    between atoms: C10_26  and  N7_27 
REMARK   14  A    between atoms: N7_27  and  N8_28 
REMARK   15  A    between atoms: N7_27  and  O2_31 
ROOT
HETATM    1  C3  UNL     1      -0.564  16.424  13.585  1.00  0.00     0.707 A 
HETATM    2  N3  UNL     1      -1.580  17.245  13.866  1.00  0.00    -0.020 N 
ATOM      3  H3  UNL     1      -1.992  17.252  14.799  1.00  0.00     0.203 HD
HETATM    4  C4  UNL     1      -2.055  18.059  12.912  1.00  0.00     0.731 A 
HETATM    5  N5  UNL     1      -1.513  18.048  11.687  1.00  0.00    -0.020 N 
ATOM      6  H5  UNL     1      -1.885  18.673  10.972  1.00  0.00     0.203 HD
HETATM    7  C5  UNL     1      -0.492  17.235  11.378  1.00  0.00     0.707 A 
HETATM    8  N9  UNL     1      -0.016  16.419  12.333  1.00  0.00    -0.022 N 
ATOM      9  H9  UNL     1       0.760  15.792  12.122  1.00  0.00     0.203 HD
ENDROOT
BRANCH   7  10
HETATM   10  N6  UNL     1       0.022  17.238  10.180  1.00  0.00    -0.225 N 
ATOM     11  H6  UNL     1      -0.524  17.563   9.382  1.00  0.00     0.177 HD
BRANCH  10  12
HETATM   12  C6  UNL     1       1.381  16.772  10.003  1.00  0.00     0.138 C 
BRANCH  12  13
HETATM   13  C7  UNL     1       1.610  16.531   8.505  1.00  0.00     0.020 C 
BRANCH  13  14
HETATM   14  C8  UNL     1       2.089  15.128   8.264  1.00  0.00     0.007 C 
BRANCH  14  15
HETATM   15  C9  UNL     1       1.034  14.198   7.787  1.00  0.00     0.049 C 
BRANCH  15  16
HETATM   16  C10 UNL     1       0.198  13.527   8.805  1.00  0.00     0.115 C 
BRANCH  16  17
HETATM   17  N7  UNL     1      -1.085  14.080   8.957  1.00  0.00    -0.186 N 
BRANCH  17  18
HETATM   18  N8  UNL     1      -2.101  13.727   8.138  1.00  0.00    -0.320 N 
ATOM     19  H82 UNL     1      -2.553  14.491   7.636  1.00  0.00     0.179 HD
ATOM     20  H81 UNL     1      -2.709  12.939   8.360  1.00  0.00     0.179 HD
ENDBRANCH  17  18
BRANCH  17  21
HETATM   21  O2  UNL     1      -1.429  14.380  10.225  1.00  0.00    -0.269 OA
ATOM     22  H2  UNL     1      -2.127  15.017  10.311  1.00  0.00     0.247 HD
ENDBRANCH  17  21
ENDBRANCH  16  17
ENDBRANCH  15  16
ENDBRANCH  14  15
ENDBRANCH  13  14
ENDBRANCH  12  13
ENDBRANCH  10  12
ENDBRANCH   7  10
BRANCH   4  23
HETATM   23  N4  UNL     1      -3.043  18.844  13.219  1.00  0.00    -0.098 N 
ATOM     24  H4  UNL     1      -3.127  19.771  12.803  1.00  0.00     0.213 HD
BRANCH  23  25
HETATM   25  O1  UNL     1      -3.969  18.383  14.120  1.00  0.00    -0.276 OA
ATOM     26  H1  UNL     1      -4.734  18.923  14.284  1.00  0.00     0.245 HD
ENDBRANCH  23  25
ENDBRANCH   4  23
BRANCH   1  27
HETATM   27  N2  UNL     1      -0.099  15.640  14.491  1.00  0.00    -0.223 N 
ATOM     28  H2  UNL     1       0.147  16.058  15.388  1.00  0.00     0.177 HD
BRANCH  27  29
HETATM   29  C2  UNL     1       0.101  14.239  14.351  1.00  0.00     0.165 C 
BRANCH  29  30
HETATM   30  C1  UNL     1       0.995  13.659  15.434  1.00  0.00     0.249 C 
BRANCH  30  31
HETATM   31  N1  UNL     1       2.380  13.970  15.147  1.00  0.00    -0.078 N 
ATOM     32  H13 UNL     1       2.572  13.978  14.144  1.00  0.00     0.274 HD
ATOM     33  H12 UNL     1       2.603  14.946  15.347  1.00  0.00     0.274 HD
ATOM     34  H11 UNL     1       2.991  13.326  15.649  1.00  0.00     0.274 HD
ENDBRANCH  30  31
ENDBRANCH  29  30
ENDBRANCH  27  29
ENDBRANCH   1  27
TORSDOF 15
ENDMDL
MODEL 5
REMARK VINA RESULT: -6.161158421      3.141      5.807
REMARK  15 active torsions:
REMARK  status: ('A' for Active; 'I' for Inactive)
REMARK    1  A    between atoms: N1_1  and  C1_5 
REMARK    2  A    between atoms: C1_5  and  C2_6 
REMARK    3  A    between atoms: C2_6  and  N2_7 
REMARK    4  A    between atoms: N2_7  and  C3_9 
REMARK    5  A    between atoms: C4_12  and  N4_13 
REMARK    6  A    between atoms: N4_13  and  O1_15 
REMARK    7  A    between atoms: C5_19  and  N6_20 
REMARK    8  A    between atoms: N6_20  and  C6_22 
REMARK    9  A    between atoms: C6_22  and  C7_23 
REMARK   10  A    between atoms: C7_23  and  C8_24 
REMARK   11  A    between atoms: C8_24  and  C9_25 
REMARK   12  A    between atoms: C9_25  and  C10_26 
REMARK   13  A    between atoms: C10_26  and  N7_27 
REMARK   14  A    between atoms: N7_27  and  N8_28 
REMARK   15  A    between atoms: N7_27  and  O2_31 
ROOT
HETATM    1  C3  UNL     1       1.022  16.648   9.226  1.00  0.00     0.707 A 
HETATM    2  N3  UNL     1       1.129  17.143  10.463  1.00  0.00    -0.020 N 
ATOM      3  H3  UNL     1       1.997  17.587  10.765  1.00  0.00     0.203 HD
HETATM    4  C4  UNL     1       0.089  17.054  11.304  1.00  0.00     0.731 A 
HETATM    5  N5  UNL     1      -1.049  16.471  10.904  1.00  0.00    -0.020 N 
ATOM      6  H5  UNL     1      -1.833  16.410  11.555  1.00  0.00     0.203 HD
HETATM    7  C5  UNL     1      -1.185  15.965   9.669  1.00  0.00     0.707 A 
HETATM    8  N9  UNL     1      -0.143  16.055   8.827  1.00  0.00    -0.022 N 
ATOM      9  H9  UNL     1      -0.221  15.677   7.883  1.00  0.00     0.203 HD
ENDROOT
BRANCH   7  10
HETATM   10  N6  UNL     1      -2.300  15.401   9.300  1.00  0.00    -0.225 N 
ATOM     11  H6  UNL     1      -3.175  15.926   9.305  1.00  0.00     0.177 HD
BRANCH  10  12
HETATM   12  C6  UNL     1      -2.275  14.015   8.882  1.00  0.00     0.138 C 
BRANCH  12  13
HETATM   13  C7  UNL     1      -2.962  13.179   9.970  1.00  0.00     0.020 C 
BRANCH  13  14
HETATM   14  C8  UNL     1      -1.960  12.312  10.679  1.00  0.00     0.007 C 
BRANCH  14  15
HETATM   15  C9  UNL     1      -1.098  11.511   9.774  1.00  0.00     0.049 C 
BRANCH  15  16
HETATM   16  C10 UNL     1       0.341  11.420  10.098  1.00  0.00     0.115 C 
BRANCH  16  17
HETATM   17  N7  UNL     1       1.097  12.535   9.698  1.00  0.00    -0.186 N 
BRANCH  17  18
HETATM   18  N8  UNL     1       1.537  13.442  10.598  1.00  0.00    -0.320 N 
ATOM     19  H82 UNL     1       0.815  13.916  11.141  1.00  0.00     0.179 HD
ATOM     20  H81 UNL     1       2.377  13.994  10.425  1.00  0.00     0.179 HD
ENDBRANCH  17  18
BRANCH  17  21
HETATM   21  O2  UNL     1       1.897  12.327   8.633  1.00  0.00    -0.269 OA
ATOM     22  H2  UNL     1       1.814  12.969   7.938  1.00  0.00     0.247 HD
ENDBRANCH  17  21
ENDBRANCH  16  17
ENDBRANCH  15  16
ENDBRANCH  14  15
ENDBRANCH  13  14
ENDBRANCH  12  13
ENDBRANCH  10  12
ENDBRANCH   7  10
BRANCH   4  23
HETATM   23  N4  UNL     1       0.227  17.546  12.497  1.00  0.00    -0.098 N 
ATOM     24  H4  UNL     1       1.131  17.540  12.967  1.00  0.00     0.213 HD
BRANCH  23  25
HETATM   25  O1  UNL     1      -0.885  18.075  13.103  1.00  0.00    -0.276 OA
ATOM     26  H1  UNL     1      -1.500  18.554  12.559  1.00  0.00     0.245 HD
ENDBRANCH  23  25
ENDBRANCH   4  23
BRANCH   1  27
HETATM   27  N2  UNL     1       2.012  16.728   8.412  1.00  0.00    -0.223 N 
ATOM     28  H2  UNL     1       2.251  17.655   8.058  1.00  0.00     0.177 HD
BRANCH  27  29
HETATM   29  C2  UNL     1       2.805  15.638   7.960  1.00  0.00     0.165 C 
BRANCH  29  30
HETATM   30  C1  UNL     1       2.564  15.296   6.499  1.00  0.00     0.249 C 
BRANCH  30  31
HETATM   31  N1  UNL     1       1.447  14.380   6.387  1.00  0.00    -0.078 N 
ATOM     32  H13 UNL     1       1.706  13.516   5.909  1.00  0.00     0.274 HD
ATOM     33  H12 UNL     1       1.189  13.978   7.289  1.00  0.00     0.274 HD
ATOM     34  H11 UNL     1       0.661  14.847   5.935  1.00  0.00     0.274 HD
ENDBRANCH  30  31
ENDBRANCH  29  30
ENDBRANCH  27  29
ENDBRANCH   1  27
TORSDOF 15
ENDMDL
