MODEL 1
REMARK VINA RESULT: -7.661512003      0.000      0.000
REMARK  4 active torsions:
REMARK  status: ('A' for Active; 'I' for Inactive)
REMARK       I    between atoms: N1_1  and  C1_5 
REMARK       I    between atoms: C1_5  and  N2_6 
REMARK       I    between atoms: C1_5  and  N3_10 
REMARK    1  A    between atoms: N3_10  and  C2_12 
REMARK    2  A    between atoms: C2_12  and  C3_13 
REMARK    3  A    between atoms: C3_13  and  C4_14 
REMARK    4  A    between atoms: C4_14  and  N4_15 
ROOT
HETATM    1  N4  UNL     1      28.010  16.033  61.360  1.00  0.00    -0.254 N 
HETATM    2  N5  UNL     1      28.757  15.662  62.383  1.00  0.00    -0.259 N 
ATOM      3  H5  UNL     1      28.927  14.667  62.529  1.00  0.00     0.190 HD
HETATM    4  C5  UNL     1      29.298  16.531  63.229  1.00  0.00     0.288 A 
HETATM    5  O1  UNL     1      30.008  16.225  64.208  1.00  0.00    -0.264 OA
HETATM    6  C6  UNL     1      29.059  17.884  63.018  1.00  0.00     0.127 A 
HETATM    7  N6  UNL     1      29.566  18.832  63.820  1.00  0.00    -0.303 N 
ATOM      8  H6  UNL     1      30.145  18.560  64.615  1.00  0.00     0.171 HD
HETATM    9  C7  UNL     1      29.318  20.150  63.592  1.00  0.00     0.327 A 
HETATM   10  O2  UNL     1      29.833  20.975  64.396  1.00  0.00    -0.247 OA
HETATM   11  N7  UNL     1      28.560  20.557  62.556  1.00  0.00    -0.275 N 
ATOM     12  H7  UNL     1      28.389  21.551  62.404  1.00  0.00     0.173 HD
HETATM   13  C8  UNL     1      28.033  19.645  61.725  1.00  0.00     0.267 A 
HETATM   14  O3  UNL     1      27.324  20.003  60.754  1.00  0.00    -0.267 OA
HETATM   15  C9  UNL     1      28.276  18.296  61.946  1.00  0.00     0.134 A 
HETATM   16  C10 UNL     1      27.753  17.326  61.116  1.00  0.00     0.280 A 
HETATM   17  O4  UNL     1      27.051  17.711  60.157  1.00  0.00    -0.265 OA
ENDROOT
BRANCH   1  18
HETATM   18  C4  UNL     1      27.463  15.007  60.489  1.00  0.00     0.158 C 
BRANCH  18  19
HETATM   19  C3  UNL     1      26.839  13.902  61.379  1.00  0.00     0.066 C 
BRANCH  19  20
HETATM   20  C2  UNL     1      25.362  14.094  61.485  1.00  0.00     0.060 C 
BRANCH  20  21
HETATM   21  N3  UNL     1      24.994  15.253  62.179  1.00  0.00    -0.354 N 
HETATM   22  C1  UNL     1      23.944  16.047  61.690  1.00  0.00     0.479 C 
HETATM   23  N1  UNL     1      23.659  17.049  62.758  1.00  0.00    -0.033 N 
HETATM   24  N2  UNL     1      24.208  16.779  60.460  1.00  0.00    -0.033 N 
ATOM     25  H13 UNL     1      24.400  17.743  62.860  1.00  0.00     0.278 HD
ATOM     26  H12 UNL     1      22.907  17.692  62.509  1.00  0.00     0.278 HD
ATOM     27  H11 UNL     1      23.474  16.536  63.620  1.00  0.00     0.278 HD
ATOM     28  H23 UNL     1      23.456  17.422  60.211  1.00  0.00     0.278 HD
ATOM     29  H22 UNL     1      24.949  17.472  60.563  1.00  0.00     0.278 HD
ATOM     30  H21 UNL     1      24.402  16.093  59.730  1.00  0.00     0.278 HD
ATOM     31  H3  UNL     1      25.486  15.519  63.032  1.00  0.00     0.162 HD
ENDBRANCH  20  21
ENDBRANCH  19  20
ENDBRANCH  18  19
ENDBRANCH   1  18
TORSDOF 4
ENDMDL
MODEL 2
REMARK VINA RESULT: -7.651841967      2.561      5.870
REMARK  4 active torsions:
REMARK  status: ('A' for Active; 'I' for Inactive)
REMARK       I    between atoms: N1_1  and  C1_5 
REMARK       I    between atoms: C1_5  and  N2_6 
REMARK       I    between atoms: C1_5  and  N3_10 
REMARK    1  A    between atoms: N3_10  and  C2_12 
REMARK    2  A    between atoms: C2_12  and  C3_13 
REMARK    3  A    between atoms: C3_13  and  C4_14 
REMARK    4  A    between atoms: C4_14  and  N4_15 
ROOT
HETATM    1  N4  UNL     1      26.866  17.535  64.240  1.00  0.00    -0.254 N 
HETATM    2  N5  UNL     1      25.634  17.996  64.343  1.00  0.00    -0.259 N 
ATOM      3  H5  UNL     1      25.467  18.821  64.918  1.00  0.00     0.190 HD
HETATM    4  C5  UNL     1      24.602  17.429  63.728  1.00  0.00     0.288 A 
HETATM    5  O1  UNL     1      23.423  17.830  63.797  1.00  0.00    -0.264 OA
HETATM    6  C6  UNL     1      24.845  16.305  62.945  1.00  0.00     0.127 A 
HETATM    7  N6  UNL     1      23.864  15.670  62.287  1.00  0.00    -0.303 N 
ATOM      8  H6  UNL     1      22.906  16.014  62.356  1.00  0.00     0.171 HD
HETATM    9  C7  UNL     1      24.127  14.572  61.527  1.00  0.00     0.327 A 
HETATM   10  O2  UNL     1      23.147  14.035  60.942  1.00  0.00    -0.247 OA
HETATM   11  N7  UNL     1      25.374  14.080  61.404  1.00  0.00    -0.275 N 
ATOM     12  H7  UNL     1      25.548  13.256  60.828  1.00  0.00     0.173 HD
HETATM   13  C8  UNL     1      26.389  14.684  62.044  1.00  0.00     0.267 A 
HETATM   14  O3  UNL     1      27.558  14.242  61.943  1.00  0.00    -0.267 OA
HETATM   15  C9  UNL     1      26.135  15.804  62.823  1.00  0.00     0.134 A 
HETATM   16  C10 UNL     1      27.148  16.454  63.498  1.00  0.00     0.280 A 
HETATM   17  O4  UNL     1      28.303  15.993  63.379  1.00  0.00    -0.265 OA
ENDROOT
BRANCH   1  18
HETATM   18  C4  UNL     1      27.929  18.223  64.952  1.00  0.00     0.158 C 
BRANCH  18  19
HETATM   19  C3  UNL     1      27.875  19.723  64.565  1.00  0.00     0.066 C 
BRANCH  19  20
HETATM   20  C2  UNL     1      28.950  20.042  63.578  1.00  0.00     0.060 C 
BRANCH  20  21
HETATM   21  N3  UNL     1      28.464  20.444  62.328  1.00  0.00    -0.354 N 
HETATM   22  C1  UNL     1      27.685  19.554  61.571  1.00  0.00     0.479 C 
HETATM   23  N1  UNL     1      27.147  20.352  60.430  1.00  0.00    -0.033 N 
HETATM   24  N2  UNL     1      28.382  18.405  61.012  1.00  0.00    -0.033 N 
ATOM     25  H13 UNL     1      27.864  20.613  59.754  1.00  0.00     0.278 HD
ATOM     26  H12 UNL     1      26.563  19.801  59.800  1.00  0.00     0.278 HD
ATOM     27  H11 UNL     1      26.659  21.157  60.822  1.00  0.00     0.278 HD
ATOM     28  H23 UNL     1      27.798  17.854  60.382  1.00  0.00     0.278 HD
ATOM     29  H22 UNL     1      29.100  18.667  60.335  1.00  0.00     0.278 HD
ATOM     30  H21 UNL     1      28.750  17.859  61.791  1.00  0.00     0.278 HD
ATOM     31  H3  UNL     1      28.674  21.376  61.971  1.00  0.00     0.162 HD
ENDBRANCH  20  21
ENDBRANCH  19  20
ENDBRANCH  18  19
ENDBRANCH   1  18
TORSDOF 4
ENDMDL
MODEL 3
REMARK VINA RESULT: -7.549805286      2.373      6.012
REMARK  4 active torsions:
REMARK  status: ('A' for Active; 'I' for Inactive)
REMARK       I    between atoms: N1_1  and  C1_5 
REMARK       I    between atoms: C1_5  and  N2_6 
REMARK       I    between atoms: C1_5  and  N3_10 
REMARK    1  A    between atoms: N3_10  and  C2_12 
REMARK    2  A    between atoms: C2_12  and  C3_13 
REMARK    3  A    between atoms: C3_13  and  C4_14 
REMARK    4  A    between atoms: C4_14  and  N4_15 
ROOT
HETATM    1  N4  UNL     1      26.433  18.649  61.900  1.00  0.00    -0.254 N 
HETATM    2  N5  UNL     1      25.417  18.801  62.729  1.00  0.00    -0.259 N 
ATOM      3  H5  UNL     1      25.291  19.704  63.186  1.00  0.00     0.190 HD
HETATM    4  C5  UNL     1      24.553  17.828  62.991  1.00  0.00     0.288 A 
HETATM    5  O1  UNL     1      23.582  17.927  63.766  1.00  0.00    -0.264 OA
HETATM    6  C6  UNL     1      24.737  16.602  62.359  1.00  0.00     0.127 A 
HETATM    7  N6  UNL     1      23.913  15.564  62.564  1.00  0.00    -0.303 N 
ATOM      8  H6  UNL     1      23.123  15.667  63.201  1.00  0.00     0.171 HD
HETATM    9  C7  UNL     1      24.114  14.376  61.933  1.00  0.00     0.327 A 
HETATM   10  O2  UNL     1      23.292  13.451  62.182  1.00  0.00    -0.247 OA
HETATM   11  N7  UNL     1      25.141  14.191  61.082  1.00  0.00    -0.275 N 
ATOM     12  H7  UNL     1      25.272  13.291  60.621  1.00  0.00     0.173 HD
HETATM   13  C8  UNL     1      25.992  15.203  60.846  1.00  0.00     0.267 A 
HETATM   14  O3  UNL     1      26.956  15.053  60.057  1.00  0.00    -0.267 OA
HETATM   15  C9  UNL     1      25.800  16.421  61.483  1.00  0.00     0.134 A 
HETATM   16  C10 UNL     1      26.650  17.486  61.268  1.00  0.00     0.280 A 
HETATM   17  O4  UNL     1      27.601  17.309  60.477  1.00  0.00    -0.265 OA
ENDROOT
BRANCH   1  18
HETATM   18  C4  UNL     1      27.325  19.773  61.677  1.00  0.00     0.158 C 
BRANCH  18  19
HETATM   19  C3  UNL     1      28.070  20.068  63.004  1.00  0.00     0.066 C 
BRANCH  19  20
HETATM   20  C2  UNL     1      29.547  20.055  62.783  1.00  0.00     0.060 C 
BRANCH  20  21
HETATM   21  N3  UNL     1      30.014  18.885  62.172  1.00  0.00    -0.354 N 
HETATM   22  C1  UNL     1      30.155  17.715  62.936  1.00  0.00     0.479 C 
HETATM   23  N1  UNL     1      30.441  16.623  61.960  1.00  0.00    -0.033 N 
HETATM   24  N2  UNL     1      31.226  17.715  63.921  1.00  0.00    -0.033 N 
ATOM     25  H13 UNL     1      31.368  16.697  61.540  1.00  0.00     0.278 HD
ATOM     26  H12 UNL     1      30.570  15.714  62.407  1.00  0.00     0.278 HD
ATOM     27  H11 UNL     1      29.691  16.623  61.270  1.00  0.00     0.278 HD
ATOM     28  H23 UNL     1      31.355  16.806  64.368  1.00  0.00     0.278 HD
ATOM     29  H22 UNL     1      32.153  17.790  63.501  1.00  0.00     0.278 HD
ATOM     30  H21 UNL     1      31.031  18.461  64.589  1.00  0.00     0.278 HD
ATOM     31  H3  UNL     1      30.250  18.883  61.180  1.00  0.00     0.162 HD
ENDBRANCH  20  21
ENDBRANCH  19  20
ENDBRANCH  18  19
ENDBRANCH   1  18
TORSDOF 4
ENDMDL
MODEL 4
REMARK VINA RESULT: -7.507931578      2.721      6.509
REMARK  4 active torsions:
REMARK  status: ('A' for Active; 'I' for Inactive)
REMARK       I    between atoms: N1_1  and  C1_5 
REMARK       I    between atoms: C1_5  and  N2_6 
REMARK       I    between atoms: C1_5  and  N3_10 
REMARK    1  A    between atoms: N3_10  and  C2_12 
REMARK    2  A    between atoms: C2_12  and  C3_13 
REMARK    3  A    between atoms: C3_13  and  C4_14 
REMARK    4  A    between atoms: C4_14  and  N4_15 
ROOT
HETATM    1  N4  UNL     1      26.578  18.648  62.169  1.00  0.00    -0.254 N 
HETATM    2  N5  UNL     1      25.612  18.742  63.064  1.00  0.00    -0.259 N 
ATOM      3  H5  UNL     1      25.553  19.587  63.632  1.00  0.00     0.190 HD
HETATM    4  C5  UNL     1      24.715  17.782  63.254  1.00  0.00     0.288 A 
HETATM    5  O1  UNL     1      23.788  17.828  64.087  1.00  0.00    -0.264 OA
HETATM    6  C6  UNL     1      24.807  16.636  62.471  1.00  0.00     0.127 A 
HETATM    7  N6  UNL     1      23.944  15.617  62.594  1.00  0.00    -0.303 N 
ATOM      8  H6  UNL     1      23.192  15.675  63.281  1.00  0.00     0.171 HD
HETATM    9  C7  UNL     1      24.056  14.507  61.815  1.00  0.00     0.327 A 
HETATM   10  O2  UNL     1      23.202  13.595  61.996  1.00  0.00    -0.247 OA
HETATM   11  N7  UNL     1      25.030  14.384  60.894  1.00  0.00    -0.275 N 
ATOM     12  H7  UNL     1      25.093  13.543  60.322  1.00  0.00     0.173 HD
HETATM   13  C8  UNL     1      25.917  15.379  60.735  1.00  0.00     0.267 A 
HETATM   14  O3  UNL     1      26.833  15.286  59.883  1.00  0.00    -0.267 OA
HETATM   15  C9  UNL     1      25.816  16.518  61.523  1.00  0.00     0.134 A 
HETATM   16  C10 UNL     1      26.706  17.564  61.392  1.00  0.00     0.280 A 
HETATM   17  O4  UNL     1      27.608  17.444  60.535  1.00  0.00    -0.265 OA
ENDROOT
BRANCH   1  18
HETATM   18  C4  UNL     1      27.513  19.753  62.035  1.00  0.00     0.158 C 
BRANCH  18  19
HETATM   19  C3  UNL     1      28.650  19.549  63.067  1.00  0.00     0.066 C 
BRANCH  19  20
HETATM   20  C2  UNL     1      28.518  20.532  64.184  1.00  0.00     0.060 C 
BRANCH  20  21
HETATM   21  N3  UNL     1      29.730  21.124  64.557  1.00  0.00    -0.354 N 
HETATM   22  C1  UNL     1      29.867  21.665  65.846  1.00  0.00     0.479 C 
HETATM   23  N1  UNL     1      31.314  21.998  65.998  1.00  0.00    -0.033 N 
HETATM   24  N2  UNL     1      29.108  22.876  66.121  1.00  0.00    -0.033 N 
ATOM     25  H13 UNL     1      31.603  22.788  65.420  1.00  0.00     0.278 HD
ATOM     26  H12 UNL     1      31.535  22.409  66.906  1.00  0.00     0.278 HD
ATOM     27  H11 UNL     1      31.846  21.150  65.806  1.00  0.00     0.278 HD
ATOM     28  H23 UNL     1      29.328  23.286  67.028  1.00  0.00     0.278 HD
ATOM     29  H22 UNL     1      29.397  23.665  65.543  1.00  0.00     0.278 HD
ATOM     30  H21 UNL     1      28.118  22.648  66.017  1.00  0.00     0.278 HD
ATOM     31  H3  UNL     1      30.508  21.163  63.899  1.00  0.00     0.162 HD
ENDBRANCH  20  21
ENDBRANCH  19  20
ENDBRANCH  18  19
ENDBRANCH   1  18
TORSDOF 4
ENDMDL
MODEL 5
REMARK VINA RESULT: -7.497796295      2.397      5.592
REMARK  4 active torsions:
REMARK  status: ('A' for Active; 'I' for Inactive)
REMARK       I    between atoms: N1_1  and  C1_5 
REMARK       I    between atoms: C1_5  and  N2_6 
REMARK       I    between atoms: C1_5  and  N3_10 
REMARK    1  A    between atoms: N3_10  and  C2_12 
REMARK    2  A    between atoms: C2_12  and  C3_13 
REMARK    3  A    between atoms: C3_13  and  C4_14 
REMARK    4  A    between atoms: C4_14  and  N4_15 
ROOT
HETATM    1  N4  UNL     1      27.179  17.732  60.932  1.00  0.00    -0.254 N 
HETATM    2  N5  UNL     1      27.478  16.677  60.197  1.00  0.00    -0.259 N 
ATOM      3  H5  UNL     1      28.282  16.728  59.573  1.00  0.00     0.190 HD
HETATM    4  C5  UNL     1      26.774  15.552  60.238  1.00  0.00     0.288 A 
HETATM    5  O1  UNL     1      27.019  14.533  59.562  1.00  0.00    -0.264 OA
HETATM    6  C6  UNL     1      25.680  15.495  61.095  1.00  0.00     0.127 A 
HETATM    7  N6  UNL     1      24.914  14.399  61.202  1.00  0.00    -0.303 N 
ATOM      8  H6  UNL     1      25.132  13.576  60.640  1.00  0.00     0.171 HD
HETATM    9  C7  UNL     1      23.850  14.369  62.049  1.00  0.00     0.327 A 
HETATM   10  O2  UNL     1      23.181  13.299  62.088  1.00  0.00    -0.247 OA
HETATM   11  N7  UNL     1      23.522  15.429  62.811  1.00  0.00    -0.275 N 
ATOM     12  H7  UNL     1      22.719  15.383  63.438  1.00  0.00     0.173 HD
HETATM   13  C8  UNL     1      24.260  16.548  62.738  1.00  0.00     0.267 A 
HETATM   14  O3  UNL     1      23.972  17.548  63.439  1.00  0.00    -0.267 OA
HETATM   15  C9  UNL     1      25.349  16.594  61.878  1.00  0.00     0.134 A 
HETATM   16  C10 UNL     1      26.134  17.723  61.773  1.00  0.00     0.280 A 
HETATM   17  O4  UNL     1      25.825  18.704  62.483  1.00  0.00    -0.265 OA
ENDROOT
BRANCH   1  18
HETATM   18  C4  UNL     1      28.009  18.918  60.818  1.00  0.00     0.158 C 
BRANCH  18  19
HETATM   19  C3  UNL     1      29.310  18.675  61.623  1.00  0.00     0.066 C 
BRANCH  19  20
HETATM   20  C2  UNL     1      29.467  19.716  62.682  1.00  0.00     0.060 C 
BRANCH  20  21
HETATM   21  N3  UNL     1      28.283  19.994  63.377  1.00  0.00    -0.354 N 
HETATM   22  C1  UNL     1      28.124  19.519  64.689  1.00  0.00     0.479 C 
HETATM   23  N1  UNL     1      26.887  20.169  65.211  1.00  0.00    -0.033 N 
HETATM   24  N2  UNL     1      27.959  18.080  64.837  1.00  0.00    -0.033 N 
ATOM     25  H13 UNL     1      26.037  19.820  64.769  1.00  0.00     0.278 HD
ATOM     26  H12 UNL     1      26.665  19.891  66.167  1.00  0.00     0.278 HD
ATOM     27  H11 UNL     1      27.003  21.177  65.107  1.00  0.00     0.278 HD
ATOM     28  H23 UNL     1      27.737  17.802  65.793  1.00  0.00     0.278 HD
ATOM     29  H22 UNL     1      27.109  17.731  64.395  1.00  0.00     0.278 HD
ATOM     30  H21 UNL     1      28.805  17.635  64.480  1.00  0.00     0.278 HD
ATOM     31  H3  UNL     1      27.543  20.537  62.933  1.00  0.00     0.162 HD
ENDBRANCH  20  21
ENDBRANCH  19  20
ENDBRANCH  18  19
ENDBRANCH   1  18
TORSDOF 4
ENDMDL
