MODEL 1
REMARK VINA RESULT: -6.042135023      0.000      0.000
REMARK  9 active torsions:
REMARK  status: ('A' for Active; 'I' for Inactive)
REMARK    1  A    between atoms: N1_1  and  C1_5 
REMARK    2  A    between atoms: C1_5  and  C2_6 
REMARK    3  A    between atoms: C2_6  and  N2_7 
REMARK    4  A    between atoms: N2_7  and  C3_8 
REMARK    5  A    between atoms: N2_7  and  C5_12 
REMARK    6  A    between atoms: C3_8  and  C4_9 
REMARK    7  A    between atoms: C4_9  and  O1_10 
REMARK    8  A    between atoms: C6_13  and  N3_14 
REMARK    9  A    between atoms: C13_30  and  N6_31 
ROOT
HETATM    1  C5  UNL     1      26.954  17.458  62.390  1.00  0.00     0.056 C 
HETATM    2  C6  UNL     1      27.173  18.335  61.215  1.00  0.00     0.231 C 
HETATM    3  C7  UNL     1      28.638  18.674  61.006  1.00  0.00     0.041 C 
HETATM    4  C8  UNL     1      29.370  19.055  62.246  1.00  0.00     0.045 C 
HETATM    5  C9  UNL     1      28.685  18.665  63.537  1.00  0.00     0.182 C 
HETATM    6  C10 UNL     1      29.609  18.517  64.697  1.00  0.00     0.273 C 
HETATM    7  N4  UNL     1      30.189  19.781  65.054  1.00  0.00    -0.071 N 
ATOM      8  H41 UNL     1      30.952  20.035  64.426  1.00  0.00     0.277 HD
ATOM      9  H42 UNL     1      30.719  19.719  65.923  1.00  0.00     0.277 HD
HETATM   10  C11 UNL     1      29.190  20.812  65.116  1.00  0.00     0.260 C 
HETATM   11  C12 UNL     1      27.782  20.254  65.100  1.00  0.00     0.260 C 
HETATM   12  N5  UNL     1      27.617  19.598  63.792  1.00  0.00    -0.061 N 
ATOM     13  H51 UNL     1      26.703  19.153  63.709  1.00  0.00     0.278 HD
ATOM     14  H52 UNL     1      27.528  20.280  63.039  1.00  0.00     0.278 HD
HETATM   15  C13 UNL     1      28.134  17.235  63.273  1.00  0.00     0.269 C 
ENDROOT
BRANCH   1  16
HETATM   16  N2  UNL     1      26.225  16.237  62.160  1.00  0.00    -0.340 N 
BRANCH  16  17
HETATM   17  C2  UNL     1      27.062  15.131  61.930  1.00  0.00     0.096 C 
BRANCH  17  18
HETATM   18  C1  UNL     1      26.308  13.930  61.443  1.00  0.00     0.274 C 
BRANCH  18  19
HETATM   19  N1  UNL     1      25.902  14.081  60.044  1.00  0.00    -0.075 N 
ATOM     20  H13 UNL     1      26.487  14.760  59.558  1.00  0.00     0.274 HD
ATOM     21  H12 UNL     1      26.135  13.252  59.497  1.00  0.00     0.274 HD
ATOM     22  H11 UNL     1      24.913  14.316  59.965  1.00  0.00     0.274 HD
ENDBRANCH  18  19
ENDBRANCH  17  18
ENDBRANCH  16  17
BRANCH  16  23
HETATM   23  C3  UNL     1      24.955  16.143  62.682  1.00  0.00     0.094 C 
BRANCH  23  24
HETATM   24  C4  UNL     1      23.802  16.760  61.963  1.00  0.00     0.209 C 
BRANCH  24  25
HETATM   25  O1  UNL     1      24.067  16.554  60.552  1.00  0.00    -0.396 OA
ATOM     26  H1  UNL     1      23.282  16.838  60.101  1.00  0.00     0.209 HD
ENDBRANCH  24  25
ENDBRANCH  23  24
ENDBRANCH  16  23
ENDBRANCH   1  16
BRANCH   2  27
HETATM   27  N3  UNL     1      26.720  17.733  59.964  1.00  0.00    -0.070 N 
ATOM     28  H33 UNL     1      26.514  16.743  60.089  1.00  0.00     0.275 HD
ATOM     29  H32 UNL     1      25.788  18.067  59.716  1.00  0.00     0.275 HD
ATOM     30  H31 UNL     1      27.375  17.876  59.195  1.00  0.00     0.275 HD
ENDBRANCH   2  27
BRANCH  15  31
HETATM   31  N6  UNL     1      27.726  16.620  64.497  1.00  0.00    -0.067 N 
ATOM     32  H63 UNL     1      26.759  16.843  64.732  1.00  0.00     0.275 HD
ATOM     33  H62 UNL     1      27.628  15.609  64.401  1.00  0.00     0.275 HD
ATOM     34  H61 UNL     1      28.368  16.871  65.249  1.00  0.00     0.275 HD
ENDBRANCH  15  31
TORSDOF 9
ENDMDL
MODEL 2
REMARK VINA RESULT: -5.891635649      2.212      5.313
REMARK  9 active torsions:
REMARK  status: ('A' for Active; 'I' for Inactive)
REMARK    1  A    between atoms: N1_1  and  C1_5 
REMARK    2  A    between atoms: C1_5  and  C2_6 
REMARK    3  A    between atoms: C2_6  and  N2_7 
REMARK    4  A    between atoms: N2_7  and  C3_8 
REMARK    5  A    between atoms: N2_7  and  C5_12 
REMARK    6  A    between atoms: C3_8  and  C4_9 
REMARK    7  A    between atoms: C4_9  and  O1_10 
REMARK    8  A    between atoms: C6_13  and  N3_14 
REMARK    9  A    between atoms: C13_30  and  N6_31 
ROOT
HETATM    1  C5  UNL     1      27.501  17.945  62.613  1.00  0.00     0.056 C 
HETATM    2  C6  UNL     1      28.326  18.423  61.478  1.00  0.00     0.231 C 
HETATM    3  C7  UNL     1      27.576  18.394  60.159  1.00  0.00     0.041 C 
HETATM    4  C8  UNL     1      26.796  17.149  59.915  1.00  0.00     0.045 C 
HETATM    5  C9  UNL     1      26.540  16.306  61.144  1.00  0.00     0.182 C 
HETATM    6  C10 UNL     1      25.344  15.423  61.040  1.00  0.00     0.273 C 
HETATM    7  N4  UNL     1      25.539  14.412  60.037  1.00  0.00    -0.071 N 
ATOM      8  H41 UNL     1      25.399  14.784  59.098  1.00  0.00     0.277 HD
ATOM      9  H42 UNL     1      24.787  13.724  60.046  1.00  0.00     0.277 HD
HETATM   10  C11 UNL     1      26.827  13.789  60.172  1.00  0.00     0.260 C 
HETATM   11  C12 UNL     1      27.497  14.126  61.487  1.00  0.00     0.260 C 
HETATM   12  N5  UNL     1      27.743  15.578  61.462  1.00  0.00    -0.061 N 
ATOM     13  H51 UNL     1      28.158  15.903  62.334  1.00  0.00     0.278 HD
ATOM     14  H52 UNL     1      28.504  15.818  60.828  1.00  0.00     0.278 HD
HETATM   15  C13 UNL     1      26.189  17.331  62.259  1.00  0.00     0.269 C 
ENDROOT
BRANCH   1  16
HETATM   16  N2  UNL     1      27.386  18.827  63.745  1.00  0.00    -0.340 N 
BRANCH  16  17
HETATM   17  C2  UNL     1      26.261  19.667  63.677  1.00  0.00     0.096 C 
BRANCH  17  18
HETATM   18  C1  UNL     1      25.591  19.839  65.008  1.00  0.00     0.274 C 
BRANCH  18  19
HETATM   19  N1  UNL     1      24.157  20.096  64.857  1.00  0.00    -0.075 N 
ATOM     20  H13 UNL     1      23.939  21.082  64.992  1.00  0.00     0.274 HD
ATOM     21  H12 UNL     1      23.861  20.000  63.886  1.00  0.00     0.274 HD
ATOM     22  H11 UNL     1      23.604  19.504  65.477  1.00  0.00     0.274 HD
ENDBRANCH  18  19
ENDBRANCH  17  18
ENDBRANCH  16  17
BRANCH  16  23
HETATM   23  C3  UNL     1      27.981  18.435  64.923  1.00  0.00     0.094 C 
BRANCH  23  24
HETATM   24  C4  UNL     1      28.882  17.245  64.948  1.00  0.00     0.209 C 
BRANCH  24  25
HETATM   25  O1  UNL     1      28.046  16.132  65.358  1.00  0.00    -0.396 OA
ATOM     26  H1  UNL     1      27.720  15.750  64.553  1.00  0.00     0.209 HD
ENDBRANCH  24  25
ENDBRANCH  23  24
ENDBRANCH  16  23
ENDBRANCH   1  16
BRANCH   2  27
HETATM   27  N3  UNL     1      28.784  19.799  61.647  1.00  0.00    -0.070 N 
ATOM     28  H33 UNL     1      28.791  20.062  62.632  1.00  0.00     0.275 HD
ATOM     29  H32 UNL     1      29.782  19.878  61.447  1.00  0.00     0.275 HD
ATOM     30  H31 UNL     1      28.247  20.467  61.094  1.00  0.00     0.275 HD
ENDBRANCH   2  27
BRANCH  15  31
HETATM   31  N6  UNL     1      25.633  16.667  63.396  1.00  0.00    -0.067 N 
ATOM     32  H63 UNL     1      26.290  16.008  63.811  1.00  0.00     0.275 HD
ATOM     33  H62 UNL     1      25.528  17.297  64.191  1.00  0.00     0.275 HD
ATOM     34  H61 UNL     1      24.751  16.220  63.145  1.00  0.00     0.275 HD
ENDBRANCH  15  31
TORSDOF 9
ENDMDL
MODEL 3
REMARK VINA RESULT: -5.879080978      2.059      5.082
REMARK  9 active torsions:
REMARK  status: ('A' for Active; 'I' for Inactive)
REMARK    1  A    between atoms: N1_1  and  C1_5 
REMARK    2  A    between atoms: C1_5  and  C2_6 
REMARK    3  A    between atoms: C2_6  and  N2_7 
REMARK    4  A    between atoms: N2_7  and  C3_8 
REMARK    5  A    between atoms: N2_7  and  C5_12 
REMARK    6  A    between atoms: C3_8  and  C4_9 
REMARK    7  A    between atoms: C4_9  and  O1_10 
REMARK    8  A    between atoms: C6_13  and  N3_14 
REMARK    9  A    between atoms: C13_30  and  N6_31 
ROOT
HETATM    1  C5  UNL     1      27.506  17.952  62.691  1.00  0.00     0.056 C 
HETATM    2  C6  UNL     1      28.322  18.461  61.562  1.00  0.00     0.231 C 
HETATM    3  C7  UNL     1      27.565  18.457  60.247  1.00  0.00     0.041 C 
HETATM    4  C8  UNL     1      26.792  17.212  59.979  1.00  0.00     0.045 C 
HETATM    5  C9  UNL     1      26.548  16.340  61.190  1.00  0.00     0.182 C 
HETATM    6  C10 UNL     1      25.357  15.452  61.073  1.00  0.00     0.273 C 
HETATM    7  N4  UNL     1      25.553  14.466  60.046  1.00  0.00    -0.071 N 
ATOM      8  H41 UNL     1      25.406  14.857  59.116  1.00  0.00     0.277 HD
ATOM      9  H42 UNL     1      24.805  13.773  60.044  1.00  0.00     0.277 HD
HETATM   10  C11 UNL     1      26.846  13.848  60.161  1.00  0.00     0.260 C 
HETATM   11  C12 UNL     1      27.521  14.160  61.480  1.00  0.00     0.260 C 
HETATM   12  N5  UNL     1      27.757  15.613  61.486  1.00  0.00    -0.061 N 
ATOM     13  H51 UNL     1      28.174  15.922  62.363  1.00  0.00     0.278 HD
ATOM     14  H52 UNL     1      28.513  15.873  60.853  1.00  0.00     0.278 HD
HETATM   15  C13 UNL     1      26.196  17.338  62.330  1.00  0.00     0.269 C 
ENDROOT
BRANCH   1  16
HETATM   16  N2  UNL     1      27.392  18.808  63.843  1.00  0.00    -0.340 N 
BRANCH  16  17
HETATM   17  C2  UNL     1      28.568  18.856  64.611  1.00  0.00     0.096 C 
BRANCH  17  18
HETATM   18  C1  UNL     1      28.859  17.557  65.301  1.00  0.00     0.274 C 
BRANCH  18  19
HETATM   19  N1  UNL     1      27.849  17.250  66.316  1.00  0.00    -0.075 N 
ATOM     20  H13 UNL     1      27.446  18.100  66.709  1.00  0.00     0.274 HD
ATOM     21  H12 UNL     1      27.006  16.856  65.897  1.00  0.00     0.274 HD
ATOM     22  H11 UNL     1      28.223  16.643  67.045  1.00  0.00     0.274 HD
ENDBRANCH  18  19
ENDBRANCH  17  18
ENDBRANCH  16  17
BRANCH  16  23
HETATM   23  C3  UNL     1      26.464  19.824  63.796  1.00  0.00     0.094 C 
BRANCH  23  24
HETATM   24  C4  UNL     1      25.471  19.984  64.899  1.00  0.00     0.209 C 
BRANCH  24  25
HETATM   25  O1  UNL     1      24.477  20.913  64.396  1.00  0.00    -0.396 OA
ATOM     26  H1  UNL     1      24.272  20.615  63.518  1.00  0.00     0.209 HD
ENDBRANCH  24  25
ENDBRANCH  23  24
ENDBRANCH  16  23
ENDBRANCH   1  16
BRANCH   2  27
HETATM   27  N3  UNL     1      28.773  19.836  61.760  1.00  0.00    -0.070 N 
ATOM     28  H33 UNL     1      27.982  20.458  61.924  1.00  0.00     0.275 HD
ATOM     29  H32 UNL     1      29.252  19.937  62.654  1.00  0.00     0.275 HD
ATOM     30  H31 UNL     1      29.353  20.177  60.994  1.00  0.00     0.275 HD
ENDBRANCH   2  27
BRANCH  15  31
HETATM   31  N6  UNL     1      25.650  16.645  63.454  1.00  0.00    -0.067 N 
ATOM     32  H63 UNL     1      25.551  17.255  64.266  1.00  0.00     0.275 HD
ATOM     33  H62 UNL     1      24.665  16.415  63.318  1.00  0.00     0.275 HD
ATOM     34  H61 UNL     1      26.208  15.819  63.664  1.00  0.00     0.275 HD
ENDBRANCH  15  31
TORSDOF 9
ENDMDL
MODEL 4
REMARK VINA RESULT: -5.748173056      2.291      5.316
REMARK  9 active torsions:
REMARK  status: ('A' for Active; 'I' for Inactive)
REMARK    1  A    between atoms: N1_1  and  C1_5 
REMARK    2  A    between atoms: C1_5  and  C2_6 
REMARK    3  A    between atoms: C2_6  and  N2_7 
REMARK    4  A    between atoms: N2_7  and  C3_8 
REMARK    5  A    between atoms: N2_7  and  C5_12 
REMARK    6  A    between atoms: C3_8  and  C4_9 
REMARK    7  A    between atoms: C4_9  and  O1_10 
REMARK    8  A    between atoms: C6_13  and  N3_14 
REMARK    9  A    between atoms: C13_30  and  N6_31 
ROOT
HETATM    1  C5  UNL     1      28.288  17.811  62.920  1.00  0.00     0.056 C 
HETATM    2  C6  UNL     1      28.999  18.408  61.764  1.00  0.00     0.231 C 
HETATM    3  C7  UNL     1      28.078  18.678  60.588  1.00  0.00     0.041 C 
HETATM    4  C8  UNL     1      27.138  17.567  60.269  1.00  0.00     0.045 C 
HETATM    5  C9  UNL     1      26.960  16.546  61.370  1.00  0.00     0.182 C 
HETATM    6  C10 UNL     1      25.669  15.802  61.308  1.00  0.00     0.273 C 
HETATM    7  N4  UNL     1      25.613  14.971  60.137  1.00  0.00    -0.071 N 
ATOM      8  H41 UNL     1      25.388  15.513  59.303  1.00  0.00     0.277 HD
ATOM      9  H42 UNL     1      24.796  14.360  60.150  1.00  0.00     0.277 HD
HETATM   10  C11 UNL     1      26.829  14.225  59.972  1.00  0.00     0.260 C 
HETATM   11  C12 UNL     1      27.705  14.266  61.206  1.00  0.00     0.260 C 
HETATM   12  N5  UNL     1      28.105  15.672  61.378  1.00  0.00    -0.061 N 
ATOM     13  H51 UNL     1      28.669  15.801  62.218  1.00  0.00     0.278 HD
ATOM     14  H52 UNL     1      28.796  15.954  60.682  1.00  0.00     0.278 HD
HETATM   15  C13 UNL     1      26.880  17.385  62.676  1.00  0.00     0.269 C 
ENDROOT
BRANCH   1  16
HETATM   16  N2  UNL     1      28.427  18.486  64.184  1.00  0.00    -0.340 N 
BRANCH  16  17
HETATM   17  C2  UNL     1      29.616  18.154  64.856  1.00  0.00     0.096 C 
BRANCH  17  18
HETATM   18  C1  UNL     1      29.591  16.763  65.416  1.00  0.00     0.274 C 
BRANCH  18  19
HETATM   19  N1  UNL     1      28.594  16.629  66.479  1.00  0.00    -0.075 N 
ATOM     20  H13 UNL     1      27.841  17.308  66.372  1.00  0.00     0.274 HD
ATOM     21  H12 UNL     1      28.051  15.772  66.376  1.00  0.00     0.274 HD
ATOM     22  H11 UNL     1      29.023  16.691  67.403  1.00  0.00     0.274 HD
ENDBRANCH  18  19
ENDBRANCH  17  18
ENDBRANCH  16  17
BRANCH  16  23
HETATM   23  C3  UNL     1      27.759  19.679  64.349  1.00  0.00     0.094 C 
BRANCH  23  24
HETATM   24  C4  UNL     1      28.272  20.697  65.312  1.00  0.00     0.209 C 
BRANCH  24  25
HETATM   25  O1  UNL     1      29.022  21.647  64.512  1.00  0.00    -0.396 OA
ATOM     26  H1  UNL     1      29.937  21.467  64.696  1.00  0.00     0.209 HD
ENDBRANCH  24  25
ENDBRANCH  23  24
ENDBRANCH  16  23
ENDBRANCH   1  16
BRANCH   2  27
HETATM   27  N3  UNL     1      29.626  19.688  62.081  1.00  0.00    -0.070 N 
ATOM     28  H33 UNL     1      29.800  19.771  63.083  1.00  0.00     0.275 HD
ATOM     29  H32 UNL     1      30.589  19.716  61.744  1.00  0.00     0.275 HD
ATOM     30  H31 UNL     1      29.095  20.487  61.735  1.00  0.00     0.275 HD
ENDBRANCH   2  27
BRANCH  15  31
HETATM   31  N6  UNL     1      26.412  16.582  63.762  1.00  0.00    -0.067 N 
ATOM     32  H63 UNL     1      26.330  17.119  64.625  1.00  0.00     0.275 HD
ATOM     33  H62 UNL     1      25.432  16.325  63.651  1.00  0.00     0.275 HD
ATOM     34  H61 UNL     1      27.010  15.764  63.878  1.00  0.00     0.275 HD
ENDBRANCH  15  31
TORSDOF 9
ENDMDL
MODEL 5
REMARK VINA RESULT: -5.649520215      1.998      5.355
REMARK  9 active torsions:
REMARK  status: ('A' for Active; 'I' for Inactive)
REMARK    1  A    between atoms: N1_1  and  C1_5 
REMARK    2  A    between atoms: C1_5  and  C2_6 
REMARK    3  A    between atoms: C2_6  and  N2_7 
REMARK    4  A    between atoms: N2_7  and  C3_8 
REMARK    5  A    between atoms: N2_7  and  C5_12 
REMARK    6  A    between atoms: C3_8  and  C4_9 
REMARK    7  A    between atoms: C4_9  and  O1_10 
REMARK    8  A    between atoms: C6_13  and  N3_14 
REMARK    9  A    between atoms: C13_30  and  N6_31 
ROOT
HETATM    1  C5  UNL     1      27.344  17.719  63.593  1.00  0.00     0.056 C 
HETATM    2  C6  UNL     1      28.467  16.841  64.002  1.00  0.00     0.231 C 
HETATM    3  C7  UNL     1      29.315  16.392  62.826  1.00  0.00     0.041 C 
HETATM    4  C8  UNL     1      28.539  15.942  61.636  1.00  0.00     0.045 C 
HETATM    5  C9  UNL     1      27.088  16.369  61.623  1.00  0.00     0.182 C 
HETATM    6  C10 UNL     1      26.484  16.433  60.262  1.00  0.00     0.273 C 
HETATM    7  N4  UNL     1      26.401  15.123  59.677  1.00  0.00    -0.071 N 
ATOM      8  H41 UNL     1      27.302  14.819  59.308  1.00  0.00     0.277 HD
ATOM      9  H42 UNL     1      25.873  15.135  58.804  1.00  0.00     0.277 HD
HETATM   10  C11 UNL     1      25.862  14.172  60.609  1.00  0.00     0.260 C 
HETATM   11  C12 UNL     1      25.246  14.836  61.822  1.00  0.00     0.260 C 
HETATM   12  N5  UNL     1      26.349  15.518  62.520  1.00  0.00    -0.061 N 
ATOM     13  H51 UNL     1      26.015  16.032  63.335  1.00  0.00     0.278 HD
ATOM     14  H52 UNL     1      26.960  14.853  62.994  1.00  0.00     0.278 HD
HETATM   15  C13 UNL     1      27.106  17.840  62.126  1.00  0.00     0.269 C 
ENDROOT
BRANCH   1  16
HETATM   16  N2  UNL     1      27.246  18.994  64.254  1.00  0.00    -0.340 N 
BRANCH  16  17
HETATM   17  C2  UNL     1      27.696  20.062  63.459  1.00  0.00     0.096 C 
BRANCH  17  18
HETATM   18  C1  UNL     1      29.056  20.548  63.864  1.00  0.00     0.274 C 
BRANCH  18  19
HETATM   19  N1  UNL     1      29.867  20.906  62.699  1.00  0.00    -0.075 N 
ATOM     20  H13 UNL     1      30.736  20.374  62.673  1.00  0.00     0.274 HD
ATOM     21  H12 UNL     1      29.447  20.566  61.834  1.00  0.00     0.274 HD
ATOM     22  H11 UNL     1      30.043  21.910  62.660  1.00  0.00     0.274 HD
ENDBRANCH  18  19
ENDBRANCH  17  18
ENDBRANCH  16  17
BRANCH  16  23
HETATM   23  C3  UNL     1      26.312  19.123  65.257  1.00  0.00     0.094 C 
BRANCH  23  24
HETATM   24  C4  UNL     1      25.502  20.372  65.370  1.00  0.00     0.209 C 
BRANCH  24  25
HETATM   25  O1  UNL     1      24.708  20.432  64.158  1.00  0.00    -0.396 OA
ATOM     26  H1  UNL     1      24.464  19.533  63.969  1.00  0.00     0.209 HD
ENDBRANCH  24  25
ENDBRANCH  23  24
ENDBRANCH  16  23
ENDBRANCH   1  16
BRANCH   2  27
HETATM   27  N3  UNL     1      29.386  17.489  64.933  1.00  0.00    -0.070 N 
ATOM     28  H33 UNL     1      29.621  18.430  64.618  1.00  0.00     0.275 HD
ATOM     29  H32 UNL     1      28.916  17.720  65.808  1.00  0.00     0.275 HD
ATOM     30  H31 UNL     1      30.229  16.942  65.105  1.00  0.00     0.275 HD
ENDBRANCH   2  27
BRANCH  15  31
HETATM   31  N6  UNL     1      25.847  18.470  61.881  1.00  0.00    -0.067 N 
ATOM     32  H63 UNL     1      25.835  19.436  62.208  1.00  0.00     0.275 HD
ATOM     33  H62 UNL     1      25.695  18.646  60.888  1.00  0.00     0.275 HD
ATOM     34  H61 UNL     1      25.092  17.920  62.290  1.00  0.00     0.275 HD
ENDBRANCH  15  31
TORSDOF 9
ENDMDL
