MODEL 1
REMARK VINA RESULT: -6.858006468      0.000      0.000
REMARK  8 active torsions:
REMARK  status: ('A' for Active; 'I' for Inactive)
REMARK    1  A    between atoms: N1_2  and  C2_4 
REMARK    2  A    between atoms: C4_10  and  N4_11 
REMARK    3  A    between atoms: N6_21  and  C8_22 
REMARK    4  A    between atoms: C8_22  and  C9_23 
REMARK    5  A    between atoms: C9_23  and  N7_24 
REMARK    6  A    between atoms: N7_24  and  C10_27 
REMARK    7  A    between atoms: C10_27  and  C11_28 
REMARK    8  A    between atoms: C11_28  and  N8_29 
ROOT
HETATM    1  C2  UNL     1      25.557  18.729  63.101  1.00  0.00     0.688 A 
HETATM    2  N2  UNL     1      24.687  17.648  63.209  1.00  0.00    -0.174 N 
ATOM      3  H2  UNL     1      23.945  17.677  63.908  1.00  0.00     0.186 HD
HETATM    4  C3  UNL     1      24.796  16.572  62.424  1.00  0.00     0.158 A 
HETATM    5  N3  UNL     1      23.938  15.520  62.550  1.00  0.00    -0.175 N 
ATOM      6  H3  UNL     1      23.198  15.552  63.251  1.00  0.00     0.186 HD
HETATM    7  C4  UNL     1      24.055  14.451  61.767  1.00  0.00     0.680 A 
HETATM    8  N5  UNL     1      25.021  14.369  60.827  1.00  0.00    -0.155 N 
ATOM      9  H5  UNL     1      25.086  13.536  60.241  1.00  0.00     0.187 HD
HETATM   10  C5  UNL     1      25.911  15.388  60.652  1.00  0.00     0.279 A 
HETATM   11  O1  UNL     1      26.807  15.286  59.764  1.00  0.00    -0.266 OA
HETATM   12  C6  UNL     1      25.782  16.488  61.465  1.00  0.00     0.146 A 
HETATM   13  C7  UNL     1      26.641  17.542  61.348  1.00  0.00     0.281 A 
HETATM   14  O2  UNL     1      27.562  17.483  60.466  1.00  0.00    -0.266 OA
HETATM   15  N6  UNL     1      26.508  18.627  62.162  1.00  0.00    -0.145 N 
ENDROOT
BRANCH  15  16
HETATM   16  C8  UNL     1      27.460  19.694  61.979  1.00  0.00     0.178 C 
BRANCH  16  17
HETATM   17  C9  UNL     1      28.718  19.492  62.776  1.00  0.00     0.253 C 
BRANCH  17  18
HETATM   18  N7  UNL     1      29.803  19.218  61.870  1.00  0.00    -0.072 N 
ATOM     19  H72 UNL     1      29.469  19.122  60.911  1.00  0.00     0.277 HD
ATOM     20  H71 UNL     1      30.401  20.036  61.750  1.00  0.00     0.277 HD
BRANCH  18  21
HETATM   21  C10 UNL     1      30.573  18.058  62.279  1.00  0.00     0.259 C 
BRANCH  21  22
HETATM   22  C11 UNL     1      29.796  17.265  63.344  1.00  0.00     0.257 C 
BRANCH  22  23
HETATM   23  N8  UNL     1      29.442  16.009  62.661  1.00  0.00    -0.078 N 
ATOM     24  H83 UNL     1      28.630  16.079  62.048  1.00  0.00     0.274 HD
ATOM     25  H82 UNL     1      30.101  15.725  61.936  1.00  0.00     0.274 HD
ATOM     26  H81 UNL     1      29.338  15.338  63.422  1.00  0.00     0.274 HD
ENDBRANCH  22  23
ENDBRANCH  21  22
ENDBRANCH  18  21
ENDBRANCH  17  18
ENDBRANCH  16  17
ENDBRANCH  15  16
BRANCH   1  27
HETATM   27  N1  UNL     1      25.350  19.651  63.877  1.00  0.00    -0.211 N 
HETATM   28  C1  UNL     1      24.973  20.249  65.012  1.00  0.00     0.137 C 
ATOM     29  H1  UNL     1      25.644  20.452  63.317  1.00  0.00     0.182 HD
ENDBRANCH   1  27
BRANCH   7  30
HETATM   30  N4  UNL     1      23.211  13.460  61.920  1.00  0.00    -0.234 N 
ATOM     31  H42 UNL     1      22.256  13.651  62.222  1.00  0.00     0.174 HD
ATOM     32  H41 UNL     1      23.530  12.509  61.732  1.00  0.00     0.174 HD
ENDBRANCH   7  30
TORSDOF 8
ENDMDL
MODEL 2
REMARK VINA RESULT: -6.584900754      1.645      2.230
REMARK  8 active torsions:
REMARK  status: ('A' for Active; 'I' for Inactive)
REMARK    1  A    between atoms: N1_2  and  C2_4 
REMARK    2  A    between atoms: C4_10  and  N4_11 
REMARK    3  A    between atoms: N6_21  and  C8_22 
REMARK    4  A    between atoms: C8_22  and  C9_23 
REMARK    5  A    between atoms: C9_23  and  N7_24 
REMARK    6  A    between atoms: N7_24  and  C10_27 
REMARK    7  A    between atoms: C10_27  and  C11_28 
REMARK    8  A    between atoms: C11_28  and  N8_29 
ROOT
HETATM    1  C2  UNL     1      25.647  18.789  63.179  1.00  0.00     0.688 A 
HETATM    2  N2  UNL     1      24.767  17.716  63.272  1.00  0.00    -0.174 N 
ATOM      3  H2  UNL     1      24.027  17.741  63.975  1.00  0.00     0.186 HD
HETATM    4  C3  UNL     1      24.861  16.653  62.470  1.00  0.00     0.158 A 
HETATM    5  N3  UNL     1      23.992  15.607  62.581  1.00  0.00    -0.175 N 
ATOM      6  H3  UNL     1      23.255  15.636  63.286  1.00  0.00     0.186 HD
HETATM    7  C4  UNL     1      24.095  14.551  61.781  1.00  0.00     0.680 A 
HETATM    8  N5  UNL     1      25.057  14.474  60.835  1.00  0.00    -0.155 N 
ATOM      9  H5  UNL     1      25.111  13.651  60.235  1.00  0.00     0.187 HD
HETATM   10  C5  UNL     1      25.957  15.487  60.674  1.00  0.00     0.279 A 
HETATM   11  O1  UNL     1      26.848  15.390  59.781  1.00  0.00    -0.266 OA
HETATM   12  C6  UNL     1      25.843  16.574  61.505  1.00  0.00     0.146 A 
HETATM   13  C7  UNL     1      26.713  17.621  61.402  1.00  0.00     0.281 A 
HETATM   14  O2  UNL     1      27.630  17.567  60.516  1.00  0.00    -0.266 OA
HETATM   15  N6  UNL     1      26.593  18.694  62.236  1.00  0.00    -0.145 N 
ENDROOT
BRANCH  15  16
HETATM   16  C8  UNL     1      27.556  19.754  62.066  1.00  0.00     0.178 C 
BRANCH  16  17
HETATM   17  C9  UNL     1      28.758  19.593  62.955  1.00  0.00     0.253 C 
BRANCH  17  18
HETATM   18  N7  UNL     1      29.176  20.893  63.410  1.00  0.00    -0.072 N 
ATOM     19  H72 UNL     1      29.834  21.319  62.758  1.00  0.00     0.277 HD
ATOM     20  H71 UNL     1      28.418  21.571  63.340  1.00  0.00     0.277 HD
BRANCH  18  21
HETATM   21  C10 UNL     1      29.721  20.848  64.754  1.00  0.00     0.259 C 
BRANCH  21  22
HETATM   22  C11 UNL     1      28.835  21.673  65.705  1.00  0.00     0.257 C 
BRANCH  22  23
HETATM   23  N8  UNL     1      29.703  22.789  66.117  1.00  0.00    -0.078 N 
ATOM     24  H83 UNL     1      29.364  23.309  66.926  1.00  0.00     0.274 HD
ATOM     25  H82 UNL     1      30.588  22.501  66.535  1.00  0.00     0.274 HD
ATOM     26  H81 UNL     1      29.802  23.348  65.269  1.00  0.00     0.274 HD
ENDBRANCH  22  23
ENDBRANCH  21  22
ENDBRANCH  18  21
ENDBRANCH  17  18
ENDBRANCH  16  17
ENDBRANCH  15  16
BRANCH   1  27
HETATM   27  N1  UNL     1      25.453  19.701  63.971  1.00  0.00    -0.211 N 
HETATM   28  C1  UNL     1      25.212  20.281  65.152  1.00  0.00     0.137 C 
ATOM     29  H1  UNL     1      25.507  20.514  63.357  1.00  0.00     0.182 HD
ENDBRANCH   1  27
BRANCH   7  30
HETATM   30  N4  UNL     1      23.242  13.565  61.920  1.00  0.00    -0.234 N 
ATOM     31  H42 UNL     1      23.500  12.748  62.473  1.00  0.00     0.174 HD
ATOM     32  H41 UNL     1      22.329  13.638  61.472  1.00  0.00     0.174 HD
ENDBRANCH   7  30
TORSDOF 8
ENDMDL
MODEL 3
REMARK VINA RESULT: -6.576598265      1.639      2.063
REMARK  8 active torsions:
REMARK  status: ('A' for Active; 'I' for Inactive)
REMARK    1  A    between atoms: N1_2  and  C2_4 
REMARK    2  A    between atoms: C4_10  and  N4_11 
REMARK    3  A    between atoms: N6_21  and  C8_22 
REMARK    4  A    between atoms: C8_22  and  C9_23 
REMARK    5  A    between atoms: C9_23  and  N7_24 
REMARK    6  A    between atoms: N7_24  and  C10_27 
REMARK    7  A    between atoms: C10_27  and  C11_28 
REMARK    8  A    between atoms: C11_28  and  N8_29 
ROOT
HETATM    1  C2  UNL     1      25.630  18.404  63.623  1.00  0.00     0.688 A 
HETATM    2  N2  UNL     1      24.608  17.537  63.249  1.00  0.00    -0.174 N 
ATOM      3  H2  UNL     1      23.639  17.839  63.356  1.00  0.00     0.186 HD
HETATM    4  C3  UNL     1      24.857  16.322  62.754  1.00  0.00     0.158 A 
HETATM    5  N3  UNL     1      23.840  15.485  62.399  1.00  0.00    -0.175 N 
ATOM      6  H3  UNL     1      22.873  15.789  62.509  1.00  0.00     0.186 HD
HETATM    7  C4  UNL     1      24.097  14.275  61.911  1.00  0.00     0.680 A 
HETATM    8  N5  UNL     1      25.363  13.834  61.750  1.00  0.00    -0.155 N 
ATOM      9  H5  UNL     1      25.529  12.900  61.373  1.00  0.00     0.187 HD
HETATM   10  C5  UNL     1      26.424  14.623  62.087  1.00  0.00     0.279 A 
HETATM   11  O1  UNL     1      27.600  14.185  61.927  1.00  0.00    -0.266 OA
HETATM   12  C6  UNL     1      26.149  15.871  62.591  1.00  0.00     0.146 A 
HETATM   13  C7  UNL     1      27.162  16.712  62.954  1.00  0.00     0.281 A 
HETATM   14  O2  UNL     1      28.366  16.313  62.811  1.00  0.00    -0.266 OA
HETATM   15  N6  UNL     1      26.878  17.947  63.456  1.00  0.00    -0.145 N 
ENDROOT
BRANCH  15  16
HETATM   16  C8  UNL     1      28.005  18.770  63.822  1.00  0.00     0.178 C 
BRANCH  16  17
HETATM   17  C9  UNL     1      28.191  19.941  62.898  1.00  0.00     0.253 C 
BRANCH  17  18
HETATM   18  N7  UNL     1      28.578  19.452  61.600  1.00  0.00    -0.072 N 
ATOM     19  H72 UNL     1      29.441  19.892  61.281  1.00  0.00     0.277 HD
ATOM     20  H71 UNL     1      28.900  18.485  61.650  1.00  0.00     0.277 HD
BRANCH  18  21
HETATM   21  C10 UNL     1      27.516  19.604  60.624  1.00  0.00     0.259 C 
BRANCH  21  22
HETATM   22  C11 UNL     1      27.783  18.691  59.414  1.00  0.00     0.257 C 
BRANCH  22  23
HETATM   23  N8  UNL     1      26.733  17.663  59.510  1.00  0.00    -0.078 N 
ATOM     24  H83 UNL     1      25.989  17.882  60.172  1.00  0.00     0.274 HD
ATOM     25  H82 UNL     1      26.133  17.598  58.688  1.00  0.00     0.274 HD
ATOM     26  H81 UNL     1      27.247  16.808  59.724  1.00  0.00     0.274 HD
ENDBRANCH  22  23
ENDBRANCH  21  22
ENDBRANCH  18  21
ENDBRANCH  17  18
ENDBRANCH  16  17
ENDBRANCH  15  16
BRANCH   1  27
HETATM   27  N1  UNL     1      25.269  19.487  64.061  1.00  0.00    -0.211 N 
HETATM   28  C1  UNL     1      24.858  20.376  64.971  1.00  0.00     0.137 C 
ATOM     29  H1  UNL     1      25.301  20.063  63.220  1.00  0.00     0.182 HD
ENDBRANCH   1  27
BRANCH   7  30
HETATM   30  N4  UNL     1      23.092  13.499  61.582  1.00  0.00    -0.234 N 
ATOM     31  H42 UNL     1      22.686  12.876  62.280  1.00  0.00     0.174 HD
ATOM     32  H41 UNL     1      22.734  13.536  60.628  1.00  0.00     0.174 HD
ENDBRANCH   7  30
TORSDOF 8
ENDMDL
MODEL 4
REMARK VINA RESULT: -6.452262325      1.810      2.153
REMARK  8 active torsions:
REMARK  status: ('A' for Active; 'I' for Inactive)
REMARK    1  A    between atoms: N1_2  and  C2_4 
REMARK    2  A    between atoms: C4_10  and  N4_11 
REMARK    3  A    between atoms: N6_21  and  C8_22 
REMARK    4  A    between atoms: C8_22  and  C9_23 
REMARK    5  A    between atoms: C9_23  and  N7_24 
REMARK    6  A    between atoms: N7_24  and  C10_27 
REMARK    7  A    between atoms: C10_27  and  C11_28 
REMARK    8  A    between atoms: C11_28  and  N8_29 
ROOT
HETATM    1  C2  UNL     1      25.253  18.300  64.074  1.00  0.00     0.688 A 
HETATM    2  N2  UNL     1      24.363  17.614  63.254  1.00  0.00    -0.174 N 
ATOM      3  H2  UNL     1      23.424  17.990  63.117  1.00  0.00     0.186 HD
HETATM    4  C3  UNL     1      24.700  16.477  62.640  1.00  0.00     0.158 A 
HETATM    5  N3  UNL     1      23.811  15.815  61.845  1.00  0.00    -0.175 N 
ATOM      6  H3  UNL     1      22.874  16.194  61.712  1.00  0.00     0.186 HD
HETATM    7  C4  UNL     1      24.154  14.682  61.241  1.00  0.00     0.680 A 
HETATM    8  N5  UNL     1      25.386  14.147  61.391  1.00  0.00    -0.155 N 
ATOM      9  H5  UNL     1      25.620  13.276  60.915  1.00  0.00     0.187 HD
HETATM   10  C5  UNL     1      26.320  14.760  62.174  1.00  0.00     0.279 A 
HETATM   11  O1  UNL     1      27.466  14.238  62.299  1.00  0.00    -0.266 OA
HETATM   12  C6  UNL     1      25.957  15.931  62.794  1.00  0.00     0.146 A 
HETATM   13  C7  UNL     1      26.840  16.595  63.596  1.00  0.00     0.281 A 
HETATM   14  O2  UNL     1      28.008  16.105  63.752  1.00  0.00    -0.266 OA
HETATM   15  N6  UNL     1      26.468  17.754  64.210  1.00  0.00    -0.145 N 
ENDROOT
BRANCH  15  16
HETATM   16  C8  UNL     1      27.457  18.388  65.046  1.00  0.00     0.178 C 
BRANCH  16  17
HETATM   17  C9  UNL     1      28.153  19.529  64.356  1.00  0.00     0.253 C 
BRANCH  17  18
HETATM   18  N7  UNL     1      29.196  18.997  63.517  1.00  0.00    -0.072 N 
ATOM     19  H72 UNL     1      30.102  19.035  63.984  1.00  0.00     0.277 HD
ATOM     20  H71 UNL     1      29.109  17.986  63.415  1.00  0.00     0.277 HD
BRANCH  18  21
HETATM   21  C10 UNL     1      29.241  19.656  62.225  1.00  0.00     0.259 C 
BRANCH  21  22
HETATM   22  C11 UNL     1      28.354  18.898  61.221  1.00  0.00     0.257 C 
BRANCH  22  23
HETATM   23  N8  UNL     1      27.325  19.883  60.846  1.00  0.00    -0.078 N 
ATOM     24  H83 UNL     1      27.460  20.300  59.925  1.00  0.00     0.274 HD
ATOM     25  H82 UNL     1      26.409  19.480  60.650  1.00  0.00     0.274 HD
ATOM     26  H81 UNL     1      27.335  20.552  61.615  1.00  0.00     0.274 HD
ENDBRANCH  22  23
ENDBRANCH  21  22
ENDBRANCH  18  21
ENDBRANCH  17  18
ENDBRANCH  16  17
ENDBRANCH  15  16
BRANCH   1  27
HETATM   27  N1  UNL     1      24.821  19.329  64.576  1.00  0.00    -0.211 N 
HETATM   28  C1  UNL     1      24.112  20.089  65.417  1.00  0.00     0.137 C 
ATOM     29  H1  UNL     1      25.282  20.038  64.006  1.00  0.00     0.182 HD
ENDBRANCH   1  27
BRANCH   7  30
HETATM   30  N4  UNL     1      23.271  14.075  60.486  1.00  0.00    -0.234 N 
ATOM     31  H42 UNL     1      22.382  14.531  60.283  1.00  0.00     0.174 HD
ATOM     32  H41 UNL     1      23.493  13.152  60.113  1.00  0.00     0.174 HD
ENDBRANCH   7  30
TORSDOF 8
ENDMDL
MODEL 5
REMARK VINA RESULT: -6.448432893      2.304      5.887
REMARK  8 active torsions:
REMARK  status: ('A' for Active; 'I' for Inactive)
REMARK    1  A    between atoms: N1_2  and  C2_4 
REMARK    2  A    between atoms: C4_10  and  N4_11 
REMARK    3  A    between atoms: N6_21  and  C8_22 
REMARK    4  A    between atoms: C8_22  and  C9_23 
REMARK    5  A    between atoms: C9_23  and  N7_24 
REMARK    6  A    between atoms: N7_24  and  C10_27 
REMARK    7  A    between atoms: C10_27  and  C11_28 
REMARK    8  A    between atoms: C11_28  and  N8_29 
ROOT
HETATM    1  C2  UNL     1      27.252  17.101  60.149  1.00  0.00     0.688 A 
HETATM    2  N2  UNL     1      27.629  18.327  60.689  1.00  0.00    -0.174 N 
ATOM      3  H2  UNL     1      27.364  19.184  60.204  1.00  0.00     0.186 HD
HETATM    4  C3  UNL     1      28.329  18.414  61.823  1.00  0.00     0.158 A 
HETATM    5  N3  UNL     1      28.695  19.625  62.333  1.00  0.00    -0.175 N 
ATOM      6  H3  UNL     1      28.429  20.480  61.845  1.00  0.00     0.186 HD
HETATM    7  C4  UNL     1      29.394  19.703  63.461  1.00  0.00     0.680 A 
HETATM    8  N5  UNL     1      29.765  18.595  64.139  1.00  0.00    -0.155 N 
ATOM      9  H5  UNL     1      30.302  18.687  65.002  1.00  0.00     0.187 HD
HETATM   10  C5  UNL     1      29.431  17.354  63.680  1.00  0.00     0.279 A 
HETATM   11  O1  UNL     1      29.792  16.332  64.333  1.00  0.00    -0.266 OA
HETATM   12  C6  UNL     1      28.709  17.283  62.514  1.00  0.00     0.146 A 
HETATM   13  C7  UNL     1      28.344  16.074  61.996  1.00  0.00     0.281 A 
HETATM   14  O2  UNL     1      28.687  15.015  62.620  1.00  0.00    -0.266 OA
HETATM   15  N6  UNL     1      27.631  16.014  60.836  1.00  0.00    -0.145 N 
ENDROOT
BRANCH  15  16
HETATM   16  C8  UNL     1      27.293  14.699  60.352  1.00  0.00     0.178 C 
BRANCH  16  17
HETATM   17  C9  UNL     1      26.149  14.080  61.106  1.00  0.00     0.253 C 
BRANCH  17  18
HETATM   18  N7  UNL     1      24.924  14.360  60.403  1.00  0.00    -0.072 N 
ATOM     19  H72 UNL     1      25.058  15.086  59.700  1.00  0.00     0.277 HD
ATOM     20  H71 UNL     1      24.665  13.587  59.790  1.00  0.00     0.277 HD
BRANCH  18  21
HETATM   21  C10 UNL     1      23.843  14.698  61.310  1.00  0.00     0.259 C 
BRANCH  21  22
HETATM   22  C11 UNL     1      24.221  15.942  62.133  1.00  0.00     0.257 C 
BRANCH  22  23
HETATM   23  N8  UNL     1      23.776  17.068  61.295  1.00  0.00    -0.078 N 
ATOM     24  H83 UNL     1      23.009  16.843  60.661  1.00  0.00     0.274 HD
ATOM     25  H82 UNL     1      23.284  17.802  61.805  1.00  0.00     0.274 HD
ATOM     26  H81 UNL     1      24.629  17.379  60.830  1.00  0.00     0.274 HD
ENDBRANCH  22  23
ENDBRANCH  21  22
ENDBRANCH  18  21
ENDBRANCH  17  18
ENDBRANCH  16  17
ENDBRANCH  15  16
BRANCH   1  27
HETATM   27  N1  UNL     1      26.614  17.158  59.107  1.00  0.00    -0.211 N 
HETATM   28  C1  UNL     1      26.408  17.248  57.789  1.00  0.00     0.137 C 
ATOM     29  H1  UNL     1      25.657  17.103  59.456  1.00  0.00     0.182 HD
ENDBRANCH   1  27
BRANCH   7  30
HETATM   30  N4  UNL     1      29.727  20.886  63.918  1.00  0.00    -0.234 N 
ATOM     31  H42 UNL     1      30.419  20.963  64.663  1.00  0.00     0.174 HD
ATOM     32  H41 UNL     1      29.286  21.712  63.514  1.00  0.00     0.174 HD
ENDBRANCH   7  30
TORSDOF 8
ENDMDL
