MODEL 1
REMARK VINA RESULT: -6.890528179      0.000      0.000
REMARK  8 active torsions:
REMARK  status: ('A' for Active; 'I' for Inactive)
REMARK    1  A    between atoms: N1_2  and  C2_4 
REMARK    2  A    between atoms: C3_7  and  C4_8 
REMARK    3  A    between atoms: C5_13  and  N5_14 
REMARK    4  A    between atoms: C6_19  and  N7_20 
REMARK    5  A    between atoms: N7_20  and  C7_22 
REMARK    6  A    between atoms: C7_22  and  C8_23 
REMARK    7  A    between atoms: C8_23  and  C9_24 
REMARK    8  A    between atoms: C9_24  and  N8_25 
ROOT
HETATM    1  C2  UNL     1      26.855  16.900  60.542  1.00  0.00     0.148 C 
HETATM    2  N2  UNL     1      26.657  17.945  61.406  1.00  0.00    -0.321 N 
ATOM      3  H2  UNL     1      25.842  18.523  61.199  1.00  0.00     0.169 HD
HETATM    4  C3  UNL     1      27.368  18.335  62.487  1.00  0.00     0.188 C 
HETATM    5  N4  UNL     1      28.465  17.734  63.020  1.00  0.00    -0.172 N 
ATOM      6  H4  UNL     1      28.915  18.251  63.775  1.00  0.00     0.186 HD
HETATM    7  C5  UNL     1      29.049  16.564  62.705  1.00  0.00     0.679 C 
HETATM    8  N6  UNL     1      28.742  15.807  61.625  1.00  0.00    -0.173 N 
ATOM      9  H6  UNL     1      29.457  15.129  61.361  1.00  0.00     0.186 HD
HETATM   10  C6  UNL     1      27.648  15.805  60.845  1.00  0.00     0.165 C 
ENDROOT
BRANCH  10  11
HETATM   11  N7  UNL     1      27.310  14.716  60.344  1.00  0.00    -0.352 N 
ATOM     12  H7  UNL     1      27.723  14.566  59.424  1.00  0.00     0.166 HD
BRANCH  11  13
HETATM   13  C7  UNL     1      26.495  13.648  60.746  1.00  0.00     0.064 C 
BRANCH  13  14
HETATM   14  C8  UNL     1      25.732  13.884  62.029  1.00  0.00     0.064 C 
BRANCH  14  15
HETATM   15  C9  UNL     1      24.344  14.403  61.829  1.00  0.00     0.127 C 
BRANCH  15  16
HETATM   16  N8  UNL     1      24.092  15.385  62.868  1.00  0.00    -0.367 N 
HETATM   17  C10 UNL     1      23.720  16.591  62.527  1.00  0.00     0.196 C 
HETATM   18  N9  UNL     1      23.463  17.584  63.514  1.00  0.00    -0.067 NA
HETATM   19  N10 UNL     1      23.554  16.972  61.165  1.00  0.00    -0.067 NA
ATOM     20  H8  UNL     1      24.203  15.138  63.850  1.00  0.00     0.161 HD
ENDBRANCH  15  16
ENDBRANCH  14  15
ENDBRANCH  13  14
ENDBRANCH  11  13
ENDBRANCH  10  11
BRANCH   1  21
HETATM   21  N1  UNL     1      26.257  16.996  59.431  1.00  0.00    -0.378 N 
HETATM   22  C1  UNL     1      26.750  17.426  58.160  1.00  0.00     0.148 C 
ATOM     23  H1  UNL     1      25.273  16.725  59.444  1.00  0.00     0.160 HD
ENDBRANCH   1  21
BRANCH   7  24
HETATM   24  N5  UNL     1      29.964  16.160  63.513  1.00  0.00    -0.234 N 
ATOM     25  H52 UNL     1      30.103  16.656  64.392  1.00  0.00     0.174 HD
ATOM     26  H51 UNL     1      30.501  15.349  63.205  1.00  0.00     0.174 HD
ENDBRANCH   7  24
BRANCH   4  27
HETATM   27  C4  UNL     1      26.901  19.553  63.165  1.00  0.00     0.299 C 
HETATM   28  N3  UNL     1      27.836  20.289  63.942  1.00  0.00    -0.054 NA
HETATM   29  O1  UNL     1      25.717  19.943  63.072  1.00  0.00    -0.268 OA
ENDBRANCH   4  27
TORSDOF 8
ENDMDL
MODEL 2
REMARK VINA RESULT: -6.883301445      2.518      5.097
REMARK  8 active torsions:
REMARK  status: ('A' for Active; 'I' for Inactive)
REMARK    1  A    between atoms: N1_2  and  C2_4 
REMARK    2  A    between atoms: C3_7  and  C4_8 
REMARK    3  A    between atoms: C5_13  and  N5_14 
REMARK    4  A    between atoms: C6_19  and  N7_20 
REMARK    5  A    between atoms: N7_20  and  C7_22 
REMARK    6  A    between atoms: C7_22  and  C8_23 
REMARK    7  A    between atoms: C8_23  and  C9_24 
REMARK    8  A    between atoms: C9_24  and  N8_25 
ROOT
HETATM    1  C2  UNL     1      27.089  17.785  61.484  1.00  0.00     0.148 C 
HETATM    2  N2  UNL     1      26.904  16.437  61.316  1.00  0.00    -0.321 N 
ATOM      3  H2  UNL     1      27.672  15.955  60.850  1.00  0.00     0.169 HD
HETATM    4  C3  UNL     1      25.867  15.646  61.667  1.00  0.00     0.188 C 
HETATM    5  N4  UNL     1      24.738  16.003  62.334  1.00  0.00    -0.172 N 
ATOM      6  H4  UNL     1      24.030  15.272  62.405  1.00  0.00     0.186 HD
HETATM    7  C5  UNL     1      24.409  17.172  62.915  1.00  0.00     0.679 C 
HETATM    8  N6  UNL     1      25.104  18.326  62.786  1.00  0.00    -0.173 N 
ATOM      9  H6  UNL     1      24.581  19.169  63.023  1.00  0.00     0.186 HD
HETATM   10  C6  UNL     1      26.372  18.542  62.397  1.00  0.00     0.165 C 
ENDROOT
BRANCH  10  11
HETATM   11  N7  UNL     1      26.965  19.514  62.902  1.00  0.00    -0.352 N 
ATOM     12  H7  UNL     1      26.714  20.397  62.457  1.00  0.00     0.166 HD
BRANCH  11  13
HETATM   13  C7  UNL     1      27.894  19.681  63.938  1.00  0.00     0.064 C 
BRANCH  13  14
HETATM   14  C8  UNL     1      27.404  19.249  65.302  1.00  0.00     0.064 C 
BRANCH  14  15
HETATM   15  C9  UNL     1      26.628  20.298  66.033  1.00  0.00     0.127 C 
BRANCH  15  16
HETATM   16  N8  UNL     1      25.335  19.730  66.365  1.00  0.00    -0.367 N 
HETATM   17  C10 UNL     1      24.305  20.003  65.608  1.00  0.00     0.196 C 
HETATM   18  N9  UNL     1      23.019  19.467  65.900  1.00  0.00    -0.067 NA
HETATM   19  N10 UNL     1      24.413  20.843  64.463  1.00  0.00    -0.067 NA
ATOM     20  H8  UNL     1      25.230  19.125  67.179  1.00  0.00     0.161 HD
ENDBRANCH  15  16
ENDBRANCH  14  15
ENDBRANCH  13  14
ENDBRANCH  11  13
ENDBRANCH  10  11
BRANCH   1  21
HETATM   21  N1  UNL     1      27.973  18.306  60.742  1.00  0.00    -0.378 N 
HETATM   22  C1  UNL     1      27.867  18.813  59.410  1.00  0.00     0.148 C 
ATOM     23  H1  UNL     1      28.902  18.374  61.159  1.00  0.00     0.160 HD
ENDBRANCH   1  21
BRANCH   7  24
HETATM   24  N5  UNL     1      23.350  17.156  63.642  1.00  0.00    -0.234 N 
ATOM     25  H52 UNL     1      23.402  17.494  64.602  1.00  0.00     0.174 HD
ATOM     26  H51 UNL     1      22.508  16.796  63.192  1.00  0.00     0.174 HD
ENDBRANCH   7  24
BRANCH   4  27
HETATM   27  C4  UNL     1      25.972  14.230  61.281  1.00  0.00     0.299 C 
HETATM   28  N3  UNL     1      26.539  13.922  60.015  1.00  0.00    -0.054 NA
HETATM   29  O1  UNL     1      25.578  13.313  62.032  1.00  0.00    -0.268 OA
ENDBRANCH   4  27
TORSDOF 8
ENDMDL
MODEL 3
REMARK VINA RESULT: -6.720153149      1.944      4.083
REMARK  8 active torsions:
REMARK  status: ('A' for Active; 'I' for Inactive)
REMARK    1  A    between atoms: N1_2  and  C2_4 
REMARK    2  A    between atoms: C3_7  and  C4_8 
REMARK    3  A    between atoms: C5_13  and  N5_14 
REMARK    4  A    between atoms: C6_19  and  N7_20 
REMARK    5  A    between atoms: N7_20  and  C7_22 
REMARK    6  A    between atoms: C7_22  and  C8_23 
REMARK    7  A    between atoms: C8_23  and  C9_24 
REMARK    8  A    between atoms: C9_24  and  N8_25 
ROOT
HETATM    1  C2  UNL     1      26.971  19.155  62.973  1.00  0.00     0.148 C 
HETATM    2  N2  UNL     1      26.289  19.848  63.939  1.00  0.00    -0.321 N 
ATOM      3  H2  UNL     1      26.707  20.740  64.202  1.00  0.00     0.169 HD
HETATM    4  C3  UNL     1      25.150  19.539  64.597  1.00  0.00     0.188 C 
HETATM    5  N4  UNL     1      24.359  18.448  64.423  1.00  0.00    -0.172 N 
ATOM      6  H4  UNL     1      23.601  18.353  65.098  1.00  0.00     0.186 HD
HETATM    7  C5  UNL     1      24.421  17.474  63.497  1.00  0.00     0.679 C 
HETATM    8  N6  UNL     1      25.441  17.294  62.625  1.00  0.00    -0.173 N 
ATOM      9  H6  UNL     1      25.488  16.363  62.209  1.00  0.00     0.186 HD
HETATM   10  C6  UNL     1      26.402  18.141  62.220  1.00  0.00     0.165 C 
ENDROOT
BRANCH  10  11
HETATM   11  N7  UNL     1      26.824  18.007  61.056  1.00  0.00    -0.352 N 
ATOM     12  H7  UNL     1      26.610  18.814  60.469  1.00  0.00     0.166 HD
BRANCH  11  13
HETATM   13  C7  UNL     1      27.523  17.011  60.362  1.00  0.00     0.064 C 
BRANCH  13  14
HETATM   14  C8  UNL     1      26.659  16.111  59.508  1.00  0.00     0.064 C 
BRANCH  14  15
HETATM   15  C9  UNL     1      26.725  14.665  59.881  1.00  0.00     0.127 C 
BRANCH  15  16
HETATM   16  N8  UNL     1      25.443  14.305  60.459  1.00  0.00    -0.367 N 
HETATM   17  C10 UNL     1      25.358  14.114  61.750  1.00  0.00     0.196 C 
HETATM   18  N9  UNL     1      24.120  13.759  62.357  1.00  0.00    -0.067 NA
HETATM   19  N10 UNL     1      26.486  14.249  62.607  1.00  0.00    -0.067 NA
ATOM     20  H8  UNL     1      24.620  14.203  59.867  1.00  0.00     0.161 HD
ENDBRANCH  15  16
ENDBRANCH  14  15
ENDBRANCH  13  14
ENDBRANCH  11  13
ENDBRANCH  10  11
BRANCH   1  21
HETATM   21  N1  UNL     1      28.177  19.505  62.808  1.00  0.00    -0.378 N 
HETATM   22  C1  UNL     1      29.037  20.262  63.663  1.00  0.00     0.148 C 
ATOM     23  H1  UNL     1      28.599  19.199  61.930  1.00  0.00     0.160 HD
ENDBRANCH   1  21
BRANCH   7  24
HETATM   24  N5  UNL     1      23.418  16.671  63.462  1.00  0.00    -0.234 N 
ATOM     25  H52 UNL     1      22.837  16.566  64.293  1.00  0.00     0.174 HD
ATOM     26  H51 UNL     1      23.272  16.181  62.579  1.00  0.00     0.174 HD
ENDBRANCH   7  24
BRANCH   4  27
HETATM   27  C4  UNL     1      24.717  20.497  65.627  1.00  0.00     0.299 C 
HETATM   28  N3  UNL     1      23.586  20.165  66.419  1.00  0.00    -0.054 NA
HETATM   29  O1  UNL     1      25.316  21.578  65.810  1.00  0.00    -0.268 OA
ENDBRANCH   4  27
TORSDOF 8
ENDMDL
MODEL 4
REMARK VINA RESULT: -6.708421947      2.163      4.270
REMARK  8 active torsions:
REMARK  status: ('A' for Active; 'I' for Inactive)
REMARK    1  A    between atoms: N1_2  and  C2_4 
REMARK    2  A    between atoms: C3_7  and  C4_8 
REMARK    3  A    between atoms: C5_13  and  N5_14 
REMARK    4  A    between atoms: C6_19  and  N7_20 
REMARK    5  A    between atoms: N7_20  and  C7_22 
REMARK    6  A    between atoms: C7_22  and  C8_23 
REMARK    7  A    between atoms: C8_23  and  C9_24 
REMARK    8  A    between atoms: C9_24  and  N8_25 
ROOT
HETATM    1  C2  UNL     1      26.019  18.195  64.734  1.00  0.00     0.148 C 
HETATM    2  N2  UNL     1      27.140  18.911  65.064  1.00  0.00    -0.321 N 
ATOM      3  H2  UNL     1      27.424  18.835  66.041  1.00  0.00     0.169 HD
HETATM    4  C3  UNL     1      27.930  19.700  64.303  1.00  0.00     0.188 C 
HETATM    5  N4  UNL     1      27.821  19.948  62.972  1.00  0.00    -0.172 N 
ATOM      6  H4  UNL     1      28.457  20.660  62.612  1.00  0.00     0.186 HD
HETATM    7  C5  UNL     1      27.003  19.400  62.054  1.00  0.00     0.679 C 
HETATM    8  N6  UNL     1      25.961  18.582  62.331  1.00  0.00    -0.173 N 
ATOM      9  H6  UNL     1      25.271  18.500  61.584  1.00  0.00     0.186 HD
HETATM   10  C6  UNL     1      25.688  17.860  63.431  1.00  0.00     0.165 C 
ENDROOT
BRANCH  10  11
HETATM   11  N7  UNL     1      25.079  16.786  63.269  1.00  0.00    -0.352 N 
ATOM     12  H7  UNL     1      25.359  16.074  63.944  1.00  0.00     0.166 HD
BRANCH  11  13
HETATM   13  C7  UNL     1      24.099  16.324  62.379  1.00  0.00     0.064 C 
BRANCH  13  14
HETATM   14  C8  UNL     1      24.252  14.878  61.967  1.00  0.00     0.064 C 
BRANCH  14  15
HETATM   15  C9  UNL     1      25.533  14.576  61.258  1.00  0.00     0.127 C 
BRANCH  15  16
HETATM   16  N8  UNL     1      25.618  15.464  60.113  1.00  0.00    -0.367 N 
HETATM   17  C10 UNL     1      26.651  16.255  59.995  1.00  0.00     0.196 C 
HETATM   18  N9  UNL     1      26.772  17.141  58.888  1.00  0.00    -0.067 NA
HETATM   19  N10 UNL     1      27.701  16.272  60.957  1.00  0.00    -0.067 NA
ATOM     20  H8  UNL     1      24.880  15.470  59.410  1.00  0.00     0.161 HD
ENDBRANCH  15  16
ENDBRANCH  14  15
ENDBRANCH  13  14
ENDBRANCH  11  13
ENDBRANCH  10  11
BRANCH   1  21
HETATM   21  N1  UNL     1      25.290  17.852  65.711  1.00  0.00    -0.378 N 
HETATM   22  C1  UNL     1      24.218  18.554  66.345  1.00  0.00     0.148 C 
ATOM     23  H1  UNL     1      25.500  16.934  66.105  1.00  0.00     0.160 HD
ENDBRANCH   1  21
BRANCH   7  24
HETATM   24  N5  UNL     1      27.259  19.695  60.830  1.00  0.00    -0.234 N 
ATOM     25  H52 UNL     1      28.184  20.049  60.587  1.00  0.00     0.174 HD
ATOM     26  H51 UNL     1      26.495  19.551  60.169  1.00  0.00     0.174 HD
ENDBRANCH   7  24
BRANCH   4  27
HETATM   27  C4  UNL     1      29.038  20.372  65.000  1.00  0.00     0.299 C 
HETATM   28  N3  UNL     1      28.923  21.765  65.256  1.00  0.00    -0.054 NA
HETATM   29  O1  UNL     1      30.059  19.749  65.363  1.00  0.00    -0.268 OA
ENDBRANCH   4  27
TORSDOF 8
ENDMDL
MODEL 5
REMARK VINA RESULT: -6.686241854      2.538      5.255
REMARK  8 active torsions:
REMARK  status: ('A' for Active; 'I' for Inactive)
REMARK    1  A    between atoms: N1_2  and  C2_4 
REMARK    2  A    between atoms: C3_7  and  C4_8 
REMARK    3  A    between atoms: C5_13  and  N5_14 
REMARK    4  A    between atoms: C6_19  and  N7_20 
REMARK    5  A    between atoms: N7_20  and  C7_22 
REMARK    6  A    between atoms: C7_22  and  C8_23 
REMARK    7  A    between atoms: C8_23  and  C9_24 
REMARK    8  A    between atoms: C9_24  and  N8_25 
ROOT
HETATM    1  C2  UNL     1      26.546  17.119  61.640  1.00  0.00     0.148 C 
HETATM    2  N2  UNL     1      26.076  15.837  61.750  1.00  0.00    -0.321 N 
ATOM      3  H2  UNL     1      26.669  15.126  61.321  1.00  0.00     0.169 HD
HETATM    4  C3  UNL     1      24.954  15.363  62.335  1.00  0.00     0.188 C 
HETATM    5  N4  UNL     1      24.011  16.066  63.015  1.00  0.00    -0.172 N 
ATOM      6  H4  UNL     1      23.186  15.531  63.286  1.00  0.00     0.186 HD
HETATM    7  C5  UNL     1      23.997  17.359  63.386  1.00  0.00     0.679 C 
HETATM    8  N6  UNL     1      24.887  18.295  62.979  1.00  0.00    -0.173 N 
ATOM      9  H6  UNL     1      24.576  19.260  63.094  1.00  0.00     0.186 HD
HETATM   10  C6  UNL     1      26.114  18.158  62.448  1.00  0.00     0.165 C 
ENDROOT
BRANCH  10  11
HETATM   11  N7  UNL     1      26.947  19.049  62.705  1.00  0.00    -0.352 N 
ATOM     12  H7  UNL     1      26.884  19.837  62.061  1.00  0.00     0.166 HD
BRANCH  11  13
HETATM   13  C7  UNL     1      27.949  19.222  63.669  1.00  0.00     0.064 C 
BRANCH  13  14
HETATM   14  C8  UNL     1      27.484  19.064  65.098  1.00  0.00     0.064 C 
BRANCH  14  15
HETATM   15  C9  UNL     1      27.026  20.335  65.737  1.00  0.00     0.127 C 
BRANCH  15  16
HETATM   16  N8  UNL     1      25.784  20.051  66.433  1.00  0.00    -0.367 N 
HETATM   17  C10 UNL     1      24.648  20.265  65.824  1.00  0.00     0.196 C 
HETATM   18  N9  UNL     1      23.409  19.999  66.471  1.00  0.00    -0.067 NA
HETATM   19  N10 UNL     1      24.591  20.770  64.493  1.00  0.00    -0.067 NA
ATOM     20  H8  UNL     1      25.798  19.688  67.386  1.00  0.00     0.161 HD
ENDBRANCH  15  16
ENDBRANCH  14  15
ENDBRANCH  13  14
ENDBRANCH  11  13
ENDBRANCH  10  11
BRANCH   1  21
HETATM   21  N1  UNL     1      27.416  17.301  60.738  1.00  0.00    -0.378 N 
HETATM   22  C1  UNL     1      27.248  17.557  59.341  1.00  0.00     0.148 C 
ATOM     23  H1  UNL     1      28.384  17.258  61.057  1.00  0.00     0.160 HD
ENDBRANCH   1  21
BRANCH   7  24
HETATM   24  N5  UNL     1      23.055  17.700  64.191  1.00  0.00    -0.234 N 
ATOM     25  H52 UNL     1      22.915  17.164  65.047  1.00  0.00     0.174 HD
ATOM     26  H51 UNL     1      22.498  18.506  63.907  1.00  0.00     0.174 HD
ENDBRANCH   7  24
BRANCH   4  27
HETATM   27  C4  UNL     1      24.726  13.914  62.219  1.00  0.00     0.299 C 
HETATM   28  N3  UNL     1      23.410  13.423  62.432  1.00  0.00    -0.054 NA
HETATM   29  O1  UNL     1      25.654  13.123  61.943  1.00  0.00    -0.268 OA
ENDBRANCH   4  27
TORSDOF 8
ENDMDL
