MODEL 1
REMARK VINA RESULT: -7.464062397      0.000      0.000
REMARK  8 active torsions:
REMARK  status: ('A' for Active; 'I' for Inactive)
REMARK    1  A    between atoms: N1_1  and  C1_4 
REMARK    2  A    between atoms: C2_7  and  S1_8 
REMARK    3  A    between atoms: S1_8  and  N3_9 
REMARK    4  A    between atoms: C3_16  and  N5_17 
REMARK    5  A    between atoms: N5_17  and  C4_19 
REMARK    6  A    between atoms: C4_19  and  C5_20 
REMARK    7  A    between atoms: C5_20  and  C6_21 
REMARK    8  A    between atoms: C6_21  and  N6_22 
ROOT
HETATM    1  C1  UNL     1      24.039  15.056  62.015  1.00  0.00     0.692 A 
HETATM    2  N2  UNL     1      24.005  15.946  63.021  1.00  0.00    -0.164 N 
ATOM      3  H2  UNL     1      23.560  15.690  63.902  1.00  0.00     0.186 HD
HETATM    4  C2  UNL     1      24.548  17.168  62.886  1.00  0.00     0.252 A 
HETATM    5  N4  UNL     1      25.135  17.501  61.720  1.00  0.00    -0.163 N 
ATOM      6  H4  UNL     1      25.547  18.428  61.616  1.00  0.00     0.186 HD
HETATM    7  C3  UNL     1      25.191  16.630  60.678  1.00  0.00     0.694 A 
HETATM    8  N9  UNL     1      24.642  15.424  60.845  1.00  0.00    -0.023 N 
ATOM      9  H9  UNL     1      24.673  14.757  60.075  1.00  0.00     0.203 HD
ENDROOT
BRANCH   7  10
HETATM   10  N5  UNL     1      25.747  16.941  59.570  1.00  0.00    -0.225 N 
ATOM     11  H5  UNL     1      25.126  17.054  58.768  1.00  0.00     0.177 HD
BRANCH  10  12
HETATM   12  C4  UNL     1      27.144  17.148  59.328  1.00  0.00     0.139 C 
BRANCH  12  13
HETATM   13  C5  UNL     1      27.607  18.495  59.853  1.00  0.00     0.040 C 
BRANCH  13  14
HETATM   14  C6  UNL     1      28.451  18.336  61.094  1.00  0.00     0.123 C 
BRANCH  14  15
HETATM   15  N6  UNL     1      28.715  19.574  61.753  1.00  0.00    -0.367 N 
HETATM   16  C7  UNL     1      28.580  19.779  63.013  1.00  0.00     0.196 C 
HETATM   17  N7  UNL     1      28.859  21.032  63.610  1.00  0.00    -0.067 NA
HETATM   18  N8  UNL     1      28.136  18.708  63.828  1.00  0.00    -0.067 NA
ATOM     19  H6  UNL     1      29.035  20.355  61.180  1.00  0.00     0.161 HD
ENDBRANCH  14  15
ENDBRANCH  13  14
ENDBRANCH  12  13
ENDBRANCH  10  12
ENDBRANCH   7  10
BRANCH   4  20
HETATM   20  S1  UNL     1      24.471  18.284  64.234  1.00  0.00     0.289 S 
HETATM   21  O1  UNL     1      23.005  18.424  64.600  1.00  0.00    -0.198 OA
HETATM   22  O2  UNL     1      24.928  19.639  63.793  1.00  0.00    -0.198 OA
BRANCH  20  23
HETATM   23  N3  UNL     1      25.396  17.737  65.577  1.00  0.00    -0.322 N 
ATOM     24  H32 UNL     1      26.408  17.851  65.640  1.00  0.00     0.169 HD
ATOM     25  H31 UNL     1      24.814  17.294  66.287  1.00  0.00     0.169 HD
ENDBRANCH  20  23
ENDBRANCH   4  20
BRANCH   1  26
HETATM   26  N1  UNL     1      23.516  13.884  62.151  1.00  0.00    -0.234 N 
ATOM     27  H12 UNL     1      23.648  13.347  63.008  1.00  0.00     0.174 HD
ATOM     28  H11 UNL     1      22.959  13.470  61.403  1.00  0.00     0.174 HD
ENDBRANCH   1  26
TORSDOF 8
ENDMDL
MODEL 2
REMARK VINA RESULT: -7.212082053      2.022      4.894
REMARK  8 active torsions:
REMARK  status: ('A' for Active; 'I' for Inactive)
REMARK    1  A    between atoms: N1_1  and  C1_4 
REMARK    2  A    between atoms: C2_7  and  S1_8 
REMARK    3  A    between atoms: S1_8  and  N3_9 
REMARK    4  A    between atoms: C3_16  and  N5_17 
REMARK    5  A    between atoms: N5_17  and  C4_19 
REMARK    6  A    between atoms: C4_19  and  C5_20 
REMARK    7  A    between atoms: C5_20  and  C6_21 
REMARK    8  A    between atoms: C6_21  and  N6_22 
ROOT
HETATM    1  C1  UNL     1      27.536  18.353  58.807  1.00  0.00     0.692 A 
HETATM    2  N2  UNL     1      27.784  18.984  59.967  1.00  0.00    -0.164 N 
ATOM      3  H2  UNL     1      28.266  19.883  59.955  1.00  0.00     0.186 HD
HETATM    4  C2  UNL     1      27.409  18.451  61.143  1.00  0.00     0.252 A 
HETATM    5  N4  UNL     1      26.773  17.263  61.151  1.00  0.00    -0.163 N 
ATOM      6  H4  UNL     1      26.488  16.857  62.043  1.00  0.00     0.186 HD
HETATM    7  C3  UNL     1      26.503  16.593  60.001  1.00  0.00     0.694 A 
HETATM    8  N9  UNL     1      26.889  17.150  58.851  1.00  0.00    -0.023 N 
ATOM      9  H9  UNL     1      26.696  16.662  57.976  1.00  0.00     0.203 HD
ENDROOT
BRANCH   7  10
HETATM   10  N5  UNL     1      25.899  15.466  60.004  1.00  0.00    -0.225 N 
ATOM     11  H5  UNL     1      24.982  15.442  59.559  1.00  0.00     0.177 HD
BRANCH  10  12
HETATM   12  C4  UNL     1      26.368  14.232  60.564  1.00  0.00     0.139 C 
BRANCH  12  13
HETATM   13  C5  UNL     1      25.697  13.933  61.892  1.00  0.00     0.040 C 
BRANCH  13  14
HETATM   14  C6  UNL     1      24.279  14.448  61.915  1.00  0.00     0.123 C 
BRANCH  14  15
HETATM   15  N6  UNL     1      24.068  15.463  62.896  1.00  0.00    -0.367 N 
HETATM   16  C7  UNL     1      23.720  16.671  62.638  1.00  0.00     0.196 C 
HETATM   17  N7  UNL     1      23.525  17.635  63.658  1.00  0.00    -0.067 NA
HETATM   18  N8  UNL     1      23.525  17.045  61.286  1.00  0.00    -0.067 NA
ATOM     19  H6  UNL     1      24.205  15.210  63.874  1.00  0.00     0.161 HD
ENDBRANCH  14  15
ENDBRANCH  13  14
ENDBRANCH  12  13
ENDBRANCH  10  12
ENDBRANCH   7  10
BRANCH   4  20
HETATM   20  S1  UNL     1      27.762  19.322  62.620  1.00  0.00     0.289 S 
HETATM   21  O1  UNL     1      28.201  18.288  63.641  1.00  0.00    -0.198 OA
HETATM   22  O2  UNL     1      26.507  19.936  63.155  1.00  0.00    -0.198 OA
BRANCH  20  23
HETATM   23  N3  UNL     1      28.974  20.519  62.389  1.00  0.00    -0.322 N 
ATOM     24  H32 UNL     1      28.970  21.173  61.606  1.00  0.00     0.169 HD
ATOM     25  H31 UNL     1      29.683  20.492  63.122  1.00  0.00     0.169 HD
ENDBRANCH  20  23
ENDBRANCH   4  20
BRANCH   1  26
HETATM   26  N1  UNL     1      27.899  18.870  57.682  1.00  0.00    -0.234 N 
ATOM     27  H12 UNL     1      28.885  18.937  57.429  1.00  0.00     0.174 HD
ATOM     28  H11 UNL     1      27.206  19.224  57.021  1.00  0.00     0.174 HD
ENDBRANCH   1  26
TORSDOF 8
ENDMDL
MODEL 3
REMARK VINA RESULT: -7.182189510      2.699      4.224
REMARK  8 active torsions:
REMARK  status: ('A' for Active; 'I' for Inactive)
REMARK    1  A    between atoms: N1_1  and  C1_4 
REMARK    2  A    between atoms: C2_7  and  S1_8 
REMARK    3  A    between atoms: S1_8  and  N3_9 
REMARK    4  A    between atoms: C3_16  and  N5_17 
REMARK    5  A    between atoms: N5_17  and  C4_19 
REMARK    6  A    between atoms: C4_19  and  C5_20 
REMARK    7  A    between atoms: C5_20  and  C6_21 
REMARK    8  A    between atoms: C6_21  and  N6_22 
ROOT
HETATM    1  C1  UNL     1      26.740  17.250  58.874  1.00  0.00     0.692 A 
HETATM    2  N2  UNL     1      26.277  16.294  59.696  1.00  0.00    -0.164 N 
ATOM      3  H2  UNL     1      25.693  15.548  59.319  1.00  0.00     0.186 HD
HETATM    4  C2  UNL     1      26.571  16.304  61.008  1.00  0.00     0.252 A 
HETATM    5  N4  UNL     1      27.344  17.291  61.500  1.00  0.00    -0.163 N 
ATOM      6  H4  UNL     1      27.568  17.300  62.496  1.00  0.00     0.186 HD
HETATM    7  C3  UNL     1      27.833  18.276  60.703  1.00  0.00     0.694 A 
HETATM    8  N9  UNL     1      27.522  18.237  59.404  1.00  0.00    -0.023 N 
ATOM      9  H9  UNL     1      27.878  18.968  58.789  1.00  0.00     0.203 HD
ENDROOT
BRANCH   7  10
HETATM   10  N5  UNL     1      28.567  19.215  61.165  1.00  0.00    -0.225 N 
ATOM     11  H5  UNL     1      28.550  20.097  60.652  1.00  0.00     0.177 HD
BRANCH  10  12
HETATM   12  C4  UNL     1      29.410  19.168  62.323  1.00  0.00     0.139 C 
BRANCH  12  13
HETATM   13  C5  UNL     1      28.881  20.058  63.433  1.00  0.00     0.040 C 
BRANCH  13  14
HETATM   14  C6  UNL     1      27.923  19.307  64.325  1.00  0.00     0.123 C 
BRANCH  14  15
HETATM   15  N6  UNL     1      26.751  20.057  64.644  1.00  0.00    -0.367 N 
HETATM   16  C7  UNL     1      25.566  19.774  64.239  1.00  0.00     0.196 C 
HETATM   17  N7  UNL     1      24.441  20.559  64.591  1.00  0.00    -0.067 NA
HETATM   18  N8  UNL     1      25.387  18.638  63.413  1.00  0.00    -0.067 NA
ATOM     19  H6  UNL     1      26.864  20.878  65.238  1.00  0.00     0.161 HD
ENDBRANCH  14  15
ENDBRANCH  13  14
ENDBRANCH  12  13
ENDBRANCH  10  12
ENDBRANCH   7  10
BRANCH   4  20
HETATM   20  S1  UNL     1      25.937  15.030  62.029  1.00  0.00     0.289 S 
HETATM   21  O1  UNL     1      26.989  14.755  63.087  1.00  0.00    -0.198 OA
HETATM   22  O2  UNL     1      25.800  13.769  61.235  1.00  0.00    -0.198 OA
BRANCH  20  23
HETATM   23  N3  UNL     1      24.436  15.464  62.745  1.00  0.00    -0.322 N 
ATOM     24  H32 UNL     1      24.243  16.395  63.115  1.00  0.00     0.169 HD
ATOM     25  H31 UNL     1      23.776  14.686  62.752  1.00  0.00     0.169 HD
ENDBRANCH  20  23
ENDBRANCH   4  20
BRANCH   1  26
HETATM   26  N1  UNL     1      26.455  17.234  57.616  1.00  0.00    -0.234 N 
ATOM     27  H12 UNL     1      26.101  16.388  57.168  1.00  0.00     0.174 HD
ATOM     28  H11 UNL     1      26.576  18.069  57.042  1.00  0.00     0.174 HD
ENDBRANCH   1  26
TORSDOF 8
ENDMDL
MODEL 4
REMARK VINA RESULT: -7.158303823      1.551      4.437
REMARK  8 active torsions:
REMARK  status: ('A' for Active; 'I' for Inactive)
REMARK    1  A    between atoms: N1_1  and  C1_4 
REMARK    2  A    between atoms: C2_7  and  S1_8 
REMARK    3  A    between atoms: S1_8  and  N3_9 
REMARK    4  A    between atoms: C3_16  and  N5_17 
REMARK    5  A    between atoms: N5_17  and  C4_19 
REMARK    6  A    between atoms: C4_19  and  C5_20 
REMARK    7  A    between atoms: C5_20  and  C6_21 
REMARK    8  A    between atoms: C6_21  and  N6_22 
ROOT
HETATM    1  C1  UNL     1      28.667  19.813  63.562  1.00  0.00     0.692 A 
HETATM    2  N2  UNL     1      27.548  19.703  64.297  1.00  0.00    -0.164 N 
ATOM      3  H2  UNL     1      27.611  19.741  65.314  1.00  0.00     0.186 HD
HETATM    4  C2  UNL     1      26.347  19.543  63.715  1.00  0.00     0.252 A 
HETATM    5  N4  UNL     1      26.270  19.493  62.371  1.00  0.00    -0.163 N 
ATOM      6  H4  UNL     1      25.359  19.372  61.928  1.00  0.00     0.186 HD
HETATM    7  C3  UNL     1      27.377  19.601  61.591  1.00  0.00     0.694 A 
HETATM    8  N9  UNL     1      28.554  19.758  62.201  1.00  0.00    -0.023 N 
ATOM      9  H9  UNL     1      29.397  19.841  61.633  1.00  0.00     0.203 HD
ENDROOT
BRANCH   7  10
HETATM   10  N5  UNL     1      27.309  19.555  60.316  1.00  0.00    -0.225 N 
ATOM     11  H5  UNL     1      26.676  20.221  59.871  1.00  0.00     0.177 HD
BRANCH  10  12
HETATM   12  C4  UNL     1      28.022  18.672  59.440  1.00  0.00     0.139 C 
BRANCH  12  13
HETATM   13  C5  UNL     1      27.082  17.721  58.722  1.00  0.00     0.040 C 
BRANCH  13  14
HETATM   14  C6  UNL     1      26.640  16.601  59.632  1.00  0.00     0.123 C 
BRANCH  14  15
HETATM   15  N6  UNL     1      25.292  16.744  60.081  1.00  0.00    -0.367 N 
HETATM   16  C7  UNL     1      24.906  16.607  61.297  1.00  0.00     0.196 C 
HETATM   17  N7  UNL     1      23.551  16.762  61.682  1.00  0.00    -0.067 NA
HETATM   18  N8  UNL     1      25.873  16.291  62.282  1.00  0.00    -0.067 NA
ATOM     19  H6  UNL     1      24.584  16.971  59.383  1.00  0.00     0.161 HD
ENDBRANCH  14  15
ENDBRANCH  13  14
ENDBRANCH  12  13
ENDBRANCH  10  12
ENDBRANCH   7  10
BRANCH   4  20
HETATM   20  S1  UNL     1      24.925  19.406  64.729  1.00  0.00     0.289 S 
HETATM   21  O1  UNL     1      24.091  20.648  64.479  1.00  0.00    -0.198 OA
HETATM   22  O2  UNL     1      25.327  19.450  66.169  1.00  0.00    -0.198 OA
BRANCH  20  23
HETATM   23  N3  UNL     1      24.028  17.978  64.391  1.00  0.00    -0.322 N 
ATOM     24  H32 UNL     1      24.449  17.050  64.357  1.00  0.00     0.169 HD
ATOM     25  H31 UNL     1      23.040  18.176  64.234  1.00  0.00     0.169 HD
ENDBRANCH  20  23
ENDBRANCH   4  20
BRANCH   1  26
HETATM   26  N1  UNL     1      29.817  19.966  64.126  1.00  0.00    -0.234 N 
ATOM     27  H12 UNL     1      30.077  19.416  64.945  1.00  0.00     0.174 HD
ATOM     28  H11 UNL     1      30.491  20.641  63.765  1.00  0.00     0.174 HD
ENDBRANCH   1  26
TORSDOF 8
ENDMDL
MODEL 5
REMARK VINA RESULT: -7.103157578      2.037      4.108
REMARK  8 active torsions:
REMARK  status: ('A' for Active; 'I' for Inactive)
REMARK    1  A    between atoms: N1_1  and  C1_4 
REMARK    2  A    between atoms: C2_7  and  S1_8 
REMARK    3  A    between atoms: S1_8  and  N3_9 
REMARK    4  A    between atoms: C3_16  and  N5_17 
REMARK    5  A    between atoms: N5_17  and  C4_19 
REMARK    6  A    between atoms: C4_19  and  C5_20 
REMARK    7  A    between atoms: C5_20  and  C6_21 
REMARK    8  A    between atoms: C6_21  and  N6_22 
ROOT
HETATM    1  C1  UNL     1      26.005  18.794  62.438  1.00  0.00     0.692 A 
HETATM    2  N2  UNL     1      25.722  19.462  63.568  1.00  0.00    -0.164 N 
ATOM      3  H2  UNL     1      26.201  20.341  63.764  1.00  0.00     0.186 HD
HETATM    4  C2  UNL     1      24.818  18.993  64.446  1.00  0.00     0.252 A 
HETATM    5  N4  UNL     1      24.189  17.832  64.182  1.00  0.00    -0.163 N 
ATOM      6  H4  UNL     1      23.503  17.474  64.848  1.00  0.00     0.186 HD
HETATM    7  C3  UNL     1      24.445  17.125  63.051  1.00  0.00     0.694 A 
HETATM    8  N9  UNL     1      25.348  17.619  62.200  1.00  0.00    -0.023 N 
ATOM      9  H9  UNL     1      25.555  17.103  61.345  1.00  0.00     0.203 HD
ENDROOT
BRANCH   7  10
HETATM   10  N5  UNL     1      23.850  16.023  62.796  1.00  0.00    -0.225 N 
ATOM     11  H5  UNL     1      23.143  15.724  63.469  1.00  0.00     0.177 HD
BRANCH  10  12
HETATM   12  C4  UNL     1      24.065  15.160  61.671  1.00  0.00     0.139 C 
BRANCH  12  13
HETATM   13  C5  UNL     1      25.059  14.060  61.995  1.00  0.00     0.040 C 
BRANCH  13  14
HETATM   14  C6  UNL     1      26.147  13.984  60.952  1.00  0.00     0.123 C 
BRANCH  14  15
HETATM   15  N6  UNL     1      26.113  15.070  60.027  1.00  0.00    -0.367 N 
HETATM   16  C7  UNL     1      26.919  16.069  60.037  1.00  0.00     0.196 C 
HETATM   17  N7  UNL     1      26.835  17.118  59.090  1.00  0.00    -0.067 NA
HETATM   18  N8  UNL     1      27.926  16.114  61.033  1.00  0.00    -0.067 NA
ATOM     19  H6  UNL     1      25.393  15.052  59.305  1.00  0.00     0.161 HD
ENDBRANCH  14  15
ENDBRANCH  13  14
ENDBRANCH  12  13
ENDBRANCH  10  12
ENDBRANCH   7  10
BRANCH   4  20
HETATM   20  S1  UNL     1      24.494  19.911  65.902  1.00  0.00     0.289 S 
HETATM   21  O1  UNL     1      22.986  19.959  66.059  1.00  0.00    -0.198 OA
HETATM   22  O2  UNL     1      24.943  21.326  65.715  1.00  0.00    -0.198 OA
BRANCH  20  23
HETATM   23  N3  UNL     1      25.241  19.213  67.285  1.00  0.00    -0.322 N 
ATOM     24  H32 UNL     1      26.215  18.911  67.299  1.00  0.00     0.169 HD
ATOM     25  H31 UNL     1      24.597  19.142  68.072  1.00  0.00     0.169 HD
ENDBRANCH  20  23
ENDBRANCH   4  20
BRANCH   1  26
HETATM   26  N1  UNL     1      26.873  19.250  61.599  1.00  0.00    -0.234 N 
ATOM     27  H12 UNL     1      26.904  20.242  61.364  1.00  0.00     0.174 HD
ATOM     28  H11 UNL     1      27.547  18.627  61.154  1.00  0.00     0.174 HD
ENDBRANCH   1  26
TORSDOF 8
ENDMDL
