MODEL 1
REMARK VINA RESULT: -7.552418086      0.000      0.000
REMARK  5 active torsions:
REMARK  status: ('A' for Active; 'I' for Inactive)
REMARK    1  A    between atoms: C2_3  and  N2_4 
REMARK    2  A    between atoms: N5_12  and  C5_14 
REMARK    3  A    between atoms: C5_14  and  C6_15 
REMARK    4  A    between atoms: C6_15  and  C7_16 
REMARK    5  A    between atoms: C7_16  and  N6_17 
REMARK       I    between atoms: N6_17  and  C8_19 
REMARK       I    between atoms: N9_25  and  C10_27 
ROOT
HETATM    1  N1  UNL     1      24.524  20.933  64.621  1.00  0.00    -0.196 NA
HETATM    2  C1  UNL     1      24.713  19.929  65.174  1.00  0.00     0.079 C 
HETATM    3  C2  UNL     1      24.977  18.655  65.866  1.00  0.00     0.259 C 
ENDROOT
BRANCH   3   4
HETATM    4  N2  UNL     1      26.072  18.020  65.185  1.00  0.00    -0.268 N 
HETATM    5  C3  UNL     1      27.320  18.190  65.592  1.00  0.00     0.343 A 
HETATM    6  O1  UNL     1      27.558  18.922  66.598  1.00  0.00    -0.245 OA
HETATM    7  N3  UNL     1      28.375  17.621  64.991  1.00  0.00    -0.249 N 
HETATM    8  N4  UNL     1      28.114  16.850  63.930  1.00  0.00    -0.279 N 
ATOM      9  H3  UNL     1      29.327  17.769  65.326  1.00  0.00     0.192 HD
HETATM   10  C4  UNL     1      26.871  16.642  63.472  1.00  0.00     0.161 A 
ATOM     11  H4  UNL     1      28.893  16.401  63.448  1.00  0.00     0.189 HD
HETATM   12  N5  UNL     1      26.671  15.875  62.465  1.00  0.00    -0.372 N 
HETATM   13  C9  UNL     1      25.768  17.239  64.104  1.00  0.00     0.161 A 
ATOM     14  H5  UNL     1      25.707  15.750  62.153  1.00  0.00     0.161 HD
HETATM   15  N9  UNL     1      24.584  17.096  63.751  1.00  0.00    -0.314 N 
HETATM   16  C10 UNL     1      23.975  16.400  62.738  1.00  0.00     0.187 C 
ATOM     17  H9  UNL     1      23.926  17.605  64.340  1.00  0.00     0.170 HD
HETATM   18  N10 UNL     1      23.751  15.104  62.773  1.00  0.00    -0.373 N 
HETATM   19  N11 UNL     1      23.492  17.072  61.531  1.00  0.00    -0.064 NA
ATOM     20 2H10 UNL     1      24.088  14.636  63.614  1.00  0.00     0.158 HD
ATOM     21 1H10 UNL     1      23.297  14.586  62.019  1.00  0.00     0.158 HD
BRANCH  12  22
HETATM   22  C5  UNL     1      27.677  15.192  61.754  1.00  0.00     0.123 C 
BRANCH  22  23
HETATM   23  C6  UNL     1      27.604  15.396  60.234  1.00  0.00     0.039 C 
BRANCH  23  24
HETATM   24  C7  UNL     1      26.794  16.618  59.887  1.00  0.00     0.123 C 
BRANCH  24  25
HETATM   25  N6  UNL     1      27.651  17.758  59.633  1.00  0.00    -0.365 N 
HETATM   26  C8  UNL     1      28.014  18.664  60.651  1.00  0.00     0.181 C 
HETATM   27  N7  UNL     1      27.242  19.640  60.938  1.00  0.00    -0.374 N 
HETATM   28  N8  UNL     1      29.227  18.526  61.379  1.00  0.00    -0.064 NA
ATOM     29  H72 UNL     1      26.372  19.739  60.417  1.00  0.00     0.158 HD
ATOM     30  H71 UNL     1      27.505  20.295  61.674  1.00  0.00     0.158 HD
ATOM     31  H6  UNL     1      28.002  17.911  58.688  1.00  0.00     0.162 HD
ENDBRANCH  24  25
ENDBRANCH  23  24
ENDBRANCH  22  23
ENDBRANCH  12  22
ENDBRANCH   3   4
TORSDOF 5
ENDMDL
MODEL 2
REMARK VINA RESULT: -7.458992339      2.273      4.309
REMARK  5 active torsions:
REMARK  status: ('A' for Active; 'I' for Inactive)
REMARK    1  A    between atoms: C2_3  and  N2_4 
REMARK    2  A    between atoms: N5_12  and  C5_14 
REMARK    3  A    between atoms: C5_14  and  C6_15 
REMARK    4  A    between atoms: C6_15  and  C7_16 
REMARK    5  A    between atoms: C7_16  and  N6_17 
REMARK       I    between atoms: N6_17  and  C8_19 
REMARK       I    between atoms: N9_25  and  C10_27 
ROOT
HETATM    1  N1  UNL     1      30.420  18.581  65.022  1.00  0.00    -0.196 NA
HETATM    2  C1  UNL     1      29.756  19.233  64.325  1.00  0.00     0.079 C 
HETATM    3  C2  UNL     1      28.899  20.039  63.440  1.00  0.00     0.259 C 
ENDROOT
BRANCH   3   4
HETATM    4  N2  UNL     1      28.097  19.124  62.674  1.00  0.00    -0.268 N 
HETATM    5  C3  UNL     1      28.604  18.473  61.640  1.00  0.00     0.343 A 
HETATM    6  O1  UNL     1      29.815  18.655  61.315  1.00  0.00    -0.245 OA
HETATM    7  N3  UNL     1      27.899  17.610  60.894  1.00  0.00    -0.249 N 
HETATM    8  N4  UNL     1      26.621  17.424  61.245  1.00  0.00    -0.279 N 
ATOM      9  H3  UNL     1      28.315  17.121  60.101  1.00  0.00     0.192 HD
HETATM   10  C4  UNL     1      26.054  18.054  62.282  1.00  0.00     0.161 A 
ATOM     11  H4  UNL     1      26.055  16.774  60.700  1.00  0.00     0.189 HD
HETATM   12  N5  UNL     1      24.832  17.824  62.592  1.00  0.00    -0.372 N 
HETATM   13  C9  UNL     1      26.795  18.957  63.061  1.00  0.00     0.161 A 
ATOM     14  H5  UNL     1      24.445  18.330  63.389  1.00  0.00     0.161 HD
HETATM   15  N9  UNL     1      26.352  19.581  64.042  1.00  0.00    -0.314 N 
HETATM   16  C10 UNL     1      25.128  19.629  64.659  1.00  0.00     0.187 C 
ATOM     17  H9  UNL     1      27.047  20.184  64.482  1.00  0.00     0.170 HD
HETATM   18  N10 UNL     1      24.691  18.710  65.492  1.00  0.00    -0.373 N 
HETATM   19  N11 UNL     1      24.211  20.751  64.451  1.00  0.00    -0.064 NA
ATOM     20 2H10 UNL     1      25.330  17.928  65.637  1.00  0.00     0.158 HD
ATOM     21 1H10 UNL     1      23.780  18.747  65.951  1.00  0.00     0.158 HD
BRANCH  12  22
HETATM   22  C5  UNL     1      23.981  16.926  61.918  1.00  0.00     0.123 C 
BRANCH  22  23
HETATM   23  C6  UNL     1      24.104  15.476  62.409  1.00  0.00     0.039 C 
BRANCH  23  24
HETATM   24  C7  UNL     1      24.294  14.525  61.255  1.00  0.00     0.123 C 
BRANCH  24  25
HETATM   25  N6  UNL     1      25.442  13.668  61.468  1.00  0.00    -0.365 N 
HETATM   26  C8  UNL     1      26.763  14.118  61.261  1.00  0.00     0.181 C 
HETATM   27  N7  UNL     1      27.273  14.071  60.092  1.00  0.00    -0.374 N 
HETATM   28  N8  UNL     1      27.555  14.629  62.323  1.00  0.00    -0.064 NA
ATOM     29  H72 UNL     1      26.704  13.705  59.328  1.00  0.00     0.158 HD
ATOM     30  H71 UNL     1      28.228  14.397  59.942  1.00  0.00     0.158 HD
ATOM     31  H6  UNL     1      25.290  12.708  61.777  1.00  0.00     0.162 HD
ENDBRANCH  24  25
ENDBRANCH  23  24
ENDBRANCH  22  23
ENDBRANCH  12  22
ENDBRANCH   3   4
TORSDOF 5
ENDMDL
MODEL 3
REMARK VINA RESULT: -7.418054325      2.061      4.391
REMARK  5 active torsions:
REMARK  status: ('A' for Active; 'I' for Inactive)
REMARK    1  A    between atoms: C2_3  and  N2_4 
REMARK    2  A    between atoms: N5_12  and  C5_14 
REMARK    3  A    between atoms: C5_14  and  C6_15 
REMARK    4  A    between atoms: C6_15  and  C7_16 
REMARK    5  A    between atoms: C7_16  and  N6_17 
REMARK       I    between atoms: N6_17  and  C8_19 
REMARK       I    between atoms: N9_25  and  C10_27 
ROOT
HETATM    1  N1  UNL     1      26.825  18.667  67.129  1.00  0.00    -0.196 NA
HETATM    2  C1  UNL     1      27.246  19.160  66.164  1.00  0.00     0.079 C 
HETATM    3  C2  UNL     1      27.760  19.774  64.928  1.00  0.00     0.259 C 
ENDROOT
BRANCH   3   4
HETATM    4  N2  UNL     1      27.208  19.036  63.825  1.00  0.00    -0.268 N 
HETATM    5  C3  UNL     1      25.994  19.299  63.367  1.00  0.00     0.343 A 
HETATM    6  O1  UNL     1      25.305  20.215  63.906  1.00  0.00    -0.245 OA
HETATM    7  N3  UNL     1      25.433  18.640  62.343  1.00  0.00    -0.249 N 
HETATM    8  N4  UNL     1      26.170  17.675  61.780  1.00  0.00    -0.279 N 
ATOM      9  H3  UNL     1      24.496  18.863  62.010  1.00  0.00     0.192 HD
HETATM   10  C4  UNL     1      27.404  17.365  62.201  1.00  0.00     0.161 A 
ATOM     11  H4  UNL     1      25.775  17.153  60.998  1.00  0.00     0.189 HD
HETATM   12  N5  UNL     1      28.078  16.446  61.613  1.00  0.00    -0.372 N 
HETATM   13  C9  UNL     1      27.988  18.057  63.274  1.00  0.00     0.161 A 
ATOM     14  H5  UNL     1      29.012  16.246  61.971  1.00  0.00     0.161 HD
HETATM   15  N9  UNL     1      29.127  17.839  63.725  1.00  0.00    -0.314 N 
HETATM   16  C10 UNL     1      30.120  16.952  63.399  1.00  0.00     0.187 C 
ATOM     17  H9  UNL     1      29.374  18.451  64.502  1.00  0.00     0.170 HD
HETATM   18  N10 UNL     1      30.939  17.111  62.382  1.00  0.00    -0.373 N 
HETATM   19  N11 UNL     1      30.366  15.752  64.199  1.00  0.00    -0.064 NA
ATOM     20 2H10 UNL     1      30.767  17.948  61.824  1.00  0.00     0.158 HD
ATOM     21 1H10 UNL     1      31.678  16.451  62.140  1.00  0.00     0.158 HD
BRANCH  12  22
HETATM   22  C5  UNL     1      27.630  15.693  60.511  1.00  0.00     0.123 C 
BRANCH  22  23
HETATM   23  C6  UNL     1      27.599  14.180  60.772  1.00  0.00     0.039 C 
BRANCH  23  24
HETATM   24  C7  UNL     1      26.550  13.824  61.794  1.00  0.00     0.123 C 
BRANCH  24  25
HETATM   25  N6  UNL     1      25.222  13.866  61.217  1.00  0.00    -0.365 N 
HETATM   26  C8  UNL     1      24.177  14.617  61.794  1.00  0.00     0.181 C 
HETATM   27  N7  UNL     1      23.471  14.109  62.728  1.00  0.00    -0.374 N 
HETATM   28  N8  UNL     1      23.879  15.938  61.365  1.00  0.00    -0.064 NA
ATOM     29  H72 UNL     1      23.684  13.160  63.036  1.00  0.00     0.158 HD
ATOM     30  H71 UNL     1      22.715  14.652  63.145  1.00  0.00     0.158 HD
ATOM     31  H6  UNL     1      25.037  13.334  60.367  1.00  0.00     0.162 HD
ENDBRANCH  24  25
ENDBRANCH  23  24
ENDBRANCH  22  23
ENDBRANCH  12  22
ENDBRANCH   3   4
TORSDOF 5
ENDMDL
MODEL 4
REMARK VINA RESULT: -7.362857696      2.227      4.255
REMARK  5 active torsions:
REMARK  status: ('A' for Active; 'I' for Inactive)
REMARK    1  A    between atoms: C2_3  and  N2_4 
REMARK    2  A    between atoms: N5_12  and  C5_14 
REMARK    3  A    between atoms: C5_14  and  C6_15 
REMARK    4  A    between atoms: C6_15  and  C7_16 
REMARK    5  A    between atoms: C7_16  and  N6_17 
REMARK       I    between atoms: N6_17  and  C8_19 
REMARK       I    between atoms: N9_25  and  C10_27 
ROOT
HETATM    1  N1  UNL     1      28.992  21.710  65.089  1.00  0.00    -0.196 NA
HETATM    2  C1  UNL     1      28.213  20.890  65.359  1.00  0.00     0.079 C 
HETATM    3  C2  UNL     1      27.233  19.838  65.679  1.00  0.00     0.259 C 
ENDROOT
BRANCH   3   4
HETATM    4  N2  UNL     1      26.978  19.111  64.466  1.00  0.00    -0.268 N 
HETATM    5  C3  UNL     1      25.915  19.374  63.723  1.00  0.00     0.343 A 
HETATM    6  O1  UNL     1      25.107  20.281  64.082  1.00  0.00    -0.245 OA
HETATM    7  N3  UNL     1      25.632  18.725  62.584  1.00  0.00    -0.249 N 
HETATM    8  N4  UNL     1      26.492  17.768  62.214  1.00  0.00    -0.279 N 
ATOM      9  H3  UNL     1      24.805  18.948  62.030  1.00  0.00     0.192 HD
HETATM   10  C4  UNL     1      27.584  17.459  62.925  1.00  0.00     0.161 A 
ATOM     11  H4  UNL     1      26.308  17.254  61.352  1.00  0.00     0.189 HD
HETATM   12  N5  UNL     1      28.389  16.549  62.515  1.00  0.00    -0.372 N 
HETATM   13  C9  UNL     1      27.877  18.141  64.117  1.00  0.00     0.161 A 
ATOM     14  H5  UNL     1      29.205  16.348  63.093  1.00  0.00     0.161 HD
HETATM   15  N9  UNL     1      28.869  17.923  64.835  1.00  0.00    -0.314 N 
HETATM   16  C10 UNL     1      29.918  17.043  64.759  1.00  0.00     0.187 C 
ATOM     17  H9  UNL     1      28.911  18.527  65.656  1.00  0.00     0.170 HD
HETATM   18  N10 UNL     1      30.963  17.216  63.980  1.00  0.00    -0.373 N 
HETATM   19  N11 UNL     1      29.965  15.835  65.583  1.00  0.00    -0.064 NA
ATOM     20 2H10 UNL     1      30.931  18.059  63.404  1.00  0.00     0.158 HD
ATOM     21 1H10 UNL     1      31.744  16.562  63.923  1.00  0.00     0.158 HD
BRANCH  12  22
HETATM   22  C5  UNL     1      28.234  15.806  61.329  1.00  0.00     0.123 C 
BRANCH  22  23
HETATM   23  C6  UNL     1      27.616  14.418  61.548  1.00  0.00     0.039 C 
BRANCH  23  24
HETATM   24  C7  UNL     1      26.695  14.046  60.415  1.00  0.00     0.123 C 
BRANCH  24  25
HETATM   25  N6  UNL     1      25.639  15.024  60.257  1.00  0.00    -0.365 N 
HETATM   26  C8  UNL     1      24.448  14.972  61.011  1.00  0.00     0.181 C 
HETATM   27  N7  UNL     1      23.477  14.245  60.614  1.00  0.00    -0.374 N 
HETATM   28  N8  UNL     1      24.291  15.709  62.215  1.00  0.00    -0.064 NA
ATOM     29  H72 UNL     1      23.589  13.715  59.750  1.00  0.00     0.158 HD
ATOM     30  H71 UNL     1      22.616  14.207  61.159  1.00  0.00     0.158 HD
ATOM     31  H6  UNL     1      25.761  15.776  59.578  1.00  0.00     0.162 HD
ENDBRANCH  24  25
ENDBRANCH  23  24
ENDBRANCH  22  23
ENDBRANCH  12  22
ENDBRANCH   3   4
TORSDOF 5
ENDMDL
MODEL 5
REMARK VINA RESULT: -7.355663105      1.536      3.097
REMARK  5 active torsions:
REMARK  status: ('A' for Active; 'I' for Inactive)
REMARK    1  A    between atoms: C2_3  and  N2_4 
REMARK    2  A    between atoms: N5_12  and  C5_14 
REMARK    3  A    between atoms: C5_14  and  C6_15 
REMARK    4  A    between atoms: C6_15  and  C7_16 
REMARK    5  A    between atoms: C7_16  and  N6_17 
REMARK       I    between atoms: N6_17  and  C8_19 
REMARK       I    between atoms: N9_25  and  C10_27 
ROOT
HETATM    1  N1  UNL     1      24.573  21.083  64.566  1.00  0.00    -0.196 NA
HETATM    2  C1  UNL     1      24.667  20.030  65.050  1.00  0.00     0.079 C 
HETATM    3  C2  UNL     1      24.795  18.687  65.641  1.00  0.00     0.259 C 
ENDROOT
BRANCH   3   4
HETATM    4  N2  UNL     1      24.819  17.745  64.555  1.00  0.00    -0.268 N 
HETATM    5  C3  UNL     1      23.734  17.504  63.836  1.00  0.00     0.343 A 
HETATM    6  O1  UNL     1      22.656  18.111  64.104  1.00  0.00    -0.245 OA
HETATM    7  N3  UNL     1      23.704  16.636  62.814  1.00  0.00    -0.249 N 
HETATM    8  N4  UNL     1      24.849  16.000  62.539  1.00  0.00    -0.279 N 
ATOM      9  H3  UNL     1      22.854  16.469  62.276  1.00  0.00     0.192 HD
HETATM   10  C4  UNL     1      25.978  16.203  63.232  1.00  0.00     0.161 A 
ATOM     11  H4  UNL     1      24.863  15.331  61.768  1.00  0.00     0.189 HD
HETATM   12  N5  UNL     1      27.055  15.585  62.913  1.00  0.00    -0.372 N 
HETATM   13  C9  UNL     1      26.005  17.113  64.301  1.00  0.00     0.161 A 
ATOM     14  H5  UNL     1      27.887  15.773  63.472  1.00  0.00     0.161 HD
HETATM   15  N9  UNL     1      27.008  17.367  64.992  1.00  0.00    -0.314 N 
HETATM   16  C10 UNL     1      28.301  16.912  64.988  1.00  0.00     0.187 C 
ATOM     17  H9  UNL     1      26.829  18.061  65.718  1.00  0.00     0.170 HD
HETATM   18  N10 UNL     1      29.219  17.325  64.141  1.00  0.00    -0.373 N 
HETATM   19  N11 UNL     1      28.771  15.934  65.969  1.00  0.00    -0.064 NA
ATOM     20 2H10 UNL     1      28.891  18.006  63.456  1.00  0.00     0.158 HD
ATOM     21 1H10 UNL     1      30.182  16.986  64.137  1.00  0.00     0.158 HD
BRANCH  12  22
HETATM   22  C5  UNL     1      27.178  14.668  61.851  1.00  0.00     0.123 C 
BRANCH  22  23
HETATM   23  C6  UNL     1      27.807  15.272  60.587  1.00  0.00     0.039 C 
BRANCH  23  24
HETATM   24  C7  UNL     1      26.829  16.163  59.865  1.00  0.00     0.123 C 
BRANCH  24  25
HETATM   25  N6  UNL     1      27.378  17.488  59.665  1.00  0.00    -0.365 N 
HETATM   26  C8  UNL     1      27.724  18.328  60.745  1.00  0.00     0.181 C 
HETATM   27  N7  UNL     1      26.833  19.064  61.287  1.00  0.00    -0.374 N 
HETATM   28  N8  UNL     1      29.048  18.382  61.257  1.00  0.00    -0.064 NA
ATOM     29  H72 UNL     1      25.882  19.025  60.920  1.00  0.00     0.158 HD
ATOM     30  H71 UNL     1      27.083  19.670  62.068  1.00  0.00     0.158 HD
ATOM     31  H6  UNL     1      27.519  17.826  58.713  1.00  0.00     0.162 HD
ENDBRANCH  24  25
ENDBRANCH  23  24
ENDBRANCH  22  23
ENDBRANCH  12  22
ENDBRANCH   3   4
TORSDOF 5
ENDMDL
