MODEL 1
REMARK VINA RESULT: -7.423485132      0.000      0.000
REMARK  6 active torsions:
REMARK  status: ('A' for Active; 'I' for Inactive)
REMARK    1  A    between atoms: C5_14  and  N4_15 
REMARK    2  A    between atoms: C6_17  and  C7_18 
REMARK    3  A    between atoms: C7_18  and  O4_19 
REMARK    4  A    between atoms: O4_19  and  C8_20 
REMARK    5  A    between atoms: C8_20  and  C9_21 
REMARK    6  A    between atoms: C9_21  and  O5_22 
ROOT
HETATM    1  O1  UNL     1      23.152  13.491  62.881  1.00  0.00    -0.247 OA
HETATM    2  C1  UNL     1      23.969  14.280  62.339  1.00  0.00     0.327 A 
HETATM    3  N1  UNL     1      24.676  13.832  61.304  1.00  0.00    -0.275 N 
ATOM      4  H1  UNL     1      24.556  12.878  60.965  1.00  0.00     0.173 HD
HETATM    5  C2  UNL     1      25.550  14.662  60.716  1.00  0.00     0.267 A 
HETATM    6  O2  UNL     1      26.260  14.311  59.727  1.00  0.00    -0.267 OA
HETATM    7  C3  UNL     1      25.706  15.951  61.181  1.00  0.00     0.132 A 
HETATM    8  C4  UNL     1      26.608  16.802  60.571  1.00  0.00     0.278 A 
HETATM    9  O3  UNL     1      27.280  16.394  59.596  1.00  0.00    -0.266 OA
HETATM   10  N2  UNL     1      26.720  18.044  61.064  1.00  0.00    -0.264 N 
ATOM     11  H2  UNL     1      27.383  18.683  60.625  1.00  0.00     0.190 HD
HETATM   12  N3  UNL     1      26.025  18.469  62.072  1.00  0.00    -0.281 N 
ATOM     13  H3  UNL     1      26.165  19.429  62.390  1.00  0.00     0.188 HD
HETATM   14  C5  UNL     1      25.112  17.690  62.731  1.00  0.00     0.148 A 
HETATM   15  C10 UNL     1      24.956  16.407  62.270  1.00  0.00     0.103 A 
HETATM   16  N5  UNL     1      24.102  15.541  62.816  1.00  0.00    -0.304 N 
ATOM     17  H5  UNL     1      23.536  15.834  63.612  1.00  0.00     0.171 HD
ENDROOT
BRANCH  14  18
HETATM   18  N4  UNL     1      24.513  18.176  63.659  1.00  0.00    -0.351 N 
HETATM   19  C6  UNL     1      24.273  18.351  64.986  1.00  0.00     0.088 C 
ATOM     20  H4  UNL     1      23.818  18.772  63.210  1.00  0.00     0.166 HD
BRANCH  19  21
HETATM   21  C7  UNL     1      23.151  19.354  65.317  1.00  0.00     0.212 C 
BRANCH  21  22
HETATM   22  O4  UNL     1      22.924  19.229  66.656  1.00  0.00    -0.384 OA
BRANCH  22  23
HETATM   23  C8  UNL     1      23.682  18.324  67.345  1.00  0.00     0.194 C 
BRANCH  23  24
HETATM   24  C9  UNL     1      22.819  17.564  68.320  1.00  0.00     0.190 C 
BRANCH  24  25
HETATM   25  O5  UNL     1      22.247  16.433  67.727  1.00  0.00    -0.399 OA
ATOM     26  H5  UNL     1      21.360  16.604  67.433  1.00  0.00     0.209 HD
ENDBRANCH  24  25
ENDBRANCH  23  24
ENDBRANCH  22  23
ENDBRANCH  21  22
ENDBRANCH  19  21
ENDBRANCH  14  18
TORSDOF 6
ENDMDL
MODEL 2
REMARK VINA RESULT: -7.363187741      1.617      2.107
REMARK  6 active torsions:
REMARK  status: ('A' for Active; 'I' for Inactive)
REMARK    1  A    between atoms: C5_14  and  N4_15 
REMARK    2  A    between atoms: C6_17  and  C7_18 
REMARK    3  A    between atoms: C7_18  and  O4_19 
REMARK    4  A    between atoms: O4_19  and  C8_20 
REMARK    5  A    between atoms: C8_20  and  C9_21 
REMARK    6  A    between atoms: C9_21  and  O5_22 
ROOT
HETATM    1  O1  UNL     1      23.193  13.535  62.881  1.00  0.00    -0.247 OA
HETATM    2  C1  UNL     1      24.009  14.320  62.333  1.00  0.00     0.327 A 
HETATM    3  N1  UNL     1      24.726  13.863  61.309  1.00  0.00    -0.275 N 
ATOM      4  H1  UNL     1      24.613  12.904  60.982  1.00  0.00     0.173 HD
HETATM    5  C2  UNL     1      25.598  14.690  60.716  1.00  0.00     0.267 A 
HETATM    6  O2  UNL     1      26.316  14.329  59.736  1.00  0.00    -0.267 OA
HETATM    7  C3  UNL     1      25.744  15.986  61.164  1.00  0.00     0.132 A 
HETATM    8  C4  UNL     1      26.645  16.833  60.548  1.00  0.00     0.278 A 
HETATM    9  O3  UNL     1      27.326  16.416  59.584  1.00  0.00    -0.266 OA
HETATM   10  N2  UNL     1      26.747  18.083  61.026  1.00  0.00    -0.264 N 
ATOM     11  H2  UNL     1      27.409  18.720  60.582  1.00  0.00     0.190 HD
HETATM   12  N3  UNL     1      26.043  18.518  62.024  1.00  0.00    -0.281 N 
ATOM     13  H3  UNL     1      26.176  19.482  62.330  1.00  0.00     0.188 HD
HETATM   14  C5  UNL     1      25.130  17.741  62.687  1.00  0.00     0.148 A 
HETATM   15  C10 UNL     1      24.984  16.452  62.243  1.00  0.00     0.103 A 
HETATM   16  N5  UNL     1      24.132  15.588  62.795  1.00  0.00    -0.304 N 
ATOM     17  H5  UNL     1      23.559  15.889  63.583  1.00  0.00     0.171 HD
ENDROOT
BRANCH  14  18
HETATM   18  N4  UNL     1      24.523  18.237  63.605  1.00  0.00    -0.351 N 
HETATM   19  C6  UNL     1      23.870  18.178  64.796  1.00  0.00     0.088 C 
ATOM     20  H4  UNL     1      24.474  19.224  63.355  1.00  0.00     0.166 HD
BRANCH  19  21
HETATM   21  C7  UNL     1      23.368  19.533  65.330  1.00  0.00     0.212 C 
BRANCH  21  22
HETATM   22  O4  UNL     1      24.384  20.417  65.116  1.00  0.00    -0.384 OA
BRANCH  22  23
HETATM   23  C8  UNL     1      25.198  20.713  66.173  1.00  0.00     0.194 C 
BRANCH  23  24
HETATM   24  C9  UNL     1      26.609  20.275  65.876  1.00  0.00     0.190 C 
BRANCH  24  25
HETATM   25  O5  UNL     1      26.836  20.169  64.499  1.00  0.00    -0.399 OA
ATOM     26  H5  UNL     1      27.063  19.280  64.250  1.00  0.00     0.209 HD
ENDBRANCH  24  25
ENDBRANCH  23  24
ENDBRANCH  22  23
ENDBRANCH  21  22
ENDBRANCH  19  21
ENDBRANCH  14  18
TORSDOF 6
ENDMDL
MODEL 3
REMARK VINA RESULT: -7.042790362      1.376      3.103
REMARK  6 active torsions:
REMARK  status: ('A' for Active; 'I' for Inactive)
REMARK    1  A    between atoms: C5_14  and  N4_15 
REMARK    2  A    between atoms: C6_17  and  C7_18 
REMARK    3  A    between atoms: C7_18  and  O4_19 
REMARK    4  A    between atoms: O4_19  and  C8_20 
REMARK    5  A    between atoms: C8_20  and  C9_21 
REMARK    6  A    between atoms: C9_21  and  O5_22 
ROOT
HETATM    1  O1  UNL     1      28.392  18.683  60.469  1.00  0.00    -0.247 OA
HETATM    2  C1  UNL     1      27.482  17.877  60.790  1.00  0.00     0.327 A 
HETATM    3  N1  UNL     1      27.377  16.745  60.097  1.00  0.00    -0.275 N 
ATOM      4  H1  UNL     1      28.017  16.543  59.330  1.00  0.00     0.173 HD
HETATM    5  C2  UNL     1      26.411  15.876  60.429  1.00  0.00     0.267 A 
HETATM    6  O2  UNL     1      26.246  14.778  59.818  1.00  0.00    -0.267 OA
HETATM    7  C3  UNL     1      25.549  16.158  61.468  1.00  0.00     0.132 A 
HETATM    8  C4  UNL     1      24.555  15.258  61.805  1.00  0.00     0.278 A 
HETATM    9  O3  UNL     1      24.445  14.190  61.162  1.00  0.00    -0.266 OA
HETATM   10  N2  UNL     1      23.744  15.583  62.823  1.00  0.00    -0.264 N 
ATOM     11  H2  UNL     1      23.005  14.929  63.083  1.00  0.00     0.190 HD
HETATM   12  N3  UNL     1      23.857  16.688  63.491  1.00  0.00    -0.281 N 
ATOM     13  H3  UNL     1      23.203  16.864  64.254  1.00  0.00     0.188 HD
HETATM   14  C5  UNL     1      24.813  17.630  63.220  1.00  0.00     0.148 A 
HETATM   15  C10 UNL     1      25.671  17.352  62.187  1.00  0.00     0.103 A 
HETATM   16  N5  UNL     1      26.649  18.179  61.815  1.00  0.00    -0.304 N 
ATOM     17  H5  UNL     1      26.772  19.060  62.314  1.00  0.00     0.171 HD
ENDROOT
BRANCH  14  18
HETATM   18  N4  UNL     1      24.837  18.628  63.899  1.00  0.00    -0.351 N 
HETATM   19  C6  UNL     1      25.475  19.569  64.645  1.00  0.00     0.088 C 
ATOM     20  H4  UNL     1      23.861  18.920  63.928  1.00  0.00     0.166 HD
BRANCH  19  21
HETATM   21  C7  UNL     1      24.568  20.690  65.189  1.00  0.00     0.212 C 
BRANCH  21  22
HETATM   22  O4  UNL     1      23.580  20.064  65.890  1.00  0.00    -0.384 OA
BRANCH  22  23
HETATM   23  C8  UNL     1      23.804  19.817  67.215  1.00  0.00     0.194 C 
BRANCH  23  24
HETATM   24  C9  UNL     1      23.546  18.364  67.521  1.00  0.00     0.190 C 
BRANCH  24  25
HETATM   25  O5  UNL     1      23.177  17.654  66.372  1.00  0.00    -0.399 OA
ATOM     26  H5  UNL     1      23.246  16.716  66.505  1.00  0.00     0.209 HD
ENDBRANCH  24  25
ENDBRANCH  23  24
ENDBRANCH  22  23
ENDBRANCH  21  22
ENDBRANCH  19  21
ENDBRANCH  14  18
TORSDOF 6
ENDMDL
MODEL 4
REMARK VINA RESULT: -6.983955095      3.061      6.066
REMARK  6 active torsions:
REMARK  status: ('A' for Active; 'I' for Inactive)
REMARK    1  A    between atoms: C5_14  and  N4_15 
REMARK    2  A    between atoms: C6_17  and  C7_18 
REMARK    3  A    between atoms: C7_18  and  O4_19 
REMARK    4  A    between atoms: O4_19  and  C8_20 
REMARK    5  A    between atoms: C8_20  and  C9_21 
REMARK    6  A    between atoms: C9_21  and  O5_22 
ROOT
HETATM    1  O1  UNL     1      27.883  18.384  59.485  1.00  0.00    -0.247 OA
HETATM    2  C1  UNL     1      27.678  18.614  60.704  1.00  0.00     0.327 A 
HETATM    3  N1  UNL     1      28.312  19.643  61.262  1.00  0.00    -0.275 N 
ATOM      4  H1  UNL     1      28.945  20.224  60.712  1.00  0.00     0.173 HD
HETATM    5  C2  UNL     1      28.101  19.900  62.561  1.00  0.00     0.267 A 
HETATM    6  O2  UNL     1      28.667  20.860  63.163  1.00  0.00    -0.267 OA
HETATM    7  C3  UNL     1      27.243  19.109  63.296  1.00  0.00     0.132 A 
HETATM    8  C4  UNL     1      27.030  19.379  64.634  1.00  0.00     0.278 A 
HETATM    9  O3  UNL     1      27.620  20.343  65.172  1.00  0.00    -0.266 OA
HETATM   10  N2  UNL     1      26.187  18.578  65.302  1.00  0.00    -0.264 N 
ATOM     11  H2  UNL     1      26.020  18.763  66.291  1.00  0.00     0.190 HD
HETATM   12  N3  UNL     1      25.574  17.578  64.748  1.00  0.00    -0.281 N 
ATOM     13  H3  UNL     1      24.946  17.014  65.321  1.00  0.00     0.188 HD
HETATM   14  C5  UNL     1      25.731  17.245  63.429  1.00  0.00     0.148 A 
HETATM   15  C10 UNL     1      26.584  18.030  62.696  1.00  0.00     0.103 A 
HETATM   16  N5  UNL     1      26.830  17.820  61.403  1.00  0.00    -0.304 N 
ATOM     17  H5  UNL     1      26.369  17.044  60.927  1.00  0.00     0.171 HD
ENDROOT
BRANCH  14  18
HETATM   18  N4  UNL     1      25.117  16.296  63.005  1.00  0.00    -0.351 N 
HETATM   19  C6  UNL     1      23.996  15.697  62.523  1.00  0.00     0.088 C 
ATOM     20  H4  UNL     1      25.805  15.544  63.013  1.00  0.00     0.166 HD
BRANCH  19  21
HETATM   21  C7  UNL     1      24.164  14.214  62.140  1.00  0.00     0.212 C 
BRANCH  21  22
HETATM   22  O4  UNL     1      24.949  14.205  61.024  1.00  0.00    -0.384 OA
BRANCH  22  23
HETATM   23  C8  UNL     1      26.248  13.804  61.168  1.00  0.00     0.194 C 
BRANCH  23  24
HETATM   24  C9  UNL     1      27.101  14.424  60.091  1.00  0.00     0.190 C 
BRANCH  24  25
HETATM   25  O5  UNL     1      26.479  15.541  59.521  1.00  0.00    -0.399 OA
ATOM     26  H5  UNL     1      26.341  16.228  60.162  1.00  0.00     0.209 HD
ENDBRANCH  24  25
ENDBRANCH  23  24
ENDBRANCH  22  23
ENDBRANCH  21  22
ENDBRANCH  19  21
ENDBRANCH  14  18
TORSDOF 6
ENDMDL
MODEL 5
REMARK VINA RESULT: -6.973322880      2.034      3.731
REMARK  6 active torsions:
REMARK  status: ('A' for Active; 'I' for Inactive)
REMARK    1  A    between atoms: C5_14  and  N4_15 
REMARK    2  A    between atoms: C6_17  and  C7_18 
REMARK    3  A    between atoms: C7_18  and  O4_19 
REMARK    4  A    between atoms: O4_19  and  C8_20 
REMARK    5  A    between atoms: C8_20  and  C9_21 
REMARK    6  A    between atoms: C9_21  and  O5_22 
ROOT
HETATM    1  O1  UNL     1      27.898  19.178  60.840  1.00  0.00    -0.247 OA
HETATM    2  C1  UNL     1      27.184  18.153  60.986  1.00  0.00     0.327 A 
HETATM    3  N1  UNL     1      27.435  17.101  60.210  1.00  0.00    -0.275 N 
ATOM      4  H1  UNL     1      28.184  17.131  59.519  1.00  0.00     0.173 HD
HETATM    5  C2  UNL     1      26.682  16.001  60.355  1.00  0.00     0.267 A 
HETATM    6  O2  UNL     1      26.858  14.960  59.655  1.00  0.00    -0.267 OA
HETATM    7  C3  UNL     1      25.671  15.969  61.292  1.00  0.00     0.132 A 
HETATM    8  C4  UNL     1      24.898  14.833  61.438  1.00  0.00     0.278 A 
HETATM    9  O3  UNL     1      25.123  13.836  60.714  1.00  0.00    -0.266 OA
HETATM   10  N2  UNL     1      23.928  14.856  62.363  1.00  0.00    -0.264 N 
ATOM     11  H2  UNL     1      23.348  14.025  62.482  1.00  0.00     0.190 HD
HETATM   12  N3  UNL     1      23.693  15.887  63.114  1.00  0.00    -0.281 N 
ATOM     13  H3  UNL     1      22.937  15.829  63.798  1.00  0.00     0.188 HD
HETATM   14  C5  UNL     1      24.412  17.049  63.033  1.00  0.00     0.148 A 
HETATM   15  C10 UNL     1      25.418  17.083  62.101  1.00  0.00     0.103 A 
HETATM   16  N5  UNL     1      26.197  18.149  61.914  1.00  0.00    -0.304 N 
ATOM     17  H5  UNL     1      26.046  18.982  62.484  1.00  0.00     0.171 HD
ENDROOT
BRANCH  14  18
HETATM   18  N4  UNL     1      24.117  17.954  63.775  1.00  0.00    -0.351 N 
HETATM   19  C6  UNL     1      23.953  18.504  65.008  1.00  0.00     0.088 C 
ATOM     20  H4  UNL     1      23.849  18.706  63.140  1.00  0.00     0.166 HD
BRANCH  19  21
HETATM   21  C7  UNL     1      23.500  19.977  65.008  1.00  0.00     0.212 C 
BRANCH  21  22
HETATM   22  O4  UNL     1      24.609  20.707  64.696  1.00  0.00    -0.384 OA
BRANCH  22  23
HETATM   23  C8  UNL     1      25.717  20.540  65.480  1.00  0.00     0.194 C 
BRANCH  23  24
HETATM   24  C9  UNL     1      25.695  21.527  66.619  1.00  0.00     0.190 C 
BRANCH  24  25
HETATM   25  O5  UNL     1      25.386  22.818  66.176  1.00  0.00    -0.399 OA
ATOM     26  H5  UNL     1      25.540  23.466  66.854  1.00  0.00     0.209 HD
ENDBRANCH  24  25
ENDBRANCH  23  24
ENDBRANCH  22  23
ENDBRANCH  21  22
ENDBRANCH  19  21
ENDBRANCH  14  18
TORSDOF 6
ENDMDL
