MODEL 1
REMARK VINA RESULT: -6.969759901      0.000      0.000
REMARK  6 active torsions:
REMARK  status: ('A' for Active; 'I' for Inactive)
REMARK    1  A    between atoms: N1_1  and  C1_5 
REMARK    2  A    between atoms: C1_5  and  C2_6 
REMARK    3  A    between atoms: C2_6  and  C3_7 
REMARK    4  A    between atoms: C3_7  and  C4_8 
REMARK    5  A    between atoms: C6_13  and  C7_14 
REMARK    6  A    between atoms: C10_24  and  N5_25 
ROOT
HETATM    1  C4  UNL     1      26.533  17.646  63.602  1.00  0.00     0.158 C 
HETATM    2  N2  UNL     1      25.116  17.336  63.675  1.00  0.00    -0.347 N 
ATOM      3  H2  UNL     1      24.637  17.476  64.564  1.00  0.00     0.163 HD
HETATM    4  C5  UNL     1      24.365  16.854  62.587  1.00  0.00     0.247 C 
HETATM    5  O1  UNL     1      23.170  17.222  62.446  1.00  0.00    -0.271 OA
HETATM    6  C6  UNL     1      24.895  15.908  61.553  1.00  0.00     0.238 C 
HETATM    7  N3  UNL     1      25.190  16.598  60.315  1.00  0.00    -0.341 N 
ATOM      8  H3  UNL     1      24.438  17.115  59.858  1.00  0.00     0.163 HD
HETATM    9  C8  UNL     1      26.477  16.591  59.704  1.00  0.00     0.244 C 
HETATM   10  O3  UNL     1      26.546  17.184  58.575  1.00  0.00    -0.272 OA
HETATM   11  C9  UNL     1      27.656  15.948  60.319  1.00  0.00     0.337 C 
HETATM   12  N4  UNL     1      28.116  16.647  61.496  1.00  0.00    -0.031 N 
ATOM     13  H41 UNL     1      29.094  16.430  61.687  1.00  0.00     0.280 HD
ATOM     14  H42 UNL     1      27.690  16.259  62.338  1.00  0.00     0.280 HD
HETATM   15  C10 UNL     1      27.912  18.068  61.427  1.00  0.00     0.451 C 
HETATM   16  C11 UNL     1      26.859  18.441  62.385  1.00  0.00     0.206 C 
HETATM   17  O4  UNL     1      26.200  19.454  62.199  1.00  0.00    -0.291 OA
ENDROOT
BRANCH   1  18
HETATM   18  C3  UNL     1      26.983  18.469  64.790  1.00  0.00     0.034 C 
BRANCH  18  19
HETATM   19  C2  UNL     1      25.879  18.794  65.748  1.00  0.00     0.029 C 
BRANCH  19  20
HETATM   20  C1  UNL     1      25.598  20.293  65.582  1.00  0.00     0.230 C 
BRANCH  20  21
HETATM   21  N1  UNL     1      24.475  20.401  64.663  1.00  0.00    -0.079 N 
ATOM     22  H13 UNL     1      23.712  19.760  64.880  1.00  0.00     0.274 HD
ATOM     23  H12 UNL     1      23.947  21.267  64.770  1.00  0.00     0.274 HD
ATOM     24  H11 UNL     1      24.858  20.273  63.726  1.00  0.00     0.274 HD
ENDBRANCH  20  21
ENDBRANCH  19  20
ENDBRANCH  18  19
ENDBRANCH   1  18
BRANCH  15  25
HETATM   25  N5  UNL     1      29.139  18.769  61.763  1.00  0.00    -0.043 N 
ATOM     26  H53 UNL     1      29.077  19.233  62.669  1.00  0.00     0.277 HD
ATOM     27  H52 UNL     1      29.899  18.124  61.977  1.00  0.00     0.277 HD
ATOM     28  H51 UNL     1      29.388  19.419  61.018  1.00  0.00     0.277 HD
ENDBRANCH  15  25
BRANCH   6  29
HETATM   29  C7  UNL     1      23.942  14.814  61.299  1.00  0.00     0.266 C 
HETATM   30  O2  UNL     1      23.694  14.019  62.167  1.00  0.00    -0.304 OA
ENDBRANCH   6  29
TORSDOF 6
ENDMDL
MODEL 2
REMARK VINA RESULT: -6.814846361      2.079      4.013
REMARK  6 active torsions:
REMARK  status: ('A' for Active; 'I' for Inactive)
REMARK    1  A    between atoms: N1_1  and  C1_5 
REMARK    2  A    between atoms: C1_5  and  C2_6 
REMARK    3  A    between atoms: C2_6  and  C3_7 
REMARK    4  A    between atoms: C3_7  and  C4_8 
REMARK    5  A    between atoms: C6_13  and  C7_14 
REMARK    6  A    between atoms: C10_24  and  N5_25 
ROOT
HETATM    1  C4  UNL     1      27.748  16.285  62.873  1.00  0.00     0.158 C 
HETATM    2  N2  UNL     1      27.507  17.524  63.590  1.00  0.00    -0.347 N 
ATOM      3  H2  UNL     1      28.278  17.934  64.118  1.00  0.00     0.163 HD
HETATM    4  C5  UNL     1      26.269  18.193  63.599  1.00  0.00     0.247 C 
HETATM    5  O1  UNL     1      26.244  19.451  63.605  1.00  0.00    -0.271 OA
HETATM    6  C6  UNL     1      24.940  17.502  63.602  1.00  0.00     0.238 C 
HETATM    7  N3  UNL     1      24.320  17.556  62.295  1.00  0.00    -0.341 N 
ATOM      8  H3  UNL     1      24.155  18.471  61.874  1.00  0.00     0.163 HD
HETATM    9  C8  UNL     1      23.928  16.395  61.568  1.00  0.00     0.244 C 
HETATM   10  O3  UNL     1      23.324  16.621  60.466  1.00  0.00    -0.272 OA
HETATM   11  C9  UNL     1      24.194  15.021  62.042  1.00  0.00     0.337 C 
HETATM   12  N4  UNL     1      25.598  14.685  62.004  1.00  0.00    -0.031 N 
ATOM     13  H41 UNL     1      25.728  13.674  61.975  1.00  0.00     0.280 HD
ATOM     14  H42 UNL     1      26.044  14.887  62.899  1.00  0.00     0.280 HD
HETATM   15  C10 UNL     1      26.304  15.321  60.925  1.00  0.00     0.451 C 
HETATM   16  C11 UNL     1      27.207  16.339  61.486  1.00  0.00     0.206 C 
HETATM   17  O4  UNL     1      27.549  17.291  60.801  1.00  0.00    -0.291 OA
ENDROOT
BRANCH   1  18
HETATM   18  C3  UNL     1      29.229  15.996  62.748  1.00  0.00     0.034 C 
BRANCH  18  19
HETATM   19  C2  UNL     1      30.098  17.000  63.438  1.00  0.00     0.029 C 
BRANCH  19  20
HETATM   20  C1  UNL     1      30.949  17.654  62.341  1.00  0.00     0.230 C 
BRANCH  20  21
HETATM   21  N1  UNL     1      30.198  18.808  61.871  1.00  0.00    -0.079 N 
ATOM     22  H13 UNL     1      30.080  18.828  60.858  1.00  0.00     0.274 HD
ATOM     23  H12 UNL     1      29.208  18.771  62.113  1.00  0.00     0.274 HD
ATOM     24  H11 UNL     1      30.675  19.630  62.240  1.00  0.00     0.274 HD
ENDBRANCH  20  21
ENDBRANCH  19  20
ENDBRANCH  18  19
ENDBRANCH   1  18
BRANCH  15  25
HETATM   25  N5  UNL     1      27.082  14.342  60.187  1.00  0.00    -0.043 N 
ATOM     26  H53 UNL     1      27.963  14.730  59.850  1.00  0.00     0.277 HD
ATOM     27  H52 UNL     1      27.462  13.619  60.798  1.00  0.00     0.277 HD
ATOM     28  H51 UNL     1      26.524  13.947  59.430  1.00  0.00     0.277 HD
ENDBRANCH  15  25
BRANCH   6  29
HETATM   29  C7  UNL     1      24.039  18.094  64.606  1.00  0.00     0.266 C 
HETATM   30  O2  UNL     1      22.914  18.392  64.302  1.00  0.00    -0.304 OA
ENDBRANCH   6  29
TORSDOF 6
ENDMDL
MODEL 3
REMARK VINA RESULT: -6.652120673      3.013      5.988
REMARK  6 active torsions:
REMARK  status: ('A' for Active; 'I' for Inactive)
REMARK    1  A    between atoms: N1_1  and  C1_5 
REMARK    2  A    between atoms: C1_5  and  C2_6 
REMARK    3  A    between atoms: C2_6  and  C3_7 
REMARK    4  A    between atoms: C3_7  and  C4_8 
REMARK    5  A    between atoms: C6_13  and  C7_14 
REMARK    6  A    between atoms: C10_24  and  N5_25 
ROOT
HETATM    1  C4  UNL     1      27.843  16.267  62.643  1.00  0.00     0.158 C 
HETATM    2  N2  UNL     1      29.237  15.927  62.420  1.00  0.00    -0.347 N 
ATOM      3  H2  UNL     1      29.459  14.981  62.112  1.00  0.00     0.163 HD
HETATM    4  C5  UNL     1      30.300  16.831  62.603  1.00  0.00     0.247 C 
HETATM    5  O1  UNL     1      31.292  16.788  61.830  1.00  0.00    -0.271 OA
HETATM    6  C6  UNL     1      30.343  17.870  63.682  1.00  0.00     0.238 C 
HETATM    7  N3  UNL     1      30.062  19.187  63.150  1.00  0.00    -0.341 N 
ATOM      8  H3  UNL     1      30.653  19.543  62.399  1.00  0.00     0.163 HD
HETATM    9  C8  UNL     1      29.000  20.010  63.624  1.00  0.00     0.244 C 
HETATM   10  O3  UNL     1      28.938  21.173  63.102  1.00  0.00    -0.272 OA
HETATM   11  C9  UNL     1      28.031  19.564  64.648  1.00  0.00     0.337 C 
HETATM   12  N4  UNL     1      27.141  18.538  64.156  1.00  0.00    -0.031 N 
ATOM     13  H41 UNL     1      26.286  18.504  64.710  1.00  0.00     0.280 HD
ATOM     14  H42 UNL     1      27.511  17.609  64.360  1.00  0.00     0.280 HD
HETATM   15  C10 UNL     1      26.839  18.672  62.757  1.00  0.00     0.451 C 
HETATM   16  C11 UNL     1      27.491  17.576  62.025  1.00  0.00     0.206 C 
HETATM   17  O4  UNL     1      27.771  17.717  60.844  1.00  0.00    -0.291 OA
ENDROOT
BRANCH   1  18
HETATM   18  C3  UNL     1      26.917  15.237  62.033  1.00  0.00     0.034 C 
BRANCH  18  19
HETATM   19  C2  UNL     1      27.609  14.271  61.122  1.00  0.00     0.029 C 
BRANCH  19  20
HETATM   20  C1  UNL     1      26.666  14.058  59.930  1.00  0.00     0.230 C 
BRANCH  20  21
HETATM   21  N1  UNL     1      26.453  15.368  59.335  1.00  0.00    -0.079 N 
ATOM     22  H13 UNL     1      27.229  15.677  58.749  1.00  0.00     0.274 HD
ATOM     23  H12 UNL     1      25.737  15.371  58.609  1.00  0.00     0.274 HD
ATOM     24  H11 UNL     1      26.249  16.004  60.106  1.00  0.00     0.274 HD
ENDBRANCH  20  21
ENDBRANCH  19  20
ENDBRANCH  18  19
ENDBRANCH   1  18
BRANCH  15  25
HETATM   25  N5  UNL     1      25.403  18.606  62.546  1.00  0.00    -0.043 N 
ATOM     26  H53 UNL     1      25.090  17.654  62.353  1.00  0.00     0.277 HD
ATOM     27  H52 UNL     1      24.883  18.763  63.409  1.00  0.00     0.277 HD
ATOM     28  H51 UNL     1      25.126  19.255  61.810  1.00  0.00     0.277 HD
ENDBRANCH  15  25
BRANCH   6  29
HETATM   29  C7  UNL     1      31.651  17.876  64.359  1.00  0.00     0.266 C 
HETATM   30  O2  UNL     1      31.856  18.641  65.264  1.00  0.00    -0.304 OA
ENDBRANCH   6  29
TORSDOF 6
ENDMDL
MODEL 4
REMARK VINA RESULT: -6.623671814      2.365      5.178
REMARK  6 active torsions:
REMARK  status: ('A' for Active; 'I' for Inactive)
REMARK    1  A    between atoms: N1_1  and  C1_5 
REMARK    2  A    between atoms: C1_5  and  C2_6 
REMARK    3  A    between atoms: C2_6  and  C3_7 
REMARK    4  A    between atoms: C3_7  and  C4_8 
REMARK    5  A    between atoms: C6_13  and  C7_14 
REMARK    6  A    between atoms: C10_24  and  N5_25 
ROOT
HETATM    1  C4  UNL     1      27.277  18.259  61.431  1.00  0.00     0.158 C 
HETATM    2  N2  UNL     1      25.991  17.996  62.052  1.00  0.00    -0.347 N 
ATOM      3  H2  UNL     1      25.263  17.561  61.486  1.00  0.00     0.163 HD
HETATM    4  C5  UNL     1      25.693  18.307  63.392  1.00  0.00     0.247 C 
HETATM    5  O1  UNL     1      24.951  17.539  64.057  1.00  0.00    -0.271 OA
HETATM    6  C6  UNL     1      26.206  19.520  64.107  1.00  0.00     0.238 C 
HETATM    7  N3  UNL     1      27.277  19.175  65.018  1.00  0.00    -0.341 N 
ATOM      8  H3  UNL     1      27.092  18.483  65.744  1.00  0.00     0.163 HD
HETATM    9  C8  UNL     1      28.577  19.755  64.950  1.00  0.00     0.244 C 
HETATM   10  O3  UNL     1      29.380  19.399  65.876  1.00  0.00    -0.272 OA
HETATM   11  C9  UNL     1      28.981  20.703  63.890  1.00  0.00     0.337 C 
HETATM   12  N4  UNL     1      29.094  20.071  62.597  1.00  0.00    -0.031 N 
ATOM     13  H41 UNL     1      29.700  20.611  61.980  1.00  0.00     0.280 HD
ATOM     14  H42 UNL     1      28.218  20.144  62.079  1.00  0.00     0.280 HD
HETATM   15  C10 UNL     1      29.530  18.702  62.671  1.00  0.00     0.451 C 
HETATM   16  C11 UNL     1      28.407  17.827  62.301  1.00  0.00     0.206 C 
HETATM   17  O4  UNL     1      28.370  16.678  62.716  1.00  0.00    -0.291 OA
ENDROOT
BRANCH   1  18
HETATM   18  C3  UNL     1      27.426  17.508  60.125  1.00  0.00     0.034 C 
BRANCH  18  19
HETATM   19  C2  UNL     1      26.295  16.571  59.838  1.00  0.00     0.029 C 
BRANCH  19  20
HETATM   20  C1  UNL     1      26.896  15.159  59.848  1.00  0.00     0.230 C 
BRANCH  20  21
HETATM   21  N1  UNL     1      25.777  14.237  59.963  1.00  0.00    -0.079 N 
ATOM     22  H13 UNL     1      25.756  13.737  60.851  1.00  0.00     0.274 HD
ATOM     23  H12 UNL     1      24.876  14.705  60.059  1.00  0.00     0.274 HD
ATOM     24  H11 UNL     1      25.828  13.621  59.152  1.00  0.00     0.274 HD
ENDBRANCH  20  21
ENDBRANCH  19  20
ENDBRANCH  18  19
ENDBRANCH   1  18
BRANCH  15  25
HETATM   25  N5  UNL     1      30.636  18.478  61.756  1.00  0.00    -0.043 N 
ATOM     26  H53 UNL     1      31.250  17.730  62.076  1.00  0.00     0.277 HD
ATOM     27  H52 UNL     1      30.327  18.054  60.881  1.00  0.00     0.277 HD
ATOM     28  H51 UNL     1      31.144  19.348  61.599  1.00  0.00     0.277 HD
ENDBRANCH  15  25
BRANCH   6  29
HETATM   29  C7  UNL     1      25.124  20.196  64.843  1.00  0.00     0.266 C 
HETATM   30  O2  UNL     1      24.335  20.887  64.253  1.00  0.00    -0.304 OA
ENDBRANCH   6  29
TORSDOF 6
ENDMDL
MODEL 5
REMARK VINA RESULT: -6.616082144      1.253      1.685
REMARK  6 active torsions:
REMARK  status: ('A' for Active; 'I' for Inactive)
REMARK    1  A    between atoms: N1_1  and  C1_5 
REMARK    2  A    between atoms: C1_5  and  C2_6 
REMARK    3  A    between atoms: C2_6  and  C3_7 
REMARK    4  A    between atoms: C3_7  and  C4_8 
REMARK    5  A    between atoms: C6_13  and  C7_14 
REMARK    6  A    between atoms: C10_24  and  N5_25 
ROOT
HETATM    1  C4  UNL     1      26.806  18.077  63.802  1.00  0.00     0.158 C 
HETATM    2  N2  UNL     1      25.421  17.719  64.055  1.00  0.00    -0.347 N 
ATOM      3  H2  UNL     1      25.026  17.937  64.970  1.00  0.00     0.163 HD
HETATM    4  C5  UNL     1      24.593  17.087  63.109  1.00  0.00     0.247 C 
HETATM    5  O1  UNL     1      23.372  17.386  63.056  1.00  0.00    -0.271 OA
HETATM    6  C6  UNL     1      25.067  16.054  62.133  1.00  0.00     0.238 C 
HETATM    7  N3  UNL     1      25.200  16.613  60.804  1.00  0.00    -0.341 N 
ATOM      8  H3  UNL     1      24.381  17.044  60.375  1.00  0.00     0.163 HD
HETATM    9  C8  UNL     1      26.419  16.592  60.067  1.00  0.00     0.244 C 
HETATM   10  O3  UNL     1      26.345  17.057  58.880  1.00  0.00    -0.272 OA
HETATM   11  C9  UNL     1      27.686  16.071  60.620  1.00  0.00     0.337 C 
HETATM   12  N4  UNL     1      28.223  16.916  61.661  1.00  0.00    -0.031 N 
ATOM     13  H41 UNL     1      29.225  16.763  61.771  1.00  0.00     0.280 HD
ATOM     14  H42 UNL     1      27.903  16.608  62.580  1.00  0.00     0.280 HD
HETATM   15  C10 UNL     1      27.937  18.311  61.463  1.00  0.00     0.451 C 
HETATM   16  C11 UNL     1      26.967  18.745  62.480  1.00  0.00     0.206 C 
HETATM   17  O4  UNL     1      26.240  19.701  62.257  1.00  0.00    -0.291 OA
ENDROOT
BRANCH   1  18
HETATM   18  C3  UNL     1      27.327  19.046  64.842  1.00  0.00     0.034 C 
BRANCH  18  19
HETATM   19  C2  UNL     1      28.807  18.968  65.047  1.00  0.00     0.029 C 
BRANCH  19  20
HETATM   20  C1  UNL     1      29.238  20.345  65.572  1.00  0.00     0.230 C 
BRANCH  20  21
HETATM   21  N1  UNL     1      29.791  21.063  64.435  1.00  0.00    -0.079 N 
ATOM     22  H13 UNL     1      30.403  20.490  63.853  1.00  0.00     0.274 HD
ATOM     23  H12 UNL     1      29.098  21.277  63.716  1.00  0.00     0.274 HD
ATOM     24  H11 UNL     1      30.250  21.891  64.813  1.00  0.00     0.274 HD
ENDBRANCH  20  21
ENDBRANCH  19  20
ENDBRANCH  18  19
ENDBRANCH   1  18
BRANCH  15  25
HETATM   25  N5  UNL     1      29.153  19.095  61.592  1.00  0.00    -0.043 N 
ATOM     26  H53 UNL     1      28.978  20.093  61.468  1.00  0.00     0.277 HD
ATOM     27  H52 UNL     1      29.490  19.121  62.554  1.00  0.00     0.277 HD
ATOM     28  H51 UNL     1      29.865  18.750  60.948  1.00  0.00     0.277 HD
ENDBRANCH  15  25
BRANCH   6  29
HETATM   29  C7  UNL     1      24.153  14.900  62.098  1.00  0.00     0.266 C 
HETATM   30  O2  UNL     1      23.597  14.604  61.073  1.00  0.00    -0.304 OA
ENDBRANCH   6  29
TORSDOF 6
ENDMDL
