MODEL 1
REMARK VINA RESULT: -7.617110846      0.000      0.000
REMARK  5 active torsions:
REMARK  status: ('A' for Active; 'I' for Inactive)
REMARK       I    between atoms: C1_4  and  N3_6 
REMARK    1  A    between atoms: N3_6  and  N4_8 
REMARK    2  A    between atoms: C3_12  and  C4_13 
REMARK    3  A    between atoms: C4_13  and  C5_14 
REMARK    4  A    between atoms: C5_14  and  N6_15 
REMARK    5  A    between atoms: N6_15  and  S1_17 
ROOT
HETATM    1  N4  UNL     1      24.256  16.629  62.093  1.00  0.00    -0.151 N 
HETATM    2  N5  UNL     1      25.142  17.219  61.190  1.00  0.00    -0.273 N 
ATOM      3  H5  UNL     1      25.250  18.228  61.084  1.00  0.00     0.189 HD
HETATM    4  C2  UNL     1      25.866  16.281  60.445  1.00  0.00     0.102 A 
HETATM    5  C3  UNL     1      26.787  16.423  59.506  1.00  0.00     0.010 C 
HETATM    6  C6  UNL     1      25.399  14.962  60.917  1.00  0.00     0.270 A 
HETATM    7  O4  UNL     1      25.770  13.829  60.531  1.00  0.00    -0.280 OA
HETATM    8  C7  UNL     1      24.398  15.231  61.940  1.00  0.00     0.334 A 
HETATM    9  O5  UNL     1      23.753  14.358  62.595  1.00  0.00    -0.260 OA
ENDROOT
BRANCH   5  10
HETATM   10  C4  UNL     1      27.166  17.828  59.126  1.00  0.00     0.050 C 
BRANCH  10  11
HETATM   11  C5  UNL     1      28.109  18.430  60.111  1.00  0.00     0.138 C 
BRANCH  11  12
HETATM   12  N6  UNL     1      27.512  19.628  60.642  1.00  0.00    -0.301 N 
ATOM     13  H6  UNL     1      27.220  20.418  60.066  1.00  0.00     0.174 HD
BRANCH  12  14
HETATM   14  S1  UNL     1      27.344  19.583  62.351  1.00  0.00     0.204 S 
HETATM   15  O1  UNL     1      28.337  20.518  62.987  1.00  0.00    -0.578 OA
HETATM   16  O2  UNL     1      25.952  19.905  62.795  1.00  0.00    -0.578 OA
HETATM   17  O3  UNL     1      27.703  18.033  62.867  1.00  0.00    -0.578 OA
ENDBRANCH  12  14
ENDBRANCH  11  12
ENDBRANCH  10  11
ENDBRANCH   5  10
BRANCH   1  18
HETATM   18  N3  UNL     1      23.375  17.240  62.996  1.00  0.00    -0.249 N 
HETATM   19  C1  UNL     1      23.858  17.795  64.206  1.00  0.00     0.202 C 
HETATM   20  N1  UNL     1      25.092  17.679  64.530  1.00  0.00    -0.372 N 
HETATM   21  N2  UNL     1      22.999  18.487  65.084  1.00  0.00    -0.062 NA
ATOM     22  H12 UNL     1      25.440  18.079  65.401  1.00  0.00     0.158 HD
ATOM     23  H11 UNL     1      25.713  17.178  63.894  1.00  0.00     0.158 HD
ATOM     24  H3  UNL     1      22.379  17.285  62.780  1.00  0.00     0.192 HD
ENDBRANCH   1  18
TORSDOF 5
ENDMDL
MODEL 2
REMARK VINA RESULT: -7.598002030      0.047      1.006
REMARK  5 active torsions:
REMARK  status: ('A' for Active; 'I' for Inactive)
REMARK       I    between atoms: C1_4  and  N3_6 
REMARK    1  A    between atoms: N3_6  and  N4_8 
REMARK    2  A    between atoms: C3_12  and  C4_13 
REMARK    3  A    between atoms: C4_13  and  C5_14 
REMARK    4  A    between atoms: C5_14  and  N6_15 
REMARK    5  A    between atoms: N6_15  and  S1_17 
ROOT
HETATM    1  N4  UNL     1      24.257  16.627  62.097  1.00  0.00    -0.151 N 
HETATM    2  N5  UNL     1      25.139  17.219  61.190  1.00  0.00    -0.273 N 
ATOM      3  H5  UNL     1      25.242  18.228  61.082  1.00  0.00     0.189 HD
HETATM    4  C2  UNL     1      25.865  16.282  60.446  1.00  0.00     0.102 A 
HETATM    5  C3  UNL     1      26.782  16.426  59.504  1.00  0.00     0.010 C 
HETATM    6  C6  UNL     1      25.404  14.962  60.922  1.00  0.00     0.270 A 
HETATM    7  O4  UNL     1      25.779  13.830  60.537  1.00  0.00    -0.280 OA
HETATM    8  C7  UNL     1      24.405  15.229  61.947  1.00  0.00     0.334 A 
HETATM    9  O5  UNL     1      23.765  14.354  62.606  1.00  0.00    -0.260 OA
ENDROOT
BRANCH   5  10
HETATM   10  C4  UNL     1      27.155  17.832  59.120  1.00  0.00     0.050 C 
BRANCH  10  11
HETATM   11  C5  UNL     1      28.113  18.433  60.091  1.00  0.00     0.138 C 
BRANCH  11  12
HETATM   12  N6  UNL     1      27.510  19.613  60.655  1.00  0.00    -0.301 N 
ATOM     13  H6  UNL     1      27.218  20.419  60.102  1.00  0.00     0.174 HD
BRANCH  12  14
HETATM   14  S1  UNL     1      27.338  19.516  62.362  1.00  0.00     0.204 S 
HETATM   15  O1  UNL     1      25.947  19.929  62.759  1.00  0.00    -0.578 OA
HETATM   16  O2  UNL     1      27.658  18.153  62.890  1.00  0.00    -0.578 OA
HETATM   17  O3  UNL     1      28.406  20.600  63.055  1.00  0.00    -0.578 OA
ENDBRANCH  12  14
ENDBRANCH  11  12
ENDBRANCH  10  11
ENDBRANCH   5  10
BRANCH   1  18
HETATM   18  N3  UNL     1      23.376  17.236  63.001  1.00  0.00    -0.249 N 
HETATM   19  C1  UNL     1      23.860  17.794  64.209  1.00  0.00     0.202 C 
HETATM   20  N1  UNL     1      25.095  17.684  64.531  1.00  0.00    -0.372 N 
HETATM   21  N2  UNL     1      23.000  18.485  65.088  1.00  0.00    -0.062 NA
ATOM     22  H12 UNL     1      25.443  18.087  65.401  1.00  0.00     0.158 HD
ATOM     23  H11 UNL     1      25.717  17.185  63.894  1.00  0.00     0.158 HD
ATOM     24  H3  UNL     1      22.380  17.277  62.788  1.00  0.00     0.192 HD
ENDBRANCH   1  18
TORSDOF 5
ENDMDL
MODEL 3
REMARK VINA RESULT: -7.570129442      0.046      1.009
REMARK  5 active torsions:
REMARK  status: ('A' for Active; 'I' for Inactive)
REMARK       I    between atoms: C1_4  and  N3_6 
REMARK    1  A    between atoms: N3_6  and  N4_8 
REMARK    2  A    between atoms: C3_12  and  C4_13 
REMARK    3  A    between atoms: C4_13  and  C5_14 
REMARK    4  A    between atoms: C5_14  and  N6_15 
REMARK    5  A    between atoms: N6_15  and  S1_17 
ROOT
HETATM    1  N4  UNL     1      24.256  16.625  62.098  1.00  0.00    -0.151 N 
HETATM    2  N5  UNL     1      25.137  17.220  61.193  1.00  0.00    -0.273 N 
ATOM      3  H5  UNL     1      25.240  18.229  61.088  1.00  0.00     0.189 HD
HETATM    4  C2  UNL     1      25.862  16.286  60.445  1.00  0.00     0.102 A 
HETATM    5  C3  UNL     1      26.779  16.433  59.503  1.00  0.00     0.010 C 
HETATM    6  C6  UNL     1      25.402  14.964  60.916  1.00  0.00     0.270 A 
HETATM    7  O4  UNL     1      25.777  13.834  60.527  1.00  0.00    -0.280 OA
HETATM    8  C7  UNL     1      24.403  15.227  61.943  1.00  0.00     0.334 A 
HETATM    9  O5  UNL     1      23.764  14.350  62.599  1.00  0.00    -0.260 OA
ENDROOT
BRANCH   5  10
HETATM   10  C4  UNL     1      27.151  17.840  59.123  1.00  0.00     0.050 C 
BRANCH  10  11
HETATM   11  C5  UNL     1      28.105  18.440  60.100  1.00  0.00     0.138 C 
BRANCH  11  12
HETATM   12  N6  UNL     1      27.497  19.615  60.669  1.00  0.00    -0.301 N 
ATOM     13  H6  UNL     1      27.153  20.400  60.114  1.00  0.00     0.174 HD
BRANCH  12  14
HETATM   14  S1  UNL     1      27.414  19.553  62.384  1.00  0.00     0.204 S 
HETATM   15  O1  UNL     1      27.682  18.150  62.857  1.00  0.00    -0.578 OA
HETATM   16  O2  UNL     1      28.352  20.521  63.035  1.00  0.00    -0.578 OA
HETATM   17  O3  UNL     1      25.857  19.955  62.844  1.00  0.00    -0.578 OA
ENDBRANCH  12  14
ENDBRANCH  11  12
ENDBRANCH  10  11
ENDBRANCH   5  10
BRANCH   1  18
HETATM   18  N3  UNL     1      23.375  17.230  63.005  1.00  0.00    -0.249 N 
HETATM   19  C1  UNL     1      23.860  17.789  64.212  1.00  0.00     0.202 C 
HETATM   20  N1  UNL     1      25.097  17.683  64.530  1.00  0.00    -0.372 N 
HETATM   21  N2  UNL     1      23.001  18.477  65.094  1.00  0.00    -0.062 NA
ATOM     22  H12 UNL     1      25.446  18.086  65.400  1.00  0.00     0.158 HD
ATOM     23  H11 UNL     1      25.718  17.186  63.892  1.00  0.00     0.158 HD
ATOM     24  H3  UNL     1      22.378  17.268  62.795  1.00  0.00     0.192 HD
ENDBRANCH   1  18
TORSDOF 5
ENDMDL
MODEL 4
REMARK VINA RESULT: -7.197006344      2.276      4.260
REMARK  5 active torsions:
REMARK  status: ('A' for Active; 'I' for Inactive)
REMARK       I    between atoms: C1_4  and  N3_6 
REMARK    1  A    between atoms: N3_6  and  N4_8 
REMARK    2  A    between atoms: C3_12  and  C4_13 
REMARK    3  A    between atoms: C4_13  and  C5_14 
REMARK    4  A    between atoms: C5_14  and  N6_15 
REMARK    5  A    between atoms: N6_15  and  S1_17 
ROOT
HETATM    1  N4  UNL     1      25.938  19.566  63.536  1.00  0.00    -0.151 N 
HETATM    2  N5  UNL     1      26.122  18.976  62.284  1.00  0.00    -0.273 N 
ATOM      3  H5  UNL     1      25.355  18.739  61.655  1.00  0.00     0.189 HD
HETATM    4  C2  UNL     1      27.469  18.744  61.984  1.00  0.00     0.102 A 
HETATM    5  C3  UNL     1      28.057  18.215  60.924  1.00  0.00     0.010 C 
HETATM    6  C6  UNL     1      28.221  19.233  63.158  1.00  0.00     0.270 A 
HETATM    7  O4  UNL     1      29.461  19.227  63.335  1.00  0.00    -0.280 OA
HETATM    8  C7  UNL     1      27.225  19.734  64.095  1.00  0.00     0.334 A 
HETATM    9  O5  UNL     1      27.465  20.242  65.232  1.00  0.00    -0.260 OA
ENDROOT
BRANCH   5  10
HETATM   10  C4  UNL     1      27.164  17.760  59.802  1.00  0.00     0.050 C 
BRANCH  10  11
HETATM   11  C5  UNL     1      26.599  16.405  60.062  1.00  0.00     0.138 C 
BRANCH  11  12
HETATM   12  N6  UNL     1      25.163  16.488  59.992  1.00  0.00    -0.301 N 
ATOM     13  H6  UNL     1      24.653  16.778  59.157  1.00  0.00     0.174 HD
BRANCH  12  14
HETATM   14  S1  UNL     1      24.402  16.046  61.468  1.00  0.00     0.204 S 
HETATM   15  O1  UNL     1      23.469  17.142  61.909  1.00  0.00    -0.578 OA
HETATM   16  O2  UNL     1      23.677  14.741  61.366  1.00  0.00    -0.578 OA
HETATM   17  O3  UNL     1      25.587  15.887  62.637  1.00  0.00    -0.578 OA
ENDBRANCH  12  14
ENDBRANCH  11  12
ENDBRANCH  10  11
ENDBRANCH   5  10
BRANCH   1  18
HETATM   18  N3  UNL     1      24.746  19.942  64.171  1.00  0.00    -0.249 N 
HETATM   19  C1  UNL     1      23.962  18.980  64.852  1.00  0.00     0.202 C 
HETATM   20  N1  UNL     1      24.287  17.741  64.834  1.00  0.00    -0.372 N 
HETATM   21  N2  UNL     1      22.806  19.355  65.568  1.00  0.00    -0.062 NA
ATOM     22  H12 UNL     1      23.723  17.048  65.325  1.00  0.00     0.158 HD
ATOM     23  H11 UNL     1      25.124  17.469  64.317  1.00  0.00     0.158 HD
ATOM     24  H3  UNL     1      24.440  20.914  64.142  1.00  0.00     0.192 HD
ENDBRANCH   1  18
TORSDOF 5
ENDMDL
MODEL 5
REMARK VINA RESULT: -7.170413504      2.279      4.354
REMARK  5 active torsions:
REMARK  status: ('A' for Active; 'I' for Inactive)
REMARK       I    between atoms: C1_4  and  N3_6 
REMARK    1  A    between atoms: N3_6  and  N4_8 
REMARK    2  A    between atoms: C3_12  and  C4_13 
REMARK    3  A    between atoms: C4_13  and  C5_14 
REMARK    4  A    between atoms: C5_14  and  N6_15 
REMARK    5  A    between atoms: N6_15  and  S1_17 
ROOT
HETATM    1  N4  UNL     1      25.936  19.587  63.553  1.00  0.00    -0.151 N 
HETATM    2  N5  UNL     1      26.116  18.996  62.301  1.00  0.00    -0.273 N 
ATOM      3  H5  UNL     1      25.347  18.760  61.674  1.00  0.00     0.189 HD
HETATM    4  C2  UNL     1      27.462  18.762  61.997  1.00  0.00     0.102 A 
HETATM    5  C3  UNL     1      28.046  18.231  60.935  1.00  0.00     0.010 C 
HETATM    6  C6  UNL     1      28.218  19.250  63.168  1.00  0.00     0.270 A 
HETATM    7  O4  UNL     1      29.459  19.242  63.342  1.00  0.00    -0.280 OA
HETATM    8  C7  UNL     1      27.226  19.753  64.108  1.00  0.00     0.334 A 
HETATM    9  O5  UNL     1      27.470  20.260  65.245  1.00  0.00    -0.260 OA
ENDROOT
BRANCH   5  10
HETATM   10  C4  UNL     1      27.149  17.777  59.816  1.00  0.00     0.050 C 
BRANCH  10  11
HETATM   11  C5  UNL     1      26.631  16.399  60.049  1.00  0.00     0.138 C 
BRANCH  11  12
HETATM   12  N6  UNL     1      25.192  16.441  60.027  1.00  0.00    -0.301 N 
ATOM     13  H6  UNL     1      24.646  16.695  59.203  1.00  0.00     0.174 HD
BRANCH  12  14
HETATM   14  S1  UNL     1      24.494  16.018  61.539  1.00  0.00     0.204 S 
HETATM   15  O1  UNL     1      23.721  14.735  61.403  1.00  0.00    -0.578 OA
HETATM   16  O2  UNL     1      25.516  15.910  62.627  1.00  0.00    -0.578 OA
HETATM   17  O3  UNL     1      23.413  17.221  61.966  1.00  0.00    -0.578 OA
ENDBRANCH  12  14
ENDBRANCH  11  12
ENDBRANCH  10  11
ENDBRANCH   5  10
BRANCH   1  18
HETATM   18  N3  UNL     1      24.747  19.964  64.192  1.00  0.00    -0.249 N 
HETATM   19  C1  UNL     1      23.975  19.008  64.894  1.00  0.00     0.202 C 
HETATM   20  N1  UNL     1      24.308  17.771  64.892  1.00  0.00    -0.372 N 
HETATM   21  N2  UNL     1      22.822  19.387  65.612  1.00  0.00    -0.062 NA
ATOM     22  H12 UNL     1      23.752  17.082  65.397  1.00  0.00     0.158 HD
ATOM     23  H11 UNL     1      25.142  17.496  64.372  1.00  0.00     0.158 HD
ATOM     24  H3  UNL     1      24.435  20.934  64.150  1.00  0.00     0.192 HD
ENDBRANCH   1  18
TORSDOF 5
ENDMDL
