MODEL 1
REMARK VINA RESULT: -7.531223719      0.000      0.000
REMARK  4 active torsions:
REMARK  status: ('A' for Active; 'I' for Inactive)
REMARK    1  A    between atoms: C2_3  and  C3_4 
REMARK    2  A    between atoms: C3_4  and  C4_5 
REMARK    3  A    between atoms: N1_10  and  C8_11 
REMARK    4  A    between atoms: N2_18  and  C15_19 
ROOT
HETATM    1  O1  UNL     1      40.527  12.687  84.976  1.00  0.00    -0.271 OA
HETATM    2  C1  UNL     1      41.059  13.733  84.531  1.00  0.00     0.254 C 
HETATM    3  C2  UNL     1      41.951  13.664  83.348  1.00  0.00     0.319 C 
HETATM    4  N1  UNL     1      42.707  14.882  83.171  1.00  0.00     0.108 N 
HETATM    5  C13 UNL     1      42.019  16.051  83.586  1.00  0.00     0.294 C 
HETATM    6  C14 UNL     1      41.772  15.961  85.083  1.00  0.00     0.156 C 
HETATM    7  N2  UNL     1      40.754  14.935  85.219  1.00  0.00    -0.344 N 
ENDROOT
BRANCH   7   8
HETATM    8  C15 UNL     1      39.582  15.182  85.990  1.00  0.00     0.087 C 
HETATM    9  C16 UNL     1      38.382  14.404  85.693  1.00  0.00     0.025 C 
HETATM   10  C17 UNL     1      37.094  15.160  85.495  1.00  0.00     0.002 C 
HETATM   11  C18 UNL     1      36.583  15.770  86.775  1.00  0.00     0.000 C 
HETATM   12  C19 UNL     1      37.007  17.223  86.752  1.00  0.00     0.000 C 
HETATM   13  C20 UNL     1      38.514  17.218  87.042  1.00  0.00     0.002 C 
HETATM   14  C21 UNL     1      39.299  16.668  85.910  1.00  0.00     0.025 C 
ENDBRANCH   7   8
BRANCH   3  15
HETATM   15  C3  UNL     1      41.174  13.474  82.074  1.00  0.00     0.092 C 
BRANCH  15  16
HETATM   16  C4  UNL     1      41.977  13.046  80.904  1.00  0.00    -0.015 A 
HETATM   17  C5  UNL     1      42.322  11.791  80.474  1.00  0.00     0.015 A 
HETATM   18  C6  UNL     1      43.070  11.703  79.367  1.00  0.00     0.008 A 
HETATM   19  C7  UNL     1      43.433  12.863  78.748  1.00  0.00     0.050 A 
HETATM   20  S1  UNL     1      42.715  14.053  79.736  1.00  0.00    -0.106 SA
ENDBRANCH  15  16
ENDBRANCH   3  15
BRANCH   4  21
HETATM   21  C8  UNL     1      44.031  14.851  83.627  1.00  0.00     0.224 C 
HETATM   22  C9  UNL     1      44.845  13.680  83.126  1.00  0.00     0.036 C 
HETATM   23  C10 UNL     1      46.267  14.115  83.390  1.00  0.00     0.002 C 
HETATM   24  C11 UNL     1      46.251  15.594  83.577  1.00  0.00     0.002 C 
HETATM   25  C12 UNL     1      44.843  16.021  83.146  1.00  0.00     0.036 C 
ENDBRANCH   4  21
TORSDOF 4
ENDMDL
MODEL 2
REMARK VINA RESULT: -5.531039185      1.550      3.592
REMARK  4 active torsions:
REMARK  status: ('A' for Active; 'I' for Inactive)
REMARK    1  A    between atoms: C2_3  and  C3_4 
REMARK    2  A    between atoms: C3_4  and  C4_5 
REMARK    3  A    between atoms: N1_10  and  C8_11 
REMARK    4  A    between atoms: N2_18  and  C15_19 
ROOT
HETATM    1  O1  UNL     1      40.805  16.721  84.391  1.00  0.00    -0.271 OA
HETATM    2  C1  UNL     1      40.985  15.480  84.336  1.00  0.00     0.254 C 
HETATM    3  C2  UNL     1      42.179  14.936  83.645  1.00  0.00     0.319 C 
HETATM    4  N1  UNL     1      42.065  13.515  83.409  1.00  0.00     0.108 N 
HETATM    5  C13 UNL     1      41.336  12.823  84.409  1.00  0.00     0.294 C 
HETATM    6  C14 UNL     1      39.905  13.334  84.405  1.00  0.00     0.156 C 
HETATM    7  N2  UNL     1      39.999  14.674  84.959  1.00  0.00    -0.344 N 
ENDROOT
BRANCH   7   8
HETATM    8  C15 UNL     1      39.145  15.072  86.026  1.00  0.00     0.087 C 
HETATM    9  C16 UNL     1      37.866  14.384  86.180  1.00  0.00     0.025 C 
HETATM   10  C17 UNL     1      36.631  15.235  86.320  1.00  0.00     0.002 C 
HETATM   11  C18 UNL     1      36.583  15.969  87.636  1.00  0.00     0.000 C 
HETATM   12  C19 UNL     1      37.070  17.375  87.355  1.00  0.00     0.000 C 
HETATM   13  C20 UNL     1      38.589  17.257  87.170  1.00  0.00     0.002 C 
HETATM   14  C21 UNL     1      38.945  16.569  85.905  1.00  0.00     0.025 C 
ENDBRANCH   7   8
BRANCH   3  15
HETATM   15  C3  UNL     1      43.428  15.117  84.465  1.00  0.00     0.092 C 
BRANCH  15  16
HETATM   16  C4  UNL     1      44.682  15.236  83.684  1.00  0.00    -0.015 A 
HETATM   17  C5  UNL     1      45.781  14.416  83.635  1.00  0.00     0.015 A 
HETATM   18  C6  UNL     1      46.785  14.780  82.827  1.00  0.00     0.008 A 
HETATM   19  C7  UNL     1      46.645  15.934  82.114  1.00  0.00     0.050 A 
HETATM   20  S1  UNL     1      45.103  16.483  82.594  1.00  0.00    -0.106 SA
ENDBRANCH  15  16
ENDBRANCH   3  15
BRANCH   4  21
HETATM   21  C8  UNL     1      41.684  13.141  82.114  1.00  0.00     0.224 C 
HETATM   22  C9  UNL     1      41.947  14.182  81.051  1.00  0.00     0.036 C 
HETATM   23  C10 UNL     1      41.865  13.390  79.768  1.00  0.00     0.002 C 
HETATM   24  C11 UNL     1      42.021  11.950  80.126  1.00  0.00     0.002 C 
HETATM   25  C12 UNL     1      42.462  11.964  81.593  1.00  0.00     0.036 C 
ENDBRANCH   4  21
TORSDOF 4
ENDMDL
MODEL 3
REMARK VINA RESULT: -4.355866883      0.713      1.295
REMARK  4 active torsions:
REMARK  status: ('A' for Active; 'I' for Inactive)
REMARK    1  A    between atoms: C2_3  and  C3_4 
REMARK    2  A    between atoms: C3_4  and  C4_5 
REMARK    3  A    between atoms: N1_10  and  C8_11 
REMARK    4  A    between atoms: N2_18  and  C15_19 
ROOT
HETATM    1  O1  UNL     1      40.426  13.352  85.661  1.00  0.00    -0.271 OA
HETATM    2  C1  UNL     1      41.010  14.076  84.819  1.00  0.00     0.254 C 
HETATM    3  C2  UNL     1      41.969  13.472  83.862  1.00  0.00     0.319 C 
HETATM    4  N1  UNL     1      42.767  14.473  83.192  1.00  0.00     0.108 N 
HETATM    5  C13 UNL     1      42.087  15.698  82.975  1.00  0.00     0.294 C 
HETATM    6  C14 UNL     1      41.750  16.310  84.325  1.00  0.00     0.156 C 
HETATM    7  N2  UNL     1      40.698  15.459  84.853  1.00  0.00    -0.344 N 
ENDROOT
BRANCH   7   8
HETATM    8  C15 UNL     1      39.490  16.031  85.346  1.00  0.00     0.087 C 
HETATM    9  C16 UNL     1      39.514  16.668  86.660  1.00  0.00     0.025 C 
HETATM   10  C17 UNL     1      38.449  16.267  87.647  1.00  0.00     0.002 C 
HETATM   11  C18 UNL     1      37.081  16.760  87.250  1.00  0.00     0.000 C 
HETATM   12  C19 UNL     1      36.386  15.590  86.587  1.00  0.00     0.000 C 
HETATM   13  C20 UNL     1      37.033  15.454  85.202  1.00  0.00     0.002 C 
HETATM   14  C21 UNL     1      38.427  14.954  85.284  1.00  0.00     0.025 C 
ENDBRANCH   7   8
BRANCH   3  15
HETATM   15  C3  UNL     1      41.263  12.712  82.772  1.00  0.00     0.092 C 
BRANCH  15  16
HETATM   16  C4  UNL     1      42.044  12.527  81.526  1.00  0.00    -0.015 A 
HETATM   17  C5  UNL     1      43.041  11.635  81.224  1.00  0.00     0.015 A 
HETATM   18  C6  UNL     1      43.576  11.701  79.999  1.00  0.00     0.008 A 
HETATM   19  C7  UNL     1      43.093  12.645  79.140  1.00  0.00     0.050 A 
HETATM   20  S1  UNL     1      41.897  13.421  80.076  1.00  0.00    -0.106 SA
ENDBRANCH  15  16
ENDBRANCH   3  15
BRANCH   4  21
HETATM   21  C8  UNL     1      44.060  14.660  83.696  1.00  0.00     0.224 C 
HETATM   22  C9  UNL     1      45.051  13.587  83.309  1.00  0.00     0.036 C 
HETATM   23  C10 UNL     1      46.385  14.236  83.591  1.00  0.00     0.002 C 
HETATM   24  C11 UNL     1      46.154  15.707  83.671  1.00  0.00     0.002 C 
HETATM   25  C12 UNL     1      44.722  15.899  83.161  1.00  0.00     0.036 C 
ENDBRANCH   4  21
TORSDOF 4
ENDMDL
