MODEL 1
REMARK VINA RESULT: -7.049703160      0.000      0.000
REMARK  4 active torsions:
REMARK  status: ('A' for Active; 'I' for Inactive)
REMARK    1  A    between atoms: N1_1  and  N2_4 
REMARK       I    between atoms: N2_4  and  C1_6 
REMARK    2  A    between atoms: C1_6  and  C2_8 
REMARK       I    between atoms: C2_8  and  N3_10 
REMARK    3  A    between atoms: N3_10  and  N4_12 
REMARK    4  A    between atoms: N4_12  and  C3_14 
ROOT
HETATM    1  C3  UNL     1      15.629  64.774  38.778  1.00  0.00     0.193 C 
HETATM    2  N5  UNL     1      14.399  65.298  38.900  1.00  0.00    -0.289 N 
ATOM      3  H5  UNL     1      14.094  65.911  38.143  1.00  0.00     0.172 HD
HETATM    4  C4  UNL     1      13.513  65.109  39.912  1.00  0.00     0.328 C 
HETATM    5  O3  UNL     1      12.721  66.041  40.109  1.00  0.00    -0.247 OA
HETATM    6  N6  UNL     1      13.436  64.011  40.693  1.00  0.00    -0.285 N 
ATOM      7  H6  UNL     1      12.591  63.930  41.258  1.00  0.00     0.173 HD
HETATM    8  C5  UNL     1      14.324  63.009  40.827  1.00  0.00     0.182 C 
HETATM    9  S1  UNL     1      13.767  61.745  41.671  1.00  0.00    -0.040 SA
HETATM   10  N7  UNL     1      15.582  62.936  40.356  1.00  0.00    -0.297 N 
ATOM     11  H7  UNL     1      16.125  62.139  40.690  1.00  0.00     0.171 HD
HETATM   12  C6  UNL     1      16.232  63.757  39.513  1.00  0.00     0.293 C 
HETATM   13  O4  UNL     1      17.458  63.640  39.343  1.00  0.00    -0.264 OA
ENDROOT
BRANCH   1  14
HETATM   14  N4  UNL     1      16.383  65.249  37.865  1.00  0.00    -0.278 N 
ATOM     15  H4  UNL     1      16.408  64.774  36.963  1.00  0.00     0.189 HD
BRANCH  14  16
HETATM   16  N3  UNL     1      17.168  66.377  38.036  1.00  0.00    -0.260 N 
HETATM   17  C2  UNL     1      18.514  66.361  37.593  1.00  0.00     0.329 C 
HETATM   18  O2  UNL     1      19.007  65.358  37.055  1.00  0.00    -0.261 OA
ATOM     19  H3  UNL     1      16.781  67.211  38.476  1.00  0.00     0.190 HD
BRANCH  17  20
HETATM   20  C1  UNL     1      19.324  67.551  37.779  1.00  0.00     0.329 C 
HETATM   21  N2  UNL     1      20.036  68.075  36.683  1.00  0.00    -0.268 N 
ATOM     22  H2  UNL     1      19.981  67.623  35.770  1.00  0.00     0.190 HD
HETATM   23  O1  UNL     1      19.415  68.131  38.887  1.00  0.00    -0.261 OA
BRANCH  21  24
HETATM   24  N1  UNL     1      20.815  69.215  36.855  1.00  0.00    -0.342 N 
ATOM     25  H12 UNL     1      20.716  69.763  37.709  1.00  0.00     0.176 HD
ATOM     26  H11 UNL     1      21.474  69.486  36.126  1.00  0.00     0.176 HD
ENDBRANCH  21  24
ENDBRANCH  17  20
ENDBRANCH  14  16
ENDBRANCH   1  14
TORSDOF 4
ENDMDL
MODEL 2
REMARK VINA RESULT: -6.691940246      5.358      8.136
REMARK  4 active torsions:
REMARK  status: ('A' for Active; 'I' for Inactive)
REMARK    1  A    between atoms: N1_1  and  N2_4 
REMARK       I    between atoms: N2_4  and  C1_6 
REMARK    2  A    between atoms: C1_6  and  C2_8 
REMARK       I    between atoms: C2_8  and  N3_10 
REMARK    3  A    between atoms: N3_10  and  N4_12 
REMARK    4  A    between atoms: N4_12  and  C3_14 
ROOT
HETATM    1  C3  UNL     1      19.340  67.523  32.942  1.00  0.00     0.193 C 
HETATM    2  N5  UNL     1      20.129  66.794  32.135  1.00  0.00    -0.289 N 
ATOM      3  H5  UNL     1      20.983  66.427  32.553  1.00  0.00     0.172 HD
HETATM    4  C4  UNL     1      19.922  66.490  30.827  1.00  0.00     0.328 C 
HETATM    5  O3  UNL     1      20.945  66.301  30.155  1.00  0.00    -0.247 OA
HETATM    6  N6  UNL     1      18.717  66.382  30.227  1.00  0.00    -0.285 N 
ATOM      7  H6  UNL     1      18.721  65.941  29.307  1.00  0.00     0.173 HD
HETATM    8  C5  UNL     1      17.514  66.777  30.679  1.00  0.00     0.182 C 
HETATM    9  S1  UNL     1      16.271  66.252  29.784  1.00  0.00    -0.040 SA
HETATM   10  N7  UNL     1      17.228  67.534  31.754  1.00  0.00    -0.297 N 
ATOM     11  H7  UNL     1      16.254  67.824  31.835  1.00  0.00     0.171 HD
HETATM   12  C6  UNL     1      18.037  67.967  32.737  1.00  0.00     0.293 C 
HETATM   13  O4  UNL     1      17.639  68.823  33.546  1.00  0.00    -0.264 OA
ENDROOT
BRANCH   1  14
HETATM   14  N4  UNL     1      19.821  67.876  34.069  1.00  0.00    -0.278 N 
ATOM     15  H4  UNL     1      20.558  68.581  34.081  1.00  0.00     0.189 HD
BRANCH  14  16
HETATM   16  N3  UNL     1      19.393  67.354  35.279  1.00  0.00    -0.260 N 
HETATM   17  C2  UNL     1      19.591  68.099  36.468  1.00  0.00     0.329 C 
HETATM   18  O2  UNL     1      20.140  69.211  36.451  1.00  0.00    -0.261 OA
ATOM     19  H3  UNL     1      18.939  66.442  35.312  1.00  0.00     0.190 HD
BRANCH  17  20
HETATM   20  C1  UNL     1      19.136  67.538  37.727  1.00  0.00     0.329 C 
HETATM   21  N2  UNL     1      18.374  66.354  37.716  1.00  0.00    -0.268 N 
ATOM     22  H2  UNL     1      18.145  65.897  36.833  1.00  0.00     0.190 HD
HETATM   23  O1  UNL     1      19.399  68.074  38.829  1.00  0.00    -0.261 OA
BRANCH  21  24
HETATM   24  N1  UNL     1      17.935  65.813  38.920  1.00  0.00    -0.342 N 
ATOM     25  H12 UNL     1      18.526  65.143  39.411  1.00  0.00     0.176 HD
ATOM     26  H11 UNL     1      17.029  66.093  39.295  1.00  0.00     0.176 HD
ENDBRANCH  21  24
ENDBRANCH  17  20
ENDBRANCH  14  16
ENDBRANCH   1  14
TORSDOF 4
ENDMDL
MODEL 3
REMARK VINA RESULT: -6.657108942      1.572      2.240
REMARK  4 active torsions:
REMARK  status: ('A' for Active; 'I' for Inactive)
REMARK    1  A    between atoms: N1_1  and  N2_4 
REMARK       I    between atoms: N2_4  and  C1_6 
REMARK    2  A    between atoms: C1_6  and  C2_8 
REMARK       I    between atoms: C2_8  and  N3_10 
REMARK    3  A    between atoms: N3_10  and  N4_12 
REMARK    4  A    between atoms: N4_12  and  C3_14 
ROOT
HETATM    1  C3  UNL     1      15.911  64.287  39.316  1.00  0.00     0.193 C 
HETATM    2  N5  UNL     1      15.888  63.134  40.003  1.00  0.00    -0.289 N 
ATOM      3  H5  UNL     1      16.781  62.650  40.099  1.00  0.00     0.172 HD
HETATM    4  C4  UNL     1      14.816  62.537  40.586  1.00  0.00     0.328 C 
HETATM    5  O3  UNL     1      14.879  61.303  40.682  1.00  0.00    -0.247 OA
HETATM    6  N6  UNL     1      13.722  63.173  41.055  1.00  0.00    -0.285 N 
ATOM      7  H6  UNL     1      13.110  62.615  41.651  1.00  0.00     0.173 HD
HETATM    8  C5  UNL     1      13.330  64.442  40.841  1.00  0.00     0.182 C 
HETATM    9  S1  UNL     1      12.093  64.913  41.773  1.00  0.00    -0.040 SA
HETATM   10  N7  UNL     1      13.828  65.338  39.970  1.00  0.00    -0.297 N 
ATOM     11  H7  UNL     1      13.291  66.200  39.880  1.00  0.00     0.171 HD
HETATM   12  C6  UNL     1      14.928  65.266  39.201  1.00  0.00     0.293 C 
HETATM   13  O4  UNL     1      15.126  66.110  38.309  1.00  0.00    -0.264 OA
ENDROOT
BRANCH   1  14
HETATM   14  N4  UNL     1      16.972  64.561  38.663  1.00  0.00    -0.278 N 
ATOM     15  H4  UNL     1      17.363  63.844  38.053  1.00  0.00     0.189 HD
BRANCH  14  16
HETATM   16  N3  UNL     1      17.621  65.782  38.740  1.00  0.00    -0.260 N 
HETATM   17  C2  UNL     1      18.671  66.071  37.834  1.00  0.00     0.329 C 
HETATM   18  O2  UNL     1      19.025  65.252  36.971  1.00  0.00    -0.261 OA
ATOM     19  H3  UNL     1      17.345  66.468  39.442  1.00  0.00     0.190 HD
BRANCH  17  20
HETATM   20  C1  UNL     1      19.341  67.355  37.926  1.00  0.00     0.329 C 
HETATM   21  N2  UNL     1      20.014  67.862  36.798  1.00  0.00    -0.268 N 
ATOM     22  H2  UNL     1      20.028  67.331  35.926  1.00  0.00     0.190 HD
HETATM   23  O1  UNL     1      19.344  68.032  38.982  1.00  0.00    -0.261 OA
BRANCH  21  24
HETATM   24  N1  UNL     1      20.659  69.091  36.881  1.00  0.00    -0.342 N 
ATOM     25  H12 UNL     1      21.099  69.366  37.759  1.00  0.00     0.176 HD
ATOM     26  H11 UNL     1      20.682  69.701  36.064  1.00  0.00     0.176 HD
ENDBRANCH  21  24
ENDBRANCH  17  20
ENDBRANCH  14  16
ENDBRANCH   1  14
TORSDOF 4
ENDMDL
MODEL 4
REMARK VINA RESULT: -6.577822053      4.479      6.206
REMARK  4 active torsions:
REMARK  status: ('A' for Active; 'I' for Inactive)
REMARK    1  A    between atoms: N1_1  and  N2_4 
REMARK       I    between atoms: N2_4  and  C1_6 
REMARK    2  A    between atoms: C1_6  and  C2_8 
REMARK       I    between atoms: C2_8  and  N3_10 
REMARK    3  A    between atoms: N3_10  and  N4_12 
REMARK    4  A    between atoms: N4_12  and  C3_14 
ROOT
HETATM    1  C3  UNL     1      17.901  67.667  35.336  1.00  0.00     0.193 C 
HETATM    2  N5  UNL     1      18.943  67.050  35.916  1.00  0.00    -0.289 N 
ATOM      3  H5  UNL     1      19.864  67.444  35.720  1.00  0.00     0.172 HD
HETATM    4  C4  UNL     1      18.917  65.963  36.730  1.00  0.00     0.328 C 
HETATM    5  O3  UNL     1      19.935  65.259  36.713  1.00  0.00    -0.247 OA
HETATM    6  N6  UNL     1      17.891  65.609  37.533  1.00  0.00    -0.285 N 
ATOM      7  H6  UNL     1      18.105  64.900  38.235  1.00  0.00     0.173 HD
HETATM    8  C5  UNL     1      16.625  66.064  37.532  1.00  0.00     0.182 C 
HETATM    9  S1  UNL     1      15.752  65.581  38.806  1.00  0.00    -0.040 SA
HETATM   10  N7  UNL     1      16.018  66.850  36.625  1.00  0.00    -0.297 N 
ATOM     11  H7  UNL     1      15.012  66.964  36.753  1.00  0.00     0.171 HD
HETATM   12  C6  UNL     1      16.538  67.508  35.574  1.00  0.00     0.293 C 
HETATM   13  O4  UNL     1      15.791  68.029  34.728  1.00  0.00    -0.264 OA
ENDROOT
BRANCH   1  14
HETATM   14  N4  UNL     1      18.156  68.531  34.434  1.00  0.00    -0.278 N 
ATOM     15  H4  UNL     1      18.479  69.454  34.726  1.00  0.00     0.189 HD
BRANCH  14  16
HETATM   16  N3  UNL     1      18.018  68.282  33.078  1.00  0.00    -0.260 N 
HETATM   17  C2  UNL     1      19.060  67.620  32.383  1.00  0.00     0.329 C 
HETATM   18  O2  UNL     1      20.096  67.258  32.961  1.00  0.00    -0.261 OA
ATOM     19  H3  UNL     1      17.174  68.572  32.586  1.00  0.00     0.190 HD
BRANCH  17  20
HETATM   20  C1  UNL     1      18.901  67.367  30.963  1.00  0.00     0.329 C 
HETATM   21  N2  UNL     1      19.769  66.460  30.325  1.00  0.00    -0.268 N 
ATOM     22  H2  UNL     1      20.500  65.987  30.857  1.00  0.00     0.190 HD
HETATM   23  O1  UNL     1      18.013  67.930  30.279  1.00  0.00    -0.261 OA
BRANCH  21  24
HETATM   24  N1  UNL     1      19.621  66.213  28.964  1.00  0.00    -0.342 N 
ATOM     25  H12 UNL     1      18.769  65.767  28.627  1.00  0.00     0.176 HD
ATOM     26  H11 UNL     1      20.367  66.482  28.323  1.00  0.00     0.176 HD
ENDBRANCH  21  24
ENDBRANCH  17  20
ENDBRANCH  14  16
ENDBRANCH   1  14
TORSDOF 4
ENDMDL
MODEL 5
REMARK VINA RESULT: -6.529061891      2.097      2.321
REMARK  4 active torsions:
REMARK  status: ('A' for Active; 'I' for Inactive)
REMARK    1  A    between atoms: N1_1  and  N2_4 
REMARK       I    between atoms: N2_4  and  C1_6 
REMARK    2  A    between atoms: C1_6  and  C2_8 
REMARK       I    between atoms: C2_8  and  N3_10 
REMARK    3  A    between atoms: N3_10  and  N4_12 
REMARK    4  A    between atoms: N4_12  and  C3_14 
ROOT
HETATM    1  C3  UNL     1      16.414  65.524  38.502  1.00  0.00     0.193 C 
HETATM    2  N5  UNL     1      15.231  65.471  37.869  1.00  0.00    -0.289 N 
ATOM      3  H5  UNL     1      15.185  65.936  36.963  1.00  0.00     0.172 HD
HETATM    4  C4  UNL     1      14.088  64.871  38.294  1.00  0.00     0.328 C 
HETATM    5  O3  UNL     1      13.036  65.368  37.871  1.00  0.00    -0.247 OA
HETATM    6  N6  UNL     1      14.021  63.804  39.117  1.00  0.00    -0.285 N 
ATOM      7  H6  UNL     1      13.113  63.343  39.169  1.00  0.00     0.173 HD
HETATM    8  C5  UNL     1      14.991  63.267  39.879  1.00  0.00     0.182 C 
HETATM    9  S1  UNL     1      14.595  61.843  40.540  1.00  0.00    -0.040 SA
HETATM   10  N7  UNL     1      16.214  63.758  40.150  1.00  0.00    -0.297 N 
ATOM     11  H7  UNL     1      16.739  63.249  40.861  1.00  0.00     0.171 HD
HETATM   12  C6  UNL     1      16.848  64.820  39.623  1.00  0.00     0.293 C 
HETATM   13  O4  UNL     1      17.898  65.242  40.136  1.00  0.00    -0.264 OA
ENDROOT
BRANCH   1  14
HETATM   14  N4  UNL     1      17.294  66.322  38.038  1.00  0.00    -0.278 N 
ATOM     15  H4  UNL     1      17.932  66.772  38.694  1.00  0.00     0.189 HD
BRANCH  14  16
HETATM   16  N3  UNL     1      17.429  66.608  36.690  1.00  0.00    -0.260 N 
HETATM   17  C2  UNL     1      18.502  67.425  36.255  1.00  0.00     0.329 C 
HETATM   18  O2  UNL     1      19.326  67.890  37.057  1.00  0.00    -0.261 OA
ATOM     19  H3  UNL     1      16.762  66.234  36.016  1.00  0.00     0.190 HD
BRANCH  17  20
HETATM   20  C1  UNL     1      18.630  67.716  34.840  1.00  0.00     0.329 C 
HETATM   21  N2  UNL     1      19.877  67.535  34.211  1.00  0.00    -0.268 N 
ATOM     22  H2  UNL     1      20.680  67.203  34.746  1.00  0.00     0.190 HD
HETATM   23  O1  UNL     1      17.665  68.125  34.152  1.00  0.00    -0.261 OA
BRANCH  21  24
HETATM   24  N1  UNL     1      20.006  67.813  32.854  1.00  0.00    -0.342 N 
ATOM     25  H12 UNL     1      19.635  67.153  32.172  1.00  0.00     0.176 HD
ATOM     26  H11 UNL     1      20.469  68.673  32.561  1.00  0.00     0.176 HD
ENDBRANCH  21  24
ENDBRANCH  17  20
ENDBRANCH  14  16
ENDBRANCH   1  14
TORSDOF 4
ENDMDL
