MODEL 1
REMARK VINA RESULT: -6.483963577      0.000      0.000
REMARK  6 active torsions:
REMARK  status: ('A' for Active; 'I' for Inactive)
REMARK    1  A    between atoms: C2_2  and  O1_4 
REMARK    2  A    between atoms: C2_2  and  C4_6 
REMARK    3  A    between atoms: C4_6  and  C5_8 
REMARK    4  A    between atoms: C9_17  and  N3_18 
REMARK    5  A    between atoms: N4_21  and  N5_22 
REMARK    6  A    between atoms: N5_22  and  N6_24 
ROOT
HETATM    1  C5  UNL     1      15.384  68.536  34.943  1.00  0.00     0.108 A 
HETATM    2  C6  UNL     1      14.183  68.159  35.570  1.00  0.00     0.124 A 
HETATM    3  N1  UNL     1      14.532  67.369  36.596  1.00  0.00    -0.345 N 
ATOM      4  H1  UNL     1      13.880  66.933  37.248  1.00  0.00     0.167 HD
HETATM    5  C7  UNL     1      15.847  67.240  36.636  1.00  0.00     0.185 A 
HETATM    6  C8  UNL     1      16.521  66.509  37.616  1.00  0.00     0.304 C 
HETATM    7  O3  UNL     1      15.893  65.624  38.235  1.00  0.00    -0.263 OA
HETATM    8  N2  UNL     1      17.810  66.635  37.996  1.00  0.00    -0.151 N 
ATOM      9  H2  UNL     1      18.107  66.109  38.818  1.00  0.00     0.188 HD
HETATM   10  C9  UNL     1      18.749  67.405  37.377  1.00  0.00     0.704 C 
HETATM   11  N4  UNL     1      18.736  67.954  36.132  1.00  0.00    -0.042 N 
HETATM   12  C10 UNL     1      17.679  67.965  35.303  1.00  0.00     0.241 C 
HETATM   13  N7  UNL     1      17.971  67.920  33.928  1.00  0.00    -0.060 NA
HETATM   14  N8  UNL     1      16.374  67.965  35.599  1.00  0.00    -0.259 N 
ENDROOT
BRANCH   1  15
HETATM   15  C4  UNL     1      15.471  69.395  33.797  1.00  0.00     0.211 C 
HETATM   16  O2  UNL     1      15.818  70.561  33.776  1.00  0.00    -0.287 OA
BRANCH  15  17
HETATM   17  C2  UNL     1      15.109  68.854  32.430  1.00  0.00     0.117 C 
HETATM   18  C1  UNL     1      15.966  69.552  31.397  1.00  0.00     0.054 C 
HETATM   19  C3  UNL     1      13.671  69.054  32.089  1.00  0.00     0.054 C 
BRANCH  17  20
HETATM   20  O1  UNL     1      15.407  67.491  32.327  1.00  0.00    -0.382 OA
ATOM     21  H1  UNL     1      15.840  67.377  31.489  1.00  0.00     0.211 HD
ENDBRANCH  17  20
ENDBRANCH  15  17
ENDBRANCH   1  15
BRANCH  11  22
HETATM   22  N5  UNL     1      19.916  68.528  35.724  1.00  0.00    -0.226 N 
ATOM     23  H5  UNL     1      20.200  69.402  36.168  1.00  0.00     0.209 HD
BRANCH  22  24
HETATM   24  N6  UNL     1      20.753  67.990  34.738  1.00  0.00    -0.330 N 
ATOM     25  H62 UNL     1      20.648  66.996  34.536  1.00  0.00     0.178 HD
ATOM     26  H61 UNL     1      21.449  68.528  34.221  1.00  0.00     0.178 HD
ENDBRANCH  22  24
ENDBRANCH  11  22
BRANCH  10  27
HETATM   27  N3  UNL     1      19.781  67.619  38.100  1.00  0.00    -0.233 N 
ATOM     28  H32 UNL     1      19.711  68.350  38.808  1.00  0.00     0.174 HD
ATOM     29  H31 UNL     1      20.567  67.014  37.866  1.00  0.00     0.174 HD
ENDBRANCH  10  27
TORSDOF 6
ENDMDL
MODEL 2
REMARK VINA RESULT: -6.418872973      1.673      5.076
REMARK  6 active torsions:
REMARK  status: ('A' for Active; 'I' for Inactive)
REMARK    1  A    between atoms: C2_2  and  O1_4 
REMARK    2  A    between atoms: C2_2  and  C4_6 
REMARK    3  A    between atoms: C4_6  and  C5_8 
REMARK    4  A    between atoms: C9_17  and  N3_18 
REMARK    5  A    between atoms: N4_21  and  N5_22 
REMARK    6  A    between atoms: N5_22  and  N6_24 
ROOT
HETATM    1  C5  UNL     1      15.972  66.529  37.207  1.00  0.00     0.108 A 
HETATM    2  C6  UNL     1      14.570  66.615  37.135  1.00  0.00     0.124 A 
HETATM    3  N1  UNL     1      14.301  67.513  36.177  1.00  0.00    -0.345 N 
ATOM      4  H1  UNL     1      13.366  67.797  35.885  1.00  0.00     0.167 HD
HETATM    5  C7  UNL     1      15.429  67.976  35.666  1.00  0.00     0.185 A 
HETATM    6  C8  UNL     1      15.481  68.899  34.620  1.00  0.00     0.304 C 
HETATM    7  O3  UNL     1      14.483  69.621  34.413  1.00  0.00    -0.263 OA
HETATM    8  N2  UNL     1      16.506  69.124  33.771  1.00  0.00    -0.151 N 
ATOM      9  H2  UNL     1      16.330  69.746  32.981  1.00  0.00     0.188 HD
HETATM   10  C9  UNL     1      17.757  68.593  33.878  1.00  0.00     0.704 C 
HETATM   11  N4  UNL     1      18.360  68.004  34.945  1.00  0.00    -0.042 N 
HETATM   12  C10 UNL     1      17.750  67.685  36.099  1.00  0.00     0.241 C 
HETATM   13  N7  UNL     1      18.547  67.740  37.256  1.00  0.00    -0.060 NA
HETATM   14  N8  UNL     1      16.469  67.364  36.316  1.00  0.00    -0.259 N 
ENDROOT
BRANCH   1  15
HETATM   15  C4  UNL     1      16.692  65.670  38.102  1.00  0.00     0.211 C 
HETATM   16  O2  UNL     1      17.819  65.236  37.958  1.00  0.00    -0.287 OA
BRANCH  15  17
HETATM   17  C2  UNL     1      16.037  65.218  39.391  1.00  0.00     0.117 C 
HETATM   18  C1  UNL     1      17.122  64.795  40.356  1.00  0.00     0.054 C 
HETATM   19  C3  UNL     1      15.088  64.086  39.193  1.00  0.00     0.054 C 
BRANCH  17  20
HETATM   20  O1  UNL     1      15.354  66.271  40.010  1.00  0.00    -0.382 OA
ATOM     21  H1  UNL     1      15.925  66.587  40.700  1.00  0.00     0.211 HD
ENDBRANCH  17  20
ENDBRANCH  15  17
ENDBRANCH   1  15
BRANCH  11  22
HETATM   22  N5  UNL     1      19.698  67.732  34.796  1.00  0.00    -0.226 N 
ATOM     23  H5  UNL     1      19.964  66.963  34.181  1.00  0.00     0.209 HD
BRANCH  22  24
HETATM   24  N6  UNL     1      20.722  68.445  35.435  1.00  0.00    -0.330 N 
ATOM     25  H62 UNL     1      20.761  69.450  35.263  1.00  0.00     0.178 HD
ATOM     26  H61 UNL     1      21.416  68.022  36.052  1.00  0.00     0.178 HD
ENDBRANCH  22  24
ENDBRANCH  11  22
BRANCH  10  27
HETATM   27  N3  UNL     1      18.435  68.683  32.798  1.00  0.00    -0.233 N 
ATOM     28  H32 UNL     1      18.182  68.057  32.034  1.00  0.00     0.174 HD
ATOM     29  H31 UNL     1      19.169  69.391  32.844  1.00  0.00     0.174 HD
ENDBRANCH  10  27
TORSDOF 6
ENDMDL
MODEL 3
REMARK VINA RESULT: -6.256154285      1.682      2.357
REMARK  6 active torsions:
REMARK  status: ('A' for Active; 'I' for Inactive)
REMARK    1  A    between atoms: C2_2  and  O1_4 
REMARK    2  A    between atoms: C2_2  and  C4_6 
REMARK    3  A    between atoms: C4_6  and  C5_8 
REMARK    4  A    between atoms: C9_17  and  N3_18 
REMARK    5  A    between atoms: N4_21  and  N5_22 
REMARK    6  A    between atoms: N5_22  and  N6_24 
ROOT
HETATM    1  C5  UNL     1      15.299  68.024  35.738  1.00  0.00     0.108 A 
HETATM    2  C6  UNL     1      14.984  67.636  37.052  1.00  0.00     0.124 A 
HETATM    3  N1  UNL     1      16.093  67.070  37.549  1.00  0.00    -0.345 N 
ATOM      4  H1  UNL     1      16.184  66.686  38.489  1.00  0.00     0.167 HD
HETATM    5  C7  UNL     1      17.051  67.084  36.639  1.00  0.00     0.185 A 
HETATM    6  C8  UNL     1      18.340  66.601  36.868  1.00  0.00     0.304 C 
HETATM    7  O3  UNL     1      18.511  65.774  37.787  1.00  0.00    -0.263 OA
HETATM    8  N2  UNL     1      19.470  66.921  36.201  1.00  0.00    -0.151 N 
ATOM      9  H2  UNL     1      20.351  66.573  36.582  1.00  0.00     0.188 HD
HETATM   10  C9  UNL     1      19.536  67.668  35.062  1.00  0.00     0.704 C 
HETATM   11  N4  UNL     1      18.551  67.995  34.183  1.00  0.00    -0.042 N 
HETATM   12  C10 UNL     1      17.242  67.759  34.365  1.00  0.00     0.241 C 
HETATM   13  N7  UNL     1      16.489  67.514  33.203  1.00  0.00    -0.060 NA
HETATM   14  N8  UNL     1      16.550  67.675  35.508  1.00  0.00    -0.259 N 
ENDROOT
BRANCH   1  15
HETATM   15  C4  UNL     1      14.393  68.683  34.841  1.00  0.00     0.211 C 
HETATM   16  O2  UNL     1      14.416  69.849  34.498  1.00  0.00    -0.287 OA
BRANCH  15  17
HETATM   17  C2  UNL     1      13.263  67.896  34.212  1.00  0.00     0.117 C 
HETATM   18  C1  UNL     1      12.981  68.475  32.843  1.00  0.00     0.054 C 
HETATM   19  C3  UNL     1      12.013  67.927  35.024  1.00  0.00     0.054 C 
BRANCH  17  20
HETATM   20  O1  UNL     1      13.626  66.561  34.004  1.00  0.00    -0.382 OA
ATOM     21  H1  UNL     1      13.120  66.049  34.623  1.00  0.00     0.211 HD
ENDBRANCH  17  20
ENDBRANCH  15  17
ENDBRANCH   1  15
BRANCH  11  22
HETATM   22  N5  UNL     1      18.968  68.611  33.027  1.00  0.00    -0.226 N 
ATOM     23  H5  UNL     1      19.259  69.587  33.084  1.00  0.00     0.209 HD
BRANCH  22  24
HETATM   24  N6  UNL     1      19.019  67.983  31.775  1.00  0.00    -0.330 N 
ATOM     25  H62 UNL     1      19.198  66.979  31.771  1.00  0.00     0.178 HD
ATOM     26  H61 UNL     1      18.889  68.466  30.886  1.00  0.00     0.178 HD
ENDBRANCH  22  24
ENDBRANCH  11  22
BRANCH  10  27
HETATM   27  N3  UNL     1      20.711  68.105  34.815  1.00  0.00    -0.233 N 
ATOM     28  H32 UNL     1      21.079  67.951  33.876  1.00  0.00     0.174 HD
ATOM     29  H31 UNL     1      21.145  68.564  35.616  1.00  0.00     0.174 HD
ENDBRANCH  10  27
TORSDOF 6
ENDMDL
MODEL 4
REMARK VINA RESULT: -6.253858581      1.597      2.404
REMARK  6 active torsions:
REMARK  status: ('A' for Active; 'I' for Inactive)
REMARK    1  A    between atoms: C2_2  and  O1_4 
REMARK    2  A    between atoms: C2_2  and  C4_6 
REMARK    3  A    between atoms: C4_6  and  C5_8 
REMARK    4  A    between atoms: C9_17  and  N3_18 
REMARK    5  A    between atoms: N4_21  and  N5_22 
REMARK    6  A    between atoms: N5_22  and  N6_24 
ROOT
HETATM    1  C5  UNL     1      15.328  68.866  33.555  1.00  0.00     0.108 A 
HETATM    2  C6  UNL     1      14.400  68.888  34.612  1.00  0.00     0.124 A 
HETATM    3  N1  UNL     1      15.020  68.334  35.664  1.00  0.00    -0.345 N 
ATOM      4  H1  UNL     1      14.607  68.206  36.587  1.00  0.00     0.167 HD
HETATM    5  C7  UNL     1      16.247  67.979  35.325  1.00  0.00     0.185 A 
HETATM    6  C8  UNL     1      17.159  67.408  36.214  1.00  0.00     0.304 C 
HETATM    7  O3  UNL     1      16.718  66.842  37.236  1.00  0.00    -0.263 OA
HETATM    8  N2  UNL     1      18.506  67.387  36.113  1.00  0.00    -0.151 N 
ATOM      9  H2  UNL     1      19.028  67.041  36.918  1.00  0.00     0.188 HD
HETATM   10  C9  UNL     1      19.226  67.787  35.027  1.00  0.00     0.704 C 
HETATM   11  N4  UNL     1      18.820  67.995  33.746  1.00  0.00    -0.042 N 
HETATM   12  C10 UNL     1      17.543  67.990  33.330  1.00  0.00     0.241 C 
HETATM   13  N7  UNL     1      17.323  67.545  32.014  1.00  0.00    -0.060 NA
HETATM   14  N8  UNL     1      16.433  68.307  34.007  1.00  0.00    -0.259 N 
ENDROOT
BRANCH   1  15
HETATM   15  C4  UNL     1      15.076  69.374  32.238  1.00  0.00     0.211 C 
HETATM   16  O2  UNL     1      14.571  68.781  31.304  1.00  0.00    -0.287 OA
BRANCH  15  17
HETATM   17  C2  UNL     1      15.454  70.802  31.905  1.00  0.00     0.117 C 
HETATM   18  C1  UNL     1      14.236  71.500  31.341  1.00  0.00     0.054 C 
HETATM   19  C3  UNL     1      16.570  70.893  30.921  1.00  0.00     0.054 C 
BRANCH  17  20
HETATM   20  O1  UNL     1      15.814  71.515  33.054  1.00  0.00    -0.382 OA
ATOM     21  H1  UNL     1      16.729  71.316  33.213  1.00  0.00     0.211 HD
ENDBRANCH  17  20
ENDBRANCH  15  17
ENDBRANCH   1  15
BRANCH  11  22
HETATM   22  N5  UNL     1      19.823  68.219  32.834  1.00  0.00    -0.226 N 
ATOM     23  H5  UNL     1      20.252  69.144  32.813  1.00  0.00     0.209 HD
BRANCH  22  24
HETATM   24  N6  UNL     1      20.295  67.256  31.931  1.00  0.00    -0.330 N 
ATOM     25  H62 UNL     1      21.124  66.731  32.209  1.00  0.00     0.178 HD
ATOM     26  H61 UNL     1      19.863  67.056  31.029  1.00  0.00     0.178 HD
ENDBRANCH  22  24
ENDBRANCH  11  22
BRANCH  10  27
HETATM   27  N3  UNL     1      20.462  67.984  35.289  1.00  0.00    -0.233 N 
ATOM     28  H32 UNL     1      21.104  68.035  34.498  1.00  0.00     0.174 HD
ATOM     29  H31 UNL     1      20.653  68.063  36.288  1.00  0.00     0.174 HD
ENDBRANCH  10  27
TORSDOF 6
ENDMDL
MODEL 5
REMARK VINA RESULT: -6.226317862      2.373      3.247
REMARK  6 active torsions:
REMARK  status: ('A' for Active; 'I' for Inactive)
REMARK    1  A    between atoms: C2_2  and  O1_4 
REMARK    2  A    between atoms: C2_2  and  C4_6 
REMARK    3  A    between atoms: C4_6  and  C5_8 
REMARK    4  A    between atoms: C9_17  and  N3_18 
REMARK    5  A    between atoms: N4_21  and  N5_22 
REMARK    6  A    between atoms: N5_22  and  N6_24 
ROOT
HETATM    1  C5  UNL     1      15.369  67.222  37.172  1.00  0.00     0.108 A 
HETATM    2  C6  UNL     1      15.451  66.408  38.316  1.00  0.00     0.124 A 
HETATM    3  N1  UNL     1      16.696  65.911  38.329  1.00  0.00    -0.345 N 
ATOM      4  H1  UNL     1      17.068  65.281  39.040  1.00  0.00     0.167 HD
HETATM    5  C7  UNL     1      17.370  66.359  37.284  1.00  0.00     0.185 A 
HETATM    6  C8  UNL     1      18.709  66.050  37.038  1.00  0.00     0.304 C 
HETATM    7  O3  UNL     1      19.188  65.023  37.564  1.00  0.00    -0.263 OA
HETATM    8  N2  UNL     1      19.587  66.739  36.279  1.00  0.00    -0.151 N 
ATOM      9  H2  UNL     1      20.563  66.444  36.311  1.00  0.00     0.188 HD
HETATM   10  C9  UNL     1      19.282  67.795  35.473  1.00  0.00     0.704 C 
HETATM   11  N4  UNL     1      18.074  68.205  35.002  1.00  0.00    -0.042 N 
HETATM   12  C10 UNL     1      16.886  67.710  35.387  1.00  0.00     0.241 C 
HETATM   13  N7  UNL     1      15.871  67.708  34.413  1.00  0.00    -0.060 NA
HETATM   14  N8  UNL     1      16.536  67.172  36.561  1.00  0.00    -0.259 N 
ENDROOT
BRANCH   1  15
HETATM   15  C4  UNL     1      14.204  67.961  36.779  1.00  0.00     0.211 C 
HETATM   16  O2  UNL     1      14.010  69.154  36.911  1.00  0.00    -0.287 OA
BRANCH  15  17
HETATM   17  C2  UNL     1      13.050  67.238  36.115  1.00  0.00     0.117 C 
HETATM   18  C1  UNL     1      12.388  68.186  35.142  1.00  0.00     0.054 C 
HETATM   19  C3  UNL     1      12.035  66.748  37.091  1.00  0.00     0.054 C 
BRANCH  17  20
HETATM   20  O1  UNL     1      13.500  66.151  35.357  1.00  0.00    -0.382 OA
ATOM     21  H1  UNL     1      12.732  65.627  35.164  1.00  0.00     0.211 HD
ENDBRANCH  17  20
ENDBRANCH  15  17
ENDBRANCH   1  15
BRANCH  11  22
HETATM   22  N5  UNL     1      18.112  69.201  34.057  1.00  0.00    -0.226 N 
ATOM     23  H5  UNL     1      18.181  70.166  34.382  1.00  0.00     0.209 HD
BRANCH  22  24
HETATM   24  N6  UNL     1      18.062  68.977  32.674  1.00  0.00    -0.330 N 
ATOM     25  H62 UNL     1      17.875  68.022  32.369  1.00  0.00     0.178 HD
ATOM     26  H61 UNL     1      18.201  69.702  31.970  1.00  0.00     0.178 HD
ENDBRANCH  22  24
ENDBRANCH  11  22
BRANCH  10  27
HETATM   27  N3  UNL     1      20.307  68.475  35.126  1.00  0.00    -0.233 N 
ATOM     28  H32 UNL     1      20.158  69.247  34.476  1.00  0.00     0.174 HD
ATOM     29  H31 UNL     1      21.171  68.146  35.557  1.00  0.00     0.174 HD
ENDBRANCH  10  27
TORSDOF 6
ENDMDL
