MODEL 1
REMARK VINA RESULT: -6.856888595      0.000      0.000
REMARK  5 active torsions:
REMARK  status: ('A' for Active; 'I' for Inactive)
REMARK    1  A    between atoms: N1_1  and  C1_4 
REMARK    2  A    between atoms: N4_13  and  C5_14 
REMARK    3  A    between atoms: C5_14  and  O2_15 
REMARK    4  A    between atoms: C7_21  and  C8_22 
REMARK    5  A    between atoms: C8_22  and  O3_23 
ROOT
HETATM    1  C1  UNL     1      16.491  66.424  37.957  1.00  0.00     0.681 C 
HETATM    2  N2  UNL     1      17.796  66.445  38.279  1.00  0.00    -0.154 N 
ATOM      3  H2  UNL     1      18.038  66.111  39.212  1.00  0.00     0.187 HD
HETATM    4  C2  UNL     1      18.829  66.862  37.498  1.00  0.00     0.288 C 
HETATM    5  O1  UNL     1      19.938  66.841  38.050  1.00  0.00    -0.265 OA
HETATM    6  C3  UNL     1      18.762  67.294  36.190  1.00  0.00     0.135 A 
HETATM    7  N3  UNL     1      19.832  67.428  35.398  1.00  0.00    -0.346 N 
ATOM      8  H3  UNL     1      20.802  67.237  35.649  1.00  0.00     0.167 HD
HETATM    9  C4  UNL     1      19.384  67.861  34.209  1.00  0.00     0.189 A 
HETATM   10  N4  UNL     1      18.020  68.012  34.218  1.00  0.00    -0.278 N 
HETATM   11  C9  UNL     1      17.626  67.661  35.453  1.00  0.00     0.141 A 
HETATM   12  C10 UNL     1      16.334  67.655  35.933  1.00  0.00     0.289 C 
HETATM   13  O4  UNL     1      15.556  68.397  35.300  1.00  0.00    -0.265 OA
HETATM   14  N7  UNL     1      15.791  66.978  36.970  1.00  0.00    -0.154 N 
ATOM     15  H7  UNL     1      14.776  66.886  36.997  1.00  0.00     0.187 HD
ENDROOT
BRANCH  10  16
HETATM   16  C5  UNL     1      17.172  68.449  33.152  1.00  0.00     0.338 C 
HETATM   17  C6  UNL     1      18.169  68.567  31.947  1.00  0.00     0.328 C 
HETATM   18  N5  UNL     1      17.223  69.015  30.929  1.00  0.00    -0.037 N 
HETATM   19  C7  UNL     1      16.414  69.958  31.671  1.00  0.00     0.411 C 
ATOM     20  H52 UNL     1      17.645  69.383  30.076  1.00  0.00     0.280 HD
ATOM     21  H51 UNL     1      16.703  68.271  30.462  1.00  0.00     0.280 HD
HETATM   22  N6  UNL     1      16.756  69.775  33.093  1.00  0.00     0.010 N 
ATOM     23  H62 UNL     1      16.008  70.014  33.743  1.00  0.00     0.285 HD
ATOM     24  H61 UNL     1      17.431  70.448  33.457  1.00  0.00     0.285 HD
BRANCH  16  25
HETATM   25  O2  UNL     1      16.359  67.476  32.570  1.00  0.00    -0.347 OA
ATOM     26  H2  UNL     1      16.221  67.548  31.632  1.00  0.00     0.214 HD
ENDBRANCH  16  25
BRANCH  19  27
HETATM   27  C8  UNL     1      16.677  71.380  31.282  1.00  0.00     0.226 C 
BRANCH  27  28
HETATM   28  O3  UNL     1      16.558  71.483  29.902  1.00  0.00    -0.397 OA
ATOM     29  H3  UNL     1      16.433  72.399  29.682  1.00  0.00     0.209 HD
ENDBRANCH  27  28
ENDBRANCH  19  27
ENDBRANCH  10  16
BRANCH   1  30
HETATM   30  N1  UNL     1      15.783  65.716  38.785  1.00  0.00    -0.234 N 
ATOM     31  H12 UNL     1      15.083  65.123  38.340  1.00  0.00     0.174 HD
ATOM     32  H11 UNL     1      16.045  65.871  39.759  1.00  0.00     0.174 HD
ENDBRANCH   1  30
TORSDOF 5
ENDMDL
MODEL 2
REMARK VINA RESULT: -6.814097091      2.586      4.391
REMARK  5 active torsions:
REMARK  status: ('A' for Active; 'I' for Inactive)
REMARK    1  A    between atoms: N1_1  and  C1_4 
REMARK    2  A    between atoms: N4_13  and  C5_14 
REMARK    3  A    between atoms: C5_14  and  O2_15 
REMARK    4  A    between atoms: C7_21  and  C8_22 
REMARK    5  A    between atoms: C8_22  and  O3_23 
ROOT
HETATM    1  C1  UNL     1      19.648  67.874  35.508  1.00  0.00     0.681 C 
HETATM    2  N2  UNL     1      19.614  66.996  36.525  1.00  0.00    -0.154 N 
ATOM      3  H2  UNL     1      20.515  66.665  36.869  1.00  0.00     0.187 HD
HETATM    4  C2  UNL     1      18.509  66.499  37.146  1.00  0.00     0.288 C 
HETATM    5  O1  UNL     1      18.742  65.652  38.019  1.00  0.00    -0.265 OA
HETATM    6  C3  UNL     1      17.195  66.838  36.902  1.00  0.00     0.135 A 
HETATM    7  N3  UNL     1      16.185  66.524  37.722  1.00  0.00    -0.346 N 
ATOM      8  H3  UNL     1      16.252  66.010  38.600  1.00  0.00     0.167 HD
HETATM    9  C4  UNL     1      15.066  67.016  37.166  1.00  0.00     0.189 A 
HETATM   10  N4  UNL     1      15.339  67.654  35.982  1.00  0.00    -0.278 N 
HETATM   11  C9  UNL     1      16.667  67.545  35.812  1.00  0.00     0.141 A 
HETATM   12  C10 UNL     1      17.403  68.035  34.754  1.00  0.00     0.289 C 
HETATM   13  O4  UNL     1      16.732  68.236  33.721  1.00  0.00    -0.265 OA
HETATM   14  N7  UNL     1      18.720  68.326  34.668  1.00  0.00    -0.154 N 
ATOM     15  H7  UNL     1      19.023  68.934  33.907  1.00  0.00     0.187 HD
ENDROOT
BRANCH  10  16
HETATM   16  C5  UNL     1      14.423  68.306  35.097  1.00  0.00     0.338 C 
HETATM   17  C6  UNL     1      13.110  68.373  35.953  1.00  0.00     0.328 C 
HETATM   18  N5  UNL     1      12.253  69.040  34.976  1.00  0.00    -0.037 N 
HETATM   19  C7  UNL     1      12.629  68.373  33.748  1.00  0.00     0.411 C 
ATOM     20  H52 UNL     1      11.256  69.022  35.190  1.00  0.00     0.280 HD
ATOM     21  H51 UNL     1      12.326  70.058  34.956  1.00  0.00     0.280 HD
HETATM   22  N6  UNL     1      13.846  67.598  34.049  1.00  0.00     0.010 N 
ATOM     23  H62 UNL     1      14.461  67.448  33.249  1.00  0.00     0.285 HD
ATOM     24  H61 UNL     1      13.683  66.610  34.243  1.00  0.00     0.285 HD
BRANCH  16  25
HETATM   25  O2  UNL     1      14.574  69.686  34.957  1.00  0.00    -0.347 OA
ATOM     26  H2  UNL     1      15.402  69.985  34.602  1.00  0.00     0.214 HD
ENDBRANCH  16  25
BRANCH  19  27
HETATM   27  C8  UNL     1      11.568  67.444  33.243  1.00  0.00     0.226 C 
BRANCH  27  28
HETATM   28  O3  UNL     1      12.095  66.159  33.212  1.00  0.00    -0.397 OA
ATOM     29  H3  UNL     1      11.708  65.697  32.477  1.00  0.00     0.209 HD
ENDBRANCH  27  28
ENDBRANCH  19  27
ENDBRANCH  10  16
BRANCH   1  30
HETATM   30  N1  UNL     1      20.833  68.373  35.319  1.00  0.00    -0.234 N 
ATOM     31  H12 UNL     1      21.432  67.818  34.709  1.00  0.00     0.174 HD
ATOM     32  H11 UNL     1      20.973  69.252  35.818  1.00  0.00     0.174 HD
ENDBRANCH   1  30
TORSDOF 5
ENDMDL
MODEL 3
REMARK VINA RESULT: -6.779427023      2.068      3.218
REMARK  5 active torsions:
REMARK  status: ('A' for Active; 'I' for Inactive)
REMARK    1  A    between atoms: N1_1  and  C1_4 
REMARK    2  A    between atoms: N4_13  and  C5_14 
REMARK    3  A    between atoms: C5_14  and  O2_15 
REMARK    4  A    between atoms: C7_21  and  C8_22 
REMARK    5  A    between atoms: C8_22  and  O3_23 
ROOT
HETATM    1  C1  UNL     1      19.464  67.798  37.485  1.00  0.00     0.681 C 
HETATM    2  N2  UNL     1      18.319  67.401  38.065  1.00  0.00    -0.154 N 
ATOM      3  H2  UNL     1      18.372  67.162  39.055  1.00  0.00     0.187 HD
HETATM    4  C2  UNL     1      17.097  67.282  37.478  1.00  0.00     0.288 C 
HETATM    5  O1  UNL     1      16.208  66.833  38.216  1.00  0.00    -0.265 OA
HETATM    6  C3  UNL     1      16.763  67.602  36.179  1.00  0.00     0.135 A 
HETATM    7  N3  UNL     1      15.503  67.721  35.745  1.00  0.00    -0.346 N 
ATOM      8  H3  UNL     1      14.656  67.593  36.297  1.00  0.00     0.167 HD
HETATM    9  C4  UNL     1      15.569  68.042  34.444  1.00  0.00     0.189 A 
HETATM   10  N4  UNL     1      16.871  68.134  34.020  1.00  0.00    -0.278 N 
HETATM   11  C9  UNL     1      17.622  67.860  35.100  1.00  0.00     0.141 A 
HETATM   12  C10 UNL     1      18.999  67.830  35.157  1.00  0.00     0.289 C 
HETATM   13  O4  UNL     1      19.547  67.659  34.050  1.00  0.00    -0.265 OA
HETATM   14  N7  UNL     1      19.831  67.955  36.215  1.00  0.00    -0.154 N 
ATOM     15  H7  UNL     1      20.806  68.186  36.027  1.00  0.00     0.187 HD
ENDROOT
BRANCH  10  16
HETATM   16  C5  UNL     1      17.355  68.455  32.713  1.00  0.00     0.338 C 
HETATM   17  C6  UNL     1      16.035  68.776  31.928  1.00  0.00     0.328 C 
HETATM   18  N5  UNL     1      16.627  69.081  30.628  1.00  0.00    -0.037 N 
HETATM   19  C7  UNL     1      17.647  68.060  30.521  1.00  0.00     0.411 C 
ATOM     20  H52 UNL     1      15.969  69.120  29.850  1.00  0.00     0.280 HD
ATOM     21  H51 UNL     1      16.960  70.040  30.517  1.00  0.00     0.280 HD
HETATM   22  N6  UNL     1      17.760  67.440  31.853  1.00  0.00     0.010 N 
ATOM     23  H62 UNL     1      18.679  67.049  32.062  1.00  0.00     0.285 HD
ATOM     24  H61 UNL     1      17.247  66.565  31.958  1.00  0.00     0.285 HD
BRANCH  16  25
HETATM   25  O2  UNL     1      17.925  69.719  32.556  1.00  0.00    -0.347 OA
ATOM     26  H2  UNL     1      18.569  69.807  31.864  1.00  0.00     0.214 HD
ENDBRANCH  16  25
BRANCH  19  27
HETATM   27  C8  UNL     1      17.308  67.004  29.515  1.00  0.00     0.226 C 
BRANCH  27  28
HETATM   28  O3  UNL     1      18.480  66.618  28.877  1.00  0.00    -0.397 OA
ATOM     29  H3  UNL     1      18.246  66.139  28.090  1.00  0.00     0.209 HD
ENDBRANCH  27  28
ENDBRANCH  19  27
ENDBRANCH  10  16
BRANCH   1  30
HETATM   30  N1  UNL     1      20.390  68.085  38.350  1.00  0.00    -0.234 N 
ATOM     31  H12 UNL     1      20.658  69.068  38.370  1.00  0.00     0.174 HD
ATOM     32  H11 UNL     1      20.703  67.268  38.876  1.00  0.00     0.174 HD
ENDBRANCH   1  30
TORSDOF 5
ENDMDL
MODEL 4
REMARK VINA RESULT: -6.660759138      2.631      6.743
REMARK  5 active torsions:
REMARK  status: ('A' for Active; 'I' for Inactive)
REMARK    1  A    between atoms: N1_1  and  C1_4 
REMARK    2  A    between atoms: N4_13  and  C5_14 
REMARK    3  A    between atoms: C5_14  and  O2_15 
REMARK    4  A    between atoms: C7_21  and  C8_22 
REMARK    5  A    between atoms: C8_22  and  O3_23 
ROOT
HETATM    1  C1  UNL     1      19.206  68.053  35.759  1.00  0.00     0.681 C 
HETATM    2  N2  UNL     1      18.399  68.620  34.846  1.00  0.00    -0.154 N 
ATOM      3  H2  UNL     1      18.844  69.239  34.170  1.00  0.00     0.187 HD
HETATM    4  C2  UNL     1      17.053  68.458  34.725  1.00  0.00     0.288 C 
HETATM    5  O1  UNL     1      16.526  69.142  33.836  1.00  0.00    -0.265 OA
HETATM    6  C3  UNL     1      16.243  67.632  35.475  1.00  0.00     0.135 A 
HETATM    7  N3  UNL     1      14.989  67.314  35.133  1.00  0.00    -0.346 N 
ATOM      8  H3  UNL     1      14.486  67.631  34.305  1.00  0.00     0.167 HD
HETATM    9  C4  UNL     1      14.521  66.497  36.089  1.00  0.00     0.189 A 
HETATM   10  N4  UNL     1      15.466  66.276  37.060  1.00  0.00    -0.278 N 
HETATM   11  C9  UNL     1      16.543  66.984  36.682  1.00  0.00     0.141 A 
HETATM   12  C10 UNL     1      17.745  67.071  37.352  1.00  0.00     0.289 C 
HETATM   13  O4  UNL     1      17.669  66.795  38.566  1.00  0.00    -0.265 OA
HETATM   14  N7  UNL     1      18.973  67.406  36.899  1.00  0.00    -0.154 N 
ATOM     15  H7  UNL     1      19.778  67.146  37.470  1.00  0.00     0.187 HD
ENDROOT
BRANCH  10  16
HETATM   16  C5  UNL     1      15.354  65.468  38.235  1.00  0.00     0.338 C 
HETATM   17  C6  UNL     1      14.181  64.493  37.870  1.00  0.00     0.328 C 
HETATM   18  N5  UNL     1      14.144  63.727  39.114  1.00  0.00    -0.037 N 
HETATM   19  C7  UNL     1      14.328  64.765  40.105  1.00  0.00     0.411 C 
ATOM     20  H52 UNL     1      13.315  63.148  39.242  1.00  0.00     0.280 HD
ATOM     21  H51 UNL     1      14.808  62.954  39.167  1.00  0.00     0.280 HD
HETATM   22  N6  UNL     1      14.736  65.977  39.373  1.00  0.00     0.010 N 
ATOM     23  H62 UNL     1      15.309  66.625  39.913  1.00  0.00     0.285 HD
ATOM     24  H61 UNL     1      13.980  66.635  39.186  1.00  0.00     0.285 HD
BRANCH  16  25
HETATM   25  O2  UNL     1      16.320  64.475  38.398  1.00  0.00    -0.347 OA
ATOM     26  H2  UNL     1      17.173  64.651  38.019  1.00  0.00     0.214 HD
ENDBRANCH  16  25
BRANCH  19  27
HETATM   27  C8  UNL     1      13.079  65.057  40.879  1.00  0.00     0.226 C 
BRANCH  27  28
HETATM   28  O3  UNL     1      13.050  66.417  41.161  1.00  0.00    -0.397 OA
ATOM     29  H3  UNL     1      13.922  66.767  41.025  1.00  0.00     0.209 HD
ENDBRANCH  27  28
ENDBRANCH  19  27
ENDBRANCH  10  16
BRANCH   1  30
HETATM   30  N1  UNL     1      20.464  68.165  35.453  1.00  0.00    -0.234 N 
ATOM     31  H12 UNL     1      20.639  68.541  34.521  1.00  0.00     0.174 HD
ATOM     32  H11 UNL     1      21.081  67.856  36.204  1.00  0.00     0.174 HD
ENDBRANCH   1  30
TORSDOF 5
ENDMDL
MODEL 5
REMARK VINA RESULT: -6.656385652      2.457      6.500
REMARK  5 active torsions:
REMARK  status: ('A' for Active; 'I' for Inactive)
REMARK    1  A    between atoms: N1_1  and  C1_4 
REMARK    2  A    between atoms: N4_13  and  C5_14 
REMARK    3  A    between atoms: C5_14  and  O2_15 
REMARK    4  A    between atoms: C7_21  and  C8_22 
REMARK    5  A    between atoms: C8_22  and  O3_23 
ROOT
HETATM    1  C1  UNL     1      17.328  68.989  34.017  1.00  0.00     0.681 C 
HETATM    2  N2  UNL     1      18.598  68.589  33.838  1.00  0.00    -0.154 N 
ATOM      3  H2  UNL     1      19.089  68.982  33.035  1.00  0.00     0.187 HD
HETATM    4  C2  UNL     1      19.302  67.715  34.609  1.00  0.00     0.288 C 
HETATM    5  O1  UNL     1      20.442  67.461  34.196  1.00  0.00    -0.265 OA
HETATM    6  C3  UNL     1      18.880  67.104  35.771  1.00  0.00     0.135 A 
HETATM    7  N3  UNL     1      19.703  66.479  36.620  1.00  0.00    -0.346 N 
ATOM      8  H3  UNL     1      20.712  66.374  36.522  1.00  0.00     0.167 HD
HETATM    9  C4  UNL     1      18.945  66.016  37.627  1.00  0.00     0.189 A 
HETATM   10  N4  UNL     1      17.623  66.337  37.441  1.00  0.00    -0.278 N 
HETATM   11  C9  UNL     1      17.577  67.016  36.282  1.00  0.00     0.141 A 
HETATM   12  C10 UNL     1      16.452  67.541  35.683  1.00  0.00     0.289 C 
HETATM   13  O4  UNL     1      15.387  67.004  36.047  1.00  0.00    -0.265 OA
HETATM   14  N7  UNL     1      16.332  68.535  34.775  1.00  0.00    -0.154 N 
ATOM     15  H7  UNL     1      15.414  68.967  34.662  1.00  0.00     0.187 HD
ENDROOT
BRANCH  10  16
HETATM   16  C5  UNL     1      16.511  66.028  38.285  1.00  0.00     0.338 C 
HETATM   17  C6  UNL     1      17.207  65.486  39.583  1.00  0.00     0.328 C 
HETATM   18  N5  UNL     1      16.007  65.200  40.365  1.00  0.00    -0.037 N 
HETATM   19  C7  UNL     1      15.134  64.622  39.367  1.00  0.00     0.411 C 
ATOM     20  H52 UNL     1      16.157  64.626  41.195  1.00  0.00     0.280 HD
ATOM     21  H51 UNL     1      15.619  65.997  40.872  1.00  0.00     0.280 HD
HETATM   22  N6  UNL     1      15.766  64.875  38.060  1.00  0.00     0.010 N 
ATOM     23  H62 UNL     1      15.114  64.938  37.279  1.00  0.00     0.285 HD
ATOM     24  H61 UNL     1      16.300  64.091  37.688  1.00  0.00     0.285 HD
BRANCH  16  25
HETATM   25  O2  UNL     1      15.882  67.110  38.902  1.00  0.00    -0.347 OA
ATOM     26  H2  UNL     1      15.308  67.631  38.353  1.00  0.00     0.214 HD
ENDBRANCH  16  25
BRANCH  19  27
HETATM   27  C8  UNL     1      14.948  63.146  39.543  1.00  0.00     0.226 C 
BRANCH  27  28
HETATM   28  O3  UNL     1      15.239  62.825  40.863  1.00  0.00    -0.397 OA
ATOM     29  H3  UNL     1      16.172  62.944  40.999  1.00  0.00     0.209 HD
ENDBRANCH  27  28
ENDBRANCH  19  27
ENDBRANCH  10  16
BRANCH   1  30
HETATM   30  N1  UNL     1      17.026  70.030  33.301  1.00  0.00    -0.234 N 
ATOM     31  H12 UNL     1      16.664  69.812  32.373  1.00  0.00     0.174 HD
ATOM     32  H11 UNL     1      17.202  70.908  33.789  1.00  0.00     0.174 HD
ENDBRANCH   1  30
TORSDOF 5
ENDMDL
