MODEL 1
REMARK VINA RESULT: -6.760709112      0.000      0.000
REMARK  5 active torsions:
REMARK  status: ('A' for Active; 'I' for Inactive)
REMARK    1  A    between atoms: O1_2  and  C2_3 
REMARK    2  A    between atoms: C4_6  and  C5_7 
REMARK    3  A    between atoms: C7_16  and  O4_17 
REMARK    4  A    between atoms: C7_16  and  C8_19 
REMARK    5  A    between atoms: C9_20  and  N5_21 
ROOT
HETATM    1  C2  UNL     1     -65.157  14.528  53.875  1.00  0.00     0.173 A 
HETATM    2  C3  UNL     1     -64.661  15.707  53.447  1.00  0.00     0.140 A 
HETATM    3  N1  UNL     1     -63.772  16.378  54.186  1.00  0.00    -0.226 N 
HETATM    4  C4  UNL     1     -63.361  15.889  55.364  1.00  0.00     0.197 A 
HETATM    5  N3  UNL     1     -63.846  14.707  55.812  1.00  0.00    -0.301 N 
ATOM      6  H3  UNL     1     -63.528  14.343  56.709  1.00  0.00     0.171 HD
HETATM    7  C6  UNL     1     -64.734  14.011  55.100  1.00  0.00     0.283 A 
HETATM    8  O3  UNL     1     -65.203  12.912  55.484  1.00  0.00    -0.265 OA
HETATM    9  N4  UNL     1     -63.230  17.591  53.741  1.00  0.00    -0.276 N 
ATOM     10  H4  UNL     1     -62.242  17.770  53.920  1.00  0.00     0.185 HD
HETATM   11  C7  UNL     1     -63.980  18.592  53.049  1.00  0.00     0.265 C 
HETATM   12  C10 UNL     1     -64.800  18.106  51.926  1.00  0.00     0.117 C 
HETATM   13  N6  UNL     1     -65.187  18.925  51.037  1.00  0.00    -0.392 N 
ATOM     14  H61 UNL     1     -65.754  18.588  50.260  1.00  0.00     0.156 HD
ATOM     15  H62 UNL     1     -64.958  19.919  51.054  1.00  0.00     0.156 HD
HETATM   16  S1  UNL     1     -65.200  16.363  51.896  1.00  0.00    -0.048 SA
ENDROOT
BRANCH  11  17
HETATM   17  O4  UNL     1     -63.108  19.589  52.615  1.00  0.00    -0.354 OA
ATOM     18  H4  UNL     1     -63.323  19.815  51.717  1.00  0.00     0.214 HD
ENDBRANCH  11  17
BRANCH  11  19
HETATM   19  C8  UNL     1     -64.928  19.273  53.974  1.00  0.00    -0.014 C 
HETATM   20  C9  UNL     1     -65.696  19.830  54.719  1.00  0.00     0.009 C 
BRANCH  20  21
HETATM   21  N5  UNL     1     -66.579  20.494  55.581  1.00  0.00    -0.359 N 
ATOM     22  H52 UNL     1     -65.956  20.601  54.780  1.00  0.00     0.166 HD
ATOM     23  H51 UNL     1     -67.224  20.966  56.214  1.00  0.00     0.166 HD
ENDBRANCH  20  21
ENDBRANCH  11  19
BRANCH   4  24
HETATM   24  C5  UNL     1     -62.434  16.575  56.249  1.00  0.00     0.300 C 
HETATM   25  N2  UNL     1     -62.900  17.778  56.905  1.00  0.00    -0.054 NA
HETATM   26  O2  UNL     1     -61.269  16.242  56.512  1.00  0.00    -0.268 OA
ENDBRANCH   4  24
BRANCH   1  27
HETATM   27  O1  UNL     1     -66.074  13.835  53.113  1.00  0.00    -0.349 OA
HETATM   28  C1  UNL     1     -65.714  12.812  52.207  1.00  0.00     0.210 C 
ENDBRANCH   1  27
TORSDOF 5
ENDMDL
MODEL 2
REMARK VINA RESULT: -6.558363647      1.155      1.184
REMARK  5 active torsions:
REMARK  status: ('A' for Active; 'I' for Inactive)
REMARK    1  A    between atoms: O1_2  and  C2_3 
REMARK    2  A    between atoms: C4_6  and  C5_7 
REMARK    3  A    between atoms: C7_16  and  O4_17 
REMARK    4  A    between atoms: C7_16  and  C8_19 
REMARK    5  A    between atoms: C9_20  and  N5_21 
ROOT
HETATM    1  C2  UNL     1     -64.938  14.639  53.246  1.00  0.00     0.173 A 
HETATM    2  C3  UNL     1     -64.292  15.823  53.234  1.00  0.00     0.140 A 
HETATM    3  N1  UNL     1     -63.719  16.294  54.346  1.00  0.00    -0.226 N 
HETATM    4  C4  UNL     1     -63.779  15.598  55.489  1.00  0.00     0.197 A 
HETATM    5  N3  UNL     1     -64.423  14.408  55.523  1.00  0.00    -0.301 N 
ATOM      6  H3  UNL     1     -64.464  13.885  56.397  1.00  0.00     0.171 HD
HETATM    7  C6  UNL     1     -65.005  13.907  54.432  1.00  0.00     0.283 A 
HETATM    8  O3  UNL     1     -65.610  12.807  54.427  1.00  0.00    -0.265 OA
HETATM    9  N4  UNL     1     -63.022  17.510  54.340  1.00  0.00    -0.276 N 
ATOM     10  H4  UNL     1     -62.164  17.574  54.888  1.00  0.00     0.185 HD
HETATM   11  C7  UNL     1     -63.442  18.666  53.611  1.00  0.00     0.265 C 
HETATM   12  C10 UNL     1     -63.806  18.429  52.204  1.00  0.00     0.117 C 
HETATM   13  N6  UNL     1     -63.821  19.404  51.392  1.00  0.00    -0.392 N 
ATOM     14  H61 UNL     1     -64.073  19.240  50.418  1.00  0.00     0.156 HD
ATOM     15  H62 UNL     1     -63.590  20.360  51.661  1.00  0.00     0.156 HD
HETATM   16  S1  UNL     1     -64.210  16.752  51.732  1.00  0.00    -0.048 SA
ENDROOT
BRANCH  11  17
HETATM   17  O4  UNL     1     -62.448  19.639  53.696  1.00  0.00    -0.354 OA
ATOM     18  H4  UNL     1     -62.446  20.001  54.573  1.00  0.00     0.214 HD
ENDBRANCH  11  17
BRANCH  11  19
HETATM   19  C8  UNL     1     -64.645  19.276  54.241  1.00  0.00    -0.014 C 
HETATM   20  C9  UNL     1     -65.620  19.777  54.747  1.00  0.00     0.009 C 
BRANCH  20  21
HETATM   21  N5  UNL     1     -66.743  20.376  55.333  1.00  0.00    -0.359 N 
ATOM     22  H52 UNL     1     -65.873  20.548  54.829  1.00  0.00     0.166 HD
ATOM     23  H51 UNL     1     -67.565  20.799  55.763  1.00  0.00     0.166 HD
ENDBRANCH  20  21
ENDBRANCH  11  19
BRANCH   4  24
HETATM   24  C5  UNL     1     -63.223  16.059  56.751  1.00  0.00     0.300 C 
HETATM   25  N2  UNL     1     -62.952  15.064  57.765  1.00  0.00    -0.054 NA
HETATM   26  O2  UNL     1     -62.949  17.227  57.063  1.00  0.00    -0.268 OA
ENDBRANCH   4  24
BRANCH   1  27
HETATM   27  O1  UNL     1     -65.530  14.153  52.100  1.00  0.00    -0.349 OA
HETATM   28  C1  UNL     1     -66.890  14.361  51.780  1.00  0.00     0.210 C 
ENDBRANCH   1  27
TORSDOF 5
ENDMDL
MODEL 3
REMARK VINA RESULT: -6.553619407      2.221      5.188
REMARK  5 active torsions:
REMARK  status: ('A' for Active; 'I' for Inactive)
REMARK    1  A    between atoms: O1_2  and  C2_3 
REMARK    2  A    between atoms: C4_6  and  C5_7 
REMARK    3  A    between atoms: C7_16  and  O4_17 
REMARK    4  A    between atoms: C7_16  and  C8_19 
REMARK    5  A    between atoms: C9_20  and  N5_21 
ROOT
HETATM    1  C2  UNL     1     -63.279  17.869  54.045  1.00  0.00     0.173 A 
HETATM    2  C3  UNL     1     -63.914  16.716  54.339  1.00  0.00     0.140 A 
HETATM    3  N1  UNL     1     -63.750  16.136  55.532  1.00  0.00    -0.226 N 
HETATM    4  C4  UNL     1     -62.950  16.690  56.454  1.00  0.00     0.197 A 
HETATM    5  N3  UNL     1     -62.303  17.847  56.178  1.00  0.00    -0.301 N 
ATOM      6  H3  UNL     1     -61.697  18.262  56.886  1.00  0.00     0.171 HD
HETATM    7  C6  UNL     1     -62.445  18.454  54.999  1.00  0.00     0.283 A 
HETATM    8  O3  UNL     1     -61.861  19.527  54.710  1.00  0.00    -0.265 OA
HETATM    9  N4  UNL     1     -64.425  14.952  55.860  1.00  0.00    -0.276 N 
ATOM     10  H4  UNL     1     -64.785  14.851  56.809  1.00  0.00     0.185 HD
HETATM   11  C7  UNL     1     -64.638  13.877  54.942  1.00  0.00     0.265 C 
HETATM   12  C10 UNL     1     -65.168  14.266  53.624  1.00  0.00     0.117 C 
HETATM   13  N6  UNL     1     -65.737  13.393  52.900  1.00  0.00    -0.392 N 
ATOM     14  H61 UNL     1     -66.104  13.662  51.988  1.00  0.00     0.156 HD
ATOM     15  H62 UNL     1     -65.852  12.420  53.182  1.00  0.00     0.156 HD
HETATM   16  S1  UNL     1     -64.968  15.973  53.130  1.00  0.00    -0.048 SA
ENDROOT
BRANCH  11  17
HETATM   17  O4  UNL     1     -65.472  12.933  55.539  1.00  0.00    -0.354 OA
ATOM     18  H4  UNL     1     -65.846  12.382  54.862  1.00  0.00     0.214 HD
ENDBRANCH  11  17
BRANCH  11  19
HETATM   19  C8  UNL     1     -63.364  13.159  54.667  1.00  0.00    -0.014 C 
HETATM   20  C9  UNL     1     -62.333  12.571  54.447  1.00  0.00     0.009 C 
BRANCH  20  21
HETATM   21  N5  UNL     1     -61.139  11.878  54.208  1.00  0.00    -0.359 N 
ATOM     22  H52 UNL     1     -61.743  12.277  54.927  1.00  0.00     0.166 HD
ATOM     23  H51 UNL     1     -60.272  11.374  54.021  1.00  0.00     0.166 HD
ENDBRANCH  20  21
ENDBRANCH  11  19
BRANCH   4  24
HETATM   24  C5  UNL     1     -62.681  16.103  57.756  1.00  0.00     0.300 C 
HETATM   25  N2  UNL     1     -62.038  16.938  58.747  1.00  0.00    -0.054 NA
HETATM   26  O2  UNL     1     -62.945  14.948  58.122  1.00  0.00    -0.268 OA
ENDBRANCH   4  24
BRANCH   1  27
HETATM   27  O1  UNL     1     -63.448  18.468  52.815  1.00  0.00    -0.349 OA
HETATM   28  C1  UNL     1     -64.370  19.512  52.581  1.00  0.00     0.210 C 
ENDBRANCH   1  27
TORSDOF 5
ENDMDL
MODEL 4
REMARK VINA RESULT: -6.398051800      2.107      5.054
REMARK  5 active torsions:
REMARK  status: ('A' for Active; 'I' for Inactive)
REMARK    1  A    between atoms: O1_2  and  C2_3 
REMARK    2  A    between atoms: C4_6  and  C5_7 
REMARK    3  A    between atoms: C7_16  and  O4_17 
REMARK    4  A    between atoms: C7_16  and  C8_19 
REMARK    5  A    between atoms: C9_20  and  N5_21 
ROOT
HETATM    1  C2  UNL     1     -63.994  17.498  52.478  1.00  0.00     0.173 A 
HETATM    2  C3  UNL     1     -64.152  16.454  53.316  1.00  0.00     0.140 A 
HETATM    3  N1  UNL     1     -63.981  16.608  54.633  1.00  0.00    -0.226 N 
HETATM    4  C4  UNL     1     -63.649  17.803  55.140  1.00  0.00     0.197 A 
HETATM    5  N3  UNL     1     -63.487  18.865  54.316  1.00  0.00    -0.301 N 
ATOM      6  H3  UNL     1     -63.235  19.771  54.710  1.00  0.00     0.171 HD
HETATM    7  C6  UNL     1     -63.651  18.747  52.997  1.00  0.00     0.283 A 
HETATM    8  O3  UNL     1     -63.509  19.710  52.204  1.00  0.00    -0.265 OA
HETATM    9  N4  UNL     1     -64.167  15.536  55.517  1.00  0.00    -0.276 N 
ATOM     10  H4  UNL     1     -64.617  15.725  56.412  1.00  0.00     0.185 HD
HETATM   11  C7  UNL     1     -63.762  14.194  55.237  1.00  0.00     0.265 C 
HETATM   12  C10 UNL     1     -64.162  13.674  53.918  1.00  0.00     0.117 C 
HETATM   13  N6  UNL     1     -64.192  12.420  53.727  1.00  0.00    -0.392 N 
ATOM     14  H61 UNL     1     -64.469  12.060  52.814  1.00  0.00     0.156 HD
ATOM     15  H62 UNL     1     -63.952  11.738  54.446  1.00  0.00     0.156 HD
HETATM   16  S1  UNL     1     -64.584  14.870  52.658  1.00  0.00    -0.048 SA
ENDROOT
BRANCH  11  17
HETATM   17  O4  UNL     1     -64.236  13.360  56.249  1.00  0.00    -0.354 OA
ATOM     18  H4  UNL     1     -63.564  13.273  56.915  1.00  0.00     0.214 HD
ENDBRANCH  11  17
BRANCH  11  19
HETATM   19  C8  UNL     1     -62.280  14.070  55.285  1.00  0.00    -0.014 C 
HETATM   20  C9  UNL     1     -61.078  13.963  55.327  1.00  0.00     0.009 C 
BRANCH  20  21
HETATM   21  N5  UNL     1     -59.685  13.827  55.391  1.00  0.00    -0.359 N 
ATOM     22  H52 UNL     1     -60.452  14.431  55.096  1.00  0.00     0.166 HD
ATOM     23  H51 UNL     1     -58.673  13.716  55.443  1.00  0.00     0.166 HD
ENDBRANCH  20  21
ENDBRANCH  11  19
BRANCH   4  24
HETATM   24  C5  UNL     1     -63.401  18.046  56.551  1.00  0.00     0.300 C 
HETATM   25  N2  UNL     1     -62.160  17.552  57.107  1.00  0.00    -0.054 NA
HETATM   26  O2  UNL     1     -64.143  18.639  57.347  1.00  0.00    -0.268 OA
ENDBRANCH   4  24
BRANCH   1  27
HETATM   27  O1  UNL     1     -64.170  17.340  51.120  1.00  0.00    -0.349 OA
HETATM   28  C1  UNL     1     -65.392  17.604  50.460  1.00  0.00     0.210 C 
ENDBRANCH   1  27
TORSDOF 5
ENDMDL
MODEL 5
REMARK VINA RESULT: -6.382337498      2.509      4.340
REMARK  5 active torsions:
REMARK  status: ('A' for Active; 'I' for Inactive)
REMARK    1  A    between atoms: O1_2  and  C2_3 
REMARK    2  A    between atoms: C4_6  and  C5_7 
REMARK    3  A    between atoms: C7_16  and  O4_17 
REMARK    4  A    between atoms: C7_16  and  C8_19 
REMARK    5  A    between atoms: C9_20  and  N5_21 
ROOT
HETATM    1  C2  UNL     1     -63.430  14.841  53.413  1.00  0.00     0.173 A 
HETATM    2  C3  UNL     1     -63.895  16.097  53.562  1.00  0.00     0.140 A 
HETATM    3  N1  UNL     1     -64.984  16.501  52.900  1.00  0.00    -0.226 N 
HETATM    4  C4  UNL     1     -65.629  15.662  52.078  1.00  0.00     0.197 A 
HETATM    5  N3  UNL     1     -65.179  14.396  51.915  1.00  0.00    -0.301 N 
ATOM      6  H3  UNL     1     -65.677  13.765  51.288  1.00  0.00     0.171 HD
HETATM    7  C6  UNL     1     -64.096  13.960  52.560  1.00  0.00     0.283 A 
HETATM    8  O3  UNL     1     -63.652  12.793  52.434  1.00  0.00    -0.265 OA
HETATM    9  N4  UNL     1     -65.492  17.797  53.065  1.00  0.00    -0.276 N 
ATOM     10  H4  UNL     1     -66.505  17.915  53.094  1.00  0.00     0.185 HD
HETATM   11  C7  UNL     1     -64.675  18.962  53.196  1.00  0.00     0.265 C 
HETATM   12  C10 UNL     1     -63.574  18.858  54.169  1.00  0.00     0.117 C 
HETATM   13  N6  UNL     1     -63.047  19.916  54.629  1.00  0.00    -0.392 N 
ATOM     14  H61 UNL     1     -62.285  19.844  55.302  1.00  0.00     0.156 HD
ATOM     15  H62 UNL     1     -63.347  20.853  54.360  1.00  0.00     0.156 HD
HETATM   16  S1  UNL     1     -63.048  17.214  54.640  1.00  0.00    -0.048 SA
ENDROOT
BRANCH  11  17
HETATM   17  O4  UNL     1     -65.488  20.052  53.502  1.00  0.00    -0.354 OA
ATOM     18  H4  UNL     1     -66.110  20.179  52.796  1.00  0.00     0.214 HD
ENDBRANCH  11  17
BRANCH  11  19
HETATM   19  C8  UNL     1     -64.032  19.303  51.897  1.00  0.00    -0.014 C 
HETATM   20  C9  UNL     1     -63.518  19.578  50.840  1.00  0.00     0.009 C 
BRANCH  20  21
HETATM   21  N5  UNL     1     -62.934  19.886  49.605  1.00  0.00    -0.359 N 
ATOM     22  H52 UNL     1     -63.733  19.451  50.064  1.00  0.00     0.166 HD
ATOM     23  H51 UNL     1     -62.498  20.117  48.712  1.00  0.00     0.166 HD
ENDBRANCH  20  21
ENDBRANCH  11  19
BRANCH   4  24
HETATM   24  C5  UNL     1     -66.792  16.034  51.287  1.00  0.00     0.300 C 
HETATM   25  N2  UNL     1     -66.604  17.016  50.242  1.00  0.00    -0.054 NA
HETATM   26  O2  UNL     1     -67.945  15.598  51.408  1.00  0.00    -0.268 OA
ENDBRANCH   4  24
BRANCH   1  27
HETATM   27  O1  UNL     1     -62.307  14.424  54.096  1.00  0.00    -0.349 OA
HETATM   28  C1  UNL     1     -62.359  13.739  55.330  1.00  0.00     0.210 C 
ENDBRANCH   1  27
TORSDOF 5
ENDMDL
