MODEL 1
REMARK VINA RESULT: -7.558076600      0.000      0.000
REMARK  9 active torsions:
REMARK  status: ('A' for Active; 'I' for Inactive)
REMARK    1  A    between atoms: C2_2  and  O1_3 
REMARK    2  A    between atoms: C2_2  and  C4_7 
REMARK    3  A    between atoms: O1_3  and  C3_4 
REMARK    4  A    between atoms: C4_7  and  C5_8 
REMARK    5  A    between atoms: C4_7  and  N3_11 
REMARK    6  A    between atoms: N4_14  and  C8_15 
REMARK    7  A    between atoms: C9_18  and  N6_19 
REMARK    8  A    between atoms: C16_38  and  C17_39 
REMARK    9  A    between atoms: C17_39  and  N11_40 
REMARK       I    between atoms: N11_40  and  C18_42 
ROOT
HETATM    1  N3  UNL     1      55.809   3.308  17.009  1.00  0.00    -0.385 N 
HETATM    2  C6  UNL     1      56.033   3.781  15.675  1.00  0.00     0.139 C 
HETATM    3  C7  UNL     1      55.303   3.073  14.566  1.00  0.00     0.151 C 
HETATM    4  N4  UNL     1      54.027   2.527  14.923  1.00  0.00    -0.323 N 
HETATM    5  C15 UNL     1      53.928   1.993  16.230  1.00  0.00     0.105 C 
HETATM    6  S1  UNL     1      52.563   1.284  16.741  1.00  0.00    -0.063 SA
HETATM    7  C16 UNL     1      55.139   2.093  17.137  1.00  0.00     0.159 C 
ENDROOT
BRANCH   4   8
HETATM    8  C8  UNL     1      52.978   2.529  13.981  1.00  0.00     0.140 A 
HETATM    9  N5  UNL     1      52.098   3.587  13.922  1.00  0.00    -0.176 N 
HETATM   10  C9  UNL     1      51.096   3.610  13.033  1.00  0.00     0.679 A 
ATOM     11  H5  UNL     1      52.212   4.368  14.568  1.00  0.00     0.186 HD
HETATM   12  N7  UNL     1      50.914   2.602  12.167  1.00  0.00    -0.176 N 
HETATM   13  C10 UNL     1      51.752   1.553  12.193  1.00  0.00     0.131 A 
ATOM     14  H7  UNL     1      50.147   2.631  11.496  1.00  0.00     0.186 HD
HETATM   15  N8  UNL     1      51.588   0.576  11.364  1.00  0.00    -0.384 N 
HETATM   16  C11 UNL     1      52.809   1.500  13.113  1.00  0.00     0.081 A 
ATOM     17  H82 UNL     1      50.818   0.615  10.694  1.00  0.00     0.157 HD
ATOM     18  H81 UNL     1      52.224  -0.221  11.383  1.00  0.00     0.157 HD
HETATM   19  C12 UNL     1      53.667   0.355  13.106  1.00  0.00     0.066 A 
HETATM   20  C13 UNL     1      54.838   0.265  12.372  1.00  0.00     0.119 A 
HETATM   21  N10 UNL     1      53.577  -0.827  13.737  1.00  0.00    -0.350 N 
HETATM   22  N9  UNL     1      55.427  -0.907  12.547  1.00  0.00    -0.360 N 
HETATM   23  C14 UNL     1      54.631  -1.587  13.405  1.00  0.00     0.180 A 
ATOM     24  H9  UNL     1      56.297  -1.230  12.124  1.00  0.00     0.166 HD
ATOM     25  H10 UNL     1      52.826  -1.104  14.370  1.00  0.00     0.166 HD
BRANCH  10  26
HETATM   26  N6  UNL     1      50.288   4.608  12.996  1.00  0.00    -0.234 N 
ATOM     27  H62 UNL     1      50.670   5.541  12.838  1.00  0.00     0.174 HD
ATOM     28  H61 UNL     1      49.287   4.462  13.123  1.00  0.00     0.174 HD
ENDBRANCH  10  26
ENDBRANCH   4   8
BRANCH   7  29
HETATM   29  C17 UNL     1      55.969   0.870  16.772  1.00  0.00     0.154 C 
BRANCH  29  30
HETATM   30  N11 UNL     1      56.346   0.040  17.856  1.00  0.00    -0.362 N 
HETATM   31  C18 UNL     1      57.615  -0.572  17.951  1.00  0.00     0.181 C 
HETATM   32  N12 UNL     1      57.754  -1.664  18.652  1.00  0.00    -0.374 N 
HETATM   33  N13 UNL     1      58.764  -0.040  17.302  1.00  0.00    -0.064 NA
ATOM     34 2H12 UNL     1      56.931  -2.045  19.119  1.00  0.00     0.158 HD
ATOM     35 1H12 UNL     1      58.671  -2.105  18.721  1.00  0.00     0.158 HD
ATOM     36  H11 UNL     1      55.670  -0.122  18.602  1.00  0.00     0.162 HD
ENDBRANCH  29  30
ENDBRANCH   7  29
BRANCH   1  37
HETATM   37  C4  UNL     1      55.485   4.384  17.877  1.00  0.00     0.199 C 
BRANCH  37  38
HETATM   38  C2  UNL     1      55.114   3.986  19.293  1.00  0.00     0.160 C 
HETATM   39  C1  UNL     1      53.658   4.362  19.582  1.00  0.00     0.043 C 
BRANCH  38  40
HETATM   40  O1  UNL     1      55.955   4.308  20.325  1.00  0.00    -0.299 OA
BRANCH  40  41
HETATM   41  C3  UNL     1      56.947   3.452  20.811  1.00  0.00     0.373 C 
HETATM   42  N1  UNL     1      57.492   2.386  20.065  1.00  0.00    -0.032 NA
HETATM   43  O2  UNL     1      57.340   3.679  21.963  1.00  0.00    -0.242 OA
ENDBRANCH  40  41
ENDBRANCH  38  40
ENDBRANCH  37  38
BRANCH  37  44
HETATM   44  C5  UNL     1      54.525   5.399  17.388  1.00  0.00     0.256 C 
HETATM   45  N2  UNL     1      54.820   6.809  17.560  1.00  0.00    -0.060 NA
HETATM   46  O3  UNL     1      53.435   5.200  16.815  1.00  0.00    -0.274 OA
ENDBRANCH  37  44
ENDBRANCH   1  37
TORSDOF 9
ENDMDL
MODEL 2
REMARK VINA RESULT: -7.473263760      1.963      5.290
REMARK  9 active torsions:
REMARK  status: ('A' for Active; 'I' for Inactive)
REMARK    1  A    between atoms: C2_2  and  O1_3 
REMARK    2  A    between atoms: C2_2  and  C4_7 
REMARK    3  A    between atoms: O1_3  and  C3_4 
REMARK    4  A    between atoms: C4_7  and  C5_8 
REMARK    5  A    between atoms: C4_7  and  N3_11 
REMARK    6  A    between atoms: N4_14  and  C8_15 
REMARK    7  A    between atoms: C9_18  and  N6_19 
REMARK    8  A    between atoms: C16_38  and  C17_39 
REMARK    9  A    between atoms: C17_39  and  N11_40 
REMARK       I    between atoms: N11_40  and  C18_42 
ROOT
HETATM    1  N3  UNL     1      53.982   3.492  16.655  1.00  0.00    -0.385 N 
HETATM    2  C6  UNL     1      53.426   2.500  17.526  1.00  0.00     0.139 C 
HETATM    3  C7  UNL     1      53.511   1.067  17.074  1.00  0.00     0.151 C 
HETATM    4  N4  UNL     1      54.649   0.745  16.265  1.00  0.00    -0.323 N 
HETATM    5  C15 UNL     1      55.069   1.752  15.362  1.00  0.00     0.105 C 
HETATM    6  S1  UNL     1      56.300   1.496  14.341  1.00  0.00    -0.063 SA
HETATM    7  C16 UNL     1      54.325   3.074  15.370  1.00  0.00     0.159 C 
ENDROOT
BRANCH   4   8
HETATM    8  C8  UNL     1      55.259  -0.519  16.388  1.00  0.00     0.140 A 
HETATM    9  N5  UNL     1      56.237  -0.731  17.334  1.00  0.00    -0.176 N 
HETATM   10  C9  UNL     1      56.828  -1.926  17.469  1.00  0.00     0.679 A 
ATOM     11  H5  UNL     1      56.517   0.037  17.943  1.00  0.00     0.186 HD
HETATM   12  N7  UNL     1      56.486  -2.961  16.687  1.00  0.00    -0.176 N 
HETATM   13  C10 UNL     1      55.536  -2.794  15.753  1.00  0.00     0.131 A 
ATOM     14  H7  UNL     1      56.944  -3.865  16.799  1.00  0.00     0.186 HD
HETATM   15  N8  UNL     1      55.198  -3.783  14.994  1.00  0.00    -0.384 N 
HETATM   16  C11 UNL     1      54.901  -1.555  15.587  1.00  0.00     0.081 A 
ATOM     17  H82 UNL     1      55.660  -4.685  15.115  1.00  0.00     0.157 HD
ATOM     18  H81 UNL     1      54.476  -3.657  14.284  1.00  0.00     0.157 HD
HETATM   19  C12 UNL     1      53.902  -1.427  14.571  1.00  0.00     0.066 A 
HETATM   20  C13 UNL     1      52.549  -1.635  14.780  1.00  0.00     0.119 A 
HETATM   21  N10 UNL     1      53.994  -1.112  13.268  1.00  0.00    -0.350 N 
HETATM   22  N9  UNL     1      51.857  -1.456  13.666  1.00  0.00    -0.360 N 
HETATM   23  C14 UNL     1      52.770  -1.128  12.722  1.00  0.00     0.180 A 
ATOM     24  H9  UNL     1      50.848  -1.547  13.544  1.00  0.00     0.166 HD
ATOM     25  H10 UNL     1      54.859  -0.894  12.772  1.00  0.00     0.166 HD
BRANCH  10  26
HETATM   26  N6  UNL     1      57.737  -2.100  18.359  1.00  0.00    -0.234 N 
ATOM     27  H62 UNL     1      57.480  -2.547  19.240  1.00  0.00     0.174 HD
ATOM     28  H61 UNL     1      58.694  -1.795  18.182  1.00  0.00     0.174 HD
ENDBRANCH  10  26
ENDBRANCH   4   8
BRANCH   7  29
HETATM   29  C17 UNL     1      53.141   2.831  14.445  1.00  0.00     0.154 C 
BRANCH  29  30
HETATM   30  N11 UNL     1      52.183   3.872  14.392  1.00  0.00    -0.362 N 
HETATM   31  C18 UNL     1      51.749   4.458  13.182  1.00  0.00     0.181 C 
HETATM   32  N12 UNL     1      51.279   5.675  13.187  1.00  0.00    -0.374 N 
HETATM   33  N13 UNL     1      51.809   3.766  11.940  1.00  0.00    -0.064 NA
ATOM     34 2H12 UNL     1      51.235   6.172  14.077  1.00  0.00     0.158 HD
ATOM     35 1H12 UNL     1      50.966   6.098  12.313  1.00  0.00     0.158 HD
ATOM     36  H11 UNL     1      51.787   4.214  15.267  1.00  0.00     0.162 HD
ENDBRANCH  29  30
ENDBRANCH   7  29
BRANCH   1  37
HETATM   37  C4  UNL     1      54.853   4.357  17.369  1.00  0.00     0.199 C 
BRANCH  37  38
HETATM   38  C2  UNL     1      55.446   3.777  18.639  1.00  0.00     0.160 C 
HETATM   39  C1  UNL     1      54.853   4.477  19.865  1.00  0.00     0.043 C 
BRANCH  38  40
HETATM   40  O1  UNL     1      56.803   3.610  18.733  1.00  0.00    -0.299 OA
BRANCH  40  41
HETATM   41  C3  UNL     1      57.430   2.362  18.749  1.00  0.00     0.373 C 
HETATM   42  N1  UNL     1      57.771   1.674  19.933  1.00  0.00    -0.032 NA
HETATM   43  O2  UNL     1      57.680   1.867  17.642  1.00  0.00    -0.242 OA
ENDBRANCH  40  41
ENDBRANCH  38  40
ENDBRANCH  37  38
BRANCH  37  44
HETATM   44  C5  UNL     1      54.388   5.737  17.634  1.00  0.00     0.256 C 
HETATM   45  N2  UNL     1      52.997   5.974  17.969  1.00  0.00    -0.060 NA
HETATM   46  O3  UNL     1      55.065   6.785  17.609  1.00  0.00    -0.274 OA
ENDBRANCH  37  44
ENDBRANCH   1  37
TORSDOF 9
ENDMDL
MODEL 3
REMARK VINA RESULT: -7.222577721      1.780      2.102
REMARK  9 active torsions:
REMARK  status: ('A' for Active; 'I' for Inactive)
REMARK    1  A    between atoms: C2_2  and  O1_3 
REMARK    2  A    between atoms: C2_2  and  C4_7 
REMARK    3  A    between atoms: O1_3  and  C3_4 
REMARK    4  A    between atoms: C4_7  and  C5_8 
REMARK    5  A    between atoms: C4_7  and  N3_11 
REMARK    6  A    between atoms: N4_14  and  C8_15 
REMARK    7  A    between atoms: C9_18  and  N6_19 
REMARK    8  A    between atoms: C16_38  and  C17_39 
REMARK    9  A    between atoms: C17_39  and  N11_40 
REMARK       I    between atoms: N11_40  and  C18_42 
ROOT
HETATM    1  N3  UNL     1      56.860   2.077  17.020  1.00  0.00    -0.385 N 
HETATM    2  C6  UNL     1      57.117   2.808  15.815  1.00  0.00     0.139 C 
HETATM    3  C7  UNL     1      56.285   2.458  14.611  1.00  0.00     0.151 C 
HETATM    4  N4  UNL     1      54.957   2.001  14.896  1.00  0.00    -0.323 N 
HETATM    5  C15 UNL     1      54.816   1.201  16.056  1.00  0.00     0.105 C 
HETATM    6  S1  UNL     1      53.382   0.561  16.458  1.00  0.00    -0.063 SA
HETATM    7  C16 UNL     1      56.046   0.951  16.907  1.00  0.00     0.159 C 
ENDROOT
BRANCH   4   8
HETATM    8  C8  UNL     1      53.901   2.338  14.027  1.00  0.00     0.140 A 
HETATM    9  N5  UNL     1      53.168   3.485  14.235  1.00  0.00    -0.176 N 
HETATM   10  C9  UNL     1      52.161   3.826  13.419  1.00  0.00     0.679 A 
ATOM     11  H5  UNL     1      53.396   4.087  15.025  1.00  0.00     0.186 HD
HETATM   12  N7  UNL     1      51.830   3.059  12.368  1.00  0.00    -0.176 N 
HETATM   13  C10 UNL     1      52.522   1.933  12.132  1.00  0.00     0.131 A 
ATOM     14  H7  UNL     1      51.061   3.329  11.755  1.00  0.00     0.186 HD
HETATM   15  N8  UNL     1      52.213   1.187  11.123  1.00  0.00    -0.384 N 
HETATM   16  C11 UNL     1      53.580   1.550  12.969  1.00  0.00     0.081 A 
ATOM     17  H82 UNL     1      51.443   1.466  10.514  1.00  0.00     0.157 HD
ATOM     18  H81 UNL     1      52.738   0.331  10.944  1.00  0.00     0.157 HD
HETATM   19  C12 UNL     1      54.278   0.335  12.679  1.00  0.00     0.066 A 
HETATM   20  C13 UNL     1      55.412   0.260  11.888  1.00  0.00     0.119 A 
HETATM   21  N10 UNL     1      54.044  -0.935  13.049  1.00  0.00    -0.350 N 
HETATM   22  N9  UNL     1      55.843  -0.987  11.783  1.00  0.00    -0.360 N 
HETATM   23  C14 UNL     1      54.981  -1.731  12.514  1.00  0.00     0.180 A 
ATOM     24  H9  UNL     1      56.655  -1.318  11.261  1.00  0.00     0.166 HD
ATOM     25  H10 UNL     1      53.275  -1.245  13.644  1.00  0.00     0.166 HD
BRANCH  10  26
HETATM   26  N6  UNL     1      51.492   4.901  13.631  1.00  0.00    -0.234 N 
ATOM     27  H62 UNL     1      51.042   5.026  14.538  1.00  0.00     0.174 HD
ATOM     28  H61 UNL     1      51.417   5.611  12.903  1.00  0.00     0.174 HD
ENDBRANCH  10  26
ENDBRANCH   4   8
BRANCH   7  29
HETATM   29  C17 UNL     1      56.709  -0.247  16.243  1.00  0.00     0.154 C 
BRANCH  29  30
HETATM   30  N11 UNL     1      57.146  -1.269  17.122  1.00  0.00    -0.362 N 
HETATM   31  C18 UNL     1      56.273  -2.229  17.680  1.00  0.00     0.181 C 
HETATM   32  N12 UNL     1      56.586  -2.807  18.807  1.00  0.00    -0.374 N 
HETATM   33  N13 UNL     1      55.047  -2.592  17.056  1.00  0.00    -0.064 NA
ATOM     34 2H12 UNL     1      57.465  -2.547  19.254  1.00  0.00     0.158 HD
ATOM     35 1H12 UNL     1      55.956  -3.501  19.209  1.00  0.00     0.158 HD
ATOM     36  H11 UNL     1      58.136  -1.313  17.362  1.00  0.00     0.162 HD
ENDBRANCH  29  30
ENDBRANCH   7  29
BRANCH   1  37
HETATM   37  C4  UNL     1      56.689   2.961  18.118  1.00  0.00     0.199 C 
BRANCH  37  38
HETATM   38  C2  UNL     1      57.083   2.398  19.471  1.00  0.00     0.160 C 
HETATM   39  C1  UNL     1      57.016   3.494  20.538  1.00  0.00     0.043 C 
BRANCH  38  40
HETATM   40  O1  UNL     1      58.212   1.628  19.577  1.00  0.00    -0.299 OA
BRANCH  40  41
HETATM   41  C3  UNL     1      58.222   0.339  20.113  1.00  0.00     0.373 C 
HETATM   42  N1  UNL     1      57.753   0.028  21.407  1.00  0.00    -0.032 NA
HETATM   43  O2  UNL     1      58.675  -0.550  19.379  1.00  0.00    -0.242 OA
ENDBRANCH  40  41
ENDBRANCH  38  40
ENDBRANCH  37  38
BRANCH  37  44
HETATM   44  C5  UNL     1      55.392   3.663  18.242  1.00  0.00     0.256 C 
HETATM   45  N2  UNL     1      55.267   5.029  17.769  1.00  0.00    -0.060 NA
HETATM   46  O3  UNL     1      54.329   3.219  18.722  1.00  0.00    -0.274 OA
ENDBRANCH  37  44
ENDBRANCH   1  37
TORSDOF 9
ENDMDL
MODEL 4
REMARK VINA RESULT: -7.139459933      1.883      3.053
REMARK  9 active torsions:
REMARK  status: ('A' for Active; 'I' for Inactive)
REMARK    1  A    between atoms: C2_2  and  O1_3 
REMARK    2  A    between atoms: C2_2  and  C4_7 
REMARK    3  A    between atoms: O1_3  and  C3_4 
REMARK    4  A    between atoms: C4_7  and  C5_8 
REMARK    5  A    between atoms: C4_7  and  N3_11 
REMARK    6  A    between atoms: N4_14  and  C8_15 
REMARK    7  A    between atoms: C9_18  and  N6_19 
REMARK    8  A    between atoms: C16_38  and  C17_39 
REMARK    9  A    between atoms: C17_39  and  N11_40 
REMARK       I    between atoms: N11_40  and  C18_42 
ROOT
HETATM    1  N3  UNL     1      55.510   1.785  16.554  1.00  0.00    -0.385 N 
HETATM    2  C6  UNL     1      55.734   2.163  15.190  1.00  0.00     0.139 C 
HETATM    3  C7  UNL     1      54.597   1.955  14.227  1.00  0.00     0.151 C 
HETATM    4  N4  UNL     1      53.285   2.074  14.791  1.00  0.00    -0.323 N 
HETATM    5  C15 UNL     1      53.135   1.585  16.112  1.00  0.00     0.105 C 
HETATM    6  S1  UNL     1      51.691   1.595  16.846  1.00  0.00    -0.063 SA
HETATM    7  C16 UNL     1      54.362   1.039  16.816  1.00  0.00     0.159 C 
ENDROOT
BRANCH   4   8
HETATM    8  C8  UNL     1      52.243   2.632  14.025  1.00  0.00     0.140 A 
HETATM    9  N5  UNL     1      52.039   3.994  14.014  1.00  0.00    -0.176 N 
HETATM   10  C9  UNL     1      51.056   4.545  13.290  1.00  0.00     0.679 A 
ATOM     11  H5  UNL     1      52.649   4.595  14.568  1.00  0.00     0.186 HD
HETATM   12  N7  UNL     1      50.233   3.789  12.549  1.00  0.00    -0.176 N 
HETATM   13  C10 UNL     1      50.400   2.456  12.533  1.00  0.00     0.131 A 
ATOM     14  H7  UNL     1      49.487   4.220  12.002  1.00  0.00     0.186 HD
HETATM   15  N8  UNL     1      49.614   1.717  11.822  1.00  0.00    -0.384 N 
HETATM   16  C11 UNL     1      51.419   1.850  13.281  1.00  0.00     0.081 A 
ATOM     17  H82 UNL     1      48.872   2.158  11.278  1.00  0.00     0.157 HD
ATOM     18  H81 UNL     1      49.740   0.705  11.810  1.00  0.00     0.157 HD
HETATM   19  C12 UNL     1      51.548   0.426  13.237  1.00  0.00     0.066 A 
HETATM   20  C13 UNL     1      52.356  -0.254  12.342  1.00  0.00     0.119 A 
HETATM   21  N10 UNL     1      50.973  -0.541  13.971  1.00  0.00    -0.350 N 
HETATM   22  N9  UNL     1      52.276  -1.564  12.522  1.00  0.00    -0.360 N 
HETATM   23  C14 UNL     1      51.407  -1.736  13.545  1.00  0.00     0.180 A 
ATOM     24  H9  UNL     1      52.767  -2.289  11.999  1.00  0.00     0.166 HD
ATOM     25  H10 UNL     1      50.310  -0.391  14.732  1.00  0.00     0.166 HD
BRANCH  10  26
HETATM   26  N6  UNL     1      50.886   5.818  13.294  1.00  0.00    -0.234 N 
ATOM     27  H62 UNL     1      51.301   6.370  12.543  1.00  0.00     0.174 HD
ATOM     28  H61 UNL     1      50.346   6.262  14.038  1.00  0.00     0.174 HD
ENDBRANCH  10  26
ENDBRANCH   4   8
BRANCH   7  29
HETATM   29  C17 UNL     1      54.430  -0.411  16.357  1.00  0.00     0.154 C 
BRANCH  29  30
HETATM   30  N11 UNL     1      53.982  -1.371  17.297  1.00  0.00    -0.362 N 
HETATM   31  C18 UNL     1      54.864  -2.157  18.073  1.00  0.00     0.181 C 
HETATM   32  N12 UNL     1      54.465  -3.312  18.531  1.00  0.00    -0.374 N 
HETATM   33  N13 UNL     1      56.188  -1.735  18.378  1.00  0.00    -0.064 NA
ATOM     34 2H12 UNL     1      53.515  -3.615  18.313  1.00  0.00     0.158 HD
ATOM     35 1H12 UNL     1      55.101  -3.878  19.091  1.00  0.00     0.158 HD
ATOM     36  H11 UNL     1      52.979  -1.502  17.418  1.00  0.00     0.162 HD
ENDBRANCH  29  30
ENDBRANCH   7  29
BRANCH   1  37
HETATM   37  C4  UNL     1      55.881   2.836  17.435  1.00  0.00     0.199 C 
BRANCH  37  38
HETATM   38  C2  UNL     1      55.952   4.214  16.805  1.00  0.00     0.160 C 
HETATM   39  C1  UNL     1      57.338   4.445  16.195  1.00  0.00     0.043 C 
BRANCH  38  40
HETATM   40  O1  UNL     1      55.500   5.300  17.509  1.00  0.00    -0.299 OA
BRANCH  40  41
HETATM   41  C3  UNL     1      54.149   5.629  17.640  1.00  0.00     0.373 C 
HETATM   42  N1  UNL     1      53.119   5.011  16.899  1.00  0.00    -0.032 NA
HETATM   43  O2  UNL     1      53.885   6.516  18.462  1.00  0.00    -0.242 OA
ENDBRANCH  40  41
ENDBRANCH  38  40
ENDBRANCH  37  38
BRANCH  37  44
HETATM   44  C5  UNL     1      57.070   2.629  18.291  1.00  0.00     0.256 C 
HETATM   45  N2  UNL     1      57.881   1.439  18.119  1.00  0.00    -0.060 NA
HETATM   46  O3  UNL     1      57.498   3.379  19.192  1.00  0.00    -0.274 OA
ENDBRANCH  37  44
ENDBRANCH   1  37
TORSDOF 9
ENDMDL
MODEL 5
REMARK VINA RESULT: -7.072831335      2.274      5.192
REMARK  9 active torsions:
REMARK  status: ('A' for Active; 'I' for Inactive)
REMARK    1  A    between atoms: C2_2  and  O1_3 
REMARK    2  A    between atoms: C2_2  and  C4_7 
REMARK    3  A    between atoms: O1_3  and  C3_4 
REMARK    4  A    between atoms: C4_7  and  C5_8 
REMARK    5  A    between atoms: C4_7  and  N3_11 
REMARK    6  A    between atoms: N4_14  and  C8_15 
REMARK    7  A    between atoms: C9_18  and  N6_19 
REMARK    8  A    between atoms: C16_38  and  C17_39 
REMARK    9  A    between atoms: C17_39  and  N11_40 
REMARK       I    between atoms: N11_40  and  C18_42 
ROOT
HETATM    1  N3  UNL     1      53.774   3.301  16.546  1.00  0.00    -0.385 N 
HETATM    2  C6  UNL     1      53.141   2.435  17.495  1.00  0.00     0.139 C 
HETATM    3  C7  UNL     1      53.187   0.958  17.211  1.00  0.00     0.151 C 
HETATM    4  N4  UNL     1      54.346   0.507  16.499  1.00  0.00    -0.323 N 
HETATM    5  C15 UNL     1      54.845   1.390  15.510  1.00  0.00     0.105 C 
HETATM    6  S1  UNL     1      56.108   0.976  14.583  1.00  0.00    -0.063 SA
HETATM    7  C16 UNL     1      54.155   2.729  15.334  1.00  0.00     0.159 C 
ENDROOT
BRANCH   4   8
HETATM    8  C8  UNL     1      54.899  -0.756  16.791  1.00  0.00     0.140 A 
HETATM    9  N5  UNL     1      56.009  -0.859  17.599  1.00  0.00    -0.176 N 
HETATM   10  C9  UNL     1      56.548  -2.050  17.892  1.00  0.00     0.679 A 
ATOM     11  H5  UNL     1      56.428  -0.013  17.983  1.00  0.00     0.186 HD
HETATM   12  N7  UNL     1      56.025  -3.187  17.407  1.00  0.00    -0.176 N 
HETATM   13  C10 UNL     1      54.942  -3.127  16.615  1.00  0.00     0.131 A 
ATOM     14  H7  UNL     1      56.446  -4.087  17.637  1.00  0.00     0.186 HD
HETATM   15  N8  UNL     1      54.429  -4.215  16.143  1.00  0.00    -0.384 N 
HETATM   16  C11 UNL     1      54.356  -1.895  16.290  1.00  0.00     0.081 A 
ATOM     17  H82 UNL     1      54.856  -5.111  16.379  1.00  0.00     0.157 HD
ATOM     18  H81 UNL     1      53.607  -4.169  15.541  1.00  0.00     0.157 HD
HETATM   19  C12 UNL     1      53.210  -1.886  15.435  1.00  0.00     0.066 A 
HETATM   20  C13 UNL     1      51.902  -1.929  15.887  1.00  0.00     0.119 A 
HETATM   21  N10 UNL     1      53.099  -1.846  14.096  1.00  0.00    -0.350 N 
HETATM   22  N9  UNL     1      51.043  -1.916  14.879  1.00  0.00    -0.360 N 
HETATM   23  C14 UNL     1      51.802  -1.864  13.759  1.00  0.00     0.180 A 
ATOM     24  H9  UNL     1      50.025  -1.941  14.935  1.00  0.00     0.166 HD
ATOM     25  H10 UNL     1      53.879  -1.809  13.440  1.00  0.00     0.166 HD
BRANCH  10  26
HETATM   26  N6  UNL     1      57.583  -2.123  18.650  1.00  0.00    -0.234 N 
ATOM     27  H62 UNL     1      57.673  -1.459  19.419  1.00  0.00     0.174 HD
ATOM     28  H61 UNL     1      58.296  -2.831  18.478  1.00  0.00     0.174 HD
ENDBRANCH  10  26
ENDBRANCH   4   8
BRANCH   7  29
HETATM   29  C17 UNL     1      53.004   2.424  14.386  1.00  0.00     0.154 C 
BRANCH  29  30
HETATM   30  N11 UNL     1      53.181   2.857  13.050  1.00  0.00    -0.362 N 
HETATM   31  C18 UNL     1      53.575   1.990  12.006  1.00  0.00     0.181 C 
HETATM   32  N12 UNL     1      54.184   2.476  10.959  1.00  0.00    -0.374 N 
HETATM   33  N13 UNL     1      53.335   0.589  12.052  1.00  0.00    -0.064 NA
ATOM     34 2H12 UNL     1      54.356   3.481  10.925  1.00  0.00     0.158 HD
ATOM     35 1H12 UNL     1      54.468   1.850  10.205  1.00  0.00     0.158 HD
ATOM     36  H11 UNL     1      53.017   3.839  12.831  1.00  0.00     0.162 HD
ENDBRANCH  29  30
ENDBRANCH   7  29
BRANCH   1  37
HETATM   37  C4  UNL     1      54.647   4.211  17.200  1.00  0.00     0.199 C 
BRANCH  37  38
HETATM   38  C2  UNL     1      55.407   3.643  18.383  1.00  0.00     0.160 C 
HETATM   39  C1  UNL     1      54.974   4.343  19.674  1.00  0.00     0.043 C 
BRANCH  38  40
HETATM   40  O1  UNL     1      56.767   3.490  18.298  1.00  0.00    -0.299 OA
BRANCH  40  41
HETATM   41  C3  UNL     1      57.430   2.295  18.586  1.00  0.00     0.373 C 
HETATM   42  N1  UNL     1      57.723   1.861  19.897  1.00  0.00    -0.032 NA
HETATM   43  O2  UNL     1      57.760   1.609  17.609  1.00  0.00    -0.242 OA
ENDBRANCH  40  41
ENDBRANCH  38  40
ENDBRANCH  37  38
BRANCH  37  44
HETATM   44  C5  UNL     1      54.110   5.543  17.559  1.00  0.00     0.256 C 
HETATM   45  N2  UNL     1      54.998   6.690  17.593  1.00  0.00    -0.060 NA
HETATM   46  O3  UNL     1      52.933   5.834  17.854  1.00  0.00    -0.274 OA
ENDBRANCH  37  44
ENDBRANCH   1  37
TORSDOF 9
ENDMDL
