MODEL 1
REMARK VINA RESULT: -7.678261172      0.000      0.000
REMARK  11 active torsions:
REMARK  status: ('A' for Active; 'I' for Inactive)
REMARK    1  A    between atoms: O1_2  and  C2_3 
REMARK    2  A    between atoms: C2_3  and  C3_5 
REMARK       I    between atoms: N1_9  and  C7_10 
REMARK    3  A    between atoms: C7_10  and  C8_12 
REMARK    4  A    between atoms: C10_18  and  C11_19 
REMARK    5  A    between atoms: C11_19  and  N4_20 
REMARK    6  A    between atoms: C11_19  and  C20_37 
REMARK    7  A    between atoms: C12_22  and  C13_23 
REMARK    8  A    between atoms: C13_23  and  C14_25 
REMARK       I    between atoms: C14_25  and  N5_27 
REMARK    9  A    between atoms: N5_27  and  C15_29 
REMARK   10  A    between atoms: C15_29  and  C16_32 
REMARK   11  A    between atoms: C16_32  and  C17_34 
ROOT
HETATM    1  C11 UNL     1       3.305   6.612  22.088  1.00  0.00     0.141 C 
ENDROOT
BRANCH   1   2
HETATM    2  C10 UNL     1       2.916   7.993  22.606  1.00  0.00     0.066 A 
HETATM    3  C8  UNL     1       3.776   8.816  23.353  1.00  0.00     0.126 A 
HETATM    4  N2  UNL     1       3.054   9.949  23.550  1.00  0.00    -0.346 N 
HETATM    5  C9  UNL     1       1.852   9.858  22.990  1.00  0.00     0.181 A 
ATOM      6  H2  UNL     1       3.390  10.765  24.062  1.00  0.00     0.167 HD
HETATM    7  N3  UNL     1       1.777   8.621  22.401  1.00  0.00    -0.352 N 
ATOM      8  H3  UNL     1       0.976   8.251  21.891  1.00  0.00     0.166 HD
BRANCH   3   9
HETATM    9  C7  UNL     1       5.097   8.530  23.833  1.00  0.00     0.273 C 
HETATM   10  N1  UNL     1       6.270   8.879  23.041  1.00  0.00    -0.333 N 
HETATM   11  C3  UNL     1       7.627   8.663  23.423  1.00  0.00     0.187 C 
HETATM   12  C6  UNL     1       6.185   9.482  21.756  1.00  0.00     0.127 C 
HETATM   13  C4  UNL     1       8.423   8.793  22.161  1.00  0.00     0.037 C 
HETATM   14  C5  UNL     1       7.574   9.529  21.196  1.00  0.00     0.022 C 
HETATM   15  O3  UNL     1       5.349   7.988  24.912  1.00  0.00    -0.266 OA
BRANCH  11  16
HETATM   16  C2  UNL     1       8.096   9.556  24.497  1.00  0.00     0.281 C 
HETATM   17  O2  UNL     1       8.715  10.598  24.186  1.00  0.00    -0.263 OA
BRANCH  16  18
HETATM   18  O1  UNL     1       7.883   9.295  25.837  1.00  0.00    -0.325 OA
HETATM   19  C1  UNL     1       8.632   8.370  26.604  1.00  0.00     0.213 C 
ENDBRANCH  16  18
ENDBRANCH  11  16
ENDBRANCH   3   9
ENDBRANCH   1   2
BRANCH   1  20
HETATM   20  N4  UNL     1       3.187   6.711  20.698  1.00  0.00    -0.385 N 
HETATM   21  C12 UNL     1       3.877   7.323  19.722  1.00  0.00     0.145 C 
ATOM     22  H4  UNL     1       2.384   6.194  20.339  1.00  0.00     0.159 HD
BRANCH  21  23
HETATM   23  C13 UNL     1       5.115   6.874  19.086  1.00  0.00     0.254 C 
HETATM   24  O4  UNL     1       5.968   7.670  18.657  1.00  0.00    -0.281 OA
BRANCH  23  25
HETATM   25  C14 UNL     1       5.421   5.447  18.920  1.00  0.00     0.296 C 
HETATM   26  O5  UNL     1       5.235   4.912  17.807  1.00  0.00    -0.264 OA
HETATM   27  N5  UNL     1       5.915   4.686  19.987  1.00  0.00    -0.299 N 
ATOM     28  H5  UNL     1       6.064   5.159  20.878  1.00  0.00     0.167 HD
BRANCH  27  29
HETATM   29  C15 UNL     1       6.228   3.280  19.913  1.00  0.00     0.318 C 
HETATM   30  F1  UNL     1       5.291   2.579  19.180  1.00  0.00    -0.192 F 
HETATM   31 CL1  UNL     1       6.381   2.664  21.580  1.00  0.00    -0.051 Cl
BRANCH  29  32
HETATM   32  C16 UNL     1       7.552   3.063  19.248  1.00  0.00     0.206 C 
HETATM   33  O6  UNL     1       8.392   3.941  19.319  1.00  0.00    -0.290 OA
BRANCH  32  34
HETATM   34  C17 UNL     1       7.864   1.824  18.519  1.00  0.00     0.054 C 
HETATM   35  C18 UNL     1       9.307   1.408  18.801  1.00  0.00     0.018 C 
HETATM   36  C19 UNL     1       7.719   1.976  17.030  1.00  0.00     0.018 C 
ENDBRANCH  32  34
ENDBRANCH  29  32
ENDBRANCH  27  29
ENDBRANCH  23  25
ENDBRANCH  21  23
ENDBRANCH   1  20
BRANCH   1  37
HETATM   37  C20 UNL     1       2.568   5.547  22.810  1.00  0.00    -0.025 C 
HETATM   38  C21 UNL     1       1.369   5.030  22.004  1.00  0.00     0.017 C 
HETATM   39  C22 UNL     1       3.468   4.335  23.064  1.00  0.00     0.017 C 
HETATM   40  C23 UNL     1       2.009   5.978  24.169  1.00  0.00     0.017 C 
ENDBRANCH   1  37
TORSDOF 11
ENDMDL
MODEL 2
REMARK VINA RESULT: -7.297578638      4.236      5.775
REMARK  11 active torsions:
REMARK  status: ('A' for Active; 'I' for Inactive)
REMARK    1  A    between atoms: O1_2  and  C2_3 
REMARK    2  A    between atoms: C2_3  and  C3_5 
REMARK       I    between atoms: N1_9  and  C7_10 
REMARK    3  A    between atoms: C7_10  and  C8_12 
REMARK    4  A    between atoms: C10_18  and  C11_19 
REMARK    5  A    between atoms: C11_19  and  N4_20 
REMARK    6  A    between atoms: C11_19  and  C20_37 
REMARK    7  A    between atoms: C12_22  and  C13_23 
REMARK    8  A    between atoms: C13_23  and  C14_25 
REMARK       I    between atoms: C14_25  and  N5_27 
REMARK    9  A    between atoms: N5_27  and  C15_29 
REMARK   10  A    between atoms: C15_29  and  C16_32 
REMARK   11  A    between atoms: C16_32  and  C17_34 
ROOT
HETATM    1  C11 UNL     1       5.871   4.479  18.924  1.00  0.00     0.141 C 
ENDROOT
BRANCH   1   2
HETATM    2  C10 UNL     1       4.954   4.780  20.106  1.00  0.00     0.066 A 
HETATM    3  C8  UNL     1       5.249   5.730  21.098  1.00  0.00     0.126 A 
HETATM    4  N2  UNL     1       4.156   5.709  21.905  1.00  0.00    -0.346 N 
HETATM    5  C9  UNL     1       3.257   4.831  21.475  1.00  0.00     0.181 A 
ATOM      6  H2  UNL     1       4.041   6.291  22.734  1.00  0.00     0.167 HD
HETATM    7  N3  UNL     1       3.772   4.251  20.342  1.00  0.00    -0.352 N 
ATOM      8  H3  UNL     1       3.317   3.533  19.780  1.00  0.00     0.166 HD
BRANCH   3   9
HETATM    9  C7  UNL     1       6.434   6.521  21.258  1.00  0.00     0.273 C 
HETATM   10  N1  UNL     1       6.562   7.814  20.597  1.00  0.00    -0.333 N 
HETATM   11  C3  UNL     1       7.681   8.694  20.698  1.00  0.00     0.187 C 
HETATM   12  C6  UNL     1       5.559   8.351  19.745  1.00  0.00     0.127 C 
HETATM   13  C4  UNL     1       7.535   9.658  19.561  1.00  0.00     0.037 C 
HETATM   14  C5  UNL     1       6.120   9.597  19.129  1.00  0.00     0.022 C 
HETATM   15  O3  UNL     1       7.410   6.194  21.939  1.00  0.00    -0.266 OA
BRANCH  11  16
HETATM   16  C2  UNL     1       7.802   9.360  22.007  1.00  0.00     0.281 C 
HETATM   17  O2  UNL     1       8.923   9.405  22.558  1.00  0.00    -0.263 OA
BRANCH  16  18
HETATM   18  O1  UNL     1       6.728   9.938  22.657  1.00  0.00    -0.325 OA
HETATM   19  C1  UNL     1       6.103   9.404  23.809  1.00  0.00     0.213 C 
ENDBRANCH  16  18
ENDBRANCH  11  16
ENDBRANCH   3   9
ENDBRANCH   1   2
BRANCH   1  20
HETATM   20  N4  UNL     1       5.011   4.388  17.825  1.00  0.00    -0.385 N 
HETATM   21  C12 UNL     1       4.457   5.263  16.971  1.00  0.00     0.145 C 
ATOM     22  H4  UNL     1       4.739   3.425  17.624  1.00  0.00     0.159 HD
BRANCH  21  23
HETATM   23  C13 UNL     1       5.077   5.886  15.802  1.00  0.00     0.254 C 
HETATM   24  O4  UNL     1       5.666   5.224  14.930  1.00  0.00    -0.281 OA
BRANCH  23  25
HETATM   25  C14 UNL     1       5.036   7.340  15.591  1.00  0.00     0.296 C 
HETATM   26  O5  UNL     1       4.240   8.027  16.264  1.00  0.00    -0.264 OA
HETATM   27  N5  UNL     1       5.870   7.956  14.651  1.00  0.00    -0.299 N 
ATOM     28  H5  UNL     1       6.514   7.363  14.127  1.00  0.00     0.167 HD
BRANCH  27  29
HETATM   29  C15 UNL     1       5.883   9.371  14.373  1.00  0.00     0.318 C 
HETATM   30  F1  UNL     1       6.035  10.123  15.521  1.00  0.00    -0.192 F 
HETATM   31 CL1  UNL     1       4.382   9.771  13.496  1.00  0.00    -0.051 Cl
BRANCH  29  32
HETATM   32  C16 UNL     1       7.021   9.725  13.466  1.00  0.00     0.206 C 
HETATM   33  O6  UNL     1       7.378  10.888  13.404  1.00  0.00    -0.290 OA
BRANCH  32  34
HETATM   34  C17 UNL     1       7.718   8.712  12.658  1.00  0.00     0.054 C 
HETATM   35  C18 UNL     1       9.042   8.341  13.324  1.00  0.00     0.018 C 
HETATM   36  C19 UNL     1       8.028   9.194  11.269  1.00  0.00     0.018 C 
ENDBRANCH  32  34
ENDBRANCH  29  32
ENDBRANCH  27  29
ENDBRANCH  23  25
ENDBRANCH  21  23
ENDBRANCH   1  20
BRANCH   1  37
HETATM   37  C20 UNL     1       6.784   3.352  19.233  1.00  0.00    -0.025 C 
HETATM   38  C21 UNL     1       6.675   2.224  18.198  1.00  0.00     0.017 C 
HETATM   39  C22 UNL     1       8.244   3.811  19.215  1.00  0.00     0.017 C 
HETATM   40  C23 UNL     1       6.540   2.699  20.596  1.00  0.00     0.017 C 
ENDBRANCH   1  37
TORSDOF 11
ENDMDL
MODEL 3
REMARK VINA RESULT: -7.230762753      1.312      2.084
REMARK  11 active torsions:
REMARK  status: ('A' for Active; 'I' for Inactive)
REMARK    1  A    between atoms: O1_2  and  C2_3 
REMARK    2  A    between atoms: C2_3  and  C3_5 
REMARK       I    between atoms: N1_9  and  C7_10 
REMARK    3  A    between atoms: C7_10  and  C8_12 
REMARK    4  A    between atoms: C10_18  and  C11_19 
REMARK    5  A    between atoms: C11_19  and  N4_20 
REMARK    6  A    between atoms: C11_19  and  C20_37 
REMARK    7  A    between atoms: C12_22  and  C13_23 
REMARK    8  A    between atoms: C13_23  and  C14_25 
REMARK       I    between atoms: C14_25  and  N5_27 
REMARK    9  A    between atoms: N5_27  and  C15_29 
REMARK   10  A    between atoms: C15_29  and  C16_32 
REMARK   11  A    between atoms: C16_32  and  C17_34 
ROOT
HETATM    1  C11 UNL     1       3.155   6.921  22.280  1.00  0.00     0.141 C 
ENDROOT
BRANCH   1   2
HETATM    2  C10 UNL     1       2.630   8.179  22.964  1.00  0.00     0.066 A 
HETATM    3  C8  UNL     1       3.381   9.358  23.111  1.00  0.00     0.126 A 
HETATM    4  N2  UNL     1       2.522  10.219  23.715  1.00  0.00    -0.346 N 
HETATM    5  C9  UNL     1       1.344   9.648  23.937  1.00  0.00     0.181 A 
ATOM      6  H2  UNL     1       2.752  11.180  23.966  1.00  0.00     0.167 HD
HETATM    7  N3  UNL     1       1.425   8.363  23.461  1.00  0.00    -0.352 N 
ATOM      8  H3  UNL     1       0.679   7.668  23.489  1.00  0.00     0.166 HD
BRANCH   3   9
HETATM    9  C7  UNL     1       4.747   9.602  22.745  1.00  0.00     0.273 C 
HETATM   10  N1  UNL     1       5.834   9.257  23.653  1.00  0.00    -0.333 N 
HETATM   11  C3  UNL     1       7.225   9.434  23.391  1.00  0.00     0.187 C 
HETATM   12  C6  UNL     1       5.618   8.701  24.943  1.00  0.00     0.127 C 
HETATM   13  C4  UNL     1       7.899   9.331  24.725  1.00  0.00     0.037 C 
HETATM   14  C5  UNL     1       6.949   8.645  25.630  1.00  0.00     0.022 C 
HETATM   15  O3  UNL     1       5.109  10.103  21.677  1.00  0.00    -0.266 OA
BRANCH  11  16
HETATM   16  C2  UNL     1       7.770   8.496  22.395  1.00  0.00     0.281 C 
HETATM   17  O2  UNL     1       7.525   7.276  22.519  1.00  0.00    -0.263 OA
BRANCH  16  18
HETATM   18  O1  UNL     1       8.544   8.903  21.325  1.00  0.00    -0.325 OA
HETATM   19  C1  UNL     1       8.042   9.202  20.036  1.00  0.00     0.213 C 
ENDBRANCH  16  18
ENDBRANCH  11  16
ENDBRANCH   3   9
ENDBRANCH   1   2
BRANCH   1  20
HETATM   20  N4  UNL     1       2.929   7.140  20.917  1.00  0.00    -0.385 N 
HETATM   21  C12 UNL     1       3.670   7.569  19.883  1.00  0.00     0.145 C 
ATOM     22  H4  UNL     1       1.971   6.922  20.643  1.00  0.00     0.159 HD
BRANCH  21  23
HETATM   23  C13 UNL     1       4.628   6.800  19.091  1.00  0.00     0.254 C 
HETATM   24  O4  UNL     1       5.348   7.325  18.224  1.00  0.00    -0.281 OA
BRANCH  23  25
HETATM   25  C14 UNL     1       4.797   5.352  19.279  1.00  0.00     0.296 C 
HETATM   26  O5  UNL     1       3.784   4.639  19.438  1.00  0.00    -0.264 OA
HETATM   27  N5  UNL     1       6.070   4.768  19.283  1.00  0.00    -0.299 N 
ATOM     28  H5  UNL     1       6.873   5.381  19.141  1.00  0.00     0.167 HD
BRANCH  27  29
HETATM   29  C15 UNL     1       6.323   3.361  19.475  1.00  0.00     0.318 C 
HETATM   30  F1  UNL     1       5.451   2.575  18.749  1.00  0.00    -0.192 F 
HETATM   31 CL1  UNL     1       6.243   3.024  21.225  1.00  0.00    -0.051 Cl
BRANCH  29  32
HETATM   32  C16 UNL     1       7.708   3.004  19.029  1.00  0.00     0.206 C 
HETATM   33  O6  UNL     1       8.588   3.839  19.131  1.00  0.00    -0.290 OA
BRANCH  32  34
HETATM   34  C17 UNL     1       8.031   1.679  18.478  1.00  0.00     0.054 C 
HETATM   35  C18 UNL     1       9.501   1.355  18.738  1.00  0.00     0.018 C 
HETATM   36  C19 UNL     1       7.804   1.598  16.994  1.00  0.00     0.018 C 
ENDBRANCH  32  34
ENDBRANCH  29  32
ENDBRANCH  27  29
ENDBRANCH  23  25
ENDBRANCH  21  23
ENDBRANCH   1  20
BRANCH   1  37
HETATM   37  C20 UNL     1       2.612   5.700  22.924  1.00  0.00    -0.025 C 
HETATM   38  C21 UNL     1       1.436   5.109  22.136  1.00  0.00     0.017 C 
HETATM   39  C22 UNL     1       3.676   4.601  22.996  1.00  0.00     0.017 C 
HETATM   40  C23 UNL     1       2.098   5.916  24.350  1.00  0.00     0.017 C 
ENDBRANCH   1  37
TORSDOF 11
ENDMDL
MODEL 4
REMARK VINA RESULT: -7.185290708      4.082      5.417
REMARK  11 active torsions:
REMARK  status: ('A' for Active; 'I' for Inactive)
REMARK    1  A    between atoms: O1_2  and  C2_3 
REMARK    2  A    between atoms: C2_3  and  C3_5 
REMARK       I    between atoms: N1_9  and  C7_10 
REMARK    3  A    between atoms: C7_10  and  C8_12 
REMARK    4  A    between atoms: C10_18  and  C11_19 
REMARK    5  A    between atoms: C11_19  and  N4_20 
REMARK    6  A    between atoms: C11_19  and  C20_37 
REMARK    7  A    between atoms: C12_22  and  C13_23 
REMARK    8  A    between atoms: C13_23  and  C14_25 
REMARK       I    between atoms: C14_25  and  N5_27 
REMARK    9  A    between atoms: N5_27  and  C15_29 
REMARK   10  A    between atoms: C15_29  and  C16_32 
REMARK   11  A    between atoms: C16_32  and  C17_34 
ROOT
HETATM    1  C11 UNL     1       5.872   4.954  19.565  1.00  0.00     0.141 C 
ENDROOT
BRANCH   1   2
HETATM    2  C10 UNL     1       4.990   5.071  20.804  1.00  0.00     0.066 A 
HETATM    3  C8  UNL     1       5.158   6.058  21.790  1.00  0.00     0.126 A 
HETATM    4  N2  UNL     1       4.142   5.825  22.661  1.00  0.00    -0.346 N 
HETATM    5  C9  UNL     1       3.403   4.792  22.273  1.00  0.00     0.181 A 
ATOM      6  H2  UNL     1       3.969   6.373  23.503  1.00  0.00     0.167 HD
HETATM    7  N3  UNL     1       3.949   4.324  21.104  1.00  0.00    -0.352 N 
ATOM      8  H3  UNL     1       3.606   3.533  20.560  1.00  0.00     0.166 HD
BRANCH   3   9
HETATM    9  C7  UNL     1       6.178   7.062  21.889  1.00  0.00     0.273 C 
HETATM   10  N1  UNL     1       5.858   8.471  21.693  1.00  0.00    -0.333 N 
HETATM   11  C3  UNL     1       6.780   9.555  21.786  1.00  0.00     0.187 C 
HETATM   12  C6  UNL     1       4.553   8.930  21.366  1.00  0.00     0.127 C 
HETATM   13  C4  UNL     1       6.104  10.714  21.120  1.00  0.00     0.037 C 
HETATM   14  C5  UNL     1       4.658  10.398  21.082  1.00  0.00     0.022 C 
HETATM   15  O3  UNL     1       7.364   6.835  22.138  1.00  0.00    -0.266 OA
BRANCH  11  16
HETATM   16  C2  UNL     1       7.216   9.853  23.162  1.00  0.00     0.281 C 
HETATM   17  O2  UNL     1       8.374  10.286  23.346  1.00  0.00    -0.263 OA
BRANCH  16  18
HETATM   18  O1  UNL     1       6.400   9.673  24.262  1.00  0.00    -0.325 OA
HETATM   19  C1  UNL     1       6.597   8.686  25.257  1.00  0.00     0.213 C 
ENDBRANCH  16  18
ENDBRANCH  11  16
ENDBRANCH   3   9
ENDBRANCH   1   2
BRANCH   1  20
HETATM   20  N4  UNL     1       5.010   5.200  18.493  1.00  0.00    -0.385 N 
HETATM   21  C12 UNL     1       4.270   6.243  18.082  1.00  0.00     0.145 C 
ATOM     22  H4  UNL     1       4.920   4.395  17.874  1.00  0.00     0.159 HD
BRANCH  21  23
HETATM   23  C13 UNL     1       4.720   7.422  17.344  1.00  0.00     0.254 C 
HETATM   24  O4  UNL     1       5.098   8.459  17.914  1.00  0.00    -0.281 OA
BRANCH  23  25
HETATM   25  C14 UNL     1       4.751   7.445  15.874  1.00  0.00     0.296 C 
HETATM   26  O5  UNL     1       3.886   6.808  15.240  1.00  0.00    -0.264 OA
HETATM   27  N5  UNL     1       5.734   8.165  15.185  1.00  0.00    -0.299 N 
ATOM     28  H5  UNL     1       6.419   8.681  15.738  1.00  0.00     0.167 HD
BRANCH  27  29
HETATM   29  C15 UNL     1       5.845   8.229  13.749  1.00  0.00     0.318 C 
HETATM   30  F1  UNL     1       4.687   8.698  13.161  1.00  0.00    -0.192 F 
HETATM   31 CL1  UNL     1       6.292   6.605  13.162  1.00  0.00    -0.051 Cl
BRANCH  29  32
HETATM   32  C16 UNL     1       6.948   9.155  13.340  1.00  0.00     0.206 C 
HETATM   33  O6  UNL     1       7.075  10.210  13.934  1.00  0.00    -0.290 OA
BRANCH  32  34
HETATM   34  C17 UNL     1       7.878   8.826  12.248  1.00  0.00     0.054 C 
HETATM   35  C18 UNL     1       9.290   9.280  12.617  1.00  0.00     0.018 C 
HETATM   36  C19 UNL     1       7.511   9.494  10.953  1.00  0.00     0.018 C 
ENDBRANCH  32  34
ENDBRANCH  29  32
ENDBRANCH  27  29
ENDBRANCH  23  25
ENDBRANCH  21  23
ENDBRANCH   1  20
BRANCH   1  37
HETATM   37  C20 UNL     1       6.664   3.701  19.593  1.00  0.00    -0.025 C 
HETATM   38  C21 UNL     1       6.166   2.683  18.558  1.00  0.00     0.017 C 
HETATM   39  C22 UNL     1       8.133   3.973  19.255  1.00  0.00     0.017 C 
HETATM   40  C23 UNL     1       6.646   2.974  20.941  1.00  0.00     0.017 C 
ENDBRANCH   1  37
TORSDOF 11
ENDMDL
MODEL 5
REMARK VINA RESULT: -7.170438916      2.816      4.420
REMARK  11 active torsions:
REMARK  status: ('A' for Active; 'I' for Inactive)
REMARK    1  A    between atoms: O1_2  and  C2_3 
REMARK    2  A    between atoms: C2_3  and  C3_5 
REMARK       I    between atoms: N1_9  and  C7_10 
REMARK    3  A    between atoms: C7_10  and  C8_12 
REMARK    4  A    between atoms: C10_18  and  C11_19 
REMARK    5  A    between atoms: C11_19  and  N4_20 
REMARK    6  A    between atoms: C11_19  and  C20_37 
REMARK    7  A    between atoms: C12_22  and  C13_23 
REMARK    8  A    between atoms: C13_23  and  C14_25 
REMARK       I    between atoms: C14_25  and  N5_27 
REMARK    9  A    between atoms: N5_27  and  C15_29 
REMARK   10  A    between atoms: C15_29  and  C16_32 
REMARK   11  A    between atoms: C16_32  and  C17_34 
ROOT
HETATM    1  C11 UNL     1       5.091   6.660  21.915  1.00  0.00     0.141 C 
ENDROOT
BRANCH   1   2
HETATM    2  C10 UNL     1       5.028   7.771  22.959  1.00  0.00     0.066 A 
HETATM    3  C8  UNL     1       4.775   9.118  22.650  1.00  0.00     0.126 A 
HETATM    4  N2  UNL     1       4.755   9.732  23.861  1.00  0.00    -0.346 N 
HETATM    5  C9  UNL     1       4.977   8.867  24.844  1.00  0.00     0.181 A 
ATOM      6  H2  UNL     1       4.590  10.729  23.998  1.00  0.00     0.167 HD
HETATM    7  N3  UNL     1       5.150   7.635  24.263  1.00  0.00    -0.352 N 
ATOM      8  H3  UNL     1       5.340   6.764  24.757  1.00  0.00     0.166 HD
BRANCH   3   9
HETATM    9  C7  UNL     1       4.609   9.726  21.361  1.00  0.00     0.273 C 
HETATM   10  N1  UNL     1       5.587  10.682  20.857  1.00  0.00    -0.333 N 
HETATM   11  C3  UNL     1       5.538  11.333  19.589  1.00  0.00     0.187 C 
HETATM   12  C6  UNL     1       6.725  11.092  21.604  1.00  0.00     0.127 C 
HETATM   13  C4  UNL     1       6.488  12.486  19.694  1.00  0.00     0.037 C 
HETATM   14  C5  UNL     1       7.387  12.194  20.834  1.00  0.00     0.022 C 
HETATM   15  O3  UNL     1       3.666   9.505  20.597  1.00  0.00    -0.266 OA
BRANCH  11  16
HETATM   16  C2  UNL     1       5.830  10.445  18.450  1.00  0.00     0.281 C 
HETATM   17  O2  UNL     1       6.986   9.982  18.328  1.00  0.00    -0.263 OA
BRANCH  16  18
HETATM   18  O1  UNL     1       4.883  10.100  17.505  1.00  0.00    -0.325 OA
HETATM   19  C1  UNL     1       5.116  10.061  16.109  1.00  0.00     0.213 C 
ENDBRANCH  16  18
ENDBRANCH  11  16
ENDBRANCH   3   9
ENDBRANCH   1   2
BRANCH   1  20
HETATM   20  N4  UNL     1       4.514   5.552  22.544  1.00  0.00    -0.385 N 
HETATM   21  C12 UNL     1       3.533   4.686  22.243  1.00  0.00     0.145 C 
ATOM     22  H4  UNL     1       4.941   5.354  23.449  1.00  0.00     0.159 HD
BRANCH  21  23
HETATM   23  C13 UNL     1       3.609   3.521  21.363  1.00  0.00     0.254 C 
HETATM   24  O4  UNL     1       3.268   2.385  21.734  1.00  0.00    -0.281 OA
BRANCH  23  25
HETATM   25  C14 UNL     1       4.094   3.630  19.980  1.00  0.00     0.296 C 
HETATM   26  O5  UNL     1       3.602   4.501  19.233  1.00  0.00    -0.264 OA
HETATM   27  N5  UNL     1       5.091   2.775  19.495  1.00  0.00    -0.299 N 
ATOM     28  H5  UNL     1       5.475   2.083  20.138  1.00  0.00     0.167 HD
BRANCH  27  29
HETATM   29  C15 UNL     1       5.612   2.806  18.151  1.00  0.00     0.318 C 
HETATM   30  F1  UNL     1       5.882   4.093  17.730  1.00  0.00    -0.192 F 
HETATM   31 CL1  UNL     1       4.440   1.980  17.090  1.00  0.00    -0.051 Cl
BRANCH  29  32
HETATM   32  C16 UNL     1       6.895   2.039  18.059  1.00  0.00     0.206 C 
HETATM   33  O6  UNL     1       7.077   1.319  17.094  1.00  0.00    -0.290 OA
BRANCH  32  34
HETATM   34  C17 UNL     1       7.936   2.134  19.094  1.00  0.00     0.054 C 
HETATM   35  C18 UNL     1       8.570   3.524  19.063  1.00  0.00     0.018 C 
HETATM   36  C19 UNL     1       9.036   1.129  18.903  1.00  0.00     0.018 C 
ENDBRANCH  32  34
ENDBRANCH  29  32
ENDBRANCH  27  29
ENDBRANCH  23  25
ENDBRANCH  21  23
ENDBRANCH   1  20
BRANCH   1  37
HETATM   37  C20 UNL     1       6.453   6.548  21.340  1.00  0.00    -0.025 C 
HETATM   38  C21 UNL     1       7.439   7.517  22.005  1.00  0.00     0.017 C 
HETATM   39  C22 UNL     1       7.023   5.143  21.553  1.00  0.00     0.017 C 
HETATM   40  C23 UNL     1       6.528   6.834  19.838  1.00  0.00     0.017 C 
ENDBRANCH   1  37
TORSDOF 11
ENDMDL
