MODEL 1
REMARK VINA RESULT: -6.947015418      0.000      0.000
REMARK  11 active torsions:
REMARK  status: ('A' for Active; 'I' for Inactive)
REMARK    1  A    between atoms: C2_2  and  N1_3 
REMARK    2  A    between atoms: C2_2  and  C12_27 
REMARK       I    between atoms: N1_3  and  C3_5 
REMARK    3  A    between atoms: C3_5  and  C4_7 
REMARK    4  A    between atoms: C4_7  and  C6_9 
REMARK    5  A    between atoms: C4_7  and  N2_12 
REMARK    6  A    between atoms: C6_9  and  O2_10 
REMARK       I    between atoms: N2_12  and  C7_14 
REMARK    7  A    between atoms: C7_14  and  C8_16 
REMARK    8  A    between atoms: C8_16  and  N3_17 
REMARK       I    between atoms: N3_17  and  C9_19 
REMARK    9  A    between atoms: C9_19  and  C10_21 
REMARK   10  A    between atoms: C10_21  and  N4_24 
REMARK   11  A    between atoms: C13_30  and  C14_31 
ROOT
HETATM    1  C4  UNL     1       6.229  10.496  19.139  1.00  0.00     0.131 C 
HETATM    2  C5  UNL     1       7.131  11.680  18.860  1.00  0.00     0.051 C 
ENDROOT
BRANCH   1   3
HETATM    3  C3  UNL     1       7.071   9.403  19.779  1.00  0.00     0.248 C 
HETATM    4  N1  UNL     1       6.604   8.067  19.812  1.00  0.00    -0.347 N 
ATOM      5  H1  UNL     1       5.698   7.836  19.404  1.00  0.00     0.163 HD
HETATM    6  O1  UNL     1       8.168   9.765  20.256  1.00  0.00    -0.271 OA
BRANCH   4   7
HETATM    7  C2  UNL     1       7.393   7.047  20.412  1.00  0.00     0.155 C 
HETATM    8  C1  UNL     1       7.009   6.821  21.858  1.00  0.00     0.041 C 
BRANCH   7   9
HETATM    9  C12 UNL     1       7.252   5.745  19.679  1.00  0.00     0.148 A 
HETATM   10  N5  UNL     1       6.385   5.489  18.682  1.00  0.00    -0.338 N 
HETATM   11  C13 UNL     1       6.547   4.213  18.267  1.00  0.00     0.060 A 
ATOM     12  H5  UNL     1       5.712   6.153  18.300  1.00  0.00     0.167 HD
HETATM   13  C18 UNL     1       7.554   3.704  19.061  1.00  0.00     0.147 A 
HETATM   14 BR1  UNL     1       8.260   1.938  18.979  1.00  0.00    -0.021 Br
HETATM   15  O7  UNL     1       7.930   4.658  19.875  1.00  0.00    -0.286 OA
BRANCH  11  16
HETATM   16  C14 UNL     1       5.794   3.498  17.179  1.00  0.00    -0.005 C 
HETATM   17  C15 UNL     1       6.711   2.872  16.177  1.00  0.00     0.021 C 
HETATM   18  C16 UNL     1       4.965   4.555  16.444  1.00  0.00     0.021 C 
HETATM   19  C17 UNL     1       4.830   2.500  17.751  1.00  0.00     0.021 C 
ENDBRANCH  11  16
ENDBRANCH   7   9
ENDBRANCH   4   7
ENDBRANCH   1   3
BRANCH   1  20
HETATM   20  C6  UNL     1       5.117  10.842  20.106  1.00  0.00     0.204 C 
BRANCH  20  21
HETATM   21  O2  UNL     1       5.262  10.459  21.388  1.00  0.00    -0.398 OA
ATOM     22  H2  UNL     1       4.488  10.153  21.847  1.00  0.00     0.209 HD
ENDBRANCH  20  21
ENDBRANCH   1  20
BRANCH   1  23
HETATM   23  N2  UNL     1       5.747   9.970  17.885  1.00  0.00    -0.340 N 
HETATM   24  C7  UNL     1       4.807  10.586  17.027  1.00  0.00     0.236 C 
HETATM   25  O3  UNL     1       4.313  11.687  17.305  1.00  0.00    -0.272 OA
ATOM     26  H2  UNL     1       6.120   9.068  17.590  1.00  0.00     0.163 HD
BRANCH  24  27
HETATM   27  C8  UNL     1       4.419   9.881  15.774  1.00  0.00     0.225 C 
BRANCH  27  28
HETATM   28  N3  UNL     1       5.517   9.064  15.254  1.00  0.00    -0.349 N 
HETATM   29  C9  UNL     1       5.877   9.157  13.894  1.00  0.00     0.268 C 
HETATM   30  O4  UNL     1       5.199   9.973  13.154  1.00  0.00    -0.269 OA
ATOM     31  H3  UNL     1       6.021   8.429  15.874  1.00  0.00     0.163 HD
BRANCH  29  32
HETATM   32  C10 UNL     1       6.935   8.442  13.198  1.00  0.00     0.247 C 
HETATM   33  C11 UNL     1       6.823   8.693  11.682  1.00  0.00     0.074 C 
HETATM   34 CL1  UNL     1       6.692   6.666  13.404  1.00  0.00    -0.079 Cl
BRANCH  32  35
HETATM   35  N4  UNL     1       8.249   8.726  13.603  1.00  0.00    -0.120 N 
HETATM   36  O5  UNL     1       9.274   8.187  13.245  1.00  0.00    -0.534 OA
HETATM   37  O6  UNL     1       8.409   9.776  14.524  1.00  0.00    -0.534 OA
ENDBRANCH  32  35
ENDBRANCH  29  32
ENDBRANCH  27  28
ENDBRANCH  24  27
ENDBRANCH   1  23
TORSDOF 11
ENDMDL
MODEL 2
REMARK VINA RESULT: -6.932314676      4.056      7.630
REMARK  11 active torsions:
REMARK  status: ('A' for Active; 'I' for Inactive)
REMARK    1  A    between atoms: C2_2  and  N1_3 
REMARK    2  A    between atoms: C2_2  and  C12_27 
REMARK       I    between atoms: N1_3  and  C3_5 
REMARK    3  A    between atoms: C3_5  and  C4_7 
REMARK    4  A    between atoms: C4_7  and  C6_9 
REMARK    5  A    between atoms: C4_7  and  N2_12 
REMARK    6  A    between atoms: C6_9  and  O2_10 
REMARK       I    between atoms: N2_12  and  C7_14 
REMARK    7  A    between atoms: C7_14  and  C8_16 
REMARK    8  A    between atoms: C8_16  and  N3_17 
REMARK       I    between atoms: N3_17  and  C9_19 
REMARK    9  A    between atoms: C9_19  and  C10_21 
REMARK   10  A    between atoms: C10_21  and  N4_24 
REMARK   11  A    between atoms: C13_30  and  C14_31 
ROOT
HETATM    1  C4  UNL     1       6.898   9.760  21.146  1.00  0.00     0.131 C 
HETATM    2  C5  UNL     1       6.925  11.206  20.697  1.00  0.00     0.051 C 
ENDROOT
BRANCH   1   3
HETATM    3  C3  UNL     1       5.756   9.064  20.423  1.00  0.00     0.248 C 
HETATM    4  N1  UNL     1       5.995   8.366  19.214  1.00  0.00    -0.347 N 
ATOM      5  H1  UNL     1       6.937   8.330  18.826  1.00  0.00     0.163 HD
HETATM    6  O1  UNL     1       4.631   9.152  20.960  1.00  0.00    -0.271 OA
BRANCH   4   7
HETATM    7  C2  UNL     1       4.925   7.716  18.539  1.00  0.00     0.155 C 
HETATM    8  C1  UNL     1       4.739   8.254  17.137  1.00  0.00     0.041 C 
BRANCH   7   9
HETATM    9  C12 UNL     1       5.155   6.235  18.448  1.00  0.00     0.148 A 
HETATM   10  N5  UNL     1       6.297   5.593  18.756  1.00  0.00    -0.338 N 
HETATM   11  C13 UNL     1       6.131   4.268  18.552  1.00  0.00     0.060 A 
ATOM     12  H5  UNL     1       7.152   6.036  19.090  1.00  0.00     0.167 HD
HETATM   13  C18 UNL     1       4.834   4.134  18.103  1.00  0.00     0.147 A 
HETATM   14 BR1  UNL     1       3.974   2.502  17.631  1.00  0.00    -0.021 Br
HETATM   15  O7  UNL     1       4.309   5.333  18.063  1.00  0.00    -0.286 OA
BRANCH  11  16
HETATM   16  C14 UNL     1       7.140   3.172  18.763  1.00  0.00    -0.005 C 
HETATM   17  C15 UNL     1       6.743   2.246  19.868  1.00  0.00     0.021 C 
HETATM   18  C16 UNL     1       8.449   3.848  19.181  1.00  0.00     0.021 C 
HETATM   19  C17 UNL     1       7.414   2.431  17.486  1.00  0.00     0.021 C 
ENDBRANCH  11  16
ENDBRANCH   7   9
ENDBRANCH   4   7
ENDBRANCH   1   3
BRANCH   1  20
HETATM   20  C6  UNL     1       8.176   9.029  20.792  1.00  0.00     0.204 C 
BRANCH  20  21
HETATM   21  O2  UNL     1       9.332   9.523  21.275  1.00  0.00    -0.398 OA
ATOM     22  H2  UNL     1      10.062   9.606  20.673  1.00  0.00     0.209 HD
ENDBRANCH  20  21
ENDBRANCH   1  20
BRANCH   1  23
HETATM   23  N2  UNL     1       6.590   9.713  22.554  1.00  0.00    -0.340 N 
HETATM   24  C7  UNL     1       6.907   8.661  23.444  1.00  0.00     0.236 C 
HETATM   25  O3  UNL     1       7.514   7.654  23.055  1.00  0.00    -0.272 OA
ATOM     26  H2  UNL     1       6.097  10.516  22.946  1.00  0.00     0.163 HD
BRANCH  24  27
HETATM   27  C8  UNL     1       6.493   8.786  24.870  1.00  0.00     0.225 C 
BRANCH  27  28
HETATM   28  N3  UNL     1       5.159   9.379  24.992  1.00  0.00    -0.349 N 
HETATM   29  C9  UNL     1       4.016   8.557  24.907  1.00  0.00     0.268 C 
HETATM   30  O4  UNL     1       4.207   7.292  24.714  1.00  0.00    -0.269 OA
ATOM     31  H3  UNL     1       5.057  10.383  25.138  1.00  0.00     0.163 HD
BRANCH  29  32
HETATM   32  C10 UNL     1       2.621   8.952  25.012  1.00  0.00     0.247 C 
HETATM   33  C11 UNL     1       1.795   7.794  25.602  1.00  0.00     0.074 C 
HETATM   34 CL1  UNL     1       1.949   9.221  23.360  1.00  0.00    -0.079 Cl
BRANCH  32  35
HETATM   35  N4  UNL     1       2.358  10.114  25.756  1.00  0.00    -0.120 N 
HETATM   36  O5  UNL     1       3.114  10.724  26.481  1.00  0.00    -0.534 OA
HETATM   37  O6  UNL     1       1.066  10.655  25.637  1.00  0.00    -0.534 OA
ENDBRANCH  32  35
ENDBRANCH  29  32
ENDBRANCH  27  28
ENDBRANCH  24  27
ENDBRANCH   1  23
TORSDOF 11
ENDMDL
MODEL 3
REMARK VINA RESULT: -6.903460463      1.717      2.104
REMARK  11 active torsions:
REMARK  status: ('A' for Active; 'I' for Inactive)
REMARK    1  A    between atoms: C2_2  and  N1_3 
REMARK    2  A    between atoms: C2_2  and  C12_27 
REMARK       I    between atoms: N1_3  and  C3_5 
REMARK    3  A    between atoms: C3_5  and  C4_7 
REMARK    4  A    between atoms: C4_7  and  C6_9 
REMARK    5  A    between atoms: C4_7  and  N2_12 
REMARK    6  A    between atoms: C6_9  and  O2_10 
REMARK       I    between atoms: N2_12  and  C7_14 
REMARK    7  A    between atoms: C7_14  and  C8_16 
REMARK    8  A    between atoms: C8_16  and  N3_17 
REMARK       I    between atoms: N3_17  and  C9_19 
REMARK    9  A    between atoms: C9_19  and  C10_21 
REMARK   10  A    between atoms: C10_21  and  N4_24 
REMARK   11  A    between atoms: C13_30  and  C14_31 
ROOT
HETATM    1  C4  UNL     1       6.290  11.081  19.346  1.00  0.00     0.131 C 
HETATM    2  C5  UNL     1       7.220  12.270  19.237  1.00  0.00     0.051 C 
ENDROOT
BRANCH   1   3
HETATM    3  C3  UNL     1       7.107   9.884  19.808  1.00  0.00     0.248 C 
HETATM    4  N1  UNL     1       6.649   9.075  20.875  1.00  0.00    -0.347 N 
ATOM      5  H1  UNL     1       5.767   9.295  21.337  1.00  0.00     0.163 HD
HETATM    6  O1  UNL     1       8.175   9.679  19.192  1.00  0.00    -0.271 OA
BRANCH   4   7
HETATM    7  C2  UNL     1       7.415   7.956  21.306  1.00  0.00     0.155 C 
HETATM    8  C1  UNL     1       7.333   7.766  22.805  1.00  0.00     0.041 C 
BRANCH   7   9
HETATM    9  C12 UNL     1       6.953   6.690  20.644  1.00  0.00     0.148 A 
HETATM   10  N5  UNL     1       6.733   5.513  21.258  1.00  0.00    -0.338 N 
HETATM   11  C13 UNL     1       6.327   4.604  20.345  1.00  0.00     0.060 A 
ATOM     12  H5  UNL     1       6.853   5.336  22.255  1.00  0.00     0.167 HD
HETATM   13  C18 UNL     1       6.313   5.284  19.144  1.00  0.00     0.147 A 
HETATM   14 BR1  UNL     1       5.828   4.559  17.452  1.00  0.00    -0.021 Br
HETATM   15  O7  UNL     1       6.693   6.513  19.387  1.00  0.00    -0.286 OA
BRANCH  11  16
HETATM   16  C14 UNL     1       5.970   3.162  20.579  1.00  0.00    -0.005 C 
HETATM   17  C15 UNL     1       4.577   2.847  20.137  1.00  0.00     0.021 C 
HETATM   18  C16 UNL     1       6.032   2.929  22.092  1.00  0.00     0.021 C 
HETATM   19  C17 UNL     1       6.976   2.243  19.950  1.00  0.00     0.021 C 
ENDBRANCH  11  16
ENDBRANCH   7   9
ENDBRANCH   4   7
ENDBRANCH   1   3
BRANCH   1  20
HETATM   20  C6  UNL     1       5.193  11.306  20.365  1.00  0.00     0.204 C 
BRANCH  20  21
HETATM   21  O2  UNL     1       4.031  11.827  19.928  1.00  0.00    -0.398 OA
ATOM     22  H2  UNL     1       4.074  12.507  19.266  1.00  0.00     0.209 HD
ENDBRANCH  20  21
ENDBRANCH   1  20
BRANCH   1  23
HETATM   23  N2  UNL     1       5.786  10.760  18.033  1.00  0.00    -0.340 N 
HETATM   24  C7  UNL     1       4.906   9.701  17.712  1.00  0.00     0.236 C 
HETATM   25  O3  UNL     1       4.474   8.940  18.588  1.00  0.00    -0.272 OA
ATOM     26  H2  UNL     1       6.094  11.354  17.263  1.00  0.00     0.163 HD
BRANCH  24  27
HETATM   27  C8  UNL     1       4.503   9.517  16.290  1.00  0.00     0.225 C 
BRANCH  27  28
HETATM   28  N3  UNL     1       5.534   8.810  15.527  1.00  0.00    -0.349 N 
HETATM   29  C9  UNL     1       5.877   9.255  14.233  1.00  0.00     0.268 C 
HETATM   30  O4  UNL     1       5.246  10.284  13.771  1.00  0.00    -0.269 OA
ATOM     31  H3  UNL     1       6.002   7.998  15.930  1.00  0.00     0.163 HD
BRANCH  29  32
HETATM   32  C10 UNL     1       6.872   8.696  13.331  1.00  0.00     0.247 C 
HETATM   33  C11 UNL     1       6.531   9.081  11.878  1.00  0.00     0.074 C 
HETATM   34 CL1  UNL     1       6.778   6.895  13.378  1.00  0.00    -0.079 Cl
BRANCH  32  35
HETATM   35  N4  UNL     1       8.208   9.044  13.585  1.00  0.00    -0.120 N 
HETATM   36  O5  UNL     1       9.193   8.742  12.945  1.00  0.00    -0.534 OA
HETATM   37  O6  UNL     1       8.442   9.858  14.706  1.00  0.00    -0.534 OA
ENDBRANCH  32  35
ENDBRANCH  29  32
ENDBRANCH  27  28
ENDBRANCH  24  27
ENDBRANCH   1  23
TORSDOF 11
ENDMDL
MODEL 4
REMARK VINA RESULT: -6.886031829      4.218      7.355
REMARK  11 active torsions:
REMARK  status: ('A' for Active; 'I' for Inactive)
REMARK    1  A    between atoms: C2_2  and  N1_3 
REMARK    2  A    between atoms: C2_2  and  C12_27 
REMARK       I    between atoms: N1_3  and  C3_5 
REMARK    3  A    between atoms: C3_5  and  C4_7 
REMARK    4  A    between atoms: C4_7  and  C6_9 
REMARK    5  A    between atoms: C4_7  and  N2_12 
REMARK    6  A    between atoms: C6_9  and  O2_10 
REMARK       I    between atoms: N2_12  and  C7_14 
REMARK    7  A    between atoms: C7_14  and  C8_16 
REMARK    8  A    between atoms: C8_16  and  N3_17 
REMARK       I    between atoms: N3_17  and  C9_19 
REMARK    9  A    between atoms: C9_19  and  C10_21 
REMARK   10  A    between atoms: C10_21  and  N4_24 
REMARK   11  A    between atoms: C13_30  and  C14_31 
ROOT
HETATM    1  C4  UNL     1       6.903   9.797  20.999  1.00  0.00     0.131 C 
HETATM    2  C5  UNL     1       6.866  11.261  20.617  1.00  0.00     0.051 C 
ENDROOT
BRANCH   1   3
HETATM    3  C3  UNL     1       5.766   9.093  20.274  1.00  0.00     0.248 C 
HETATM    4  N1  UNL     1       6.030   8.295  19.134  1.00  0.00    -0.347 N 
ATOM      5  H1  UNL     1       6.987   8.192  18.797  1.00  0.00     0.163 HD
HETATM    6  O1  UNL     1       4.622   9.266  20.747  1.00  0.00    -0.271 OA
BRANCH   4   7
HETATM    7  C2  UNL     1       4.965   7.638  18.458  1.00  0.00     0.155 C 
HETATM    8  C1  UNL     1       4.795   8.155  17.046  1.00  0.00     0.041 C 
BRANCH   7   9
HETATM    9  C12 UNL     1       5.192   6.155  18.392  1.00  0.00     0.148 A 
HETATM   10  N5  UNL     1       6.333   5.515  18.709  1.00  0.00    -0.338 N 
HETATM   11  C13 UNL     1       6.163   4.188  18.527  1.00  0.00     0.060 A 
ATOM     12  H5  UNL     1       7.189   5.963  19.034  1.00  0.00     0.167 HD
HETATM   13  C18 UNL     1       4.865   4.049  18.083  1.00  0.00     0.147 A 
HETATM   14 BR1  UNL     1       4.000   2.412  17.640  1.00  0.00    -0.021 Br
HETATM   15  O7  UNL     1       4.343   5.249  18.024  1.00  0.00    -0.286 OA
BRANCH  11  16
HETATM   16  C14 UNL     1       7.170   3.093  18.756  1.00  0.00    -0.005 C 
HETATM   17  C15 UNL     1       6.783   2.200  19.891  1.00  0.00     0.021 C 
HETATM   18  C16 UNL     1       8.487   3.774  19.138  1.00  0.00     0.021 C 
HETATM   19  C17 UNL     1       7.423   2.316  17.496  1.00  0.00     0.021 C 
ENDBRANCH  11  16
ENDBRANCH   7   9
ENDBRANCH   4   7
ENDBRANCH   1   3
BRANCH   1  20
HETATM   20  C6  UNL     1       8.195   9.130  20.577  1.00  0.00     0.204 C 
BRANCH  20  21
HETATM   21  O2  UNL     1       9.322   9.488  21.222  1.00  0.00    -0.398 OA
ATOM     22  H2  UNL     1      10.115   9.003  21.027  1.00  0.00     0.209 HD
ENDBRANCH  20  21
ENDBRANCH   1  20
BRANCH   1  23
HETATM   23  N2  UNL     1       6.636   9.675  22.411  1.00  0.00    -0.340 N 
HETATM   24  C7  UNL     1       6.930   8.555  23.222  1.00  0.00     0.236 C 
HETATM   25  O3  UNL     1       7.477   7.549  22.751  1.00  0.00    -0.272 OA
ATOM     26  H2  UNL     1       6.194  10.472  22.867  1.00  0.00     0.163 HD
BRANCH  24  27
HETATM   27  C8  UNL     1       6.567   8.608  24.666  1.00  0.00     0.225 C 
BRANCH  27  28
HETATM   28  N3  UNL     1       5.272   7.972  24.918  1.00  0.00    -0.349 N 
HETATM   29  C9  UNL     1       4.082   8.632  24.543  1.00  0.00     0.268 C 
HETATM   30  O4  UNL     1       4.197   9.795  23.990  1.00  0.00    -0.269 OA
ATOM     31  H3  UNL     1       5.230   7.055  25.363  1.00  0.00     0.163 HD
BRANCH  29  32
HETATM   32  C10 UNL     1       2.715   8.165  24.700  1.00  0.00     0.247 C 
HETATM   33  C11 UNL     1       1.791   8.923  23.726  1.00  0.00     0.074 C 
HETATM   34 CL1  UNL     1       2.120   8.596  26.348  1.00  0.00    -0.079 Cl
BRANCH  32  35
HETATM   35  N4  UNL     1       2.504   6.787  24.535  1.00  0.00    -0.120 N 
HETATM   36  O5  UNL     1       3.278   5.959  24.102  1.00  0.00    -0.534 OA
HETATM   37  O6  UNL     1       1.251   6.292  24.933  1.00  0.00    -0.534 OA
ENDBRANCH  32  35
ENDBRANCH  29  32
ENDBRANCH  27  28
ENDBRANCH  24  27
ENDBRANCH   1  23
TORSDOF 11
ENDMDL
MODEL 5
REMARK VINA RESULT: -6.738684045      1.876      2.291
REMARK  11 active torsions:
REMARK  status: ('A' for Active; 'I' for Inactive)
REMARK    1  A    between atoms: C2_2  and  N1_3 
REMARK    2  A    between atoms: C2_2  and  C12_27 
REMARK       I    between atoms: N1_3  and  C3_5 
REMARK    3  A    between atoms: C3_5  and  C4_7 
REMARK    4  A    between atoms: C4_7  and  C6_9 
REMARK    5  A    between atoms: C4_7  and  N2_12 
REMARK    6  A    between atoms: C6_9  and  O2_10 
REMARK       I    between atoms: N2_12  and  C7_14 
REMARK    7  A    between atoms: C7_14  and  C8_16 
REMARK    8  A    between atoms: C8_16  and  N3_17 
REMARK       I    between atoms: N3_17  and  C9_19 
REMARK    9  A    between atoms: C9_19  and  C10_21 
REMARK   10  A    between atoms: C10_21  and  N4_24 
REMARK   11  A    between atoms: C13_30  and  C14_31 
ROOT
HETATM    1  C4  UNL     1       5.651  11.113  19.344  1.00  0.00     0.131 C 
HETATM    2  C5  UNL     1       6.136  12.416  19.944  1.00  0.00     0.051 C 
ENDROOT
BRANCH   1   3
HETATM    3  C3  UNL     1       6.667  10.032  19.680  1.00  0.00     0.248 C 
HETATM    4  N1  UNL     1       6.237   8.771  20.158  1.00  0.00    -0.347 N 
ATOM      5  H1  UNL     1       5.241   8.585  20.277  1.00  0.00     0.163 HD
HETATM    6  O1  UNL     1       7.867  10.334  19.506  1.00  0.00    -0.271 OA
BRANCH   4   7
HETATM    7  C2  UNL     1       7.188   7.761  20.471  1.00  0.00     0.155 C 
HETATM    8  C1  UNL     1       7.189   7.433  21.949  1.00  0.00     0.041 C 
BRANCH   7   9
HETATM    9  C12 UNL     1       6.917   6.498  19.708  1.00  0.00     0.148 A 
HETATM   10  N5  UNL     1       7.558   5.325  19.868  1.00  0.00    -0.338 N 
HETATM   11  C13 UNL     1       7.045   4.417  19.010  1.00  0.00     0.060 A 
ATOM     12  H5  UNL     1       8.312   5.150  20.532  1.00  0.00     0.167 HD
HETATM   13  C18 UNL     1       6.061   5.093  18.318  1.00  0.00     0.147 A 
HETATM   14 BR1  UNL     1       4.953   4.368  16.951  1.00  0.00    -0.021 Br
HETATM   15  O7  UNL     1       6.034   6.319  18.777  1.00  0.00    -0.286 OA
BRANCH  11  16
HETATM   16  C14 UNL     1       7.454   2.979  18.840  1.00  0.00    -0.005 C 
HETATM   17  C15 UNL     1       6.883   2.373  17.597  1.00  0.00     0.021 C 
HETATM   18  C16 UNL     1       6.877   2.209  20.031  1.00  0.00     0.021 C 
HETATM   19  C17 UNL     1       8.946   2.828  18.898  1.00  0.00     0.021 C 
ENDBRANCH  11  16
ENDBRANCH   7   9
ENDBRANCH   4   7
ENDBRANCH   1   3
BRANCH   1  20
HETATM   20  C6  UNL     1       4.318  10.683  19.920  1.00  0.00     0.204 C 
BRANCH  20  21
HETATM   21  O2  UNL     1       4.165  10.746  21.256  1.00  0.00    -0.398 OA
ATOM     22  H2  UNL     1       4.916  10.532  21.797  1.00  0.00     0.209 HD
ENDBRANCH  20  21
ENDBRANCH   1  20
BRANCH   1  23
HETATM   23  N2  UNL     1       5.634  11.238  17.908  1.00  0.00    -0.340 N 
HETATM   24  C7  UNL     1       5.394  10.196  16.982  1.00  0.00     0.236 C 
HETATM   25  O3  UNL     1       5.159   9.042  17.363  1.00  0.00    -0.272 OA
ATOM     26  H2  UNL     1       5.812  12.166  17.523  1.00  0.00     0.163 HD
BRANCH  24  27
HETATM   27  C8  UNL     1       5.430  10.515  15.527  1.00  0.00     0.225 C 
BRANCH  27  28
HETATM   28  N3  UNL     1       5.955   9.395  14.744  1.00  0.00    -0.349 N 
HETATM   29  C9  UNL     1       6.809   9.643  13.650  1.00  0.00     0.268 C 
HETATM   30  O4  UNL     1       7.089  10.877  13.382  1.00  0.00    -0.269 OA
ATOM     31  H3  UNL     1       5.702   8.437  14.989  1.00  0.00     0.163 HD
BRANCH  29  32
HETATM   32  C10 UNL     1       7.433   8.673  12.765  1.00  0.00     0.247 C 
HETATM   33  C11 UNL     1       8.795   8.241  13.343  1.00  0.00     0.074 C 
HETATM   34 CL1  UNL     1       7.816   9.460  11.188  1.00  0.00    -0.079 Cl
BRANCH  32  35
HETATM   35  N4  UNL     1       6.684   7.520  12.477  1.00  0.00    -0.120 N 
HETATM   36  O5  UNL     1       6.042   7.278  11.477  1.00  0.00    -0.534 OA
HETATM   37  O6  UNL     1       6.686   6.510  13.454  1.00  0.00    -0.534 OA
ENDBRANCH  32  35
ENDBRANCH  29  32
ENDBRANCH  27  28
ENDBRANCH  24  27
ENDBRANCH   1  23
TORSDOF 11
ENDMDL
