MODEL 1
REMARK VINA RESULT: -6.916907364      0.000      0.000
REMARK  5 active torsions:
REMARK  status: ('A' for Active; 'I' for Inactive)
REMARK    1  A    between atoms: C4_4  and  C5_5 
REMARK    2  A    between atoms: C6_6  and  C7_7 
REMARK    3  A    between atoms: C9_9  and  C10_10 
REMARK    4  A    between atoms: C10_10  and  C11_11 
REMARK    5  A    between atoms: C11_11  and  C12_12 
ROOT
HETATM    1  C12 UNL     1       3.628 -39.156   2.015  1.00  0.00     0.029 A 
HETATM    2  C13 UNL     1       2.374 -39.322   1.429  1.00  0.00     0.038 A 
HETATM    3  C14 UNL     1       2.207 -40.254   0.430  1.00  0.00     0.091 A 
HETATM    4  N1  UNL     1       3.242 -41.001   0.018  1.00  0.00    -0.352 N 
ATOM      5  H1  UNL     1       3.107 -41.689  -0.722  1.00  0.00     0.166 HD
HETATM    6  C15 UNL     1       4.476 -40.848   0.585  1.00  0.00     0.111 A 
HETATM    7  C16 UNL     1       4.685 -39.928   1.586  1.00  0.00     0.010 A 
HETATM    8  C17 UNL     1       5.897 -39.600   2.327  1.00  0.00     0.103 C 
HETATM    9  C18 UNL     1       6.824 -40.711   2.513  1.00  0.00     0.047 A 
HETATM   10  N2  UNL     1       7.577 -40.824   3.630  1.00  0.00    -0.264 N 
ATOM     11  H2  UNL     1       7.567 -40.170   4.413  1.00  0.00     0.194 HD
HETATM   12  O1  UNL     1       8.303 -41.872   3.558  1.00  0.00    -0.242 OA
HETATM   13  C19 UNL     1       8.091 -42.498   2.440  1.00  0.00     0.082 A 
HETATM   14  C20 UNL     1       8.788 -43.754   2.066  1.00  0.00     0.079 C 
HETATM   15  C21 UNL     1       7.133 -41.770   1.732  1.00  0.00     0.016 A 
HETATM   16  C22 UNL     1       6.667 -42.201   0.424  1.00  0.00     0.167 C 
HETATM   17  N3  UNL     1       5.401 -41.734  -0.009  1.00  0.00    -0.367 N 
HETATM   18  C23 UNL     1       4.975 -42.259  -1.292  1.00  0.00     0.151 C 
ENDROOT
BRANCH   1  19
HETATM   19  C11 UNL     1       3.739 -38.164   3.052  1.00  0.00    -0.059 C 
BRANCH  19  20
HETATM   20  C10 UNL     1       3.821 -37.320   3.909  1.00  0.00    -0.043 C 
BRANCH  20  21
HETATM   21  C9  UNL     1       3.908 -36.322   4.954  1.00  0.00     0.090 A 
HETATM   22  C8  UNL     1       4.969 -35.478   5.211  1.00  0.00     0.061 A 
HETATM   23  C7  UNL     1       4.620 -34.697   6.292  1.00  0.00     0.036 A 
HETATM   24  C25 UNL     1       3.349 -35.116   6.642  1.00  0.00     0.112 A 
HETATM   25  N4  UNL     1       2.925 -36.096   5.830  1.00  0.00    -0.353 N 
HETATM   26  C24 UNL     1       1.625 -36.778   5.905  1.00  0.00     0.156 C 
BRANCH  23  27
HETATM   27  C6  UNL     1       5.436 -33.681   6.895  1.00  0.00    -0.060 C 
HETATM   28  C5  UNL     1       6.109 -32.812   7.413  1.00  0.00    -0.060 C 
BRANCH  28  29
HETATM   29  C4  UNL     1       6.910 -31.752   8.056  1.00  0.00     0.031 A 
HETATM   30  C3  UNL     1       8.190 -31.895   8.431  1.00  0.00     0.035 A 
HETATM   31  C2  UNL     1       8.802 -30.816   9.019  1.00  0.00    -0.019 A 
HETATM   32  C1  UNL     1      10.230 -30.746   9.518  1.00  0.00     0.056 C 
HETATM   33  S1  UNL     1       7.578 -29.636   9.030  1.00  0.00    -0.099 SA
HETATM   34  C26 UNL     1       6.328 -30.532   8.296  1.00  0.00    -0.002 A 
HETATM   35  C27 UNL     1       4.926 -30.080   7.990  1.00  0.00     0.058 C 
ENDBRANCH  28  29
ENDBRANCH  23  27
ENDBRANCH  20  21
ENDBRANCH  19  20
ENDBRANCH   1  19
TORSDOF 5
ENDMDL
MODEL 2
REMARK VINA RESULT: -6.581592673      6.639     11.837
REMARK  5 active torsions:
REMARK  status: ('A' for Active; 'I' for Inactive)
REMARK    1  A    between atoms: C4_4  and  C5_5 
REMARK    2  A    between atoms: C6_6  and  C7_7 
REMARK    3  A    between atoms: C9_9  and  C10_10 
REMARK    4  A    between atoms: C10_10  and  C11_11 
REMARK    5  A    between atoms: C11_11  and  C12_12 
ROOT
HETATM    1  C12 UNL     1       6.549 -41.907   0.625  1.00  0.00     0.029 A 
HETATM    2  C13 UNL     1       6.769 -42.944   1.531  1.00  0.00     0.038 A 
HETATM    3  C14 UNL     1       7.753 -42.818   2.484  1.00  0.00     0.091 A 
HETATM    4  N1  UNL     1       8.500 -41.705   2.547  1.00  0.00    -0.352 N 
ATOM      5  H1  UNL     1       9.227 -41.623   3.257  1.00  0.00     0.166 HD
HETATM    6  C15 UNL     1       8.294 -40.682   1.665  1.00  0.00     0.111 A 
HETATM    7  C16 UNL     1       7.320 -40.768   0.697  1.00  0.00     0.010 A 
HETATM    8  C17 UNL     1       6.928 -39.814  -0.332  1.00  0.00     0.103 C 
HETATM    9  C18 UNL     1       7.103 -38.411   0.030  1.00  0.00     0.047 A 
HETATM   10  N2  UNL     1       6.257 -37.455  -0.414  1.00  0.00    -0.264 N 
ATOM     11  H2  UNL     1       5.452 -37.619  -1.019  1.00  0.00     0.194 HD
HETATM   12  O1  UNL     1       6.617 -36.315   0.036  1.00  0.00    -0.242 OA
HETATM   13  C19 UNL     1       7.677 -36.432   0.777  1.00  0.00     0.082 A 
HETATM   14  C20 UNL     1       8.335 -35.280   1.443  1.00  0.00     0.079 C 
HETATM   15  C21 UNL     1       8.024 -37.784   0.796  1.00  0.00     0.016 A 
HETATM   16  C22 UNL     1       9.178 -38.261   1.540  1.00  0.00     0.167 C 
HETATM   17  N3  UNL     1       9.196 -39.626   1.921  1.00  0.00    -0.367 N 
HETATM   18  C23 UNL     1      10.345 -40.012   2.717  1.00  0.00     0.151 C 
ENDROOT
BRANCH   1  19
HETATM   19  C11 UNL     1       5.507 -42.100  -0.349  1.00  0.00    -0.059 C 
BRANCH  19  20
HETATM   20  C10 UNL     1       4.636 -42.241  -1.170  1.00  0.00    -0.043 C 
BRANCH  20  21
HETATM   21  C9  UNL     1       3.592 -42.385  -2.163  1.00  0.00     0.090 A 
HETATM   22  C8  UNL     1       2.953 -41.373  -2.850  1.00  0.00     0.061 A 
HETATM   23  C7  UNL     1       2.035 -41.963  -3.691  1.00  0.00     0.036 A 
HETATM   24  C25 UNL     1       2.164 -43.322  -3.466  1.00  0.00     0.112 A 
HETATM   25  N4  UNL     1       3.106 -43.569  -2.543  1.00  0.00    -0.353 N 
HETATM   26  C24 UNL     1       3.512 -44.896  -2.057  1.00  0.00     0.156 C 
BRANCH  23  27
HETATM   27  C6  UNL     1       1.151 -41.275  -4.590  1.00  0.00    -0.060 C 
HETATM   28  C5  UNL     1       0.398 -40.679  -5.335  1.00  0.00    -0.060 C 
BRANCH  28  29
HETATM   29  C4  UNL     1      -0.516 -39.938  -6.225  1.00  0.00     0.031 A 
HETATM   30  C3  UNL     1      -0.196 -38.797  -6.854  1.00  0.00     0.035 A 
HETATM   31  C2  UNL     1      -1.156 -38.224  -7.652  1.00  0.00    -0.019 A 
HETATM   32  C1  UNL     1      -1.022 -36.946  -8.453  1.00  0.00     0.056 C 
HETATM   33  S1  UNL     1      -2.472 -39.291  -7.502  1.00  0.00    -0.099 SA
HETATM   34  C26 UNL     1      -1.780 -40.429  -6.439  1.00  0.00    -0.002 A 
HETATM   35  C27 UNL     1      -2.414 -41.673  -5.878  1.00  0.00     0.058 C 
ENDBRANCH  28  29
ENDBRANCH  23  27
ENDBRANCH  20  21
ENDBRANCH  19  20
ENDBRANCH   1  19
TORSDOF 5
ENDMDL
MODEL 3
REMARK VINA RESULT: -6.543463541      6.749     11.131
REMARK  5 active torsions:
REMARK  status: ('A' for Active; 'I' for Inactive)
REMARK    1  A    between atoms: C4_4  and  C5_5 
REMARK    2  A    between atoms: C6_6  and  C7_7 
REMARK    3  A    between atoms: C9_9  and  C10_10 
REMARK    4  A    between atoms: C10_10  and  C11_11 
REMARK    5  A    between atoms: C11_11  and  C12_12 
ROOT
HETATM    1  C12 UNL     1       5.346 -42.723   0.604  1.00  0.00     0.029 A 
HETATM    2  C13 UNL     1       5.015 -43.776   1.455  1.00  0.00     0.038 A 
HETATM    3  C14 UNL     1       5.824 -44.062   2.531  1.00  0.00     0.091 A 
HETATM    4  N1  UNL     1       6.927 -43.334   2.764  1.00  0.00    -0.352 N 
ATOM      5  H1  UNL     1       7.519 -43.555   3.565  1.00  0.00     0.166 HD
HETATM    6  C15 UNL     1       7.262 -42.300   1.937  1.00  0.00     0.111 A 
HETATM    7  C16 UNL     1       6.480 -41.981   0.851  1.00  0.00     0.010 A 
HETATM    8  C17 UNL     1       6.640 -40.934  -0.151  1.00  0.00     0.103 C 
HETATM    9  C18 UNL     1       7.291 -39.719   0.328  1.00  0.00     0.047 A 
HETATM   10  N2  UNL     1       6.955 -38.500  -0.151  1.00  0.00    -0.264 N 
ATOM     11  H2  UNL     1       6.245 -38.325  -0.863  1.00  0.00     0.194 HD
HETATM   12  O1  UNL     1       7.660 -37.602   0.419  1.00  0.00    -0.242 OA
HETATM   13  C19 UNL     1       8.474 -38.137   1.278  1.00  0.00     0.082 A 
HETATM   14  C20 UNL     1       9.424 -37.347   2.099  1.00  0.00     0.079 C 
HETATM   15  C21 UNL     1       8.263 -39.517   1.246  1.00  0.00     0.016 A 
HETATM   16  C22 UNL     1       9.023 -40.420   2.094  1.00  0.00     0.167 C 
HETATM   17  N3  UNL     1       8.456 -41.688   2.378  1.00  0.00    -0.367 N 
HETATM   18  C23 UNL     1       9.239 -42.507   3.283  1.00  0.00     0.151 C 
ENDROOT
BRANCH   1  19
HETATM   19  C11 UNL     1       4.462 -42.476  -0.505  1.00  0.00    -0.059 C 
BRANCH  19  20
HETATM   20  C10 UNL     1       3.719 -42.249  -1.427  1.00  0.00    -0.043 C 
BRANCH  20  21
HETATM   21  C9  UNL     1       2.816 -41.958  -2.520  1.00  0.00     0.090 A 
HETATM   22  C8  UNL     1       2.362 -40.716  -2.914  1.00  0.00     0.061 A 
HETATM   23  C7  UNL     1       1.525 -40.907  -3.992  1.00  0.00     0.036 A 
HETATM   24  C25 UNL     1       1.514 -42.275  -4.199  1.00  0.00     0.112 A 
HETATM   25  N4  UNL     1       2.295 -42.903  -3.307  1.00  0.00    -0.353 N 
HETATM   26  C24 UNL     1       2.522 -44.353  -3.228  1.00  0.00     0.156 C 
BRANCH  23  27
HETATM   27  C6  UNL     1       0.833 -39.877  -4.715  1.00  0.00    -0.060 C 
HETATM   28  C5  UNL     1       0.242 -38.997  -5.308  1.00  0.00    -0.060 C 
BRANCH  28  29
HETATM   29  C4  UNL     1      -0.476 -37.915  -6.010  1.00  0.00     0.031 A 
HETATM   30  C3  UNL     1      -0.838 -37.964  -7.301  1.00  0.00     0.035 A 
HETATM   31  C2  UNL     1      -1.502 -36.876  -7.813  1.00  0.00    -0.019 A 
HETATM   32  C1  UNL     1      -2.005 -36.708  -9.231  1.00  0.00     0.056 C 
HETATM   33  S1  UNL     1      -1.602 -35.822  -6.482  1.00  0.00    -0.099 SA
HETATM   34  C26 UNL     1      -0.805 -36.776  -5.317  1.00  0.00    -0.002 A 
HETATM   35  C27 UNL     1      -0.535 -36.439  -3.876  1.00  0.00     0.058 C 
ENDBRANCH  28  29
ENDBRANCH  23  27
ENDBRANCH  20  21
ENDBRANCH  19  20
ENDBRANCH   1  19
TORSDOF 5
ENDMDL
MODEL 4
REMARK VINA RESULT: -6.518022528      7.182     11.154
REMARK  5 active torsions:
REMARK  status: ('A' for Active; 'I' for Inactive)
REMARK    1  A    between atoms: C4_4  and  C5_5 
REMARK    2  A    between atoms: C6_6  and  C7_7 
REMARK    3  A    between atoms: C9_9  and  C10_10 
REMARK    4  A    between atoms: C10_10  and  C11_11 
REMARK    5  A    between atoms: C11_11  and  C12_12 
ROOT
HETATM    1  C12 UNL     1       0.121 -42.556  -6.187  1.00  0.00     0.029 A 
HETATM    2  C13 UNL     1       0.235 -43.786  -6.832  1.00  0.00     0.038 A 
HETATM    3  C14 UNL     1      -0.646 -44.111  -7.838  1.00  0.00     0.091 A 
HETATM    4  N1  UNL     1      -1.612 -43.252  -8.200  1.00  0.00    -0.352 N 
ATOM      5  H1  UNL     1      -2.259 -43.503  -8.947  1.00  0.00     0.166 HD
HETATM    6  C15 UNL     1      -1.733 -42.044  -7.575  1.00  0.00     0.111 A 
HETATM    7  C16 UNL     1      -0.873 -41.680  -6.564  1.00  0.00     0.010 A 
HETATM    8  C17 UNL     1      -0.814 -40.460  -5.770  1.00  0.00     0.103 C 
HETATM    9  C18 UNL     1      -1.257 -39.254  -6.461  1.00  0.00     0.047 A 
HETATM   10  N2  UNL     1      -0.698 -38.048  -6.211  1.00  0.00    -0.264 N 
ATOM     11  H2  UNL     1       0.055 -37.878  -5.544  1.00  0.00     0.194 HD
HETATM   12  O1  UNL     1      -1.253 -37.155  -6.935  1.00  0.00    -0.242 OA
HETATM   13  C19 UNL     1      -2.176 -37.682  -7.682  1.00  0.00     0.082 A 
HETATM   14  C20 UNL     1      -2.999 -36.895  -8.634  1.00  0.00     0.079 C 
HETATM   15  C21 UNL     1      -2.208 -39.049  -7.400  1.00  0.00     0.016 A 
HETATM   16  C22 UNL     1      -3.142 -39.939  -8.070  1.00  0.00     0.167 C 
HETATM   17  N3  UNL     1      -2.816 -41.318  -8.118  1.00  0.00    -0.367 N 
HETATM   18  C23 UNL     1      -3.759 -42.132  -8.859  1.00  0.00     0.151 C 
ENDROOT
BRANCH   1  19
HETATM   19  C11 UNL     1       1.070 -42.276  -5.142  1.00  0.00    -0.059 C 
BRANCH  19  20
HETATM   20  C10 UNL     1       1.849 -42.039  -4.253  1.00  0.00    -0.043 C 
BRANCH  20  21
HETATM   21  C9  UNL     1       2.766 -41.743  -3.171  1.00  0.00     0.090 A 
HETATM   22  C8  UNL     1       3.196 -40.497  -2.764  1.00  0.00     0.061 A 
HETATM   23  C7  UNL     1       4.057 -40.686  -1.705  1.00  0.00     0.036 A 
HETATM   24  C25 UNL     1       4.107 -42.056  -1.523  1.00  0.00     0.112 A 
HETATM   25  N4  UNL     1       3.325 -42.688  -2.411  1.00  0.00    -0.353 N 
HETATM   26  C24 UNL     1       3.134 -44.143  -2.512  1.00  0.00     0.156 C 
BRANCH  23  27
HETATM   27  C6  UNL     1       4.737 -39.651  -0.977  1.00  0.00    -0.060 C 
HETATM   28  C5  UNL     1       5.303 -38.783  -0.344  1.00  0.00    -0.060 C 
BRANCH  28  29
HETATM   29  C4  UNL     1       5.987 -37.739   0.445  1.00  0.00     0.031 A 
HETATM   30  C3  UNL     1       5.683 -37.432   1.715  1.00  0.00     0.035 A 
HETATM   31  C2  UNL     1       6.410 -36.435   2.317  1.00  0.00    -0.019 A 
HETATM   32  C1  UNL     1       6.246 -35.922   3.732  1.00  0.00     0.056 C 
HETATM   33  S1  UNL     1       7.495 -35.958   1.097  1.00  0.00    -0.099 SA
HETATM   34  C26 UNL     1       7.004 -37.024  -0.138  1.00  0.00    -0.002 A 
HETATM   35  C27 UNL     1       7.561 -37.144  -1.530  1.00  0.00     0.058 C 
ENDBRANCH  28  29
ENDBRANCH  23  27
ENDBRANCH  20  21
ENDBRANCH  19  20
ENDBRANCH   1  19
TORSDOF 5
ENDMDL
MODEL 5
REMARK VINA RESULT: -6.468632231      6.022     11.853
REMARK  5 active torsions:
REMARK  status: ('A' for Active; 'I' for Inactive)
REMARK    1  A    between atoms: C4_4  and  C5_5 
REMARK    2  A    between atoms: C6_6  and  C7_7 
REMARK    3  A    between atoms: C9_9  and  C10_10 
REMARK    4  A    between atoms: C10_10  and  C11_11 
REMARK    5  A    between atoms: C11_11  and  C12_12 
ROOT
HETATM    1  C12 UNL     1       6.179 -41.952  -0.012  1.00  0.00     0.029 A 
HETATM    2  C13 UNL     1       6.573 -43.168   0.545  1.00  0.00     0.038 A 
HETATM    3  C14 UNL     1       7.623 -43.201   1.434  1.00  0.00     0.091 A 
HETATM    4  N1  UNL     1       8.269 -42.073   1.765  1.00  0.00    -0.352 N 
ATOM      5  H1  UNL     1       9.047 -42.109   2.424  1.00  0.00     0.166 HD
HETATM    6  C15 UNL     1       7.893 -40.876   1.226  1.00  0.00     0.111 A 
HETATM    7  C16 UNL     1       6.848 -40.799   0.334  1.00  0.00     0.010 A 
HETATM    8  C17 UNL     1       6.280 -39.646  -0.354  1.00  0.00     0.103 C 
HETATM    9  C18 UNL     1       6.359 -38.389   0.382  1.00  0.00     0.047 A 
HETATM   10  N2  UNL     1       5.393 -37.448   0.280  1.00  0.00    -0.264 N 
ATOM     11  H2  UNL     1       4.555 -37.527  -0.297  1.00  0.00     0.194 HD
HETATM   12  O1  UNL     1       5.688 -36.445   1.014  1.00  0.00    -0.242 OA
HETATM   13  C19 UNL     1       6.817 -36.643   1.625  1.00  0.00     0.082 A 
HETATM   14  C20 UNL     1       7.425 -35.654   2.550  1.00  0.00     0.079 C 
HETATM   15  C21 UNL     1       7.284 -37.900   1.237  1.00  0.00     0.016 A 
HETATM   16  C22 UNL     1       8.539 -38.431   1.743  1.00  0.00     0.167 C 
HETATM   17  N3  UNL     1       8.715 -39.838   1.717  1.00  0.00    -0.367 N 
HETATM   18  C23 UNL     1       9.962 -40.297   2.298  1.00  0.00     0.151 C 
ENDROOT
BRANCH   1  19
HETATM   19  C11 UNL     1       5.076 -41.983  -0.935  1.00  0.00    -0.059 C 
BRANCH  19  20
HETATM   20  C10 UNL     1       4.164 -42.019  -1.723  1.00  0.00    -0.043 C 
BRANCH  20  21
HETATM   21  C9  UNL     1       3.085 -42.060  -2.688  1.00  0.00     0.090 A 
HETATM   22  C8  UNL     1       2.477 -40.982  -3.299  1.00  0.00     0.061 A 
HETATM   23  C7  UNL     1       1.506 -41.482  -4.140  1.00  0.00     0.036 A 
HETATM   24  C25 UNL     1       1.576 -42.855  -3.993  1.00  0.00     0.112 A 
HETATM   25  N4  UNL     1       2.531 -43.197  -3.115  1.00  0.00    -0.353 N 
HETATM   26  C24 UNL     1       2.886 -44.566  -2.713  1.00  0.00     0.156 C 
BRANCH  23  27
HETATM   27  C6  UNL     1       0.631 -40.705  -4.972  1.00  0.00    -0.060 C 
HETATM   28  C5  UNL     1      -0.112 -40.033  -5.660  1.00  0.00    -0.060 C 
BRANCH  28  29
HETATM   29  C4  UNL     1      -1.011 -39.200  -6.483  1.00  0.00     0.031 A 
HETATM   30  C3  UNL     1      -2.004 -39.686  -7.243  1.00  0.00     0.035 A 
HETATM   31  C2  UNL     1      -2.757 -38.783  -7.953  1.00  0.00    -0.019 A 
HETATM   32  C1  UNL     1      -3.920 -39.097  -8.871  1.00  0.00     0.056 C 
HETATM   33  S1  UNL     1      -2.059 -37.288  -7.540  1.00  0.00    -0.099 SA
HETATM   34  C26 UNL     1      -0.839 -37.838  -6.485  1.00  0.00    -0.002 A 
HETATM   35  C27 UNL     1       0.177 -37.016  -5.740  1.00  0.00     0.058 C 
ENDBRANCH  28  29
ENDBRANCH  23  27
ENDBRANCH  20  21
ENDBRANCH  19  20
ENDBRANCH   1  19
TORSDOF 5
ENDMDL
