MODEL 1
REMARK VINA RESULT: -8.215889024      0.000      0.000
REMARK  9 active torsions:
REMARK  status: ('A' for Active; 'I' for Inactive)
REMARK    1  A    between atoms: C2_2  and  S1_5 
REMARK    2  A    between atoms: S1_5  and  C5_6 
REMARK    3  A    between atoms: C5_6  and  C6_7 
REMARK    4  A    between atoms: C6_7  and  C7_8 
REMARK    5  A    between atoms: C7_8  and  N1_9 
REMARK    6  A    between atoms: N1_9  and  C8_12 
REMARK    7  A    between atoms: C8_12  and  O1_13 
REMARK    8  A    between atoms: C8_12  and  C9_15 
REMARK    9  A    between atoms: C9_15  and  C10_16 
ROOT
HETATM    1  C8  UNL     1      65.056  -0.689 -31.048  1.00  0.00     0.318 C 
ENDROOT
BRANCH   1   2
HETATM    2  N1  UNL     1      64.007  -1.205 -30.207  1.00  0.00    -0.049 N 
ATOM      3  H12 UNL     1      64.369  -1.940 -29.598  1.00  0.00     0.280 HD
ATOM      4  H11 UNL     1      63.343  -1.747 -30.760  1.00  0.00     0.280 HD
BRANCH   2   5
HETATM    5  C7  UNL     1      63.320  -0.217 -29.437  1.00  0.00     0.236 C 
BRANCH   5   6
HETATM    6  C6  UNL     1      61.826  -0.552 -29.365  1.00  0.00     0.038 C 
BRANCH   6   7
HETATM    7  C5  UNL     1      61.102   0.544 -30.122  1.00  0.00     0.076 C 
BRANCH   7   8
HETATM    8  S1  UNL     1      59.379   0.681 -29.645  1.00  0.00    -0.160 SA
BRANCH   8   9
HETATM    9  C2  UNL     1      59.035   2.062 -28.555  1.00  0.00    -0.003 C 
HETATM   10  C1  UNL     1      57.608   2.082 -28.074  1.00  0.00     0.026 C 
HETATM   11  C3  UNL     1      59.992   1.960 -27.358  1.00  0.00     0.026 C 
HETATM   12  C4  UNL     1      59.335   3.405 -29.191  1.00  0.00     0.026 C 
ENDBRANCH   8   9
ENDBRANCH   7   8
ENDBRANCH   6   7
ENDBRANCH   5   6
ENDBRANCH   2   5
ENDBRANCH   1   2
BRANCH   1  13
HETATM   13  O1  UNL     1      65.439   0.576 -30.521  1.00  0.00    -0.370 OA
ATOM     14  H1  UNL     1      66.155   0.426 -29.914  1.00  0.00     0.212 HD
ENDBRANCH   1  13
BRANCH   1  15
HETATM   15  C9  UNL     1      66.270  -1.578 -30.964  1.00  0.00     0.067 C 
BRANCH  15  16
HETATM   16  C10 UNL     1      66.320  -2.705 -31.910  1.00  0.00     0.002 C 
HETATM   17  C11 UNL     1      67.612  -2.716 -32.703  1.00  0.00    -0.009 C 
HETATM   18  C12 UNL     1      68.756  -3.047 -31.817  1.00  0.00     0.005 C 
HETATM   19  C15 UNL     1      67.387  -4.074 -33.412  1.00  0.00     0.010 C 
HETATM   20  C13 UNL     1      68.759  -4.576 -31.639  1.00  0.00     0.006 C 
HETATM   21  C14 UNL     1      67.352  -4.889 -32.115  1.00  0.00    -0.006 C 
HETATM   22  C16 UNL     1      66.305  -4.095 -31.341  1.00  0.00    -0.040 C 
HETATM   23  C17 UNL     1      64.972  -4.762 -31.700  1.00  0.00     0.015 C 
HETATM   24  C18 UNL     1      66.500  -4.198 -29.873  1.00  0.00     0.015 C 
ENDBRANCH  15  16
ENDBRANCH   1  15
TORSDOF 9
ENDMDL
MODEL 2
REMARK VINA RESULT: -7.215415284      1.145      1.168
REMARK  9 active torsions:
REMARK  status: ('A' for Active; 'I' for Inactive)
REMARK    1  A    between atoms: C2_2  and  S1_5 
REMARK    2  A    between atoms: S1_5  and  C5_6 
REMARK    3  A    between atoms: C5_6  and  C6_7 
REMARK    4  A    between atoms: C6_7  and  C7_8 
REMARK    5  A    between atoms: C7_8  and  N1_9 
REMARK    6  A    between atoms: N1_9  and  C8_12 
REMARK    7  A    between atoms: C8_12  and  O1_13 
REMARK    8  A    between atoms: C8_12  and  C9_15 
REMARK    9  A    between atoms: C9_15  and  C10_16 
ROOT
HETATM    1  C8  UNL     1      64.371  -1.749 -30.074  1.00  0.00     0.318 C 
ENDROOT
BRANCH   1   2
HETATM    2  N1  UNL     1      63.990  -0.760 -31.049  1.00  0.00    -0.049 N 
ATOM      3  H12 UNL     1      64.059  -1.145 -31.991  1.00  0.00     0.280 HD
ATOM      4  H11 UNL     1      64.698  -0.028 -31.106  1.00  0.00     0.280 HD
BRANCH   2   5
HETATM    5  C7  UNL     1      62.699  -0.185 -30.841  1.00  0.00     0.236 C 
BRANCH   5   6
HETATM    6  C6  UNL     1      62.486   0.106 -29.351  1.00  0.00     0.038 C 
BRANCH   6   7
HETATM    7  C5  UNL     1      61.052  -0.273 -29.038  1.00  0.00     0.076 C 
BRANCH   7   8
HETATM    8  S1  UNL     1      59.869   0.828 -29.813  1.00  0.00    -0.160 SA
BRANCH   8   9
HETATM    9  C2  UNL     1      59.157   2.033 -28.692  1.00  0.00    -0.003 C 
HETATM   10  C1  UNL     1      57.703   1.770 -28.403  1.00  0.00     0.026 C 
HETATM   11  C3  UNL     1      59.968   1.992 -27.388  1.00  0.00     0.026 C 
HETATM   12  C4  UNL     1      59.285   3.457 -29.196  1.00  0.00     0.026 C 
ENDBRANCH   8   9
ENDBRANCH   7   8
ENDBRANCH   6   7
ENDBRANCH   5   6
ENDBRANCH   2   5
ENDBRANCH   1   2
BRANCH   1  13
HETATM   13  O1  UNL     1      63.555  -2.895 -30.290  1.00  0.00    -0.370 OA
ATOM     14  H1  UNL     1      62.800  -2.614 -30.794  1.00  0.00     0.212 HD
ENDBRANCH   1  13
BRANCH   1  15
HETATM   15  C9  UNL     1      65.795  -2.183 -30.308  1.00  0.00     0.067 C 
BRANCH  15  16
HETATM   16  C10 UNL     1      66.070  -2.859 -31.587  1.00  0.00     0.002 C 
HETATM   17  C11 UNL     1      67.349  -2.353 -32.227  1.00  0.00    -0.009 C 
HETATM   18  C12 UNL     1      68.526  -2.780 -31.429  1.00  0.00     0.005 C 
HETATM   19  C15 UNL     1      67.395  -3.375 -33.389  1.00  0.00     0.010 C 
HETATM   20  C13 UNL     1      68.821  -4.242 -31.809  1.00  0.00     0.006 C 
HETATM   21  C14 UNL     1      67.504  -4.601 -32.475  1.00  0.00    -0.006 C 
HETATM   22  C16 UNL     1      66.317  -4.340 -31.554  1.00  0.00    -0.040 C 
HETATM   23  C17 UNL     1      65.140  -5.053 -32.232  1.00  0.00     0.015 C 
HETATM   24  C18 UNL     1      66.514  -4.937 -30.209  1.00  0.00     0.015 C 
ENDBRANCH  15  16
ENDBRANCH   1  15
TORSDOF 9
ENDMDL
MODEL 3
REMARK VINA RESULT: -7.163684823      0.852      2.102
REMARK  9 active torsions:
REMARK  status: ('A' for Active; 'I' for Inactive)
REMARK    1  A    between atoms: C2_2  and  S1_5 
REMARK    2  A    between atoms: S1_5  and  C5_6 
REMARK    3  A    between atoms: C5_6  and  C6_7 
REMARK    4  A    between atoms: C6_7  and  C7_8 
REMARK    5  A    between atoms: C7_8  and  N1_9 
REMARK    6  A    between atoms: N1_9  and  C8_12 
REMARK    7  A    between atoms: C8_12  and  O1_13 
REMARK    8  A    between atoms: C8_12  and  C9_15 
REMARK    9  A    between atoms: C9_15  and  C10_16 
ROOT
HETATM    1  C8  UNL     1      65.046   0.083 -30.912  1.00  0.00     0.318 C 
ENDROOT
BRANCH   1   2
HETATM    2  N1  UNL     1      63.978   0.200 -29.953  1.00  0.00    -0.049 N 
ATOM      3  H12 UNL     1      63.647   1.164 -29.906  1.00  0.00     0.280 HD
ATOM      4  H11 UNL     1      64.339   0.092 -29.005  1.00  0.00     0.280 HD
BRANCH   2   5
HETATM    5  C7  UNL     1      62.882  -0.690 -30.170  1.00  0.00     0.236 C 
BRANCH   5   6
HETATM    6  C6  UNL     1      61.696  -0.289 -29.284  1.00  0.00     0.038 C 
BRANCH   6   7
HETATM    7  C5  UNL     1      60.805   0.598 -30.132  1.00  0.00     0.076 C 
BRANCH   7   8
HETATM    8  S1  UNL     1      59.129   0.683 -29.502  1.00  0.00    -0.160 SA
BRANCH   8   9
HETATM    9  C2  UNL     1      58.823   2.097 -28.441  1.00  0.00    -0.003 C 
HETATM   10  C1  UNL     1      57.452   2.072 -27.820  1.00  0.00     0.026 C 
HETATM   11  C3  UNL     1      59.898   2.095 -27.344  1.00  0.00     0.026 C 
HETATM   12  C4  UNL     1      58.989   3.421 -29.160  1.00  0.00     0.026 C 
ENDBRANCH   8   9
ENDBRANCH   7   8
ENDBRANCH   6   7
ENDBRANCH   5   6
ENDBRANCH   2   5
ENDBRANCH   1   2
BRANCH   1  13
HETATM   13  O1  UNL     1      66.268   0.292 -30.214  1.00  0.00    -0.370 OA
ATOM     14  H1  UNL     1      66.048   0.582 -29.337  1.00  0.00     0.212 HD
ENDBRANCH   1  13
BRANCH   1  15
HETATM   15  C9  UNL     1      65.096  -1.320 -31.461  1.00  0.00     0.067 C 
BRANCH  15  16
HETATM   16  C10 UNL     1      66.016  -2.251 -30.787  1.00  0.00     0.002 C 
HETATM   17  C11 UNL     1      65.302  -3.503 -30.315  1.00  0.00    -0.009 C 
HETATM   18  C12 UNL     1      64.880  -4.323 -31.478  1.00  0.00     0.005 C 
HETATM   19  C15 UNL     1      66.562  -4.275 -29.851  1.00  0.00     0.010 C 
HETATM   20  C13 UNL     1      66.117  -5.110 -31.945  1.00  0.00     0.006 C 
HETATM   21  C14 UNL     1      67.204  -4.315 -31.242  1.00  0.00    -0.006 C 
HETATM   22  C16 UNL     1      67.138  -2.834 -31.598  1.00  0.00    -0.040 C 
HETATM   23  C17 UNL     1      68.466  -2.257 -31.092  1.00  0.00     0.015 C 
HETATM   24  C18 UNL     1      67.061  -2.616 -33.064  1.00  0.00     0.015 C 
ENDBRANCH  15  16
ENDBRANCH   1  15
TORSDOF 9
ENDMDL
MODEL 4
REMARK VINA RESULT: -7.102051328      1.354      1.690
REMARK  9 active torsions:
REMARK  status: ('A' for Active; 'I' for Inactive)
REMARK    1  A    between atoms: C2_2  and  S1_5 
REMARK    2  A    between atoms: S1_5  and  C5_6 
REMARK    3  A    between atoms: C5_6  and  C6_7 
REMARK    4  A    between atoms: C6_7  and  C7_8 
REMARK    5  A    between atoms: C7_8  and  N1_9 
REMARK    6  A    between atoms: N1_9  and  C8_12 
REMARK    7  A    between atoms: C8_12  and  O1_13 
REMARK    8  A    between atoms: C8_12  and  C9_15 
REMARK    9  A    between atoms: C9_15  and  C10_16 
ROOT
HETATM    1  C8  UNL     1      63.950  -2.496 -29.884  1.00  0.00     0.318 C 
ENDROOT
BRANCH   1   2
HETATM    2  N1  UNL     1      63.714  -1.222 -30.512  1.00  0.00    -0.049 N 
ATOM      3  H12 UNL     1      62.955  -1.296 -31.190  1.00  0.00     0.280 HD
ATOM      4  H11 UNL     1      64.485  -0.987 -31.136  1.00  0.00     0.280 HD
BRANCH   2   5
HETATM    5  C7  UNL     1      63.464  -0.148 -29.604  1.00  0.00     0.236 C 
BRANCH   5   6
HETATM    6  C6  UNL     1      62.011  -0.196 -29.120  1.00  0.00     0.038 C 
BRANCH   6   7
HETATM    7  C5  UNL     1      61.170   0.434 -30.214  1.00  0.00     0.076 C 
BRANCH   7   8
HETATM    8  S1  UNL     1      59.476   0.713 -29.698  1.00  0.00    -0.160 SA
BRANCH   8   9
HETATM    9  C2  UNL     1      59.262   2.158 -28.659  1.00  0.00    -0.003 C 
HETATM   10  C1  UNL     1      59.755   3.422 -29.312  1.00  0.00     0.026 C 
HETATM   11  C3  UNL     1      57.766   2.281 -28.336  1.00  0.00     0.026 C 
HETATM   12  C4  UNL     1      59.950   2.025 -27.315  1.00  0.00     0.026 C 
ENDBRANCH   8   9
ENDBRANCH   7   8
ENDBRANCH   6   7
ENDBRANCH   5   6
ENDBRANCH   2   5
ENDBRANCH   1   2
BRANCH   1  13
HETATM   13  O1  UNL     1      63.174  -3.464 -30.581  1.00  0.00    -0.370 OA
ATOM     14  H1  UNL     1      62.338  -3.062 -30.788  1.00  0.00     0.212 HD
ENDBRANCH   1  13
BRANCH   1  15
HETATM   15  C9  UNL     1      65.393  -2.897 -30.053  1.00  0.00     0.067 C 
BRANCH  15  16
HETATM   16  C10 UNL     1      65.842  -3.150 -31.432  1.00  0.00     0.002 C 
HETATM   17  C11 UNL     1      67.050  -2.307 -31.793  1.00  0.00    -0.009 C 
HETATM   18  C12 UNL     1      68.239  -2.758 -31.027  1.00  0.00     0.005 C 
HETATM   19  C15 UNL     1      67.326  -2.954 -33.173  1.00  0.00     0.010 C 
HETATM   20  C13 UNL     1      68.793  -4.001 -31.746  1.00  0.00     0.006 C 
HETATM   21  C14 UNL     1      67.590  -4.353 -32.605  1.00  0.00    -0.006 C 
HETATM   22  C16 UNL     1      66.331  -4.531 -31.764  1.00  0.00    -0.040 C 
HETATM   23  C17 UNL     1      65.325  -5.196 -32.714  1.00  0.00     0.015 C 
HETATM   24  C18 UNL     1      66.554  -5.437 -30.610  1.00  0.00     0.015 C 
ENDBRANCH  15  16
ENDBRANCH   1  15
TORSDOF 9
ENDMDL
MODEL 5
REMARK VINA RESULT: -7.005981125      0.945      2.373
REMARK  9 active torsions:
REMARK  status: ('A' for Active; 'I' for Inactive)
REMARK    1  A    between atoms: C2_2  and  S1_5 
REMARK    2  A    between atoms: S1_5  and  C5_6 
REMARK    3  A    between atoms: C5_6  and  C6_7 
REMARK    4  A    between atoms: C6_7  and  C7_8 
REMARK    5  A    between atoms: C7_8  and  N1_9 
REMARK    6  A    between atoms: N1_9  and  C8_12 
REMARK    7  A    between atoms: C8_12  and  O1_13 
REMARK    8  A    between atoms: C8_12  and  C9_15 
REMARK    9  A    between atoms: C9_15  and  C10_16 
ROOT
HETATM    1  C8  UNL     1      64.678   0.097 -30.976  1.00  0.00     0.318 C 
ENDROOT
BRANCH   1   2
HETATM    2  N1  UNL     1      63.717   0.030 -29.906  1.00  0.00    -0.049 N 
ATOM      3  H12 UNL     1      63.466   0.969 -29.595  1.00  0.00     0.280 HD
ATOM      4  H11 UNL     1      64.157  -0.325 -29.056  1.00  0.00     0.280 HD
BRANCH   2   5
HETATM    5  C7  UNL     1      62.542  -0.724 -30.207  1.00  0.00     0.236 C 
BRANCH   5   6
HETATM    6  C6  UNL     1      61.767  -0.055 -31.349  1.00  0.00     0.038 C 
BRANCH   6   7
HETATM    7  C5  UNL     1      61.107   1.176 -30.759  1.00  0.00     0.076 C 
BRANCH   7   8
HETATM    8  S1  UNL     1      59.621   0.780 -29.839  1.00  0.00    -0.160 SA
BRANCH   8   9
HETATM    9  C2  UNL     1      59.168   2.019 -28.624  1.00  0.00    -0.003 C 
HETATM   10  C1  UNL     1      59.328   3.424 -29.139  1.00  0.00     0.026 C 
HETATM   11  C3  UNL     1      57.706   1.767 -28.225  1.00  0.00     0.026 C 
HETATM   12  C4  UNL     1      59.959   1.898 -27.336  1.00  0.00     0.026 C 
ENDBRANCH   8   9
ENDBRANCH   7   8
ENDBRANCH   6   7
ENDBRANCH   5   6
ENDBRANCH   2   5
ENDBRANCH   1   2
BRANCH   1  13
HETATM   13  O1  UNL     1      65.907   0.547 -30.416  1.00  0.00    -0.370 OA
ATOM     14  H1  UNL     1      66.274   1.187 -31.015  1.00  0.00     0.212 HD
ENDBRANCH   1  13
BRANCH   1  15
HETATM   15  C9  UNL     1      64.935  -1.282 -31.527  1.00  0.00     0.067 C 
BRANCH  15  16
HETATM   16  C10 UNL     1      65.835  -2.142 -30.741  1.00  0.00     0.002 C 
HETATM   17  C11 UNL     1      65.144  -3.413 -30.287  1.00  0.00    -0.009 C 
HETATM   18  C12 UNL     1      64.868  -4.292 -31.451  1.00  0.00     0.005 C 
HETATM   19  C15 UNL     1      66.393  -4.104 -29.687  1.00  0.00     0.010 C 
HETATM   20  C13 UNL     1      66.178  -5.029 -31.780  1.00  0.00     0.006 C 
HETATM   21  C14 UNL     1      67.158  -4.156 -31.014  1.00  0.00    -0.006 C 
HETATM   22  C16 UNL     1      67.052  -2.692 -31.429  1.00  0.00    -0.040 C 
HETATM   23  C17 UNL     1      68.300  -2.031 -30.830  1.00  0.00     0.015 C 
HETATM   24  C18 UNL     1      67.096  -2.526 -32.903  1.00  0.00     0.015 C 
ENDBRANCH  15  16
ENDBRANCH   1  15
TORSDOF 9
ENDMDL
