MODEL 1
REMARK VINA RESULT: -9.199531483      0.000      0.000
REMARK  7 active torsions:
REMARK  status: ('A' for Active; 'I' for Inactive)
REMARK    1  A    between atoms: C2_2  and  C4_4 
REMARK    2  A    between atoms: C4_4  and  C5_5 
REMARK    3  A    between atoms: C5_5  and  C7_7 
REMARK    4  A    between atoms: C10_10  and  C11_11 
REMARK    5  A    between atoms: C11_11  and  N1_12 
REMARK       I    between atoms: N1_12  and  C12_14 
REMARK       I    between atoms: C12_14  and  N2_16 
REMARK    6  A    between atoms: N2_16  and  N3_18 
REMARK    7  A    between atoms: N3_18  and  C14_20 
ROOT
HETATM    1  C7  UNL     1      60.635   0.214 -29.845  1.00  0.00    -0.011 C 
HETATM    2  C8  UNL     1      61.561  -0.173 -28.721  1.00  0.00     0.005 C 
HETATM    3  C9  UNL     1      62.996   0.209 -29.040  1.00  0.00     0.006 C 
HETATM    4  C10 UNL     1      63.363  -0.413 -30.358  1.00  0.00     0.003 C 
HETATM    5  C17 UNL     1      62.462   0.073 -31.459  1.00  0.00     0.006 C 
HETATM    6  C18 UNL     1      61.403   0.985 -30.880  1.00  0.00     0.005 C 
ENDROOT
BRANCH   4   7
HETATM    7  C11 UNL     1      64.821  -0.195 -30.702  1.00  0.00     0.129 C 
BRANCH   7   8
HETATM    8  N1  UNL     1      65.220  -1.150 -31.685  1.00  0.00    -0.341 N 
HETATM    9  C12 UNL     1      66.274  -2.094 -31.489  1.00  0.00     0.334 C 
HETATM   10  O1  UNL     1      66.893  -2.086 -30.384  1.00  0.00    -0.246 OA
HETATM   11  N2  UNL     1      66.606  -3.014 -32.522  1.00  0.00    -0.254 N 
ATOM     12  H2  UNL     1      66.062  -2.942 -33.381  1.00  0.00     0.191 HD
ATOM     13  H1  UNL     1      64.725  -1.159 -32.577  1.00  0.00     0.164 HD
BRANCH  11  14
HETATM   14  N3  UNL     1      67.556  -3.967 -32.496  1.00  0.00    -0.324 N 
HETATM   15  C13 UNL     1      67.410  -5.026 -31.562  1.00  0.00     0.171 C 
BRANCH  14  16
HETATM   16  C14 UNL     1      68.881  -3.709 -32.854  1.00  0.00     0.093 C 
HETATM   17  C15 UNL     1      69.899  -4.639 -32.234  1.00  0.00     0.033 C 
HETATM   18  C16 UNL     1      69.078  -3.805 -34.368  1.00  0.00     0.033 C 
ENDBRANCH  14  16
ENDBRANCH  11  14
ENDBRANCH   7   8
ENDBRANCH   4   7
BRANCH   1  19
HETATM   19  C5  UNL     1      59.441   0.993 -29.336  1.00  0.00    -0.014 C 
HETATM   20  C6  UNL     1      58.381   0.009 -28.957  1.00  0.00     0.010 C 
BRANCH  19  21
HETATM   21  C4  UNL     1      59.848   1.911 -28.239  1.00  0.00     0.008 C 
BRANCH  21  22
HETATM   22  C2  UNL     1      59.440   3.341 -28.463  1.00  0.00    -0.022 C 
HETATM   23  C1  UNL     1      60.215   3.920 -29.628  1.00  0.00     0.009 C 
HETATM   24  C3  UNL     1      57.969   3.438 -28.798  1.00  0.00     0.009 C 
ENDBRANCH  21  22
ENDBRANCH  19  21
ENDBRANCH   1  19
TORSDOF 7
ENDMDL
MODEL 2
REMARK VINA RESULT: -9.190670243      1.153      1.744
REMARK  7 active torsions:
REMARK  status: ('A' for Active; 'I' for Inactive)
REMARK    1  A    between atoms: C2_2  and  C4_4 
REMARK    2  A    between atoms: C4_4  and  C5_5 
REMARK    3  A    between atoms: C5_5  and  C7_7 
REMARK    4  A    between atoms: C10_10  and  C11_11 
REMARK    5  A    between atoms: C11_11  and  N1_12 
REMARK       I    between atoms: N1_12  and  C12_14 
REMARK       I    between atoms: C12_14  and  N2_16 
REMARK    6  A    between atoms: N2_16  and  N3_18 
REMARK    7  A    between atoms: N3_18  and  C14_20 
ROOT
HETATM    1  C7  UNL     1      60.832   1.058 -29.466  1.00  0.00    -0.011 C 
HETATM    2  C8  UNL     1      61.023   0.465 -30.838  1.00  0.00     0.005 C 
HETATM    3  C9  UNL     1      61.720  -0.881 -30.759  1.00  0.00     0.006 C 
HETATM    4  C10 UNL     1      63.007  -0.696 -30.003  1.00  0.00     0.003 C 
HETATM    5  C17 UNL     1      62.752  -0.184 -28.612  1.00  0.00     0.006 C 
HETATM    6  C18 UNL     1      61.272   0.066 -28.429  1.00  0.00     0.005 C 
ENDROOT
BRANCH   4   7
HETATM    7  C11 UNL     1      63.839  -1.961 -29.981  1.00  0.00     0.129 C 
BRANCH   7   8
HETATM    8  N1  UNL     1      65.146  -1.671 -30.476  1.00  0.00    -0.341 N 
HETATM    9  C12 UNL     1      65.930  -2.598 -31.229  1.00  0.00     0.334 C 
HETATM   10  O1  UNL     1      65.443  -3.741 -31.474  1.00  0.00    -0.246 OA
HETATM   11  N2  UNL     1      67.225  -2.227 -31.686  1.00  0.00    -0.254 N 
ATOM     12  H2  UNL     1      67.541  -1.291 -31.436  1.00  0.00     0.191 HD
ATOM     13  H1  UNL     1      65.543  -0.752 -30.281  1.00  0.00     0.164 HD
BRANCH  11  14
HETATM   14  N3  UNL     1      68.083  -2.970 -32.412  1.00  0.00    -0.324 N 
HETATM   15  C13 UNL     1      67.780  -3.186 -33.782  1.00  0.00     0.171 C 
BRANCH  14  16
HETATM   16  C14 UNL     1      68.863  -3.977 -31.841  1.00  0.00     0.093 C 
HETATM   17  C15 UNL     1      68.167  -5.310 -31.688  1.00  0.00     0.033 C 
HETATM   18  C16 UNL     1      70.122  -4.243 -32.669  1.00  0.00     0.033 C 
ENDBRANCH  14  16
ENDBRANCH  11  14
ENDBRANCH   7   8
ENDBRANCH   4   7
BRANCH   1  19
HETATM   19  C5  UNL     1      59.401   1.502 -29.249  1.00  0.00    -0.014 C 
HETATM   20  C6  UNL     1      58.542   0.278 -29.214  1.00  0.00     0.010 C 
BRANCH  19  21
HETATM   21  C4  UNL     1      59.301   2.358 -28.036  1.00  0.00     0.008 C 
BRANCH  21  22
HETATM   22  C2  UNL     1      58.330   3.497 -28.177  1.00  0.00    -0.022 C 
HETATM   23  C1  UNL     1      58.688   4.331 -29.389  1.00  0.00     0.009 C 
HETATM   24  C3  UNL     1      56.921   2.985 -28.373  1.00  0.00     0.009 C 
ENDBRANCH  21  22
ENDBRANCH  19  21
ENDBRANCH   1  19
TORSDOF 7
ENDMDL
MODEL 3
REMARK VINA RESULT: -8.829305606      1.026      1.396
REMARK  7 active torsions:
REMARK  status: ('A' for Active; 'I' for Inactive)
REMARK    1  A    between atoms: C2_2  and  C4_4 
REMARK    2  A    between atoms: C4_4  and  C5_5 
REMARK    3  A    between atoms: C5_5  and  C7_7 
REMARK    4  A    between atoms: C10_10  and  C11_11 
REMARK    5  A    between atoms: C11_11  and  N1_12 
REMARK       I    between atoms: N1_12  and  C12_14 
REMARK       I    between atoms: C12_14  and  N2_16 
REMARK    6  A    between atoms: N2_16  and  N3_18 
REMARK    7  A    between atoms: N3_18  and  C14_20 
ROOT
HETATM    1  C7  UNL     1      60.131   0.315 -29.653  1.00  0.00    -0.011 C 
HETATM    2  C8  UNL     1      61.092  -0.046 -28.550  1.00  0.00     0.005 C 
HETATM    3  C9  UNL     1      62.526   0.237 -28.961  1.00  0.00     0.006 C 
HETATM    4  C10 UNL     1      62.795  -0.491 -30.249  1.00  0.00     0.003 C 
HETATM    5  C17 UNL     1      61.864  -0.031 -31.338  1.00  0.00     0.006 C 
HETATM    6  C18 UNL     1      60.883   0.972 -30.774  1.00  0.00     0.005 C 
ENDROOT
BRANCH   4   7
HETATM    7  C11 UNL     1      64.242  -0.375 -30.676  1.00  0.00     0.129 C 
BRANCH   7   8
HETATM    8  N1  UNL     1      64.940  -1.562 -30.299  1.00  0.00    -0.341 N 
HETATM    9  C12 UNL     1      65.956  -2.170 -31.097  1.00  0.00     0.334 C 
HETATM   10  O1  UNL     1      66.258  -1.630 -32.203  1.00  0.00    -0.246 OA
HETATM   11  N2  UNL     1      66.604  -3.352 -30.645  1.00  0.00    -0.254 N 
ATOM     12  H2  UNL     1      66.291  -3.723 -29.747  1.00  0.00     0.191 HD
ATOM     13  H1  UNL     1      64.699  -2.000 -29.409  1.00  0.00     0.164 HD
BRANCH  11  14
HETATM   14  N3  UNL     1      67.582  -4.040 -31.264  1.00  0.00    -0.324 N 
HETATM   15  C13 UNL     1      68.858  -3.429 -31.373  1.00  0.00     0.171 C 
BRANCH  14  16
HETATM   16  C14 UNL     1      67.315  -4.973 -32.269  1.00  0.00     0.093 C 
HETATM   17  C15 UNL     1      65.865  -5.060 -32.686  1.00  0.00     0.033 C 
HETATM   18  C16 UNL     1      68.109  -4.663 -33.540  1.00  0.00     0.033 C 
ENDBRANCH  14  16
ENDBRANCH  11  14
ENDBRANCH   7   8
ENDBRANCH   4   7
BRANCH   1  19
HETATM   19  C5  UNL     1      59.005   1.188 -29.143  1.00  0.00    -0.014 C 
HETATM   20  C6  UNL     1      57.896   0.291 -28.696  1.00  0.00     0.010 C 
BRANCH  19  21
HETATM   21  C4  UNL     1      59.502   2.120 -28.096  1.00  0.00     0.008 C 
BRANCH  21  22
HETATM   22  C2  UNL     1      59.335   3.572 -28.447  1.00  0.00    -0.022 C 
HETATM   23  C1  UNL     1      60.258   3.934 -29.591  1.00  0.00     0.009 C 
HETATM   24  C3  UNL     1      57.919   3.861 -28.891  1.00  0.00     0.009 C 
ENDBRANCH  21  22
ENDBRANCH  19  21
ENDBRANCH   1  19
TORSDOF 7
ENDMDL
MODEL 4
REMARK VINA RESULT: -8.818302346      2.845      9.509
REMARK  7 active torsions:
REMARK  status: ('A' for Active; 'I' for Inactive)
REMARK    1  A    between atoms: C2_2  and  C4_4 
REMARK    2  A    between atoms: C4_4  and  C5_5 
REMARK    3  A    between atoms: C5_5  and  C7_7 
REMARK    4  A    between atoms: C10_10  and  C11_11 
REMARK    5  A    between atoms: C11_11  and  N1_12 
REMARK       I    between atoms: N1_12  and  C12_14 
REMARK       I    between atoms: C12_14  and  N2_16 
REMARK    6  A    between atoms: N2_16  and  N3_18 
REMARK    7  A    between atoms: N3_18  and  C14_20 
ROOT
HETATM    1  C7  UNL     1      66.483  -2.945 -30.435  1.00  0.00    -0.011 C 
HETATM    2  C8  UNL     1      65.140  -3.345 -29.882  1.00  0.00     0.005 C 
HETATM    3  C9  UNL     1      64.028  -2.508 -30.490  1.00  0.00     0.006 C 
HETATM    4  C10 UNL     1      64.359  -1.059 -30.266  1.00  0.00     0.003 C 
HETATM    5  C17 UNL     1      65.667  -0.694 -30.911  1.00  0.00     0.006 C 
HETATM    6  C18 UNL     1      66.291  -1.928 -31.523  1.00  0.00     0.005 C 
ENDROOT
BRANCH   4   7
HETATM    7  C11 UNL     1      63.243  -0.145 -30.725  1.00  0.00     0.129 C 
BRANCH   7   8
HETATM    8  N1  UNL     1      62.518   0.321 -29.587  1.00  0.00    -0.341 N 
HETATM    9  C12 UNL     1      61.143   0.704 -29.627  1.00  0.00     0.334 C 
HETATM   10  O1  UNL     1      60.528   0.630 -30.732  1.00  0.00    -0.246 OA
HETATM   11  N2  UNL     1      60.496   1.156 -28.444  1.00  0.00    -0.254 N 
ATOM     12  H2  UNL     1      61.069   1.192 -27.602  1.00  0.00     0.191 HD
ATOM     13  H1  UNL     1      63.010   0.383 -28.695  1.00  0.00     0.164 HD
BRANCH  11  14
HETATM   14  N3  UNL     1      59.213   1.541 -28.307  1.00  0.00    -0.324 N 
HETATM   15  C13 UNL     1      58.204   0.691 -28.831  1.00  0.00     0.171 C 
BRANCH  14  16
HETATM   16  C14 UNL     1      58.841   2.885 -28.244  1.00  0.00     0.093 C 
HETATM   17  C15 UNL     1      59.540   3.784 -29.239  1.00  0.00     0.033 C 
HETATM   18  C16 UNL     1      57.340   3.060 -28.490  1.00  0.00     0.033 C 
ENDBRANCH  14  16
ENDBRANCH  11  14
ENDBRANCH   7   8
ENDBRANCH   4   7
BRANCH   1  19
HETATM   19  C5  UNL     1      67.263  -4.147 -30.921  1.00  0.00    -0.014 C 
HETATM   20  C6  UNL     1      66.387  -4.913 -31.859  1.00  0.00     0.010 C 
BRANCH  19  21
HETATM   21  C4  UNL     1      68.564  -3.723 -31.503  1.00  0.00     0.008 C 
BRANCH  21  22
HETATM   22  C2  UNL     1      69.058  -4.620 -32.603  1.00  0.00    -0.022 C 
HETATM   23  C1  UNL     1      69.042  -3.876 -33.921  1.00  0.00     0.009 C 
HETATM   24  C3  UNL     1      70.481  -5.061 -32.343  1.00  0.00     0.009 C 
ENDBRANCH  21  22
ENDBRANCH  19  21
ENDBRANCH   1  19
TORSDOF 7
ENDMDL
MODEL 5
REMARK VINA RESULT: -8.805144554      1.664      2.785
REMARK  7 active torsions:
REMARK  status: ('A' for Active; 'I' for Inactive)
REMARK    1  A    between atoms: C2_2  and  C4_4 
REMARK    2  A    between atoms: C4_4  and  C5_5 
REMARK    3  A    between atoms: C5_5  and  C7_7 
REMARK    4  A    between atoms: C10_10  and  C11_11 
REMARK    5  A    between atoms: C11_11  and  N1_12 
REMARK       I    between atoms: N1_12  and  C12_14 
REMARK       I    between atoms: C12_14  and  N2_16 
REMARK    6  A    between atoms: N2_16  and  N3_18 
REMARK    7  A    between atoms: N3_18  and  C14_20 
ROOT
HETATM    1  C7  UNL     1      60.748   2.291 -28.753  1.00  0.00    -0.011 C 
HETATM    2  C8  UNL     1      60.666   2.038 -30.236  1.00  0.00     0.005 C 
HETATM    3  C9  UNL     1      60.682   0.550 -30.537  1.00  0.00     0.006 C 
HETATM    4  C10 UNL     1      61.907  -0.043 -29.897  1.00  0.00     0.003 C 
HETATM    5  C17 UNL     1      61.896   0.164 -28.407  1.00  0.00     0.006 C 
HETATM    6  C18 UNL     1      60.685   0.983 -28.019  1.00  0.00     0.005 C 
ENDROOT
BRANCH   4   7
HETATM    7  C11 UNL     1      62.081  -1.504 -30.249  1.00  0.00     0.129 C 
BRANCH   7   8
HETATM    8  N1  UNL     1      63.348  -1.688 -30.880  1.00  0.00    -0.341 N 
HETATM    9  C12 UNL     1      64.377  -2.531 -30.359  1.00  0.00     0.334 C 
HETATM   10  O1  UNL     1      64.157  -3.151 -29.277  1.00  0.00    -0.246 OA
HETATM   11  N2  UNL     1      65.611  -2.659 -31.053  1.00  0.00    -0.254 N 
ATOM     12  H2  UNL     1      65.705  -2.116 -31.911  1.00  0.00     0.191 HD
ATOM     13  H1  UNL     1      63.529  -1.189 -31.752  1.00  0.00     0.164 HD
BRANCH  11  14
HETATM   14  N3  UNL     1      66.672  -3.413 -30.708  1.00  0.00    -0.324 N 
HETATM   15  C13 UNL     1      67.800  -2.758 -30.149  1.00  0.00     0.171 C 
BRANCH  14  16
HETATM   16  C14 UNL     1      66.980  -4.608 -31.362  1.00  0.00     0.093 C 
HETATM   17  C15 UNL     1      66.164  -4.881 -32.605  1.00  0.00     0.033 C 
HETATM   18  C16 UNL     1      68.447  -4.642 -31.796  1.00  0.00     0.033 C 
ENDBRANCH  14  16
ENDBRANCH  11  14
ENDBRANCH   7   8
ENDBRANCH   4   7
BRANCH   1  19
HETATM   19  C5  UNL     1      59.668   3.246 -28.292  1.00  0.00    -0.014 C 
HETATM   20  C6  UNL     1      59.253   4.070 -29.469  1.00  0.00     0.010 C 
BRANCH  19  21
HETATM   21  C4  UNL     1      58.558   2.501 -27.641  1.00  0.00     0.008 C 
BRANCH  21  22
HETATM   22  C2  UNL     1      57.453   2.114 -28.584  1.00  0.00    -0.022 C 
HETATM   23  C1  UNL     1      57.303   0.607 -28.610  1.00  0.00     0.009 C 
HETATM   24  C3  UNL     1      56.132   2.698 -28.138  1.00  0.00     0.009 C 
ENDBRANCH  21  22
ENDBRANCH  19  21
ENDBRANCH   1  19
TORSDOF 7
ENDMDL
