MODEL 1
REMARK VINA RESULT: -7.251883828      0.000      0.000
REMARK  12 active torsions:
REMARK  status: ('A' for Active; 'I' for Inactive)
REMARK       I    between atoms: C2_2  and  N1_4 
REMARK    1  A    between atoms: N1_4  and  C3_5 
REMARK    2  A    between atoms: C4_6  and  O2_7 
REMARK    3  A    between atoms: O2_7  and  C5_8 
REMARK    4  A    between atoms: C7_10  and  N2_11 
REMARK    5  A    between atoms: C9_16  and  C10_17 
REMARK    6  A    between atoms: C10_17  and  N3_18 
REMARK    7  A    between atoms: C11_23  and  N4_24 
REMARK    8  A    between atoms: C13_29  and  N5_30 
REMARK       I    between atoms: N5_30  and  C14_32 
REMARK    9  A    between atoms: C14_32  and  O5_34 
REMARK   10  A    between atoms: O5_34  and  C15_35 
REMARK   11  A    between atoms: C18_38  and  O6_39 
REMARK   12  A    between atoms: O6_39  and  C19_40 
ROOT
HETATM    1  C3  UNL     1      22.424  23.024  26.373  1.00  0.00     0.229 C 
HETATM    2  C4  UNL     1      22.046  23.334  27.782  1.00  0.00     0.193 C 
HETATM    3  C11 UNL     1      22.535  24.710  28.214  1.00  0.00     0.217 C 
HETATM    4  C12 UNL     1      23.399  25.409  27.230  1.00  0.00     0.063 C 
HETATM    5  C13 UNL     1      22.904  25.415  25.821  1.00  0.00     0.121 C 
HETATM    6  C18 UNL     1      22.211  24.162  25.393  1.00  0.00     0.193 C 
ENDROOT
BRANCH   2   7
HETATM    7  O2  UNL     1      20.720  23.303  28.088  1.00  0.00    -0.351 OA
BRANCH   7   8
HETATM    8  C5  UNL     1      20.365  22.262  28.953  1.00  0.00     0.262 C 
HETATM    9  C6  UNL     1      18.991  21.803  28.738  1.00  0.00     0.093 C 
HETATM   10  C7  UNL     1      18.041  22.177  29.856  1.00  0.00     0.190 C 
HETATM   11  C8  UNL     1      18.635  21.682  31.158  1.00  0.00     0.066 C 
HETATM   12  C9  UNL     1      20.098  22.049  31.279  1.00  0.00     0.152 C 
HETATM   13  O3  UNL     1      20.588  22.768  30.247  1.00  0.00    -0.354 OA
BRANCH  10  14
HETATM   14  N2  UNL     1      17.807  23.588  29.951  1.00  0.00    -0.075 N 
ATOM     15  H23 UNL     1      18.678  24.108  29.844  1.00  0.00     0.274 HD
ATOM     16  H22 UNL     1      17.306  23.929  29.131  1.00  0.00     0.274 HD
ATOM     17  H21 UNL     1      17.326  23.859  30.808  1.00  0.00     0.274 HD
ENDBRANCH  10  14
BRANCH  12  18
HETATM   18  C10 UNL     1      20.862  20.847  31.714  1.00  0.00     0.261 C 
BRANCH  18  19
HETATM   19  N3  UNL     1      22.272  20.937  31.702  1.00  0.00    -0.077 N 
ATOM     20  H33 UNL     1      22.653  20.209  31.098  1.00  0.00     0.274 HD
ATOM     21  H32 UNL     1      22.553  21.775  31.191  1.00  0.00     0.274 HD
ATOM     22  H31 UNL     1      22.750  20.915  32.603  1.00  0.00     0.274 HD
ENDBRANCH  18  19
ENDBRANCH  12  18
ENDBRANCH   7   8
ENDBRANCH   2   7
BRANCH   1  23
HETATM   23  N1  UNL     1      21.958  21.855  25.835  1.00  0.00    -0.405 NA
HETATM   24  C2  UNL     1      21.497  20.693  25.302  1.00  0.00     0.282 C 
HETATM   25  C1  UNL     1      21.009  19.592  26.250  1.00  0.00     0.134 C 
HETATM   26  O1  UNL     1      21.392  20.335  24.085  1.00  0.00    -0.258 OA
ENDBRANCH   1  23
BRANCH   3  27
HETATM   27  N4  UNL     1      21.447  25.601  28.572  1.00  0.00    -0.072 N 
ATOM     28  H43 UNL     1      20.708  25.577  27.870  1.00  0.00     0.274 HD
ATOM     29  H42 UNL     1      20.927  25.242  29.371  1.00  0.00     0.274 HD
ATOM     30  H41 UNL     1      21.762  26.557  28.738  1.00  0.00     0.274 HD
ENDBRANCH   3  27
BRANCH   6  31
HETATM   31  O6  UNL     1      22.844  23.736  24.182  1.00  0.00    -0.311 OA
BRANCH  31  32
HETATM   32  C19 UNL     1      22.390  24.015  22.924  1.00  0.00     0.255 C 
HETATM   33  C20 UNL     1      23.220  24.910  22.072  1.00  0.00     0.126 C 
HETATM   34  O7  UNL     1      21.315  23.511  22.549  1.00  0.00    -0.266 OA
ENDBRANCH  31  32
ENDBRANCH   6  31
BRANCH   5  35
HETATM   35  N5  UNL     1      22.001  26.512  25.512  1.00  0.00    -0.330 N 
HETATM   36  C14 UNL     1      22.447  27.833  25.316  1.00  0.00     0.361 C 
HETATM   37  O4  UNL     1      23.671  28.171  25.402  1.00  0.00    -0.238 OA
ATOM     38  H5  UNL     1      21.002  26.317  25.435  1.00  0.00     0.165 HD
BRANCH  36  39
HETATM   39  O5  UNL     1      21.567  28.862  25.009  1.00  0.00    -0.299 OA
BRANCH  39  40
HETATM   40  C15 UNL     1      21.953  30.229  25.096  1.00  0.00     0.125 C 
HETATM   41  C16 UNL     1      22.049  30.849  23.721  1.00  0.00     0.040 C 
HETATM   42  C17 UNL     1      20.910  30.959  25.891  1.00  0.00     0.040 C 
ENDBRANCH  39  40
ENDBRANCH  36  39
ENDBRANCH   5  35
TORSDOF 12
ENDMDL
MODEL 2
REMARK VINA RESULT: -6.831789886      1.087      1.132
REMARK  12 active torsions:
REMARK  status: ('A' for Active; 'I' for Inactive)
REMARK       I    between atoms: C2_2  and  N1_4 
REMARK    1  A    between atoms: N1_4  and  C3_5 
REMARK    2  A    between atoms: C4_6  and  O2_7 
REMARK    3  A    between atoms: O2_7  and  C5_8 
REMARK    4  A    between atoms: C7_10  and  N2_11 
REMARK    5  A    between atoms: C9_16  and  C10_17 
REMARK    6  A    between atoms: C10_17  and  N3_18 
REMARK    7  A    between atoms: C11_23  and  N4_24 
REMARK    8  A    between atoms: C13_29  and  N5_30 
REMARK       I    between atoms: N5_30  and  C14_32 
REMARK    9  A    between atoms: C14_32  and  O5_34 
REMARK   10  A    between atoms: O5_34  and  C15_35 
REMARK   11  A    between atoms: C18_38  and  O6_39 
REMARK   12  A    between atoms: O6_39  and  C19_40 
ROOT
HETATM    1  C3  UNL     1      22.427  23.029  26.322  1.00  0.00     0.229 C 
HETATM    2  C4  UNL     1      22.036  23.317  27.732  1.00  0.00     0.193 C 
HETATM    3  C11 UNL     1      22.511  24.692  28.185  1.00  0.00     0.217 C 
HETATM    4  C12 UNL     1      23.378  25.409  27.217  1.00  0.00     0.063 C 
HETATM    5  C13 UNL     1      22.894  25.430  25.805  1.00  0.00     0.121 C 
HETATM    6  C18 UNL     1      22.214  24.178  25.355  1.00  0.00     0.193 C 
ENDROOT
BRANCH   2   7
HETATM    7  O2  UNL     1      20.707  23.272  28.026  1.00  0.00    -0.351 OA
BRANCH   7   8
HETATM    8  C5  UNL     1      20.423  22.675  29.258  1.00  0.00     0.262 C 
HETATM    9  C6  UNL     1      20.275  21.221  29.151  1.00  0.00     0.093 C 
HETATM   10  C7  UNL     1      18.851  20.738  29.331  1.00  0.00     0.190 C 
HETATM   11  C8  UNL     1      18.333  21.293  30.641  1.00  0.00     0.066 C 
HETATM   12  C9  UNL     1      18.634  22.768  30.781  1.00  0.00     0.152 C 
HETATM   13  O3  UNL     1      19.262  23.321  29.721  1.00  0.00    -0.354 OA
BRANCH  10  14
HETATM   14  N2  UNL     1      17.978  21.145  28.269  1.00  0.00    -0.075 N 
ATOM     15  H23 UNL     1      17.121  20.592  28.272  1.00  0.00     0.274 HD
ATOM     16  H22 UNL     1      17.583  22.067  28.457  1.00  0.00     0.274 HD
ATOM     17  H21 UNL     1      18.423  21.121  27.352  1.00  0.00     0.274 HD
ENDBRANCH  10  14
BRANCH  12  18
HETATM   18  C10 UNL     1      19.205  23.018  32.134  1.00  0.00     0.261 C 
BRANCH  18  19
HETATM   19  N3  UNL     1      19.077  21.988  33.092  1.00  0.00    -0.077 N 
ATOM     20  H33 UNL     1      19.209  21.084  32.637  1.00  0.00     0.274 HD
ATOM     21  H32 UNL     1      19.882  22.005  33.718  1.00  0.00     0.274 HD
ATOM     22  H31 UNL     1      18.219  21.967  33.644  1.00  0.00     0.274 HD
ENDBRANCH  18  19
ENDBRANCH  12  18
ENDBRANCH   7   8
ENDBRANCH   2   7
BRANCH   1  23
HETATM   23  N1  UNL     1      21.976  21.863  25.766  1.00  0.00    -0.405 NA
HETATM   24  C2  UNL     1      21.527  20.704  25.214  1.00  0.00     0.282 C 
HETATM   25  C1  UNL     1      21.092  19.567  26.144  1.00  0.00     0.134 C 
HETATM   26  O1  UNL     1      21.398  20.376  23.991  1.00  0.00    -0.258 OA
ENDBRANCH   1  23
BRANCH   3  27
HETATM   27  N4  UNL     1      21.413  25.570  28.545  1.00  0.00    -0.072 N 
ATOM     28  H43 UNL     1      20.647  25.046  28.967  1.00  0.00     0.274 HD
ATOM     29  H42 UNL     1      21.662  26.163  29.336  1.00  0.00     0.274 HD
ATOM     30  H41 UNL     1      21.084  26.129  27.757  1.00  0.00     0.274 HD
ENDBRANCH   3  27
BRANCH   6  31
HETATM   31  O6  UNL     1      22.860  23.771  24.144  1.00  0.00    -0.311 OA
BRANCH  31  32
HETATM   32  C19 UNL     1      22.414  24.061  22.886  1.00  0.00     0.255 C 
HETATM   33  C20 UNL     1      23.247  24.967  22.048  1.00  0.00     0.126 C 
HETATM   34  O7  UNL     1      21.342  23.559  22.499  1.00  0.00    -0.266 OA
ENDBRANCH  31  32
ENDBRANCH   6  31
BRANCH   5  35
HETATM   35  N5  UNL     1      21.985  26.524  25.502  1.00  0.00    -0.330 N 
HETATM   36  C14 UNL     1      22.418  27.856  25.361  1.00  0.00     0.361 C 
HETATM   37  O4  UNL     1      23.633  28.208  25.495  1.00  0.00    -0.238 OA
ATOM     38  H5  UNL     1      20.992  26.318  25.388  1.00  0.00     0.165 HD
BRANCH  36  39
HETATM   39  O5  UNL     1      21.533  28.883  25.058  1.00  0.00    -0.299 OA
BRANCH  39  40
HETATM   40  C15 UNL     1      21.938  30.247  25.061  1.00  0.00     0.125 C 
HETATM   41  C16 UNL     1      22.034  30.782  23.651  1.00  0.00     0.040 C 
HETATM   42  C17 UNL     1      20.911  31.037  25.818  1.00  0.00     0.040 C 
ENDBRANCH  39  40
ENDBRANCH  36  39
ENDBRANCH   5  35
TORSDOF 12
ENDMDL
MODEL 3
REMARK VINA RESULT: -6.753128300      3.879      9.097
REMARK  12 active torsions:
REMARK  status: ('A' for Active; 'I' for Inactive)
REMARK       I    between atoms: C2_2  and  N1_4 
REMARK    1  A    between atoms: N1_4  and  C3_5 
REMARK    2  A    between atoms: C4_6  and  O2_7 
REMARK    3  A    between atoms: O2_7  and  C5_8 
REMARK    4  A    between atoms: C7_10  and  N2_11 
REMARK    5  A    between atoms: C9_16  and  C10_17 
REMARK    6  A    between atoms: C10_17  and  N3_18 
REMARK    7  A    between atoms: C11_23  and  N4_24 
REMARK    8  A    between atoms: C13_29  and  N5_30 
REMARK       I    between atoms: N5_30  and  C14_32 
REMARK    9  A    between atoms: C14_32  and  O5_34 
REMARK   10  A    between atoms: O5_34  and  C15_35 
REMARK   11  A    between atoms: C18_38  and  O6_39 
REMARK   12  A    between atoms: O6_39  and  C19_40 
ROOT
HETATM    1  C3  UNL     1      22.265  28.946  25.925  1.00  0.00     0.229 C 
HETATM    2  C4  UNL     1      22.447  30.000  24.886  1.00  0.00     0.193 C 
HETATM    3  C11 UNL     1      23.395  29.552  23.781  1.00  0.00     0.217 C 
HETATM    4  C12 UNL     1      24.058  28.244  24.011  1.00  0.00     0.063 C 
HETATM    5  C13 UNL     1      23.165  27.134  24.456  1.00  0.00     0.121 C 
HETATM    6  C18 UNL     1      22.066  27.544  25.381  1.00  0.00     0.193 C 
ENDROOT
BRANCH   2   7
HETATM    7  O2  UNL     1      21.327  30.443  24.253  1.00  0.00    -0.351 OA
BRANCH   7   8
HETATM    8  C5  UNL     1      21.295  31.829  24.067  1.00  0.00     0.262 C 
HETATM    9  C6  UNL     1      20.418  32.500  25.029  1.00  0.00     0.093 C 
HETATM   10  C7  UNL     1      19.147  33.050  24.414  1.00  0.00     0.190 C 
HETATM   11  C8  UNL     1      19.538  33.934  23.249  1.00  0.00     0.066 C 
HETATM   12  C9  UNL     1      20.559  33.264  22.356  1.00  0.00     0.152 C 
HETATM   13  O3  UNL     1      20.901  32.012  22.729  1.00  0.00    -0.354 OA
BRANCH  10  14
HETATM   14  N2  UNL     1      18.255  32.027  23.950  1.00  0.00    -0.075 N 
ATOM     15  H23 UNL     1      18.552  31.670  23.043  1.00  0.00     0.274 HD
ATOM     16  H22 UNL     1      18.357  31.177  24.506  1.00  0.00     0.274 HD
ATOM     17  H21 UNL     1      17.281  32.327  23.922  1.00  0.00     0.274 HD
ENDBRANCH  10  14
BRANCH  12  18
HETATM   18  C10 UNL     1      21.658  34.228  22.071  1.00  0.00     0.261 C 
BRANCH  18  19
HETATM   19  N3  UNL     1      22.381  34.049  20.871  1.00  0.00    -0.077 N 
ATOM     20  H33 UNL     1      21.767  33.650  20.161  1.00  0.00     0.274 HD
ATOM     21  H32 UNL     1      22.583  34.960  20.459  1.00  0.00     0.274 HD
ATOM     22  H31 UNL     1      23.241  33.502  20.921  1.00  0.00     0.274 HD
ENDBRANCH  18  19
ENDBRANCH  12  18
ENDBRANCH   7   8
ENDBRANCH   2   7
BRANCH   1  23
HETATM   23  N1  UNL     1      21.361  29.190  26.923  1.00  0.00    -0.405 NA
HETATM   24  C2  UNL     1      20.464  29.433  27.914  1.00  0.00     0.282 C 
HETATM   25  C1  UNL     1      20.090  30.886  28.228  1.00  0.00     0.134 C 
HETATM   26  O1  UNL     1      19.842  28.622  28.674  1.00  0.00    -0.258 OA
ENDBRANCH   1  23
BRANCH   3  27
HETATM   27  N4  UNL     1      22.753  29.510  22.480  1.00  0.00    -0.072 N 
ATOM     28  H43 UNL     1      23.426  29.290  21.746  1.00  0.00     0.274 HD
ATOM     29  H42 UNL     1      22.147  28.695  22.397  1.00  0.00     0.274 HD
ATOM     30  H41 UNL     1      22.245  30.368  22.266  1.00  0.00     0.274 HD
ENDBRANCH   3  27
BRANCH   6  31
HETATM   31  O6  UNL     1      22.147  26.685  26.523  1.00  0.00    -0.311 OA
BRANCH  31  32
HETATM   32  C19 UNL     1      21.168  25.820  26.922  1.00  0.00     0.255 C 
HETATM   33  C20 UNL     1      21.290  25.212  28.274  1.00  0.00     0.126 C 
HETATM   34  O7  UNL     1      20.225  25.582  26.144  1.00  0.00    -0.266 OA
ENDBRANCH  31  32
ENDBRANCH   6  31
BRANCH   5  35
HETATM   35  N5  UNL     1      22.536  26.402  23.367  1.00  0.00    -0.330 N 
HETATM   36  C14 UNL     1      22.408  25.000  23.367  1.00  0.00     0.361 C 
HETATM   37  O4  UNL     1      22.839  24.265  24.312  1.00  0.00    -0.238 OA
ATOM     38  H5  UNL     1      22.174  26.927  22.571  1.00  0.00     0.165 HD
BRANCH  36  39
HETATM   39  O5  UNL     1      21.792  24.324  22.322  1.00  0.00    -0.299 OA
BRANCH  39  40
HETATM   40  C15 UNL     1      22.533  23.533  21.401  1.00  0.00     0.125 C 
HETATM   41  C16 UNL     1      21.612  22.668  20.572  1.00  0.00     0.040 C 
HETATM   42  C17 UNL     1      23.287  24.460  20.492  1.00  0.00     0.040 C 
ENDBRANCH  39  40
ENDBRANCH  36  39
ENDBRANCH   5  35
TORSDOF 12
ENDMDL
MODEL 4
REMARK VINA RESULT: -6.750823776      3.746      8.498
REMARK  12 active torsions:
REMARK  status: ('A' for Active; 'I' for Inactive)
REMARK       I    between atoms: C2_2  and  N1_4 
REMARK    1  A    between atoms: N1_4  and  C3_5 
REMARK    2  A    between atoms: C4_6  and  O2_7 
REMARK    3  A    between atoms: O2_7  and  C5_8 
REMARK    4  A    between atoms: C7_10  and  N2_11 
REMARK    5  A    between atoms: C9_16  and  C10_17 
REMARK    6  A    between atoms: C10_17  and  N3_18 
REMARK    7  A    between atoms: C11_23  and  N4_24 
REMARK    8  A    between atoms: C13_29  and  N5_30 
REMARK       I    between atoms: N5_30  and  C14_32 
REMARK    9  A    between atoms: C14_32  and  O5_34 
REMARK   10  A    between atoms: O5_34  and  C15_35 
REMARK   11  A    between atoms: C18_38  and  O6_39 
REMARK   12  A    between atoms: O6_39  and  C19_40 
ROOT
HETATM    1  C3  UNL     1      22.593  27.911  25.602  1.00  0.00     0.229 C 
HETATM    2  C4  UNL     1      22.718  29.165  24.803  1.00  0.00     0.193 C 
HETATM    3  C11 UNL     1      23.660  28.994  23.618  1.00  0.00     0.217 C 
HETATM    4  C12 UNL     1      24.373  27.693  23.563  1.00  0.00     0.063 C 
HETATM    5  C13 UNL     1      23.528  26.481  23.777  1.00  0.00     0.121 C 
HETATM    6  C18 UNL     1      22.433  26.647  24.780  1.00  0.00     0.193 C 
ENDROOT
BRANCH   2   7
HETATM    7  O2  UNL     1      21.571  29.687  24.289  1.00  0.00    -0.351 OA
BRANCH   7   8
HETATM    8  C5  UNL     1      21.515  31.083  24.339  1.00  0.00     0.262 C 
HETATM    9  C6  UNL     1      20.888  31.571  25.570  1.00  0.00     0.093 C 
HETATM   10  C7  UNL     1      19.518  32.180  25.356  1.00  0.00     0.190 C 
HETATM   11  C8  UNL     1      19.644  33.247  24.289  1.00  0.00     0.066 C 
HETATM   12  C9  UNL     1      20.426  32.753  23.093  1.00  0.00     0.152 C 
HETATM   13  O3  UNL     1      20.829  31.467  23.173  1.00  0.00    -0.354 OA
BRANCH  10  14
HETATM   14  N2  UNL     1      18.531  31.222  24.949  1.00  0.00    -0.075 N 
ATOM     15  H23 UNL     1      18.962  30.451  24.440  1.00  0.00     0.274 HD
ATOM     16  H22 UNL     1      18.169  30.710  25.754  1.00  0.00     0.274 HD
ATOM     17  H21 UNL     1      17.770  31.634  24.409  1.00  0.00     0.274 HD
ENDBRANCH  10  14
BRANCH  12  18
HETATM   18  C10 UNL     1      21.442  33.777  22.724  1.00  0.00     0.261 C 
BRANCH  18  19
HETATM   19  N3  UNL     1      22.082  33.634  21.473  1.00  0.00    -0.077 N 
ATOM     20  H33 UNL     1      22.986  33.180  21.604  1.00  0.00     0.274 HD
ATOM     21  H32 UNL     1      21.593  32.926  20.923  1.00  0.00     0.274 HD
ATOM     22  H31 UNL     1      22.203  34.476  20.910  1.00  0.00     0.274 HD
ENDBRANCH  18  19
ENDBRANCH  12  18
ENDBRANCH   7   8
ENDBRANCH   2   7
BRANCH   1  23
HETATM   23  N1  UNL     1      21.701  27.908  26.639  1.00  0.00    -0.405 NA
HETATM   24  C2  UNL     1      20.813  27.904  27.668  1.00  0.00     0.282 C 
HETATM   25  C1  UNL     1      20.161  26.577  28.072  1.00  0.00     0.134 C 
HETATM   26  O1  UNL     1      20.403  28.862  28.400  1.00  0.00    -0.258 OA
ENDBRANCH   1  23
BRANCH   3  27
HETATM   27  N4  UNL     1      22.995  29.198  22.344  1.00  0.00    -0.072 N 
ATOM     28  H43 UNL     1      22.170  28.605  22.262  1.00  0.00     0.274 HD
ATOM     29  H42 UNL     1      22.544  30.112  22.309  1.00  0.00     0.274 HD
ATOM     30  H41 UNL     1      23.621  29.067  21.550  1.00  0.00     0.274 HD
ENDBRANCH   3  27
BRANCH   6  31
HETATM   31  O6  UNL     1      22.567  25.573  25.716  1.00  0.00    -0.311 OA
BRANCH  31  32
HETATM   32  C19 UNL     1      22.117  24.298  25.513  1.00  0.00     0.255 C 
HETATM   33  C20 UNL     1      22.631  23.232  26.415  1.00  0.00     0.126 C 
HETATM   34  O7  UNL     1      21.306  24.089  24.592  1.00  0.00    -0.266 OA
ENDBRANCH  31  32
ENDBRANCH   6  31
BRANCH   5  35
HETATM   35  N5  UNL     1      22.905  25.968  22.567  1.00  0.00    -0.330 N 
HETATM   36  C14 UNL     1      23.627  25.284  21.570  1.00  0.00     0.361 C 
HETATM   37  O4  UNL     1      24.879  25.071  21.644  1.00  0.00    -0.238 OA
ATOM     38  H5  UNL     1      21.903  26.109  22.435  1.00  0.00     0.165 HD
BRANCH  36  39
HETATM   39  O5  UNL     1      23.007  24.792  20.429  1.00  0.00    -0.299 OA
BRANCH  39  40
HETATM   40  C15 UNL     1      23.014  23.404  20.112  1.00  0.00     0.125 C 
HETATM   41  C16 UNL     1      21.782  22.722  20.659  1.00  0.00     0.040 C 
HETATM   42  C17 UNL     1      23.028  23.268  18.617  1.00  0.00     0.040 C 
ENDBRANCH  39  40
ENDBRANCH  36  39
ENDBRANCH   5  35
TORSDOF 12
ENDMDL
MODEL 5
REMARK VINA RESULT: -6.690741454      3.041      8.036
REMARK  12 active torsions:
REMARK  status: ('A' for Active; 'I' for Inactive)
REMARK       I    between atoms: C2_2  and  N1_4 
REMARK    1  A    between atoms: N1_4  and  C3_5 
REMARK    2  A    between atoms: C4_6  and  O2_7 
REMARK    3  A    between atoms: O2_7  and  C5_8 
REMARK    4  A    between atoms: C7_10  and  N2_11 
REMARK    5  A    between atoms: C9_16  and  C10_17 
REMARK    6  A    between atoms: C10_17  and  N3_18 
REMARK    7  A    between atoms: C11_23  and  N4_24 
REMARK    8  A    between atoms: C13_29  and  N5_30 
REMARK       I    between atoms: N5_30  and  C14_32 
REMARK    9  A    between atoms: C14_32  and  O5_34 
REMARK   10  A    between atoms: O5_34  and  C15_35 
REMARK   11  A    between atoms: C18_38  and  O6_39 
REMARK   12  A    between atoms: O6_39  and  C19_40 
ROOT
HETATM    1  C3  UNL     1      21.967  27.963  27.548  1.00  0.00     0.229 C 
HETATM    2  C4  UNL     1      22.608  28.847  26.533  1.00  0.00     0.193 C 
HETATM    3  C11 UNL     1      23.958  28.307  26.078  1.00  0.00     0.217 C 
HETATM    4  C12 UNL     1      24.438  27.111  26.815  1.00  0.00     0.063 C 
HETATM    5  C13 UNL     1      23.439  26.017  26.999  1.00  0.00     0.121 C 
HETATM    6  C18 UNL     1      22.037  26.480  27.235  1.00  0.00     0.193 C 
ENDROOT
BRANCH   2   7
HETATM    7  O2  UNL     1      21.906  29.090  25.392  1.00  0.00    -0.351 OA
BRANCH   7   8
HETATM    8  C5  UNL     1      21.788  30.449  25.082  1.00  0.00     0.262 C 
HETATM    9  C6  UNL     1      20.990  31.179  26.069  1.00  0.00     0.093 C 
HETATM   10  C7  UNL     1      19.635  31.617  25.553  1.00  0.00     0.190 C 
HETATM   11  C8  UNL     1      19.854  32.396  24.273  1.00  0.00     0.066 C 
HETATM   12  C9  UNL     1      20.802  31.679  23.338  1.00  0.00     0.152 C 
HETATM   13  O3  UNL     1      21.242  30.484  23.786  1.00  0.00    -0.354 OA
BRANCH  10  14
HETATM   14  N2  UNL     1      18.747  30.522  25.292  1.00  0.00    -0.075 N 
ATOM     15  H23 UNL     1      19.271  29.667  25.107  1.00  0.00     0.274 HD
ATOM     16  H22 UNL     1      18.260  30.239  26.142  1.00  0.00     0.274 HD
ATOM     17  H21 UNL     1      18.085  30.711  24.540  1.00  0.00     0.274 HD
ENDBRANCH  10  14
BRANCH  12  18
HETATM   18  C10 UNL     1      21.816  32.651  22.841  1.00  0.00     0.261 C 
BRANCH  18  19
HETATM   19  N3  UNL     1      21.864  32.880  21.448  1.00  0.00    -0.077 N 
ATOM     20  H33 UNL     1      22.826  32.783  21.122  1.00  0.00     0.274 HD
ATOM     21  H32 UNL     1      21.420  32.101  20.961  1.00  0.00     0.274 HD
ATOM     22  H31 UNL     1      21.476  33.759  21.104  1.00  0.00     0.274 HD
ENDBRANCH  18  19
ENDBRANCH  12  18
ENDBRANCH   7   8
ENDBRANCH   2   7
BRANCH   1  23
HETATM   23  N1  UNL     1      20.705  28.290  27.965  1.00  0.00    -0.405 NA
HETATM   24  C2  UNL     1      19.452  28.614  28.380  1.00  0.00     0.282 C 
HETATM   25  C1  UNL     1      18.546  27.503  28.923  1.00  0.00     0.134 C 
HETATM   26  O1  UNL     1      18.861  29.741  28.398  1.00  0.00    -0.258 OA
ENDBRANCH   1  23
BRANCH   3  27
HETATM   27  N4  UNL     1      23.987  28.004  24.659  1.00  0.00    -0.072 N 
ATOM     28  H43 UNL     1      23.116  27.565  24.360  1.00  0.00     0.274 HD
ATOM     29  H42 UNL     1      23.942  28.856  24.101  1.00  0.00     0.274 HD
ATOM     30  H41 UNL     1      24.792  27.435  24.396  1.00  0.00     0.274 HD
ENDBRANCH   3  27
BRANCH   6  31
HETATM   31  O6  UNL     1      21.583  25.825  28.423  1.00  0.00    -0.311 OA
BRANCH  31  32
HETATM   32  C19 UNL     1      21.017  24.582  28.463  1.00  0.00     0.255 C 
HETATM   33  C20 UNL     1      19.876  24.312  27.547  1.00  0.00     0.126 C 
HETATM   34  O7  UNL     1      21.477  23.739  29.255  1.00  0.00    -0.266 OA
ENDBRANCH  31  32
ENDBRANCH   6  31
BRANCH   5  35
HETATM   35  N5  UNL     1      23.380  25.071  25.896  1.00  0.00    -0.330 N 
HETATM   36  C14 UNL     1      22.404  25.142  24.884  1.00  0.00     0.361 C 
HETATM   37  O4  UNL     1      21.493  26.030  24.861  1.00  0.00    -0.238 OA
ATOM     38  H5  UNL     1      24.075  24.326  25.853  1.00  0.00     0.165 HD
BRANCH  36  39
HETATM   39  O5  UNL     1      22.376  24.236  23.833  1.00  0.00    -0.299 OA
BRANCH  39  40
HETATM   40  C15 UNL     1      22.319  24.662  22.476  1.00  0.00     0.125 C 
HETATM   41  C16 UNL     1      23.657  25.201  22.026  1.00  0.00     0.040 C 
HETATM   42  C17 UNL     1      21.956  23.477  21.629  1.00  0.00     0.040 C 
ENDBRANCH  39  40
ENDBRANCH  36  39
ENDBRANCH   5  35
TORSDOF 12
ENDMDL
