MODEL 1
REMARK VINA RESULT: -8.591521695      0.000      0.000
REMARK  15 active torsions:
REMARK  status: ('A' for Active; 'I' for Inactive)
REMARK    1  A    between atoms: C2_2  and  C4_4 
REMARK    2  A    between atoms: C4_4  and  C5_5 
REMARK    3  A    between atoms: C5_5  and  C6_6 
REMARK    4  A    between atoms: C5_5  and  C15_21 
REMARK    5  A    between atoms: C7_7  and  N1_8 
REMARK    6  A    between atoms: N1_8  and  C8_9 
REMARK    7  A    between atoms: N1_8  and  O2_18 
REMARK    8  A    between atoms: C8_9  and  C9_10 
REMARK    9  A    between atoms: C9_10  and  C10_11 
REMARK   10  A    between atoms: C10_11  and  C11_12 
REMARK   11  A    between atoms: C11_12  and  C12_13 
REMARK   12  A    between atoms: C12_13  and  C13_14 
REMARK   13  A    between atoms: C13_14  and  S1_15 
REMARK   14  A    between atoms: O2_18  and  O3_19 
REMARK   15  A    between atoms: C25_32  and  O5_33 
ROOT
HETATM    1  C15 UNL     1      11.610  -4.754   0.330  1.00  0.00     0.023 C 
HETATM    2  C16 UNL     1      11.386  -5.186  -1.094  1.00  0.00     0.010 C 
HETATM    3  C17 UNL     1      12.747  -4.939  -1.787  1.00  0.00     0.007 C 
HETATM    4  C18 UNL     1      13.140  -3.718  -1.003  1.00  0.00     0.003 C 
HETATM    5  C19 UNL     1      14.308  -2.972  -1.400  1.00  0.00    -0.032 C 
HETATM    6  C20 UNL     1      13.905  -2.166  -2.659  1.00  0.00     0.016 C 
HETATM    7  C21 UNL     1      15.546  -3.683  -1.766  1.00  0.00     0.015 C 
HETATM    8  C22 UNL     1      16.725  -2.757  -1.879  1.00  0.00     0.042 C 
HETATM    9  C23 UNL     1      16.404  -1.341  -1.770  1.00  0.00    -0.024 A 
HETATM   10  C24 UNL     1      16.947  -0.214  -2.335  1.00  0.00     0.152 A 
HETATM   11  O4  UNL     1      16.278   0.857  -1.907  1.00  0.00    -0.299 OA
HETATM   12  C25 UNL     1      15.311   0.479  -1.079  1.00  0.00     0.190 A 
HETATM   13  C26 UNL     1      15.353  -0.867  -0.967  1.00  0.00     0.013 A 
HETATM   14  C27 UNL     1      14.666  -1.992  -0.279  1.00  0.00     0.033 C 
HETATM   15  C28 UNL     1      13.422  -1.662   0.434  1.00  0.00     0.011 C 
HETATM   16  C29 UNL     1      12.978  -2.863   1.239  1.00  0.00     0.011 C 
HETATM   17  C30 UNL     1      12.945  -4.154   0.434  1.00  0.00    -0.032 C 
HETATM   18  C31 UNL     1      13.997  -5.089   0.944  1.00  0.00     0.016 C 
ENDROOT
BRANCH   1  19
HETATM   19  C5  UNL     1      11.111  -5.798   1.256  1.00  0.00    -0.073 C 
BRANCH  19  20
HETATM   20  C4  UNL     1      11.319  -7.217   0.927  1.00  0.00     0.038 C 
BRANCH  20  21
HETATM   21  C2  UNL     1      10.179  -8.133   0.756  1.00  0.00    -0.019 C 
HETATM   22  C1  UNL     1       9.574  -8.827   1.903  1.00  0.00     0.010 C 
HETATM   23  C3  UNL     1      10.700  -9.266  -0.175  1.00  0.00     0.010 C 
ENDBRANCH  20  21
ENDBRANCH  19  20
BRANCH  19  24
HETATM   24  C6  UNL     1      11.036  -5.396   2.673  1.00  0.00     0.022 C 
HETATM   25  C7  UNL     1       9.960  -5.447   3.412  1.00  0.00     0.120 C 
BRANCH  25  26
HETATM   26  N1  UNL     1       9.791  -5.086   4.771  1.00  0.00    -0.238 N 
BRANCH  26  27
HETATM   27  C8  UNL     1      10.734  -4.201   5.400  1.00  0.00     0.158 C 
BRANCH  27  28
HETATM   28  C9  UNL     1      10.231  -3.187   6.332  1.00  0.00     0.022 C 
BRANCH  28  29
HETATM   29  C10 UNL     1       9.617  -1.947   5.818  1.00  0.00     0.002 C 
BRANCH  29  30
HETATM   30  C11 UNL     1       9.363  -0.868   6.834  1.00  0.00     0.001 C 
BRANCH  30  31
HETATM   31  C12 UNL     1       9.999   0.447   6.446  1.00  0.00     0.012 C 
BRANCH  31  32
HETATM   32  C13 UNL     1      10.358   0.436   4.981  1.00  0.00     0.108 C 
BRANCH  32  33
HETATM   33  S1  UNL     1      10.312   2.074   4.289  1.00  0.00     0.010 S 
HETATM   34  C14 UNL     1      11.870   2.524   3.591  1.00  0.00     0.127 C 
HETATM   35  O1  UNL     1       9.078   2.213   3.177  1.00  0.00    -0.258 OA
ENDBRANCH  32  33
ENDBRANCH  31  32
ENDBRANCH  30  31
ENDBRANCH  29  30
ENDBRANCH  28  29
ENDBRANCH  27  28
ENDBRANCH  26  27
BRANCH  26  36
HETATM   36  O2  UNL     1       8.757  -5.564   5.481  1.00  0.00    -0.113 OA
BRANCH  36  37
HETATM   37  O3  UNL     1       8.560  -6.816   5.149  1.00  0.00    -0.227 OA
ATOM     38  H3  UNL     1       8.064  -7.241   5.839  1.00  0.00     0.256 HD
ENDBRANCH  36  37
ENDBRANCH  26  36
ENDBRANCH  25  26
ENDBRANCH  19  24
ENDBRANCH   1  19
BRANCH  12  39
HETATM   39  O5  UNL     1      14.382   1.272  -0.409  1.00  0.00    -0.340 OA
ATOM     40  H5  UNL     1      14.194   1.305   0.522  1.00  0.00     0.220 HD
ENDBRANCH  12  39
TORSDOF 15
ENDMDL
MODEL 2
REMARK VINA RESULT: -8.589240738      2.542      5.415
REMARK  15 active torsions:
REMARK  status: ('A' for Active; 'I' for Inactive)
REMARK    1  A    between atoms: C2_2  and  C4_4 
REMARK    2  A    between atoms: C4_4  and  C5_5 
REMARK    3  A    between atoms: C5_5  and  C6_6 
REMARK    4  A    between atoms: C5_5  and  C15_21 
REMARK    5  A    between atoms: C7_7  and  N1_8 
REMARK    6  A    between atoms: N1_8  and  C8_9 
REMARK    7  A    between atoms: N1_8  and  O2_18 
REMARK    8  A    between atoms: C8_9  and  C9_10 
REMARK    9  A    between atoms: C9_10  and  C10_11 
REMARK   10  A    between atoms: C10_11  and  C11_12 
REMARK   11  A    between atoms: C11_12  and  C12_13 
REMARK   12  A    between atoms: C12_13  and  C13_14 
REMARK   13  A    between atoms: C13_14  and  S1_15 
REMARK   14  A    between atoms: O2_18  and  O3_19 
REMARK   15  A    between atoms: C25_32  and  O5_33 
ROOT
HETATM    1  C15 UNL     1      11.682  -3.292   2.164  1.00  0.00     0.023 C 
HETATM    2  C16 UNL     1      11.278  -4.458   1.304  1.00  0.00     0.010 C 
HETATM    3  C17 UNL     1      12.554  -4.798   0.498  1.00  0.00     0.007 C 
HETATM    4  C18 UNL     1      13.073  -3.393   0.363  1.00  0.00     0.003 C 
HETATM    5  C19 UNL     1      14.207  -3.141  -0.490  1.00  0.00    -0.032 C 
HETATM    6  C20 UNL     1      13.682  -3.200  -1.945  1.00  0.00     0.016 C 
HETATM    7  C21 UNL     1      15.371  -4.043  -0.453  1.00  0.00     0.015 C 
HETATM    8  C22 UNL     1      16.556  -3.479  -1.187  1.00  0.00     0.042 C 
HETATM    9  C23 UNL     1      16.292  -2.249  -1.922  1.00  0.00    -0.024 A 
HETATM   10  C24 UNL     1      16.797  -1.732  -3.088  1.00  0.00     0.152 A 
HETATM   11  O4  UNL     1      16.215  -0.557  -3.335  1.00  0.00    -0.299 OA
HETATM   12  C25 UNL     1      15.342  -0.280  -2.374  1.00  0.00     0.190 A 
HETATM   13  C26 UNL     1      15.358  -1.296  -1.482  1.00  0.00     0.013 A 
HETATM   14  C27 UNL     1      14.724  -1.727  -0.208  1.00  0.00     0.033 C 
HETATM   15  C28 UNL     1      13.583  -0.924   0.259  1.00  0.00     0.011 C 
HETATM   16  C29 UNL     1      13.202  -1.369   1.654  1.00  0.00     0.011 C 
HETATM   17  C30 UNL     1      13.036  -2.876   1.786  1.00  0.00    -0.032 C 
HETATM   18  C31 UNL     1      14.114  -3.423   2.670  1.00  0.00     0.016 C 
ENDROOT
BRANCH   1  19
HETATM   19  C5  UNL     1      11.265  -3.535   3.566  1.00  0.00    -0.073 C 
BRANCH  19  20
HETATM   20  C4  UNL     1      11.361  -2.445   4.550  1.00  0.00     0.038 C 
BRANCH  20  21
HETATM   21  C2  UNL     1      10.267  -1.474   4.718  1.00  0.00    -0.019 C 
HETATM   22  C1  UNL     1      10.505  -0.026   4.617  1.00  0.00     0.010 C 
HETATM   23  C3  UNL     1       9.738  -1.698   6.164  1.00  0.00     0.010 C 
ENDBRANCH  20  21
ENDBRANCH  19  20
BRANCH  19  24
HETATM   24  C6  UNL     1      10.226  -4.567   3.741  1.00  0.00     0.022 C 
HETATM   25  C7  UNL     1      10.038  -5.268   4.827  1.00  0.00     0.120 C 
BRANCH  25  26
HETATM   26  N1  UNL     1       9.076  -6.272   5.088  1.00  0.00    -0.238 N 
BRANCH  26  27
HETATM   27  C8  UNL     1       9.177  -7.550   4.435  1.00  0.00     0.158 C 
BRANCH  27  28
HETATM   28  C9  UNL     1      10.059  -7.676   3.271  1.00  0.00     0.022 C 
BRANCH  28  29
HETATM   29  C10 UNL     1       9.630  -8.465   2.098  1.00  0.00     0.002 C 
BRANCH  29  30
HETATM   30  C11 UNL     1       9.692  -7.759   0.772  1.00  0.00     0.001 C 
BRANCH  30  31
HETATM   31  C12 UNL     1      10.837  -8.247  -0.085  1.00  0.00     0.012 C 
BRANCH  31  32
HETATM   32  C13 UNL     1      10.879  -7.476  -1.382  1.00  0.00     0.108 C 
BRANCH  32  33
HETATM   33  S1  UNL     1       9.300  -6.746  -1.754  1.00  0.00     0.010 S 
HETATM   34  C14 UNL     1       9.484  -5.181  -2.549  1.00  0.00     0.127 C 
HETATM   35  O1  UNL     1       8.365  -7.789  -2.659  1.00  0.00    -0.258 OA
ENDBRANCH  32  33
ENDBRANCH  31  32
ENDBRANCH  30  31
ENDBRANCH  29  30
ENDBRANCH  28  29
ENDBRANCH  27  28
ENDBRANCH  26  27
BRANCH  26  36
HETATM   36  O2  UNL     1       8.064  -6.045   5.941  1.00  0.00    -0.113 OA
BRANCH  36  37
HETATM   37  O3  UNL     1       8.286  -4.914   6.565  1.00  0.00    -0.227 OA
ATOM     38  H3  UNL     1       7.795  -4.225   6.132  1.00  0.00     0.256 HD
ENDBRANCH  36  37
ENDBRANCH  26  36
ENDBRANCH  25  26
ENDBRANCH  19  24
ENDBRANCH   1  19
BRANCH  12  39
HETATM   39  O5  UNL     1      14.523   0.839  -2.240  1.00  0.00    -0.340 OA
ATOM     40  H5  UNL     1      14.102   1.175  -1.457  1.00  0.00     0.220 HD
ENDBRANCH  12  39
TORSDOF 15
ENDMDL
MODEL 3
REMARK VINA RESULT: -8.494711184      2.550      5.316
REMARK  15 active torsions:
REMARK  status: ('A' for Active; 'I' for Inactive)
REMARK    1  A    between atoms: C2_2  and  C4_4 
REMARK    2  A    between atoms: C4_4  and  C5_5 
REMARK    3  A    between atoms: C5_5  and  C6_6 
REMARK    4  A    between atoms: C5_5  and  C15_21 
REMARK    5  A    between atoms: C7_7  and  N1_8 
REMARK    6  A    between atoms: N1_8  and  C8_9 
REMARK    7  A    between atoms: N1_8  and  O2_18 
REMARK    8  A    between atoms: C8_9  and  C9_10 
REMARK    9  A    between atoms: C9_10  and  C10_11 
REMARK   10  A    between atoms: C10_11  and  C11_12 
REMARK   11  A    between atoms: C11_12  and  C12_13 
REMARK   12  A    between atoms: C12_13  and  C13_14 
REMARK   13  A    between atoms: C13_14  and  S1_15 
REMARK   14  A    between atoms: O2_18  and  O3_19 
REMARK   15  A    between atoms: C25_32  and  O5_33 
ROOT
HETATM    1  C15 UNL     1      11.560  -3.394   2.163  1.00  0.00     0.023 C 
HETATM    2  C16 UNL     1      11.187  -4.558   1.287  1.00  0.00     0.010 C 
HETATM    3  C17 UNL     1      12.483  -4.882   0.508  1.00  0.00     0.007 C 
HETATM    4  C18 UNL     1      12.992  -3.472   0.393  1.00  0.00     0.003 C 
HETATM    5  C19 UNL     1      14.143  -3.204  -0.432  1.00  0.00    -0.032 C 
HETATM    6  C20 UNL     1      13.651  -3.259  -1.900  1.00  0.00     0.016 C 
HETATM    7  C21 UNL     1      15.314  -4.096  -0.374  1.00  0.00     0.015 C 
HETATM    8  C22 UNL     1      16.510  -3.516  -1.079  1.00  0.00     0.042 C 
HETATM    9  C23 UNL     1      16.251  -2.285  -1.812  1.00  0.00    -0.024 A 
HETATM   10  C24 UNL     1      16.778  -1.755  -2.963  1.00  0.00     0.152 A 
HETATM   11  O4  UNL     1      16.191  -0.585  -3.216  1.00  0.00    -0.299 OA
HETATM   12  C25 UNL     1      15.294  -0.321  -2.273  1.00  0.00     0.190 A 
HETATM   13  C26 UNL     1      15.299  -1.343  -1.388  1.00  0.00     0.013 A 
HETATM   14  C27 UNL     1      14.640  -1.787  -0.131  1.00  0.00     0.033 C 
HETATM   15  C28 UNL     1      13.482  -0.997   0.316  1.00  0.00     0.011 C 
HETATM   16  C29 UNL     1      13.074  -1.455   1.699  1.00  0.00     0.011 C 
HETATM   17  C30 UNL     1      12.919  -2.964   1.818  1.00  0.00    -0.032 C 
HETATM   18  C31 UNL     1      13.981  -3.506   2.723  1.00  0.00     0.016 C 
ENDROOT
BRANCH   1  19
HETATM   19  C5  UNL     1      11.114  -3.650   3.554  1.00  0.00    -0.073 C 
BRANCH  19  20
HETATM   20  C4  UNL     1      11.160  -2.560   4.541  1.00  0.00     0.038 C 
BRANCH  20  21
HETATM   21  C2  UNL     1      10.168  -2.473   5.624  1.00  0.00    -0.019 C 
HETATM   22  C1  UNL     1       9.703  -1.174   6.136  1.00  0.00     0.010 C 
HETATM   23  C3  UNL     1      10.829  -3.176   6.845  1.00  0.00     0.010 C 
ENDBRANCH  20  21
ENDBRANCH  19  20
BRANCH  19  24
HETATM   24  C6  UNL     1      10.096  -4.706   3.701  1.00  0.00     0.022 C 
HETATM   25  C7  UNL     1      10.270  -5.834   4.335  1.00  0.00     0.120 C 
BRANCH  25  26
HETATM   26  N1  UNL     1       9.359  -6.901   4.528  1.00  0.00    -0.238 N 
BRANCH  26  27
HETATM   27  C8  UNL     1       9.227  -7.923   3.524  1.00  0.00     0.158 C 
BRANCH  27  28
HETATM   28  C9  UNL     1      10.208  -7.970   2.436  1.00  0.00     0.022 C 
BRANCH  28  29
HETATM   29  C10 UNL     1       9.755  -8.001   1.031  1.00  0.00     0.002 C 
BRANCH  29  30
HETATM   30  C11 UNL     1      10.784  -8.421   0.017  1.00  0.00     0.001 C 
BRANCH  30  31
HETATM   31  C12 UNL     1      10.581  -7.747  -1.320  1.00  0.00     0.012 C 
BRANCH  31  32
HETATM   32  C13 UNL     1       9.291  -6.964  -1.315  1.00  0.00     0.108 C 
BRANCH  32  33
HETATM   33  S1  UNL     1       9.274  -5.732  -2.597  1.00  0.00     0.010 S 
HETATM   34  C14 UNL     1       7.647  -5.102  -2.865  1.00  0.00     0.127 C 
HETATM   35  O1  UNL     1      10.358  -4.511  -2.260  1.00  0.00    -0.258 OA
ENDBRANCH  32  33
ENDBRANCH  31  32
ENDBRANCH  30  31
ENDBRANCH  29  30
ENDBRANCH  28  29
ENDBRANCH  27  28
ENDBRANCH  26  27
BRANCH  26  36
HETATM   36  O2  UNL     1       8.613  -6.970   5.642  1.00  0.00    -0.113 OA
BRANCH  36  37
HETATM   37  O3  UNL     1       7.868  -5.894   5.716  1.00  0.00    -0.227 OA
ATOM     38  H3  UNL     1       6.963  -6.158   5.841  1.00  0.00     0.256 HD
ENDBRANCH  36  37
ENDBRANCH  26  36
ENDBRANCH  25  26
ENDBRANCH  19  24
ENDBRANCH   1  19
BRANCH  12  39
HETATM   39  O5  UNL     1      14.461   0.789  -2.151  1.00  0.00    -0.340 OA
ATOM     40  H5  UNL     1      13.810   0.971  -1.484  1.00  0.00     0.220 HD
ENDBRANCH  12  39
TORSDOF 15
ENDMDL
MODEL 4
REMARK VINA RESULT: -8.488197855      2.121      2.776
REMARK  15 active torsions:
REMARK  status: ('A' for Active; 'I' for Inactive)
REMARK    1  A    between atoms: C2_2  and  C4_4 
REMARK    2  A    between atoms: C4_4  and  C5_5 
REMARK    3  A    between atoms: C5_5  and  C6_6 
REMARK    4  A    between atoms: C5_5  and  C15_21 
REMARK    5  A    between atoms: C7_7  and  N1_8 
REMARK    6  A    between atoms: N1_8  and  C8_9 
REMARK    7  A    between atoms: N1_8  and  O2_18 
REMARK    8  A    between atoms: C8_9  and  C9_10 
REMARK    9  A    between atoms: C9_10  and  C10_11 
REMARK   10  A    between atoms: C10_11  and  C11_12 
REMARK   11  A    between atoms: C11_12  and  C12_13 
REMARK   12  A    between atoms: C12_13  and  C13_14 
REMARK   13  A    between atoms: C13_14  and  S1_15 
REMARK   14  A    between atoms: O2_18  and  O3_19 
REMARK   15  A    between atoms: C25_32  and  O5_33 
ROOT
HETATM    1  C15 UNL     1      11.635  -4.885   0.288  1.00  0.00     0.023 C 
HETATM    2  C16 UNL     1      11.441  -5.317  -1.140  1.00  0.00     0.010 C 
HETATM    3  C17 UNL     1      12.806  -5.038  -1.813  1.00  0.00     0.007 C 
HETATM    4  C18 UNL     1      13.160  -3.811  -1.020  1.00  0.00     0.003 C 
HETATM    5  C19 UNL     1      14.316  -3.037  -1.398  1.00  0.00    -0.032 C 
HETATM    6  C20 UNL     1      13.913  -2.236  -2.660  1.00  0.00     0.016 C 
HETATM    7  C21 UNL     1      15.575  -3.718  -1.748  1.00  0.00     0.015 C 
HETATM    8  C22 UNL     1      16.734  -2.765  -1.841  1.00  0.00     0.042 C 
HETATM    9  C23 UNL     1      16.379  -1.357  -1.733  1.00  0.00    -0.024 A 
HETATM   10  C24 UNL     1      16.905  -0.217  -2.287  1.00  0.00     0.152 A 
HETATM   11  O4  UNL     1      16.205   0.838  -1.865  1.00  0.00    -0.299 OA
HETATM   12  C25 UNL     1      15.236   0.435  -1.053  1.00  0.00     0.190 A 
HETATM   13  C26 UNL     1      15.307  -0.910  -0.943  1.00  0.00     0.013 A 
HETATM   14  C27 UNL     1      14.636  -2.053  -0.269  1.00  0.00     0.033 C 
HETATM   15  C28 UNL     1      13.374  -1.753   0.427  1.00  0.00     0.011 C 
HETATM   16  C29 UNL     1      12.946  -2.967   1.222  1.00  0.00     0.011 C 
HETATM   17  C30 UNL     1      12.954  -4.256   0.412  1.00  0.00    -0.032 C 
HETATM   18  C31 UNL     1      14.020  -5.168   0.935  1.00  0.00     0.016 C 
ENDROOT
BRANCH   1  19
HETATM   19  C5  UNL     1      11.147  -5.944   1.203  1.00  0.00    -0.073 C 
BRANCH  19  20
HETATM   20  C4  UNL     1      11.352  -7.358   0.851  1.00  0.00     0.038 C 
BRANCH  20  21
HETATM   21  C2  UNL     1      10.212  -8.274   0.689  1.00  0.00    -0.019 C 
HETATM   22  C1  UNL     1       9.546  -8.883   1.850  1.00  0.00     0.010 C 
HETATM   23  C3  UNL     1      10.764  -9.473  -0.137  1.00  0.00     0.010 C 
ENDBRANCH  20  21
ENDBRANCH  19  20
BRANCH  19  24
HETATM   24  C6  UNL     1      11.086  -5.563   2.626  1.00  0.00     0.022 C 
HETATM   25  C7  UNL     1       9.988  -5.403   3.316  1.00  0.00     0.120 C 
BRANCH  25  26
HETATM   26  N1  UNL     1       9.830  -5.041   4.675  1.00  0.00    -0.238 N 
BRANCH  26  27
HETATM   27  C8  UNL     1      10.743  -4.108   5.280  1.00  0.00     0.158 C 
BRANCH  27  28
HETATM   28  C9  UNL     1      10.580  -2.680   4.992  1.00  0.00     0.022 C 
BRANCH  28  29
HETATM   29  C10 UNL     1       9.912  -1.798   5.970  1.00  0.00     0.002 C 
BRANCH  29  30
HETATM   30  C11 UNL     1       9.667  -2.391   7.330  1.00  0.00     0.001 C 
BRANCH  30  31
HETATM   31  C12 UNL     1      10.711  -1.969   8.338  1.00  0.00     0.012 C 
BRANCH  31  32
HETATM   32  C13 UNL     1      11.562  -3.152   8.728  1.00  0.00     0.108 C 
BRANCH  32  33
HETATM   33  S1  UNL     1      12.477  -2.830  10.218  1.00  0.00     0.010 S 
HETATM   34  C14 UNL     1      13.073  -4.324  10.946  1.00  0.00     0.127 C 
HETATM   35  O1  UNL     1      13.716  -1.751   9.930  1.00  0.00    -0.258 OA
ENDBRANCH  32  33
ENDBRANCH  31  32
ENDBRANCH  30  31
ENDBRANCH  29  30
ENDBRANCH  28  29
ENDBRANCH  27  28
ENDBRANCH  26  27
BRANCH  26  36
HETATM   36  O2  UNL     1       8.835  -5.563   5.410  1.00  0.00    -0.113 OA
BRANCH  36  37
HETATM   37  O3  UNL     1       8.691  -6.825   5.088  1.00  0.00    -0.227 OA
ATOM     38  H3  UNL     1       8.251  -7.274   5.801  1.00  0.00     0.256 HD
ENDBRANCH  36  37
ENDBRANCH  26  36
ENDBRANCH  25  26
ENDBRANCH  19  24
ENDBRANCH   1  19
BRANCH  12  39
HETATM   39  O5  UNL     1      14.279   1.204  -0.393  1.00  0.00    -0.340 OA
ATOM     40  H5  UNL     1      13.631   0.925   0.244  1.00  0.00     0.220 HD
ENDBRANCH  12  39
TORSDOF 15
ENDMDL
MODEL 5
REMARK VINA RESULT: -8.280804670      2.655      5.649
REMARK  15 active torsions:
REMARK  status: ('A' for Active; 'I' for Inactive)
REMARK    1  A    between atoms: C2_2  and  C4_4 
REMARK    2  A    between atoms: C4_4  and  C5_5 
REMARK    3  A    between atoms: C5_5  and  C6_6 
REMARK    4  A    between atoms: C5_5  and  C15_21 
REMARK    5  A    between atoms: C7_7  and  N1_8 
REMARK    6  A    between atoms: N1_8  and  C8_9 
REMARK    7  A    between atoms: N1_8  and  O2_18 
REMARK    8  A    between atoms: C8_9  and  C9_10 
REMARK    9  A    between atoms: C9_10  and  C10_11 
REMARK   10  A    between atoms: C10_11  and  C11_12 
REMARK   11  A    between atoms: C11_12  and  C12_13 
REMARK   12  A    between atoms: C12_13  and  C13_14 
REMARK   13  A    between atoms: C13_14  and  S1_15 
REMARK   14  A    between atoms: O2_18  and  O3_19 
REMARK   15  A    between atoms: C25_32  and  O5_33 
ROOT
HETATM    1  C15 UNL     1      11.470  -2.726   2.734  1.00  0.00     0.023 C 
HETATM    2  C16 UNL     1      10.915  -3.940   2.039  1.00  0.00     0.010 C 
HETATM    3  C17 UNL     1      12.113  -4.506   1.242  1.00  0.00     0.007 C 
HETATM    4  C18 UNL     1      12.763  -3.189   0.916  1.00  0.00     0.003 C 
HETATM    5  C19 UNL     1      13.876  -3.161   0.002  1.00  0.00    -0.032 C 
HETATM    6  C20 UNL     1      13.284  -3.342  -1.417  1.00  0.00     0.016 C 
HETATM    7  C21 UNL     1      14.947  -4.168   0.114  1.00  0.00     0.015 C 
HETATM    8  C22 UNL     1      16.147  -3.823  -0.723  1.00  0.00     0.042 C 
HETATM    9  C23 UNL     1      15.973  -2.671  -1.597  1.00  0.00    -0.024 A 
HETATM   10  C24 UNL     1      16.475  -2.354  -2.835  1.00  0.00     0.152 A 
HETATM   11  O4  UNL     1      16.001  -1.164  -3.208  1.00  0.00    -0.299 OA
HETATM   12  C25 UNL     1      15.204  -0.683  -2.261  1.00  0.00     0.190 A 
HETATM   13  C26 UNL     1      15.159  -1.580  -1.251  1.00  0.00     0.013 A 
HETATM   14  C27 UNL     1      14.543  -1.785   0.087  1.00  0.00     0.033 C 
HETATM   15  C28 UNL     1      13.509  -0.817   0.487  1.00  0.00     0.011 C 
HETATM   16  C29 UNL     1      13.149  -1.048   1.938  1.00  0.00     0.011 C 
HETATM   17  C30 UNL     1      12.841  -2.502   2.263  1.00  0.00    -0.032 C 
HETATM   18  C31 UNL     1      13.897  -3.047   3.173  1.00  0.00     0.016 C 
ENDROOT
BRANCH   1  19
HETATM   19  C5  UNL     1      11.094  -2.753   4.168  1.00  0.00    -0.073 C 
BRANCH  19  20
HETATM   20  C4  UNL     1      10.422  -1.587   4.762  1.00  0.00     0.038 C 
BRANCH  20  21
HETATM   21  C2  UNL     1      10.065  -1.562   6.190  1.00  0.00    -0.019 C 
HETATM   22  C1  UNL     1       8.763  -2.057   6.664  1.00  0.00     0.010 C 
HETATM   23  C3  UNL     1      10.099  -0.059   6.594  1.00  0.00     0.010 C 
ENDBRANCH  20  21
ENDBRANCH  19  20
BRANCH  19  24
HETATM   24  C6  UNL     1      10.824  -4.094   4.719  1.00  0.00     0.022 C 
HETATM   25  C7  UNL     1       9.692  -4.736   4.613  1.00  0.00     0.120 C 
BRANCH  25  26
HETATM   26  N1  UNL     1       9.340  -6.016   5.105  1.00  0.00    -0.238 N 
BRANCH  26  27
HETATM   27  C8  UNL     1       9.943  -7.193   4.539  1.00  0.00     0.158 C 
BRANCH  27  28
HETATM   28  C9  UNL     1       9.409  -7.720   3.280  1.00  0.00     0.022 C 
BRANCH  28  29
HETATM   29  C10 UNL     1      10.240  -7.707   2.059  1.00  0.00     0.002 C 
BRANCH  29  30
HETATM   30  C11 UNL     1       9.505  -7.488   0.766  1.00  0.00     0.001 C 
BRANCH  30  31
HETATM   31  C12 UNL     1      10.403  -7.651  -0.439  1.00  0.00     0.012 C 
BRANCH  31  32
HETATM   32  C13 UNL     1      11.641  -8.427  -0.062  1.00  0.00     0.108 C 
BRANCH  32  33
HETATM   33  S1  UNL     1      13.115  -7.472  -0.339  1.00  0.00     0.010 S 
HETATM   34  C14 UNL     1      14.563  -8.369   0.126  1.00  0.00     0.127 C 
HETATM   35  O1  UNL     1      13.196  -6.954  -1.922  1.00  0.00    -0.258 OA
ENDBRANCH  32  33
ENDBRANCH  31  32
ENDBRANCH  30  31
ENDBRANCH  29  30
ENDBRANCH  28  29
ENDBRANCH  27  28
ENDBRANCH  26  27
BRANCH  26  36
HETATM   36  O2  UNL     1       8.444  -6.145   6.097  1.00  0.00    -0.113 OA
BRANCH  36  37
HETATM   37  O3  UNL     1       7.332  -5.550   5.740  1.00  0.00    -0.227 OA
ATOM     38  H3  UNL     1       6.900  -5.218   6.518  1.00  0.00     0.256 HD
ENDBRANCH  36  37
ENDBRANCH  26  36
ENDBRANCH  25  26
ENDBRANCH  19  24
ENDBRANCH   1  19
BRANCH  12  39
HETATM   39  O5  UNL     1      14.506   0.523  -2.242  1.00  0.00    -0.340 OA
ATOM     40  H5  UNL     1      13.918   0.856  -1.575  1.00  0.00     0.220 HD
ENDBRANCH  12  39
TORSDOF 15
ENDMDL
