MODEL 1
REMARK VINA RESULT: -9.698675137      0.000      0.000
REMARK  5 active torsions:
REMARK  status: ('A' for Active; 'I' for Inactive)
REMARK    1  A    between atoms: C2_2  and  C4_4 
REMARK    2  A    between atoms: C7_7  and  O1_8 
REMARK    3  A    between atoms: O1_8  and  C8_9 
REMARK    4  A    between atoms: C10_15  and  N3_16 
REMARK    5  A    between atoms: C18_25  and  C19_26 
ROOT
HETATM    1  C8  UNL     1      80.886  -5.281  27.550  1.00  0.00     0.162 A 
HETATM    2  N1  UNL     1      81.670  -4.329  27.063  1.00  0.00    -0.332 N 
ATOM      3  H1  UNL     1      82.613  -4.248  27.443  1.00  0.00     0.168 HD
HETATM    4  C9  UNL     1      81.308  -3.472  26.113  1.00  0.00     0.184 A 
HETATM    5  N2  UNL     1      80.106  -3.544  25.601  1.00  0.00    -0.338 N 
ATOM      6  H2  UNL     1      79.836  -2.884  24.872  1.00  0.00     0.168 HD
HETATM    7  C10 UNL     1      79.180  -4.503  26.027  1.00  0.00     0.124 A 
HETATM    8  C18 UNL     1      79.578  -5.357  26.994  1.00  0.00     0.142 A 
ENDROOT
BRANCH   1   9
HETATM    9  O1  UNL     1      81.207  -6.179  28.518  1.00  0.00    -0.328 OA
BRANCH   9  10
HETATM   10  C7  UNL     1      82.460  -6.571  28.946  1.00  0.00     0.148 C 
HETATM   11  C6  UNL     1      83.285  -7.276  27.899  1.00  0.00     0.036 C 
HETATM   12  C5  UNL     1      83.380  -8.736  28.333  1.00  0.00     0.028 C 
HETATM   13  C4  UNL     1      84.254  -8.740  29.581  1.00  0.00     0.080 C 
HETATM   14  N4  UNL     1      83.623  -7.961  30.595  1.00  0.00    -0.414 N 
HETATM   15  C20 UNL     1      82.367  -7.383  30.219  1.00  0.00     0.146 C 
ATOM     16  H4  UNL     1      84.035  -7.825  31.518  1.00  0.00     0.153 HD
BRANCH  13  17
HETATM   17  C2  UNL     1      84.458 -10.188  29.960  1.00  0.00    -0.000 C 
HETATM   18  C1  UNL     1      83.113 -10.760  30.320  1.00  0.00     0.011 C 
HETATM   19  C3  UNL     1      85.089 -11.003  28.879  1.00  0.00     0.011 C 
ENDBRANCH  13  17
ENDBRANCH   9  10
ENDBRANCH   1   9
BRANCH   8  20
HETATM   20  C19 UNL     1      78.720  -6.402  27.552  1.00  0.00     0.425 C 
HETATM   21  F1  UNL     1      79.503  -7.443  28.097  1.00  0.00    -0.166 F 
HETATM   22  F2  UNL     1      77.793  -6.940  26.761  1.00  0.00    -0.166 F 
HETATM   23  F3  UNL     1      77.994  -5.856  28.653  1.00  0.00    -0.166 F 
ENDBRANCH   8  20
BRANCH   7  24
HETATM   24  N3  UNL     1      77.951  -4.444  25.316  1.00  0.00    -0.356 N 
HETATM   25  C11 UNL     1      77.588  -4.310  23.939  1.00  0.00     0.093 C 
HETATM   26  C12 UNL     1      76.247  -4.975  23.791  1.00  0.00     0.028 C 
HETATM   27  C17 UNL     1      77.343  -2.779  23.683  1.00  0.00     0.103 C 
HETATM   28  C13 UNL     1      75.724  -5.142  25.191  1.00  0.00     0.028 C 
HETATM   29  C14 UNL     1      76.685  -4.413  26.070  1.00  0.00     0.093 C 
HETATM   30  C15 UNL     1      76.236  -2.949  26.072  1.00  0.00     0.103 C 
HETATM   31  C16 UNL     1      76.814  -2.196  24.957  1.00  0.00     0.130 C 
HETATM   32  O2  UNL     1      76.880  -0.981  25.053  1.00  0.00    -0.298 OA
ENDBRANCH   7  24
TORSDOF 5
ENDMDL
MODEL 2
REMARK VINA RESULT: -9.412964759      1.081      1.825
REMARK  5 active torsions:
REMARK  status: ('A' for Active; 'I' for Inactive)
REMARK    1  A    between atoms: C2_2  and  C4_4 
REMARK    2  A    between atoms: C7_7  and  O1_8 
REMARK    3  A    between atoms: O1_8  and  C8_9 
REMARK    4  A    between atoms: C10_15  and  N3_16 
REMARK    5  A    between atoms: C18_25  and  C19_26 
ROOT
HETATM    1  C8  UNL     1      81.029  -5.304  27.232  1.00  0.00     0.162 A 
HETATM    2  N1  UNL     1      81.925  -4.675  26.483  1.00  0.00    -0.332 N 
ATOM      3  H1  UNL     1      82.905  -4.936  26.592  1.00  0.00     0.168 HD
HETATM    4  C9  UNL     1      81.630  -3.725  25.600  1.00  0.00     0.184 A 
HETATM    5  N2  UNL     1      80.384  -3.362  25.431  1.00  0.00    -0.338 N 
ATOM      6  H2  UNL     1      80.166  -2.634  24.752  1.00  0.00     0.168 HD
HETATM    7  C10 UNL     1      79.342  -3.947  26.159  1.00  0.00     0.124 A 
HETATM    8  C18 UNL     1      79.674  -4.907  27.050  1.00  0.00     0.142 A 
ENDROOT
BRANCH   1   9
HETATM    9  O1  UNL     1      81.278  -6.278  28.145  1.00  0.00    -0.328 OA
BRANCH   9  10
HETATM   10  C7  UNL     1      82.485  -6.642  28.708  1.00  0.00     0.148 C 
HETATM   11  C6  UNL     1      83.408  -7.386  27.776  1.00  0.00     0.036 C 
HETATM   12  C5  UNL     1      83.466  -8.825  28.281  1.00  0.00     0.028 C 
HETATM   13  C4  UNL     1      84.217  -8.768  29.606  1.00  0.00     0.080 C 
HETATM   14  N4  UNL     1      83.490  -7.950  30.519  1.00  0.00    -0.414 N 
HETATM   15  C20 UNL     1      82.273  -7.398  30.000  1.00  0.00     0.146 C 
ATOM     16  H4  UNL     1      83.811  -7.771  31.471  1.00  0.00     0.153 HD
BRANCH  13  17
HETATM   17  C2  UNL     1      84.388 -10.197  30.066  1.00  0.00    -0.000 C 
HETATM   18  C1  UNL     1      83.020 -10.748  30.365  1.00  0.00     0.011 C 
HETATM   19  C3  UNL     1      85.083 -11.065  29.068  1.00  0.00     0.011 C 
ENDBRANCH  13  17
ENDBRANCH   9  10
ENDBRANCH   1   9
BRANCH   8  20
HETATM   20  C19 UNL     1      78.700  -5.599  27.893  1.00  0.00     0.425 C 
HETATM   21  F1  UNL     1      78.294  -6.807  27.286  1.00  0.00    -0.166 F 
HETATM   22  F2  UNL     1      77.613  -4.929  28.272  1.00  0.00    -0.166 F 
HETATM   23  F3  UNL     1      79.342  -5.981  29.109  1.00  0.00    -0.166 F 
ENDBRANCH   8  20
BRANCH   7  24
HETATM   24  N3  UNL     1      78.062  -3.448  25.797  1.00  0.00    -0.356 N 
HETATM   25  C11 UNL     1      76.714  -3.813  26.105  1.00  0.00     0.093 C 
HETATM   26  C12 UNL     1      75.899  -2.553  25.985  1.00  0.00     0.028 C 
HETATM   27  C17 UNL     1      76.226  -4.756  24.946  1.00  0.00     0.103 C 
HETATM   28  C13 UNL     1      76.772  -1.579  25.243  1.00  0.00     0.028 C 
HETATM   29  C14 UNL     1      77.968  -2.359  24.809  1.00  0.00     0.093 C 
HETATM   30  C15 UNL     1      77.583  -3.029  23.486  1.00  0.00     0.103 C 
HETATM   31  C16 UNL     1      76.922  -4.318  23.695  1.00  0.00     0.130 C 
HETATM   32  O2  UNL     1      76.927  -5.125  22.779  1.00  0.00    -0.298 OA
ENDBRANCH   7  24
TORSDOF 5
ENDMDL
MODEL 3
REMARK VINA RESULT: -9.101642346      5.270      8.014
REMARK  5 active torsions:
REMARK  status: ('A' for Active; 'I' for Inactive)
REMARK    1  A    between atoms: C2_2  and  C4_4 
REMARK    2  A    between atoms: C7_7  and  O1_8 
REMARK    3  A    between atoms: O1_8  and  C8_9 
REMARK    4  A    between atoms: C10_15  and  N3_16 
REMARK    5  A    between atoms: C18_25  and  C19_26 
ROOT
HETATM    1  C8  UNL     1      77.020  -0.357  25.316  1.00  0.00     0.162 A 
HETATM    2  N1  UNL     1      76.149  -1.233  25.797  1.00  0.00    -0.332 N 
ATOM      3  H1  UNL     1      76.211  -2.196  25.470  1.00  0.00     0.168 HD
HETATM    4  C9  UNL     1      75.198  -0.938  26.680  1.00  0.00     0.184 A 
HETATM    5  N2  UNL     1      75.086   0.288  27.125  1.00  0.00    -0.338 N 
ATOM      6  H2  UNL     1      74.354   0.505  27.802  1.00  0.00     0.168 HD
HETATM    7  C10 UNL     1      75.942   1.308  26.697  1.00  0.00     0.124 A 
HETATM    8  C18 UNL     1      76.896   0.977  25.799  1.00  0.00     0.142 A 
ENDROOT
BRANCH   1   9
HETATM    9  O1  UNL     1      78.006  -0.607  24.417  1.00  0.00    -0.328 OA
BRANCH   9  10
HETATM   10  C7  UNL     1      78.706  -1.778  24.210  1.00  0.00     0.148 C 
HETATM   11  C6  UNL     1      77.854  -3.023  24.219  1.00  0.00     0.036 C 
HETATM   12  C5  UNL     1      78.210  -3.783  25.494  1.00  0.00     0.028 C 
HETATM   13  C4  UNL     1      79.633  -4.290  25.288  1.00  0.00     0.080 C 
HETATM   14  N4  UNL     1      80.505  -3.175  25.115  1.00  0.00    -0.414 N 
HETATM   15  C20 UNL     1      79.866  -1.893  25.174  1.00  0.00     0.146 C 
ATOM     16  H4  UNL     1      81.508  -3.282  24.960  1.00  0.00     0.153 HD
BRANCH  13  17
HETATM   17  C2  UNL     1      79.964  -5.145  26.489  1.00  0.00    -0.000 C 
HETATM   18  C1  UNL     1      81.237  -4.614  27.091  1.00  0.00     0.011 C 
HETATM   19  C3  UNL     1      78.881  -5.170  27.518  1.00  0.00     0.011 C 
ENDBRANCH  13  17
ENDBRANCH   9  10
ENDBRANCH   1   9
BRANCH   8  20
HETATM   20  C19 UNL     1      77.853   1.934  25.248  1.00  0.00     0.425 C 
HETATM   21  F1  UNL     1      79.162   1.407  25.300  1.00  0.00    -0.166 F 
HETATM   22  F2  UNL     1      77.873   3.165  25.758  1.00  0.00    -0.166 F 
HETATM   23  F3  UNL     1      77.571   2.114  23.860  1.00  0.00    -0.166 F 
ENDBRANCH   8  20
BRANCH   7  24
HETATM   24  N3  UNL     1      75.685   2.553  27.331  1.00  0.00    -0.356 N 
HETATM   25  C11 UNL     1      76.074   3.152  28.570  1.00  0.00     0.093 C 
HETATM   26  C12 UNL     1      76.050   4.640  28.344  1.00  0.00     0.028 C 
HETATM   27  C17 UNL     1      74.924   2.851  29.598  1.00  0.00     0.103 C 
HETATM   28  C13 UNL     1      75.279   4.839  27.068  1.00  0.00     0.028 C 
HETATM   29  C14 UNL     1      74.739   3.495  26.708  1.00  0.00     0.093 C 
HETATM   30  C15 UNL     1      73.427   3.342  27.482  1.00  0.00     0.103 C 
HETATM   31  C16 UNL     1      73.641   2.803  28.827  1.00  0.00     0.130 C 
HETATM   32  O2  UNL     1      72.704   2.260  29.389  1.00  0.00    -0.298 OA
ENDBRANCH   7  24
TORSDOF 5
ENDMDL
MODEL 4
REMARK VINA RESULT: -9.004258748      0.896      1.110
REMARK  5 active torsions:
REMARK  status: ('A' for Active; 'I' for Inactive)
REMARK    1  A    between atoms: C2_2  and  C4_4 
REMARK    2  A    between atoms: C7_7  and  O1_8 
REMARK    3  A    between atoms: O1_8  and  C8_9 
REMARK    4  A    between atoms: C10_15  and  N3_16 
REMARK    5  A    between atoms: C18_25  and  C19_26 
ROOT
HETATM    1  C8  UNL     1      80.958  -5.052  27.664  1.00  0.00     0.162 A 
HETATM    2  N1  UNL     1      81.680  -4.323  26.824  1.00  0.00    -0.332 N 
ATOM      3  H1  UNL     1      82.657  -4.151  27.060  1.00  0.00     0.168 HD
HETATM    4  C9  UNL     1      81.215  -3.801  25.692  1.00  0.00     0.184 A 
HETATM    5  N2  UNL     1      79.967  -4.000  25.353  1.00  0.00    -0.338 N 
ATOM      6  H2  UNL     1      79.618  -3.597  24.483  1.00  0.00     0.168 HD
HETATM    7  C10 UNL     1      79.097  -4.751  26.152  1.00  0.00     0.124 A 
HETATM    8  C18 UNL     1      79.600  -5.265  27.295  1.00  0.00     0.142 A 
ENDROOT
BRANCH   1   9
HETATM    9  O1  UNL     1      81.385  -5.605  28.828  1.00  0.00    -0.328 OA
BRANCH   9  10
HETATM   10  C7  UNL     1      82.553  -6.297  29.074  1.00  0.00     0.148 C 
HETATM   11  C6  UNL     1      83.067  -7.092  27.901  1.00  0.00     0.036 C 
HETATM   12  C5  UNL     1      82.872  -8.564  28.255  1.00  0.00     0.028 C 
HETATM   13  C4  UNL     1      83.860  -8.852  29.380  1.00  0.00     0.080 C 
HETATM   14  N4  UNL     1      83.547  -8.026  30.498  1.00  0.00    -0.414 N 
HETATM   15  C20 UNL     1      82.423  -7.156  30.313  1.00  0.00     0.146 C 
ATOM     16  H4  UNL     1      84.083  -8.052  31.366  1.00  0.00     0.153 HD
BRANCH  13  17
HETATM   17  C2  UNL     1      83.766 -10.333  29.667  1.00  0.00    -0.000 C 
HETATM   18  C1  UNL     1      82.530 -10.560  30.494  1.00  0.00     0.011 C 
HETATM   19  C3  UNL     1      83.722 -11.176  28.435  1.00  0.00     0.011 C 
ENDBRANCH  13  17
ENDBRANCH   9  10
ENDBRANCH   1   9
BRANCH   8  20
HETATM   20  C19 UNL     1      78.812  -6.057  28.239  1.00  0.00     0.425 C 
HETATM   21  F1  UNL     1      78.981  -7.436  27.986  1.00  0.00    -0.166 F 
HETATM   22  F2  UNL     1      77.508  -5.802  28.336  1.00  0.00    -0.166 F 
HETATM   23  F3  UNL     1      79.328  -5.846  29.553  1.00  0.00    -0.166 F 
ENDBRANCH   8  20
BRANCH   7  24
HETATM   24  N3  UNL     1      77.801  -4.887  25.587  1.00  0.00    -0.356 N 
HETATM   25  C11 UNL     1      77.231  -5.697  24.555  1.00  0.00     0.093 C 
HETATM   26  C12 UNL     1      75.774  -5.854  24.901  1.00  0.00     0.028 C 
HETATM   27  C17 UNL     1      77.274  -4.844  23.236  1.00  0.00     0.103 C 
HETATM   28  C13 UNL     1      75.492  -4.804  25.938  1.00  0.00     0.028 C 
HETATM   29  C14 UNL     1      76.729  -3.973  26.019  1.00  0.00     0.093 C 
HETATM   30  C15 UNL     1      76.608  -2.919  24.913  1.00  0.00     0.103 C 
HETATM   31  C16 UNL     1      77.120  -3.408  23.631  1.00  0.00     0.130 C 
HETATM   32  O2  UNL     1      77.459  -2.587  22.794  1.00  0.00    -0.298 OA
ENDBRANCH   7  24
TORSDOF 5
ENDMDL
MODEL 5
REMARK VINA RESULT: -9.001656276      5.119      7.654
REMARK  5 active torsions:
REMARK  status: ('A' for Active; 'I' for Inactive)
REMARK    1  A    between atoms: C2_2  and  C4_4 
REMARK    2  A    between atoms: C7_7  and  O1_8 
REMARK    3  A    between atoms: O1_8  and  C8_9 
REMARK    4  A    between atoms: C10_15  and  N3_16 
REMARK    5  A    between atoms: C18_25  and  C19_26 
ROOT
HETATM    1  C8  UNL     1      77.326   0.241  25.188  1.00  0.00     0.162 A 
HETATM    2  N1  UNL     1      78.221   1.181  24.917  1.00  0.00    -0.332 N 
ATOM      3  H1  UNL     1      79.020   0.925  24.338  1.00  0.00     0.168 HD
HETATM    4  C9  UNL     1      78.146   2.436  25.351  1.00  0.00     0.184 A 
HETATM    5  N2  UNL     1      77.136   2.804  26.097  1.00  0.00    -0.338 N 
ATOM      6  H2  UNL     1      77.086   3.769  26.425  1.00  0.00     0.168 HD
HETATM    7  C10 UNL     1      76.122   1.909  26.457  1.00  0.00     0.124 A 
HETATM    8  C18 UNL     1      76.228   0.642  26.002  1.00  0.00     0.142 A 
ENDROOT
BRANCH   1   9
HETATM    9  O1  UNL     1      77.356  -1.050  24.771  1.00  0.00    -0.328 OA
BRANCH   9  10
HETATM   10  C7  UNL     1      78.446  -1.805  24.387  1.00  0.00     0.148 C 
HETATM   11  C6  UNL     1      78.251  -3.294  24.520  1.00  0.00     0.036 C 
HETATM   12  C5  UNL     1      79.146  -3.748  25.670  1.00  0.00     0.028 C 
HETATM   13  C4  UNL     1      80.576  -3.589  25.168  1.00  0.00     0.080 C 
HETATM   14  N4  UNL     1      80.814  -2.216  24.865  1.00  0.00    -0.414 N 
HETATM   15  C20 UNL     1      79.700  -1.344  25.097  1.00  0.00     0.146 C 
ATOM     16  H4  UNL     1      81.710  -1.880  24.511  1.00  0.00     0.153 HD
BRANCH  13  17
HETATM   17  C2  UNL     1      81.476  -4.143  26.247  1.00  0.00    -0.000 C 
HETATM   18  C1  UNL     1      80.661  -5.096  27.077  1.00  0.00     0.011 C 
HETATM   19  C3  UNL     1      82.689  -4.833  25.715  1.00  0.00     0.011 C 
ENDBRANCH  13  17
ENDBRANCH   9  10
ENDBRANCH   1   9
BRANCH   8  20
HETATM   20  C19 UNL     1      75.258  -0.409  26.305  1.00  0.00     0.425 C 
HETATM   21  F1  UNL     1      74.999  -0.455  27.692  1.00  0.00    -0.166 F 
HETATM   22  F2  UNL     1      75.520  -1.645  25.882  1.00  0.00    -0.166 F 
HETATM   23  F3  UNL     1      74.012  -0.067  25.697  1.00  0.00    -0.166 F 
ENDBRANCH   8  20
BRANCH   7  24
HETATM   24  N3  UNL     1      75.095   2.514  27.230  1.00  0.00    -0.356 N 
HETATM   25  C11 UNL     1      74.001   3.389  26.943  1.00  0.00     0.093 C 
HETATM   26  C12 UNL     1      72.955   3.111  27.989  1.00  0.00     0.028 C 
HETATM   27  C17 UNL     1      74.509   4.851  27.216  1.00  0.00     0.103 C 
HETATM   28  C13 UNL     1      73.660   2.334  29.066  1.00  0.00     0.028 C 
HETATM   29  C14 UNL     1      75.106   2.350  28.694  1.00  0.00     0.093 C 
HETATM   30  C15 UNL     1      75.677   3.655  29.256  1.00  0.00     0.103 C 
HETATM   31  C16 UNL     1      75.511   4.773  28.326  1.00  0.00     0.130 C 
HETATM   32  O2  UNL     1      76.247   5.739  28.447  1.00  0.00    -0.298 OA
ENDBRANCH   7  24
TORSDOF 5
ENDMDL
