MODEL 1
REMARK VINA RESULT: -8.955490966      0.000      0.000
REMARK  5 active torsions:
REMARK  status: ('A' for Active; 'I' for Inactive)
REMARK    1  A    between atoms: O1_2  and  C2_3 
REMARK    2  A    between atoms: C4_5  and  C5_6 
REMARK       I    between atoms: C5_6  and  N1_8 
REMARK    3  A    between atoms: N2_11  and  C8_12 
REMARK    4  A    between atoms: C12_18  and  O3_19 
REMARK    5  A    between atoms: C16_26  and  O5_27 
ROOT
HETATM    1  C5  UNL     1      81.584  -6.101  29.456  1.00  0.00     0.277 C 
HETATM    2  O2  UNL     1      81.174  -5.904  30.629  1.00  0.00    -0.265 OA
HETATM    3  N1  UNL     1      81.047  -5.363  28.400  1.00  0.00    -0.343 N 
HETATM    4  C6  UNL     1      80.013  -4.368  28.670  1.00  0.00     0.146 C 
HETATM    5  C7  UNL     1      78.854  -4.741  27.772  1.00  0.00     0.143 C 
HETATM    6  N2  UNL     1      79.290  -4.579  26.398  1.00  0.00    -0.374 N 
HETATM    7  C14 UNL     1      80.692  -4.601  26.109  1.00  0.00     0.143 C 
HETATM    8  C15 UNL     1      81.469  -5.533  27.029  1.00  0.00     0.146 C 
ENDROOT
BRANCH   1   9
HETATM    9  C4  UNL     1      82.621  -7.100  29.182  1.00  0.00     0.148 A 
HETATM   10  C3  UNL     1      82.976  -8.107  30.087  1.00  0.00     0.085 A 
HETATM   11  C2  UNL     1      83.968  -8.808  29.440  1.00  0.00     0.129 A 
HETATM   12  C16 UNL     1      84.187  -8.235  28.206  1.00  0.00     0.220 A 
HETATM   13  O4  UNL     1      83.359  -7.230  28.112  1.00  0.00    -0.280 OA
BRANCH  11  14
HETATM   14  O1  UNL     1      84.618  -9.906  29.979  1.00  0.00    -0.351 OA
HETATM   15  C1  UNL     1      84.473 -11.212  29.493  1.00  0.00     0.210 C 
ENDBRANCH  11  14
BRANCH  12  16
HETATM   16  O5  UNL     1      85.123  -8.691  27.286  1.00  0.00    -0.333 OA
HETATM   17  C17 UNL     1      84.787  -9.535  26.205  1.00  0.00     0.212 C 
ENDBRANCH  12  16
ENDBRANCH   1   9
BRANCH   6  18
HETATM   18  C8  UNL     1      78.284  -4.406  25.418  1.00  0.00     0.094 A 
HETATM   19  C9  UNL     1      78.298  -3.275  24.644  1.00  0.00     0.065 A 
HETATM   20 CL1  UNL     1      79.565  -2.103  24.910  1.00  0.00    -0.082 Cl
HETATM   21  C10 UNL     1      77.338  -3.049  23.668  1.00  0.00     0.053 A 
HETATM   22  C11 UNL     1      76.354  -4.027  23.510  1.00  0.00     0.072 A 
HETATM   23 CL2  UNL     1      75.094  -3.830  22.299  1.00  0.00    -0.081 Cl
HETATM   24  C12 UNL     1      76.312  -5.174  24.272  1.00  0.00     0.128 A 
HETATM   25  C13 UNL     1      77.304  -5.356  25.245  1.00  0.00     0.179 A 
HETATM   26  F1  UNL     1      77.264  -6.487  25.997  1.00  0.00    -0.201 F 
BRANCH  24  27
HETATM   27  O3  UNL     1      75.342  -6.152  24.125  1.00  0.00    -0.356 OA
ATOM     28  H3  UNL     1      75.237  -6.671  23.337  1.00  0.00     0.218 HD
ENDBRANCH  24  27
ENDBRANCH   6  18
TORSDOF 5
ENDMDL
MODEL 2
REMARK VINA RESULT: -8.331998895      1.739      1.970
REMARK  5 active torsions:
REMARK  status: ('A' for Active; 'I' for Inactive)
REMARK    1  A    between atoms: O1_2  and  C2_3 
REMARK    2  A    between atoms: C4_5  and  C5_6 
REMARK       I    between atoms: C5_6  and  N1_8 
REMARK    3  A    between atoms: N2_11  and  C8_12 
REMARK    4  A    between atoms: C12_18  and  O3_19 
REMARK    5  A    between atoms: C16_26  and  O5_27 
ROOT
HETATM    1  C5  UNL     1      81.859  -6.260  29.711  1.00  0.00     0.277 C 
HETATM    2  O2  UNL     1      81.461  -6.083  30.891  1.00  0.00    -0.265 OA
HETATM    3  N1  UNL     1      81.351  -5.468  28.681  1.00  0.00    -0.343 N 
HETATM    4  C6  UNL     1      80.360  -4.439  28.987  1.00  0.00     0.146 C 
HETATM    5  C7  UNL     1      79.183  -4.735  28.081  1.00  0.00     0.143 C 
HETATM    6  N2  UNL     1      79.622  -4.549  26.712  1.00  0.00    -0.374 N 
HETATM    7  C14 UNL     1      81.022  -4.620  26.416  1.00  0.00     0.143 C 
HETATM    8  C15 UNL     1      81.762  -5.612  27.303  1.00  0.00     0.146 C 
ENDROOT
BRANCH   1   9
HETATM    9  C4  UNL     1      82.853  -7.292  29.402  1.00  0.00     0.148 A 
HETATM   10  C3  UNL     1      83.142  -8.361  30.258  1.00  0.00     0.085 A 
HETATM   11  C2  UNL     1      84.113  -9.074  29.591  1.00  0.00     0.129 A 
HETATM   12  C16 UNL     1      84.381  -8.449  28.393  1.00  0.00     0.220 A 
HETATM   13  O4  UNL     1      83.604  -7.402  28.339  1.00  0.00    -0.280 OA
BRANCH  11  14
HETATM   14  O1  UNL     1      84.699 -10.229  30.082  1.00  0.00    -0.351 OA
HETATM   15  C1  UNL     1      84.620 -11.474  29.444  1.00  0.00     0.210 C 
ENDBRANCH  11  14
BRANCH  12  16
HETATM   16  O5  UNL     1      85.313  -8.901  27.467  1.00  0.00    -0.333 OA
HETATM   17  C17 UNL     1      84.949  -9.582  26.284  1.00  0.00     0.212 C 
ENDBRANCH  12  16
ENDBRANCH   1   9
BRANCH   6  18
HETATM   18  C8  UNL     1      78.622  -4.303  25.742  1.00  0.00     0.094 A 
HETATM   19  C9  UNL     1      77.583  -5.188  25.618  1.00  0.00     0.065 A 
HETATM   20 CL1  UNL     1      77.550  -6.581  26.672  1.00  0.00    -0.082 Cl
HETATM   21  C10 UNL     1      76.573  -5.001  24.686  1.00  0.00     0.053 A 
HETATM   22  C11 UNL     1      76.663  -3.867  23.876  1.00  0.00     0.072 A 
HETATM   23 CL2  UNL     1      75.430  -3.543  22.664  1.00  0.00    -0.081 Cl
HETATM   24  C12 UNL     1      77.694  -2.958  23.975  1.00  0.00     0.128 A 
HETATM   25  C13 UNL     1      78.689  -3.192  24.933  1.00  0.00     0.179 A 
HETATM   26  F1  UNL     1      79.707  -2.296  25.031  1.00  0.00    -0.201 F 
BRANCH  24  27
HETATM   27  O3  UNL     1      77.794  -1.829  23.178  1.00  0.00    -0.356 OA
ATOM     28  H3  UNL     1      78.380  -1.765  22.433  1.00  0.00     0.218 HD
ENDBRANCH  24  27
ENDBRANCH   6  18
TORSDOF 5
ENDMDL
MODEL 3
REMARK VINA RESULT: -7.974766912      6.181      8.806
REMARK  5 active torsions:
REMARK  status: ('A' for Active; 'I' for Inactive)
REMARK    1  A    between atoms: O1_2  and  C2_3 
REMARK    2  A    between atoms: C4_5  and  C5_6 
REMARK       I    between atoms: C5_6  and  N1_8 
REMARK    3  A    between atoms: N2_11  and  C8_12 
REMARK    4  A    between atoms: C12_18  and  O3_19 
REMARK    5  A    between atoms: C16_26  and  O5_27 
ROOT
HETATM    1  C5  UNL     1      77.841  -1.538  24.784  1.00  0.00     0.277 C 
HETATM    2  O2  UNL     1      78.790  -1.330  23.985  1.00  0.00    -0.265 OA
HETATM    3  N1  UNL     1      77.466  -2.847  25.089  1.00  0.00    -0.343 N 
HETATM    4  C6  UNL     1      78.181  -3.962  24.475  1.00  0.00     0.146 C 
HETATM    5  C7  UNL     1      77.115  -4.802  23.806  1.00  0.00     0.143 C 
HETATM    6  N2  UNL     1      76.254  -5.333  24.845  1.00  0.00    -0.374 N 
HETATM    7  C14 UNL     1      76.210  -4.671  26.114  1.00  0.00     0.143 C 
HETATM    8  C15 UNL     1      76.389  -3.163  25.998  1.00  0.00     0.146 C 
ENDROOT
BRANCH   1   9
HETATM    9  C4  UNL     1      77.122  -0.420  25.401  1.00  0.00     0.148 A 
HETATM   10  C3  UNL     1      77.520   0.916  25.271  1.00  0.00     0.085 A 
HETATM   11  C2  UNL     1      76.582   1.619  25.992  1.00  0.00     0.129 A 
HETATM   12  C16 UNL     1      75.672   0.732  26.524  1.00  0.00     0.220 A 
HETATM   13  O4  UNL     1      76.045  -0.458  26.138  1.00  0.00    -0.280 OA
BRANCH  11  14
HETATM   14  O1  UNL     1      76.590   2.997  26.135  1.00  0.00    -0.351 OA
HETATM   15  C1  UNL     1      77.727   3.736  26.486  1.00  0.00     0.210 C 
ENDBRANCH  11  14
BRANCH  12  16
HETATM   16  O5  UNL     1      74.588   1.102  27.311  1.00  0.00    -0.333 OA
HETATM   17  C17 UNL     1      73.732   0.162  27.928  1.00  0.00     0.212 C 
ENDBRANCH  12  16
ENDBRANCH   1   9
BRANCH   6  18
HETATM   18  C8  UNL     1      75.505  -6.492  24.532  1.00  0.00     0.094 A 
HETATM   19  C9  UNL     1      74.804  -6.533  23.355  1.00  0.00     0.065 A 
HETATM   20 CL1  UNL     1      74.875  -5.144  22.299  1.00  0.00    -0.082 Cl
HETATM   21  C10 UNL     1      74.051  -7.641  22.995  1.00  0.00     0.053 A 
HETATM   22  C11 UNL     1      74.038  -8.715  23.887  1.00  0.00     0.072 A 
HETATM   23 CL2  UNL     1      73.112 -10.164  23.518  1.00  0.00    -0.081 Cl
HETATM   24  C12 UNL     1      74.731  -8.705  25.078  1.00  0.00     0.128 A 
HETATM   25  C13 UNL     1      75.477  -7.562  25.396  1.00  0.00     0.179 A 
HETATM   26  F1  UNL     1      76.161  -7.552  26.571  1.00  0.00    -0.201 F 
BRANCH  24  27
HETATM   27  O3  UNL     1      74.727  -9.763  25.971  1.00  0.00    -0.356 OA
ATOM     28  H3  UNL     1      75.198  -9.754  26.796  1.00  0.00     0.218 HD
ENDBRANCH  24  27
ENDBRANCH   6  18
TORSDOF 5
ENDMDL
MODEL 4
REMARK VINA RESULT: -7.967836629      7.008      9.492
REMARK  5 active torsions:
REMARK  status: ('A' for Active; 'I' for Inactive)
REMARK    1  A    between atoms: O1_2  and  C2_3 
REMARK    2  A    between atoms: C4_5  and  C5_6 
REMARK       I    between atoms: C5_6  and  N1_8 
REMARK    3  A    between atoms: N2_11  and  C8_12 
REMARK    4  A    between atoms: C12_18  and  O3_19 
REMARK    5  A    between atoms: C16_26  and  O5_27 
ROOT
HETATM    1  C5  UNL     1      77.458   0.246  25.190  1.00  0.00     0.277 C 
HETATM    2  O2  UNL     1      78.431   0.735  24.560  1.00  0.00    -0.265 OA
HETATM    3  N1  UNL     1      77.273  -1.138  25.214  1.00  0.00    -0.343 N 
HETATM    4  C6  UNL     1      78.212  -2.001  24.503  1.00  0.00     0.146 C 
HETATM    5  C7  UNL     1      77.361  -2.840  23.574  1.00  0.00     0.143 C 
HETATM    6  N2  UNL     1      76.506  -3.677  24.393  1.00  0.00    -0.374 N 
HETATM    7  C14 UNL     1      76.239  -3.284  25.744  1.00  0.00     0.143 C 
HETATM    8  C15 UNL     1      76.183  -1.772  25.917  1.00  0.00     0.146 C 
ENDROOT
BRANCH   1   9
HETATM    9  C4  UNL     1      76.515   1.110  25.904  1.00  0.00     0.148 A 
HETATM   10  C3  UNL     1      76.821   2.417  26.303  1.00  0.00     0.085 A 
HETATM   11  C2  UNL     1      75.674   2.856  26.925  1.00  0.00     0.129 A 
HETATM   12  C16 UNL     1      74.734   1.849  26.892  1.00  0.00     0.220 A 
HETATM   13  O4  UNL     1      75.291   0.843  26.274  1.00  0.00    -0.280 OA
BRANCH  11  14
HETATM   14  O1  UNL     1      75.531   4.116  27.483  1.00  0.00    -0.351 OA
HETATM   15  C1  UNL     1      76.044   4.476  28.736  1.00  0.00     0.210 C 
ENDBRANCH  11  14
BRANCH  12  16
HETATM   16  O5  UNL     1      73.458   1.953  27.431  1.00  0.00    -0.333 OA
HETATM   17  C17 UNL     1      73.200   1.850  28.816  1.00  0.00     0.212 C 
ENDBRANCH  12  16
ENDBRANCH   1   9
BRANCH   6  18
HETATM   18  C8  UNL     1      75.985  -4.848  23.794  1.00  0.00     0.094 A 
HETATM   19  C9  UNL     1      76.210  -6.059  24.395  1.00  0.00     0.065 A 
HETATM   20 CL1  UNL     1      77.133  -6.091  25.878  1.00  0.00    -0.082 Cl
HETATM   21  C10 UNL     1      75.725  -7.241  23.855  1.00  0.00     0.053 A 
HETATM   22  C11 UNL     1      74.996  -7.142  22.668  1.00  0.00     0.072 A 
HETATM   23 CL2  UNL     1      74.341  -8.586  21.906  1.00  0.00    -0.081 Cl
HETATM   24  C12 UNL     1      74.753  -5.941  22.039  1.00  0.00     0.128 A 
HETATM   25  C13 UNL     1      75.264  -4.775  22.625  1.00  0.00     0.179 A 
HETATM   26  F1  UNL     1      75.024  -3.589  22.005  1.00  0.00    -0.201 F 
BRANCH  24  27
HETATM   27  O3  UNL     1      74.031  -5.829  20.862  1.00  0.00    -0.356 OA
ATOM     28  H3  UNL     1      74.292  -6.242  20.047  1.00  0.00     0.218 HD
ENDBRANCH  24  27
ENDBRANCH   6  18
TORSDOF 5
ENDMDL
MODEL 5
REMARK VINA RESULT: -7.882054277      4.409      9.069
REMARK  5 active torsions:
REMARK  status: ('A' for Active; 'I' for Inactive)
REMARK    1  A    between atoms: O1_2  and  C2_3 
REMARK    2  A    between atoms: C4_5  and  C5_6 
REMARK       I    between atoms: C5_6  and  N1_8 
REMARK    3  A    between atoms: N2_11  and  C8_12 
REMARK    4  A    between atoms: C12_18  and  O3_19 
REMARK    5  A    between atoms: C16_26  and  O5_27 
ROOT
HETATM    1  C5  UNL     1      77.857  -2.214  24.517  1.00  0.00     0.277 C 
HETATM    2  O2  UNL     1      76.946  -2.824  23.901  1.00  0.00    -0.265 OA
HETATM    3  N1  UNL     1      78.995  -2.906  24.937  1.00  0.00    -0.343 N 
HETATM    4  C6  UNL     1      79.113  -4.334  24.654  1.00  0.00     0.146 C 
HETATM    5  C7  UNL     1      79.360  -4.988  25.996  1.00  0.00     0.143 C 
HETATM    6  N2  UNL     1      80.639  -4.516  26.489  1.00  0.00    -0.374 N 
HETATM    7  C14 UNL     1      81.167  -3.286  25.981  1.00  0.00     0.143 C 
HETATM    8  C15 UNL     1      80.082  -2.272  25.646  1.00  0.00     0.146 C 
ENDROOT
BRANCH   1   9
HETATM    9  C4  UNL     1      77.741  -0.781  24.802  1.00  0.00     0.148 A 
HETATM   10  C3  UNL     1      76.765  -0.244  25.650  1.00  0.00     0.085 A 
HETATM   11  C2  UNL     1      77.014   1.110  25.635  1.00  0.00     0.129 A 
HETATM   12  C16 UNL     1      78.091   1.356  24.813  1.00  0.00     0.220 A 
HETATM   13  O4  UNL     1      78.477   0.198  24.351  1.00  0.00    -0.280 OA
BRANCH  11  14
HETATM   14  O1  UNL     1      76.275   2.040  26.348  1.00  0.00    -0.351 OA
HETATM   15  C1  UNL     1      75.154   1.715  27.123  1.00  0.00     0.210 C 
ENDBRANCH  11  14
BRANCH  12  16
HETATM   16  O5  UNL     1      78.615   2.620  24.567  1.00  0.00    -0.333 OA
HETATM   17  C17 UNL     1      79.354   2.931  23.404  1.00  0.00     0.212 C 
ENDBRANCH  12  16
ENDBRANCH   1   9
BRANCH   6  18
HETATM   18  C8  UNL     1      81.293  -5.317  27.456  1.00  0.00     0.094 A 
HETATM   19  C9  UNL     1      80.761  -5.406  28.716  1.00  0.00     0.065 A 
HETATM   20 CL1  UNL     1      79.296  -4.521  29.062  1.00  0.00    -0.082 Cl
HETATM   21  C10 UNL     1      81.357  -6.175  29.705  1.00  0.00     0.053 A 
HETATM   22  C11 UNL     1      82.527  -6.855  29.359  1.00  0.00     0.072 A 
HETATM   23 CL2  UNL     1      83.356  -7.855  30.545  1.00  0.00    -0.081 Cl
HETATM   24  C12 UNL     1      83.087  -6.786  28.101  1.00  0.00     0.128 A 
HETATM   25  C13 UNL     1      82.446  -5.996  27.138  1.00  0.00     0.179 A 
HETATM   26  F1  UNL     1      82.998  -5.927  25.897  1.00  0.00    -0.201 F 
BRANCH  24  27
HETATM   27  O3  UNL     1      84.246  -7.455  27.745  1.00  0.00    -0.356 OA
ATOM     28  H3  UNL     1      84.648  -8.128  28.282  1.00  0.00     0.218 HD
ENDBRANCH  24  27
ENDBRANCH   6  18
TORSDOF 5
ENDMDL
