MODEL 1
REMARK VINA RESULT: -8.698508640      0.000      0.000
REMARK  3 active torsions:
REMARK  status: ('A' for Active; 'I' for Inactive)
REMARK    1  A    between atoms: C3_4  and  C4_5 
REMARK    2  A    between atoms: N4_14  and  C7_16 
REMARK    3  A    between atoms: C7_16  and  C8_17 
ROOT
HETATM    1  N1  UNL     1      23.603  21.283  49.208  1.00  0.00    -0.191 NA
HETATM    2  C1  UNL     1      23.306  22.298  48.755  1.00  0.00     0.105 C 
HETATM    3  C2  UNL     1      22.925  23.548  48.166  1.00  0.00     0.119 A 
HETATM    4  C3  UNL     1      23.119  24.805  48.687  1.00  0.00     0.090 A 
HETATM    5  N2  UNL     1      22.587  25.657  47.761  1.00  0.00    -0.296 N 
ATOM      6  H2  UNL     1      22.567  26.674  47.843  1.00  0.00     0.187 HD
HETATM    7  N3  UNL     1      22.097  24.963  46.737  1.00  0.00    -0.284 N 
ATOM      8  H3  UNL     1      21.648  25.373  45.919  1.00  0.00     0.188 HD
HETATM    9  C6  UNL     1      22.277  23.661  46.929  1.00  0.00     0.139 A 
HETATM   10  N4  UNL     1      21.942  22.680  46.171  1.00  0.00    -0.368 N 
ATOM     11  H4  UNL     1      22.151  21.726  46.465  1.00  0.00     0.161 HD
ENDROOT
BRANCH   4  12
HETATM   12  C4  UNL     1      23.760  25.190  49.967  1.00  0.00     0.048 A 
HETATM   13  C5  UNL     1      25.004  25.054  50.485  1.00  0.00     0.079 A 
HETATM   14  S1  UNL     1      25.001  25.746  52.022  1.00  0.00    -0.063 SA
HETATM   15  S2  UNL     1      23.162  25.976  51.321  1.00  0.00    -0.050 SA
ENDBRANCH   4  12
BRANCH  10  16
HETATM   16  C7  UNL     1      21.279  22.900  44.918  1.00  0.00     0.179 C 
BRANCH  16  17
HETATM   17  C8  UNL     1      19.811  22.806  45.168  1.00  0.00     0.045 A 
HETATM   18  C9  UNL     1      19.007  21.859  44.567  1.00  0.00     0.055 A 
HETATM   19  C10 UNL     1      17.747  22.095  45.043  1.00  0.00     0.030 A 
HETATM   20  N5  UNL     1      17.801  23.130  45.884  1.00  0.00    -0.296 N 
HETATM   21  C15 UNL     1      16.560  21.307  44.659  1.00  0.00     0.059 C 
HETATM   22  N6  UNL     1      19.035  23.559  45.962  1.00  0.00    -0.301 N 
HETATM   23  C11 UNL     1      16.742  23.785  46.660  1.00  0.00     0.148 C 
ATOM     24  H6  UNL     1      19.355  24.341  46.534  1.00  0.00     0.187 HD
HETATM   25  C12 UNL     1      15.511  22.910  46.704  1.00  0.00     0.022 C 
HETATM   26  C13 UNL     1      14.759  22.895  45.416  1.00  0.00     0.002 C 
HETATM   27  C14 UNL     1      15.475  22.279  44.267  1.00  0.00     0.006 C 
ENDBRANCH  16  17
ENDBRANCH  10  16
TORSDOF 3
ENDMDL
MODEL 2
REMARK VINA RESULT: -8.263064028      1.170      2.103
REMARK  3 active torsions:
REMARK  status: ('A' for Active; 'I' for Inactive)
REMARK    1  A    between atoms: C3_4  and  C4_5 
REMARK    2  A    between atoms: N4_14  and  C7_16 
REMARK    3  A    between atoms: C7_16  and  C8_17 
ROOT
HETATM    1  N1  UNL     1      23.063  25.779  48.072  1.00  0.00    -0.191 NA
HETATM    2  C1  UNL     1      23.053  24.635  48.191  1.00  0.00     0.105 C 
HETATM    3  C2  UNL     1      23.025  23.207  48.313  1.00  0.00     0.119 A 
HETATM    4  C3  UNL     1      23.593  22.447  49.307  1.00  0.00     0.090 A 
HETATM    5  N2  UNL     1      23.292  21.155  48.979  1.00  0.00    -0.296 N 
ATOM      6  H2  UNL     1      23.570  20.333  49.517  1.00  0.00     0.187 HD
HETATM    7  N3  UNL     1      22.583  21.128  47.853  1.00  0.00    -0.284 N 
ATOM      8  H3  UNL     1      22.238  20.280  47.404  1.00  0.00     0.188 HD
HETATM    9  C6  UNL     1      22.387  22.360  47.398  1.00  0.00     0.139 A 
HETATM   10  N4  UNL     1      21.754  22.740  46.346  1.00  0.00    -0.368 N 
ATOM     11  H4  UNL     1      21.693  23.734  46.131  1.00  0.00     0.161 HD
ENDROOT
BRANCH   4  12
HETATM   12  C4  UNL     1      24.369  22.894  50.488  1.00  0.00     0.048 A 
HETATM   13  C5  UNL     1      25.654  22.747  50.892  1.00  0.00     0.079 A 
HETATM   14  S1  UNL     1      25.824  23.540  52.368  1.00  0.00    -0.063 SA
HETATM   15  S2  UNL     1      23.933  23.790  51.835  1.00  0.00    -0.050 SA
ENDBRANCH   4  12
BRANCH  10  16
HETATM   16  C7  UNL     1      21.132  21.790  45.468  1.00  0.00     0.179 C 
BRANCH  16  17
HETATM   17  C8  UNL     1      19.664  22.055  45.495  1.00  0.00     0.045 A 
HETATM   18  C9  UNL     1      18.747  21.258  44.839  1.00  0.00     0.055 A 
HETATM   19  C10 UNL     1      17.526  21.817  45.099  1.00  0.00     0.030 A 
HETATM   20  N5  UNL     1      17.710  22.892  45.870  1.00  0.00    -0.296 N 
HETATM   21  C15 UNL     1      16.249  21.283  44.589  1.00  0.00     0.059 C 
HETATM   22  N6  UNL     1      18.989  23.037  46.109  1.00  0.00    -0.301 N 
HETATM   23  C11 UNL     1      16.742  23.841  46.430  1.00  0.00     0.148 C 
ATOM     24  H6  UNL     1      19.405  23.780  46.672  1.00  0.00     0.187 HD
HETATM   25  C12 UNL     1      15.344  23.275  46.340  1.00  0.00     0.022 C 
HETATM   26  C13 UNL     1      14.791  23.303  44.955  1.00  0.00     0.002 C 
HETATM   27  C14 UNL     1      15.489  22.430  43.972  1.00  0.00     0.006 C 
ENDBRANCH  16  17
ENDBRANCH  10  16
TORSDOF 3
ENDMDL
MODEL 3
REMARK VINA RESULT: -8.033476158      1.072      1.340
REMARK  3 active torsions:
REMARK  status: ('A' for Active; 'I' for Inactive)
REMARK    1  A    between atoms: C3_4  and  C4_5 
REMARK    2  A    between atoms: N4_14  and  C7_16 
REMARK    3  A    between atoms: C7_16  and  C8_17 
ROOT
HETATM    1  N1  UNL     1      23.630  21.252  49.000  1.00  0.00    -0.191 NA
HETATM    2  C1  UNL     1      23.405  22.346  48.722  1.00  0.00     0.105 C 
HETATM    3  C2  UNL     1      23.118  23.699  48.349  1.00  0.00     0.119 A 
HETATM    4  C3  UNL     1      23.214  24.818  49.142  1.00  0.00     0.090 A 
HETATM    5  N2  UNL     1      22.836  25.855  48.336  1.00  0.00    -0.296 N 
ATOM      6  H2  UNL     1      22.796  26.834  48.621  1.00  0.00     0.187 HD
HETATM    7  N3  UNL     1      22.529  25.397  47.125  1.00  0.00    -0.284 N 
ATOM      8  H3  UNL     1      22.219  25.978  46.346  1.00  0.00     0.188 HD
HETATM    9  C6  UNL     1      22.684  24.080  47.072  1.00  0.00     0.139 A 
HETATM   10  N4  UNL     1      22.488  23.283  46.084  1.00  0.00    -0.368 N 
ATOM     11  H4  UNL     1      22.652  22.284  46.206  1.00  0.00     0.161 HD
ENDROOT
BRANCH   4  12
HETATM   12  C4  UNL     1      23.629  24.917  50.561  1.00  0.00     0.048 A 
HETATM   13  C5  UNL     1      24.491  24.229  51.349  1.00  0.00     0.079 A 
HETATM   14  S1  UNL     1      24.447  24.918  52.886  1.00  0.00    -0.063 SA
HETATM   15  S2  UNL     1      23.171  25.962  51.787  1.00  0.00    -0.050 SA
ENDBRANCH   4  12
BRANCH  10  16
HETATM   16  C7  UNL     1      22.041  23.772  44.811  1.00  0.00     0.179 C 
BRANCH  16  17
HETATM   17  C8  UNL     1      20.623  23.338  44.640  1.00  0.00     0.045 A 
HETATM   18  C9  UNL     1      20.040  23.157  43.403  1.00  0.00     0.055 A 
HETATM   19  C10 UNL     1      18.755  22.764  43.659  1.00  0.00     0.030 A 
HETATM   20  N5  UNL     1      18.586  22.715  44.983  1.00  0.00    -0.296 N 
HETATM   21  C15 UNL     1      17.761  22.458  42.613  1.00  0.00     0.059 C 
HETATM   22  N6  UNL     1      19.702  23.058  45.574  1.00  0.00    -0.301 N 
HETATM   23  C11 UNL     1      17.409  22.356  45.781  1.00  0.00     0.148 C 
ATOM     24  H6  UNL     1      19.848  23.105  46.582  1.00  0.00     0.187 HD
HETATM   25  C12 UNL     1      16.387  21.653  44.918  1.00  0.00     0.022 C 
HETATM   26  C13 UNL     1      15.663  22.577  43.999  1.00  0.00     0.002 C 
HETATM   27  C14 UNL     1      16.500  23.214  42.946  1.00  0.00     0.006 C 
ENDBRANCH  16  17
ENDBRANCH  10  16
TORSDOF 3
ENDMDL
MODEL 4
REMARK VINA RESULT: -7.953440643      3.676      8.031
REMARK  3 active torsions:
REMARK  status: ('A' for Active; 'I' for Inactive)
REMARK    1  A    between atoms: C3_4  and  C4_5 
REMARK    2  A    between atoms: N4_14  and  C7_16 
REMARK    3  A    between atoms: C7_16  and  C8_17 
ROOT
HETATM    1  N1  UNL     1      23.037  20.822  46.230  1.00  0.00    -0.191 NA
HETATM    2  C1  UNL     1      22.511  21.843  46.311  1.00  0.00     0.105 C 
HETATM    3  C2  UNL     1      21.883  23.125  46.423  1.00  0.00     0.119 A 
HETATM    4  C3  UNL     1      20.593  23.452  46.077  1.00  0.00     0.090 A 
HETATM    5  N2  UNL     1      20.474  24.781  46.369  1.00  0.00    -0.296 N 
ATOM      6  H2  UNL     1      19.632  25.340  46.230  1.00  0.00     0.187 HD
HETATM    7  N3  UNL     1      21.622  25.239  46.864  1.00  0.00    -0.284 N 
ATOM      8  H3  UNL     1      21.785  26.202  47.158  1.00  0.00     0.188 HD
HETATM    9  C6  UNL     1      22.525  24.267  46.921  1.00  0.00     0.139 A 
HETATM   10  N4  UNL     1      23.740  24.317  47.336  1.00  0.00    -0.368 N 
ATOM     11  H4  UNL     1      24.311  23.473  47.314  1.00  0.00     0.161 HD
ENDROOT
BRANCH   4  12
HETATM   12  C4  UNL     1      19.536  22.582  45.509  1.00  0.00     0.048 A 
HETATM   13  C5  UNL     1      18.803  21.545  45.982  1.00  0.00     0.079 A 
HETATM   14  S1  UNL     1      17.774  21.036  44.749  1.00  0.00    -0.063 SA
HETATM   15  S2  UNL     1      18.814  22.546  43.998  1.00  0.00    -0.050 SA
ENDBRANCH   4  12
BRANCH  10  16
HETATM   16  C7  UNL     1      24.307  25.539  47.830  1.00  0.00     0.179 C 
BRANCH  16  17
HETATM   17  C8  UNL     1      24.338  25.446  49.319  1.00  0.00     0.045 A 
HETATM   18  C9  UNL     1      23.261  25.787  50.113  1.00  0.00     0.055 A 
HETATM   19  C10 UNL     1      23.673  25.568  51.398  1.00  0.00     0.030 A 
HETATM   20  N5  UNL     1      24.931  25.121  51.368  1.00  0.00    -0.296 N 
HETATM   21  C15 UNL     1      22.829  25.805  52.586  1.00  0.00     0.059 C 
HETATM   22  N6  UNL     1      25.332  25.046  50.125  1.00  0.00    -0.301 N 
HETATM   23  C11 UNL     1      25.833  24.738  52.459  1.00  0.00     0.148 C 
ATOM     24  H6  UNL     1      26.254  24.734  49.818  1.00  0.00     0.187 HD
HETATM   25  C12 UNL     1      25.053  24.550  53.740  1.00  0.00     0.022 C 
HETATM   26  C13 UNL     1      24.621  25.838  54.355  1.00  0.00     0.002 C 
HETATM   27  C14 UNL     1      23.635  26.623  53.563  1.00  0.00     0.006 C 
ENDBRANCH  16  17
ENDBRANCH  10  16
TORSDOF 3
ENDMDL
MODEL 5
REMARK VINA RESULT: -7.831457687      1.700      2.201
REMARK  3 active torsions:
REMARK  status: ('A' for Active; 'I' for Inactive)
REMARK    1  A    between atoms: C3_4  and  C4_5 
REMARK    2  A    between atoms: N4_14  and  C7_16 
REMARK    3  A    between atoms: C7_16  and  C8_17 
ROOT
HETATM    1  N1  UNL     1      22.722  20.245  46.297  1.00  0.00    -0.191 NA
HETATM    2  C1  UNL     1      22.374  21.341  46.314  1.00  0.00     0.105 C 
HETATM    3  C2  UNL     1      21.922  22.700  46.311  1.00  0.00     0.119 A 
HETATM    4  C3  UNL     1      22.270  23.693  47.196  1.00  0.00     0.090 A 
HETATM    5  N2  UNL     1      21.583  24.798  46.775  1.00  0.00    -0.296 N 
ATOM      6  H2  UNL     1      21.620  25.715  47.219  1.00  0.00     0.187 HD
HETATM    7  N3  UNL     1      20.861  24.497  45.698  1.00  0.00    -0.284 N 
ATOM      8  H3  UNL     1      20.262  25.154  45.199  1.00  0.00     0.188 HD
HETATM    9  C6  UNL     1      21.029  23.223  45.366  1.00  0.00     0.139 A 
HETATM   10  N4  UNL     1      20.503  22.566  44.395  1.00  0.00    -0.368 N 
ATOM     11  H4  UNL     1      20.735  21.580  44.274  1.00  0.00     0.161 HD
ENDROOT
BRANCH   4  12
HETATM   12  C4  UNL     1      23.183  23.620  48.360  1.00  0.00     0.048 A 
HETATM   13  C5  UNL     1      23.921  24.525  49.048  1.00  0.00     0.079 A 
HETATM   14  S1  UNL     1      24.729  23.705  50.278  1.00  0.00    -0.063 SA
HETATM   15  S2  UNL     1      23.673  22.332  49.314  1.00  0.00    -0.050 SA
ENDBRANCH   4  12
BRANCH  10  16
HETATM   16  C7  UNL     1      19.596  23.193  43.477  1.00  0.00     0.179 C 
BRANCH  16  17
HETATM   17  C8  UNL     1      18.229  23.095  44.066  1.00  0.00     0.045 A 
HETATM   18  C9  UNL     1      17.137  22.640  43.354  1.00  0.00     0.055 A 
HETATM   19  C10 UNL     1      16.084  22.697  44.224  1.00  0.00     0.030 A 
HETATM   20  N5  UNL     1      16.529  23.163  45.394  1.00  0.00    -0.296 N 
HETATM   21  C15 UNL     1      14.706  22.300  43.879  1.00  0.00     0.059 C 
HETATM   22  N6  UNL     1      17.812  23.402  45.303  1.00  0.00    -0.301 N 
HETATM   23  C11 UNL     1      15.819  23.415  46.652  1.00  0.00     0.148 C 
ATOM     24  H6  UNL     1      18.402  23.764  46.053  1.00  0.00     0.187 HD
HETATM   25  C12 UNL     1      14.472  22.731  46.638  1.00  0.00     0.022 C 
HETATM   26  C13 UNL     1      13.476  23.420  45.768  1.00  0.00     0.002 C 
HETATM   27  C14 UNL     1      13.787  23.414  44.313  1.00  0.00     0.006 C 
ENDBRANCH  16  17
ENDBRANCH  10  16
TORSDOF 3
ENDMDL
