MODEL 1
REMARK VINA RESULT: -9.200026685      0.000      0.000
REMARK  8 active torsions:
REMARK  status: ('A' for Active; 'I' for Inactive)
REMARK    1  A    between atoms: C2_3  and  C3_4 
REMARK    2  A    between atoms: C2_3  and  N12_35 
REMARK    3  A    between atoms: C3_4  and  C4_5 
REMARK    4  A    between atoms: C4_5  and  N2_6 
REMARK    5  A    between atoms: N2_6  and  C5_8 
REMARK    6  A    between atoms: C8_17  and  N6_18 
REMARK    7  A    between atoms: C9_23  and  N8_24 
REMARK    8  A    between atoms: C13_39  and  C14_40 
ROOT
HETATM    1  N1  UNL     1      18.329   5.159  14.687  1.00  0.00    -0.195 NA
HETATM    2  C1  UNL     1      17.470   5.038  15.461  1.00  0.00     0.086 C 
HETATM    3  C2  UNL     1      16.388   4.875  16.432  1.00  0.00     0.215 C 
ENDROOT
BRANCH   3   4
HETATM    4  C3  UNL     1      16.489   5.944  17.497  1.00  0.00     0.061 C 
BRANCH   4   5
HETATM    5  C4  UNL     1      17.812   6.640  17.491  1.00  0.00     0.124 C 
BRANCH   5   6
HETATM    6  N2  UNL     1      17.732   7.998  17.969  1.00  0.00    -0.374 N 
ATOM      7  H2  UNL     1      16.815   8.382  18.195  1.00  0.00     0.161 HD
BRANCH   6   8
HETATM    8  C5  UNL     1      18.870   8.821  18.140  1.00  0.00     0.131 A 
HETATM    9  N3  UNL     1      20.120   8.313  18.255  1.00  0.00    -0.306 N 
HETATM   10  C6  UNL     1      21.210   9.085  18.418  1.00  0.00     0.277 A 
ATOM     11  H3  UNL     1      20.241   7.301  18.216  1.00  0.00     0.170 HD
HETATM   12  O1  UNL     1      22.367   8.571  18.522  1.00  0.00    -0.266 OA
HETATM   13  C7  UNL     1      21.116  10.465  18.480  1.00  0.00     0.147 A 
HETATM   14  N4  UNL     1      22.186  11.263  18.643  1.00  0.00    -0.257 N 
HETATM   15  C11 UNL     1      19.843  10.994  18.364  1.00  0.00     0.111 A 
HETATM   16  N5  UNL     1      21.971  12.579  18.688  1.00  0.00     0.091 N 
ATOM     17  H4  UNL     1      23.126  10.877  18.729  1.00  0.00     0.189 HD
HETATM   18  C8  UNL     1      23.016  13.439  18.851  1.00  0.00     0.726 A 
HETATM   19  C10 UNL     1      20.756  13.127  18.579  1.00  0.00     0.733 A 
HETATM   20  N7  UNL     1      22.838  14.770  18.900  1.00  0.00    -0.020 N 
HETATM   21  C9  UNL     1      21.590  15.254  18.785  1.00  0.00     0.705 A 
ATOM     22  H7  UNL     1      23.631  15.399  19.023  1.00  0.00     0.203 HD
HETATM   23  N9  UNL     1      20.537  14.458  18.624  1.00  0.00    -0.020 N 
ATOM     24  H9  UNL     1      19.595  14.841  18.538  1.00  0.00     0.203 HD
HETATM   25  N10 UNL     1      19.669  12.321  18.414  1.00  0.00    -0.184 N 
ATOM     26  H10 UNL     1      18.735  12.723  18.330  1.00  0.00     0.184 HD
HETATM   27  C12 UNL     1      18.739  10.185  18.197  1.00  0.00     0.119 A 
HETATM   28  N11 UNL     1      17.426  10.735  18.077  1.00  0.00    -0.096 NA
BRANCH  18  29
HETATM   29  N6  UNL     1      24.210  12.964  18.960  1.00  0.00    -0.232 N 
ATOM     30  H62 UNL     1      24.428  12.069  18.523  1.00  0.00     0.174 HD
ATOM     31  H61 UNL     1      24.910  13.494  19.480  1.00  0.00     0.174 HD
ENDBRANCH  18  29
BRANCH  21  32
HETATM   32  N8  UNL     1      21.404  16.528  18.831  1.00  0.00    -0.234 N 
ATOM     33  H82 UNL     1      21.990  17.088  19.449  1.00  0.00     0.174 HD
ATOM     34  H81 UNL     1      20.677  16.945  18.250  1.00  0.00     0.174 HD
ENDBRANCH  21  32
ENDBRANCH   6   8
ENDBRANCH   5   6
ENDBRANCH   4   5
ENDBRANCH   3   4
BRANCH   3  35
HETATM   35  N12 UNL     1      15.106   5.013  15.735  1.00  0.00    -0.242 N 
HETATM   36  N13 UNL     1      14.673   6.092  15.091  1.00  0.00    -0.017 NA
HETATM   37  N14 UNL     1      13.464   5.860  14.577  1.00  0.00    -0.276 N 
HETATM   38  C13 UNL     1      13.095   4.605  14.888  1.00  0.00     0.153 A 
ATOM     39  H14 UNL     1      12.910   6.526  14.038  1.00  0.00     0.184 HD
HETATM   40  C15 UNL     1      14.141   4.083  15.619  1.00  0.00     0.166 A 
HETATM   41  N16 UNL     1      14.173   2.768  16.154  1.00  0.00    -0.079 NA
BRANCH  38  42
HETATM   42  C14 UNL     1      11.836   3.926  14.526  1.00  0.00     0.285 C 
HETATM   43  N15 UNL     1      10.742   4.620  13.973  1.00  0.00    -0.056 NA
HETATM   44  O2  UNL     1      11.751   2.689  14.722  1.00  0.00    -0.269 OA
ENDBRANCH  38  42
ENDBRANCH   3  35
TORSDOF 8
ENDMDL
MODEL 2
REMARK VINA RESULT: -9.017345791      2.182     10.544
REMARK  8 active torsions:
REMARK  status: ('A' for Active; 'I' for Inactive)
REMARK    1  A    between atoms: C2_3  and  C3_4 
REMARK    2  A    between atoms: C2_3  and  N12_35 
REMARK    3  A    between atoms: C3_4  and  C4_5 
REMARK    4  A    between atoms: C4_5  and  N2_6 
REMARK    5  A    between atoms: N2_6  and  C5_8 
REMARK    6  A    between atoms: C8_17  and  N6_18 
REMARK    7  A    between atoms: C9_23  and  N8_24 
REMARK    8  A    between atoms: C13_39  and  C14_40 
ROOT
HETATM    1  N1  UNL     1      16.968  10.552  18.847  1.00  0.00    -0.195 NA
HETATM    2  C1  UNL     1      18.127  10.648  18.833  1.00  0.00     0.086 C 
HETATM    3  C2  UNL     1      19.584  10.772  18.828  1.00  0.00     0.215 C 
ENDROOT
BRANCH   3   4
HETATM    4  C3  UNL     1      20.173   9.857  17.776  1.00  0.00     0.061 C 
BRANCH   4   5
HETATM    5  C4  UNL     1      20.139   8.418  18.179  1.00  0.00     0.124 C 
BRANCH   5   6
HETATM    6  N2  UNL     1      20.054   7.523  17.052  1.00  0.00    -0.374 N 
ATOM      7  H2  UNL     1      20.726   7.631  16.293  1.00  0.00     0.161 HD
BRANCH   6   8
HETATM    8  C5  UNL     1      19.082   6.501  16.954  1.00  0.00     0.131 A 
HETATM    9  N3  UNL     1      19.291   5.253  17.437  1.00  0.00    -0.306 N 
HETATM   10  C6  UNL     1      18.374   4.272  17.350  1.00  0.00     0.277 A 
ATOM     11  H3  UNL     1      20.183   5.048  17.888  1.00  0.00     0.170 HD
HETATM   12  O1  UNL     1      18.608   3.113  17.816  1.00  0.00    -0.266 OA
HETATM   13  C7  UNL     1      17.144   4.484  16.750  1.00  0.00     0.147 A 
HETATM   14  N4  UNL     1      16.208   3.524  16.648  1.00  0.00    -0.257 N 
HETATM   15  C11 UNL     1      16.920   5.755  16.253  1.00  0.00     0.111 A 
HETATM   16  N5  UNL     1      15.060   3.846  16.049  1.00  0.00     0.091 N 
ATOM     17  H4  UNL     1      16.369   2.585  17.013  1.00  0.00     0.189 HD
HETATM   18  C8  UNL     1      14.072   2.916  15.915  1.00  0.00     0.726 A 
HETATM   19  C10 UNL     1      14.807   5.064  15.556  1.00  0.00     0.733 A 
HETATM   20  N7  UNL     1      12.903   3.205  15.317  1.00  0.00    -0.020 N 
HETATM   21  C9  UNL     1      12.714   4.447  14.844  1.00  0.00     0.705 A 
ATOM     22  H7  UNL     1      12.176   2.496  15.225  1.00  0.00     0.203 HD
HETATM   23  N9  UNL     1      13.646   5.391  14.950  1.00  0.00    -0.020 N 
ATOM     24  H9  UNL     1      13.488   6.331  14.586  1.00  0.00     0.203 HD
HETATM   25  N10 UNL     1      15.754   6.039  15.659  1.00  0.00    -0.184 N 
ATOM     26  H10 UNL     1      15.577   6.972  15.288  1.00  0.00     0.184 HD
HETATM   27  C12 UNL     1      17.873   6.746  16.353  1.00  0.00     0.119 A 
HETATM   28  N11 UNL     1      17.638   8.058  15.839  1.00  0.00    -0.096 NA
BRANCH  18  29
HETATM   29  N6  UNL     1      14.263   1.726  16.372  1.00  0.00    -0.232 N 
ATOM     30  H62 UNL     1      15.063   1.553  16.982  1.00  0.00     0.174 HD
ATOM     31  H61 UNL     1      13.611   0.984  16.117  1.00  0.00     0.174 HD
ENDBRANCH  18  29
BRANCH  21  32
HETATM   32  N8  UNL     1      11.599   4.738  14.270  1.00  0.00    -0.234 N 
ATOM     33  H82 UNL     1      10.773   4.185  14.493  1.00  0.00     0.174 HD
ATOM     34  H81 UNL     1      11.569   5.513  13.607  1.00  0.00     0.174 HD
ENDBRANCH  21  32
ENDBRANCH   6   8
ENDBRANCH   5   6
ENDBRANCH   4   5
ENDBRANCH   3   4
BRANCH   3  35
HETATM   35  N12 UNL     1      19.937  12.158  18.509  1.00  0.00    -0.242 N 
HETATM   36  N13 UNL     1      19.206  13.013  17.803  1.00  0.00    -0.017 NA
HETATM   37  N14 UNL     1      19.838  14.185  17.712  1.00  0.00    -0.276 N 
HETATM   38  C13 UNL     1      21.007  14.098  18.372  1.00  0.00     0.153 A 
ATOM     39  H14 UNL     1      19.492  15.010  17.222  1.00  0.00     0.184 HD
HETATM   40  C15 UNL     1      21.055  12.814  18.869  1.00  0.00     0.166 A 
HETATM   41  N16 UNL     1      22.127  12.288  19.639  1.00  0.00    -0.079 NA
BRANCH  38  42
HETATM   42  C14 UNL     1      22.025  15.155  18.532  1.00  0.00     0.285 C 
HETATM   43  N15 UNL     1      23.297  14.893  19.074  1.00  0.00    -0.056 NA
HETATM   44  O2  UNL     1      21.732  16.320  18.170  1.00  0.00    -0.269 OA
ENDBRANCH  38  42
ENDBRANCH   3  35
TORSDOF 8
ENDMDL
MODEL 3
REMARK VINA RESULT: -8.989091303      1.712      2.864
REMARK  8 active torsions:
REMARK  status: ('A' for Active; 'I' for Inactive)
REMARK    1  A    between atoms: C2_3  and  C3_4 
REMARK    2  A    between atoms: C2_3  and  N12_35 
REMARK    3  A    between atoms: C3_4  and  C4_5 
REMARK    4  A    between atoms: C4_5  and  N2_6 
REMARK    5  A    between atoms: N2_6  and  C5_8 
REMARK    6  A    between atoms: C8_17  and  N6_18 
REMARK    7  A    between atoms: C9_23  and  N8_24 
REMARK    8  A    between atoms: C13_39  and  C14_40 
ROOT
HETATM    1  N1  UNL     1      16.446   2.177  18.564  1.00  0.00    -0.195 NA
HETATM    2  C1  UNL     1      16.334   2.913  17.670  1.00  0.00     0.086 C 
HETATM    3  C2  UNL     1      16.188   3.847  16.554  1.00  0.00     0.215 C 
ENDROOT
BRANCH   3   4
HETATM    4  C3  UNL     1      17.197   3.518  15.476  1.00  0.00     0.061 C 
BRANCH   4   5
HETATM    5  C4  UNL     1      17.979   4.714  15.035  1.00  0.00     0.124 C 
BRANCH   5   6
HETATM    6  N2  UNL     1      17.536   5.935  15.662  1.00  0.00    -0.374 N 
ATOM      7  H2  UNL     1      16.615   6.300  15.421  1.00  0.00     0.161 HD
BRANCH   6   8
HETATM    8  C5  UNL     1      18.323   6.648  16.596  1.00  0.00     0.131 A 
HETATM    9  N3  UNL     1      18.993   6.032  17.600  1.00  0.00    -0.306 N 
HETATM   10  C6  UNL     1      19.744   6.698  18.494  1.00  0.00     0.277 A 
ATOM     11  H3  UNL     1      18.925   5.017  17.680  1.00  0.00     0.170 HD
HETATM   12  O1  UNL     1      20.357   6.085  19.422  1.00  0.00    -0.266 OA
HETATM   13  C7  UNL     1      19.877   8.076  18.442  1.00  0.00     0.147 A 
HETATM   14  N4  UNL     1      20.620   8.770  19.322  1.00  0.00    -0.257 N 
HETATM   15  C11 UNL     1      19.197   8.715  17.422  1.00  0.00     0.111 A 
HETATM   16  N5  UNL     1      20.674  10.095  19.171  1.00  0.00     0.091 N 
ATOM     17  H4  UNL     1      21.123   8.303  20.076  1.00  0.00     0.189 HD
HETATM   18  C8  UNL     1      21.411  10.853  20.032  1.00  0.00     0.726 A 
HETATM   19  C10 UNL     1      20.030  10.748  18.197  1.00  0.00     0.733 A 
HETATM   20  N7  UNL     1      21.488  12.190  19.910  1.00  0.00    -0.020 N 
HETATM   21  C9  UNL     1      20.817  12.783  18.909  1.00  0.00     0.705 A 
ATOM     22  H7  UNL     1      22.043  12.742  20.564  1.00  0.00     0.203 HD
HETATM   23  N9  UNL     1      20.084  12.088  18.043  1.00  0.00    -0.020 N 
ATOM     24  H9  UNL     1      19.580  12.553  17.288  1.00  0.00     0.203 HD
HETATM   25  N10 UNL     1      19.277  10.047  17.304  1.00  0.00    -0.184 N 
ATOM     26  H10 UNL     1      18.780  10.530  16.555  1.00  0.00     0.184 HD
HETATM   27  C12 UNL     1      18.433   8.013  16.514  1.00  0.00     0.119 A 
HETATM   28  N11 UNL     1      17.732   8.677  15.461  1.00  0.00    -0.096 NA
BRANCH  18  29
HETATM   29  N6  UNL     1      22.052  10.275  20.989  1.00  0.00    -0.232 N 
ATOM     30  H62 UNL     1      21.523   9.854  21.753  1.00  0.00     0.174 HD
ATOM     31  H61 UNL     1      23.071  10.250  20.962  1.00  0.00     0.174 HD
ENDBRANCH  18  29
BRANCH  21  32
HETATM   32  N8  UNL     1      20.882  14.063  18.781  1.00  0.00    -0.234 N 
ATOM     33  H82 UNL     1      21.346  14.606  19.508  1.00  0.00     0.174 HD
ATOM     34  H81 UNL     1      20.469  14.501  17.958  1.00  0.00     0.174 HD
ENDBRANCH  21  32
ENDBRANCH   6   8
ENDBRANCH   5   6
ENDBRANCH   4   5
ENDBRANCH   3   4
BRANCH   3  35
HETATM   35  N12 UNL     1      14.837   3.713  16.003  1.00  0.00    -0.242 N 
HETATM   36  N13 UNL     1      14.071   2.629  16.053  1.00  0.00    -0.017 NA
HETATM   37  N14 UNL     1      12.906   2.867  15.449  1.00  0.00    -0.276 N 
HETATM   38  C13 UNL     1      12.905   4.133  14.994  1.00  0.00     0.153 A 
ATOM     39  H14 UNL     1      12.141   2.199  15.348  1.00  0.00     0.184 HD
HETATM   40  C15 UNL     1      14.130   4.653  15.351  1.00  0.00     0.166 A 
HETATM   41  N16 UNL     1      14.557   5.978  15.065  1.00  0.00    -0.079 NA
BRANCH  38  42
HETATM   42  C14 UNL     1      11.822   4.822  14.266  1.00  0.00     0.285 C 
HETATM   43  N15 UNL     1      10.613   4.179  13.938  1.00  0.00    -0.056 NA
HETATM   44  O2  UNL     1      11.998   6.019  13.934  1.00  0.00    -0.269 OA
ENDBRANCH  38  42
ENDBRANCH   3  35
TORSDOF 8
ENDMDL
MODEL 4
REMARK VINA RESULT: -8.977536327      3.122     10.238
REMARK  8 active torsions:
REMARK  status: ('A' for Active; 'I' for Inactive)
REMARK    1  A    between atoms: C2_3  and  C3_4 
REMARK    2  A    between atoms: C2_3  and  N12_35 
REMARK    3  A    between atoms: C3_4  and  C4_5 
REMARK    4  A    between atoms: C4_5  and  N2_6 
REMARK    5  A    between atoms: N2_6  and  C5_8 
REMARK    6  A    between atoms: C8_17  and  N6_18 
REMARK    7  A    between atoms: C9_23  and  N8_24 
REMARK    8  A    between atoms: C13_39  and  C14_40 
ROOT
HETATM    1  N1  UNL     1      21.557   8.209  13.818  1.00  0.00    -0.195 NA
HETATM    2  C1  UNL     1      20.962   7.704  14.681  1.00  0.00     0.086 C 
HETATM    3  C2  UNL     1      20.203   7.073  15.760  1.00  0.00     0.215 C 
ENDROOT
BRANCH   3   4
HETATM    4  C3  UNL     1      21.026   5.970  16.388  1.00  0.00     0.061 C 
BRANCH   4   5
HETATM    5  C4  UNL     1      20.271   4.685  16.508  1.00  0.00     0.124 C 
BRANCH   5   6
HETATM    6  N2  UNL     1      19.026   4.831  17.221  1.00  0.00    -0.374 N 
ATOM      7  H2  UNL     1      18.963   5.542  17.949  1.00  0.00     0.161 HD
BRANCH   6   8
HETATM    8  C5  UNL     1      17.890   4.032  16.956  1.00  0.00     0.131 A 
HETATM    9  N3  UNL     1      17.848   2.710  17.249  1.00  0.00    -0.306 N 
HETATM   10  C6  UNL     1      16.774   1.940  17.002  1.00  0.00     0.277 A 
ATOM     11  H3  UNL     1      18.669   2.280  17.677  1.00  0.00     0.170 HD
HETATM   12  O1  UNL     1      16.774   0.703  17.291  1.00  0.00    -0.266 OA
HETATM   13  C7  UNL     1      15.629   2.461  16.423  1.00  0.00     0.147 A 
HETATM   14  N4  UNL     1      14.540   1.716  16.163  1.00  0.00    -0.257 N 
HETATM   15  C11 UNL     1      15.661   3.809  16.119  1.00  0.00     0.111 A 
HETATM   16  N5  UNL     1      13.495   2.329  15.603  1.00  0.00     0.091 N 
ATOM     17  H4  UNL     1      14.512   0.721  16.385  1.00  0.00     0.189 HD
HETATM   18  C8  UNL     1      12.362   1.628  15.316  1.00  0.00     0.726 A 
HETATM   19  C10 UNL     1      13.488   3.631  15.295  1.00  0.00     0.733 A 
HETATM   20  N7  UNL     1      11.290   2.212  14.751  1.00  0.00    -0.020 N 
HETATM   21  C9  UNL     1      11.350   3.523  14.468  1.00  0.00     0.705 A 
ATOM     22  H7  UNL     1      10.452   1.672  14.543  1.00  0.00     0.203 HD
HETATM   23  N9  UNL     1      12.432   4.252  14.728  1.00  0.00    -0.020 N 
ATOM     24  H9  UNL     1      12.463   5.248  14.506  1.00  0.00     0.203 HD
HETATM   25  N10 UNL     1      14.591   4.388  15.557  1.00  0.00    -0.184 N 
ATOM     26  H10 UNL     1      14.602   5.382  15.328  1.00  0.00     0.184 HD
HETATM   27  C12 UNL     1      16.772   4.582  16.381  1.00  0.00     0.119 A 
HETATM   28  N11 UNL     1      16.801   5.975  16.066  1.00  0.00    -0.096 NA
BRANCH  18  29
HETATM   29  N6  UNL     1      12.314   0.370  15.592  1.00  0.00    -0.232 N 
ATOM     30  H62 UNL     1      12.756  -0.293  14.955  1.00  0.00     0.174 HD
ATOM     31  H61 UNL     1      11.838   0.064  16.441  1.00  0.00     0.174 HD
ENDBRANCH  18  29
BRANCH  21  32
HETATM   32  N8  UNL     1      10.332   4.097  13.927  1.00  0.00    -0.234 N 
ATOM     33  H82 UNL     1      10.033   5.004  14.283  1.00  0.00     0.174 HD
ATOM     34  H81 UNL     1       9.849   3.631  13.159  1.00  0.00     0.174 HD
ENDBRANCH  21  32
ENDBRANCH   6   8
ENDBRANCH   5   6
ENDBRANCH   4   5
ENDBRANCH   3   4
BRANCH   3  35
HETATM   35  N12 UNL     1      19.902   8.084  16.777  1.00  0.00    -0.242 N 
HETATM   36  N13 UNL     1      20.593   8.311  17.889  1.00  0.00    -0.017 NA
HETATM   37  N14 UNL     1      20.031   9.305  18.579  1.00  0.00    -0.276 N 
HETATM   38  C13 UNL     1      18.950   9.740  17.907  1.00  0.00     0.153 A 
ATOM     39  H14 UNL     1      20.365   9.674  19.470  1.00  0.00     0.184 HD
HETATM   40  C15 UNL     1      18.881   8.960  16.773  1.00  0.00     0.166 A 
HETATM   41  N16 UNL     1      17.882   9.081  15.771  1.00  0.00    -0.079 NA
BRANCH  38  42
HETATM   42  C14 UNL     1      18.028  10.824  18.300  1.00  0.00     0.285 C 
HETATM   43  N15 UNL     1      18.280  12.173  17.984  1.00  0.00    -0.056 NA
HETATM   44  O2  UNL     1      16.991  10.519  18.937  1.00  0.00    -0.269 OA
ENDBRANCH  38  42
ENDBRANCH   3  35
TORSDOF 8
ENDMDL
MODEL 5
REMARK VINA RESULT: -8.923226523      1.332      2.238
REMARK  8 active torsions:
REMARK  status: ('A' for Active; 'I' for Inactive)
REMARK    1  A    between atoms: C2_3  and  C3_4 
REMARK    2  A    between atoms: C2_3  and  N12_35 
REMARK    3  A    between atoms: C3_4  and  C4_5 
REMARK    4  A    between atoms: C4_5  and  N2_6 
REMARK    5  A    between atoms: N2_6  and  C5_8 
REMARK    6  A    between atoms: C8_17  and  N6_18 
REMARK    7  A    between atoms: C9_23  and  N8_24 
REMARK    8  A    between atoms: C13_39  and  C14_40 
ROOT
HETATM    1  N1  UNL     1      18.314   3.792  14.930  1.00  0.00    -0.195 NA
HETATM    2  C1  UNL     1      17.505   4.129  15.695  1.00  0.00     0.086 C 
HETATM    3  C2  UNL     1      16.483   4.540  16.657  1.00  0.00     0.215 C 
ENDROOT
BRANCH   3   4
HETATM    4  C3  UNL     1      16.926   5.800  17.367  1.00  0.00     0.061 C 
BRANCH   4   5
HETATM    5  C4  UNL     1      18.273   6.271  16.920  1.00  0.00     0.124 C 
BRANCH   5   6
HETATM    6  N2  UNL     1      19.033   6.883  17.981  1.00  0.00    -0.374 N 
ATOM      7  H2  UNL     1      19.506   6.279  18.652  1.00  0.00     0.161 HD
BRANCH   6   8
HETATM    8  C5  UNL     1      19.151   8.284  18.131  1.00  0.00     0.131 A 
HETATM    9  N3  UNL     1      18.072   9.099  18.214  1.00  0.00    -0.306 N 
HETATM   10  C6  UNL     1      18.171  10.432  18.358  1.00  0.00     0.277 A 
ATOM     11  H3  UNL     1      17.142   8.681  18.166  1.00  0.00     0.170 HD
HETATM   12  O1  UNL     1      17.135  11.162  18.431  1.00  0.00    -0.266 OA
HETATM   13  C7  UNL     1      19.403  11.062  18.429  1.00  0.00     0.147 A 
HETATM   14  N4  UNL     1      19.535  12.392  18.572  1.00  0.00    -0.257 N 
HETATM   15  C11 UNL     1      20.512  10.240  18.345  1.00  0.00     0.111 A 
HETATM   16  N5  UNL     1      20.773  12.885  18.629  1.00  0.00     0.091 N 
ATOM     17  H4  UNL     1      18.719  13.002  18.634  1.00  0.00     0.189 HD
HETATM   18  C8  UNL     1      20.972  14.226  18.774  1.00  0.00     0.726 A 
HETATM   19  C10 UNL     1      21.870  12.122  18.552  1.00  0.00     0.733 A 
HETATM   20  N7  UNL     1      22.205  14.758  18.835  1.00  0.00    -0.020 N 
HETATM   21  C9  UNL     1      23.263  13.935  18.751  1.00  0.00     0.705 A 
ATOM     22  H7  UNL     1      22.334  15.763  18.943  1.00  0.00     0.203 HD
HETATM   23  N9  UNL     1      23.124  12.619  18.610  1.00  0.00    -0.020 N 
ATOM     24  H9  UNL     1      23.937  12.007  18.547  1.00  0.00     0.203 HD
HETATM   25  N10 UNL     1      21.739  10.773  18.407  1.00  0.00    -0.184 N 
ATOM     26  H10 UNL     1      22.565  10.177  18.347  1.00  0.00     0.184 HD
HETATM   27  C12 UNL     1      20.388   8.874  18.199  1.00  0.00     0.119 A 
HETATM   28  N11 UNL     1      21.536   8.028  18.113  1.00  0.00    -0.096 NA
BRANCH  18  29
HETATM   29  N6  UNL     1      19.950  15.008  18.853  1.00  0.00    -0.232 N 
ATOM     30  H62 UNL     1      19.200  14.911  18.169  1.00  0.00     0.174 HD
ATOM     31  H61 UNL     1      19.913  15.703  19.598  1.00  0.00     0.174 HD
ENDBRANCH  18  29
BRANCH  21  32
HETATM   32  N8  UNL     1      24.450  14.430  18.809  1.00  0.00    -0.234 N 
ATOM     33  H82 UNL     1      24.959  14.586  17.939  1.00  0.00     0.174 HD
ATOM     34  H81 UNL     1      24.853  14.653  19.719  1.00  0.00     0.174 HD
ENDBRANCH  21  32
ENDBRANCH   6   8
ENDBRANCH   5   6
ENDBRANCH   4   5
ENDBRANCH   3   4
BRANCH   3  35
HETATM   35  N12 UNL     1      15.238   4.811  15.933  1.00  0.00    -0.242 N 
HETATM   36  N13 UNL     1      14.904   5.953  15.341  1.00  0.00    -0.017 NA
HETATM   37  N14 UNL     1      13.699   5.839  14.781  1.00  0.00    -0.276 N 
HETATM   38  C13 UNL     1      13.231   4.599  15.008  1.00  0.00     0.153 A 
ATOM     39  H14 UNL     1      13.212   6.573  14.266  1.00  0.00     0.184 HD
HETATM   40  C15 UNL     1      14.213   3.962  15.736  1.00  0.00     0.166 A 
HETATM   41  N16 UNL     1      14.134   2.620  16.195  1.00  0.00    -0.079 NA
BRANCH  38  42
HETATM   42  C14 UNL     1      11.939   4.035  14.571  1.00  0.00     0.285 C 
HETATM   43  N15 UNL     1      10.931   4.831  13.995  1.00  0.00    -0.056 NA
HETATM   44  O2  UNL     1      11.746   2.805  14.726  1.00  0.00    -0.269 OA
ENDBRANCH  38  42
ENDBRANCH   3  35
TORSDOF 8
ENDMDL
