MODEL 1
REMARK VINA RESULT: -6.676098844      0.000      0.000
REMARK  4 active torsions:
REMARK  status: ('A' for Active; 'I' for Inactive)
REMARK    1  A    between atoms: C2_2  and  C3_3 
REMARK    2  A    between atoms: C3_3  and  N1_4 
REMARK    3  A    between atoms: N4_14  and  S1_15 
REMARK    4  A    between atoms: S1_15  and  C8_18 
ROOT
HETATM    1  N1  UNL     1      -0.805   4.720  10.340  1.00  0.00    -0.226 N 
ATOM      2  H1  UNL     1      -0.828   5.738  10.405  1.00  0.00     0.177 HD
HETATM    3  C4  UNL     1      -1.644   4.006  10.996  1.00  0.00     0.678 A 
HETATM    4  N2  UNL     1      -1.696   2.669  10.976  1.00  0.00    -0.194 N 
ATOM      5  H2  UNL     1      -1.089   2.042  10.448  1.00  0.00     0.184 HD
HETATM    6  C5  UNL     1      -2.709   2.315  11.792  1.00  0.00     0.052 A 
HETATM    7  C6  UNL     1      -3.270   3.465  12.304  1.00  0.00     0.063 A 
HETATM    8  N3  UNL     1      -2.601   4.504  11.802  1.00  0.00    -0.193 N 
ATOM      9  H3  UNL     1      -2.781   5.489  11.994  1.00  0.00     0.184 HD
HETATM   10  C7  UNL     1      -4.431   3.420  13.253  1.00  0.00     0.164 C 
HETATM   11  N4  UNL     1      -4.226   2.132  13.952  1.00  0.00    -0.225 NA
HETATM   12  C11 UNL     1      -4.530   1.157  12.888  1.00  0.00     0.112 C 
HETATM   13  C12 UNL     1      -3.224   0.948  12.152  1.00  0.00     0.075 C 
ENDROOT
BRANCH  11  14
HETATM   14  S1  UNL     1      -4.890   1.946  15.478  1.00  0.00     0.096 S 
HETATM   15  O1  UNL     1      -3.408   1.511  16.129  1.00  0.00    -0.238 OA
HETATM   16 CL1  UNL     1      -5.481   3.881  15.392  1.00  0.00    -0.008 Cl
BRANCH  14  17
HETATM   17  C8  UNL     1      -5.759   1.819  17.062  1.00  0.00     0.089 C 
HETATM   18  C9  UNL     1      -6.061   0.405  17.610  1.00  0.00     0.025 C 
HETATM   19  C10 UNL     1      -7.157   2.475  17.067  1.00  0.00     0.025 C 
ENDBRANCH  14  17
ENDBRANCH  11  14
BRANCH   1  20
HETATM   20  C3  UNL     1       0.175   4.060   9.506  1.00  0.00     0.137 C 
BRANCH  20  21
HETATM   21  C2  UNL     1       1.497   4.086  10.243  1.00  0.00     0.016 C 
HETATM   22  C1  UNL     1       2.570   4.452   9.253  1.00  0.00     0.006 C 
ENDBRANCH  20  21
ENDBRANCH   1  20
TORSDOF 4
ENDMDL
MODEL 2
REMARK VINA RESULT: -6.665895324      1.290      1.435
REMARK  4 active torsions:
REMARK  status: ('A' for Active; 'I' for Inactive)
REMARK    1  A    between atoms: C2_2  and  C3_3 
REMARK    2  A    between atoms: C3_3  and  N1_4 
REMARK    3  A    between atoms: N4_14  and  S1_15 
REMARK    4  A    between atoms: S1_15  and  C8_18 
ROOT
HETATM    1  N1  UNL     1       0.268   4.566  11.996  1.00  0.00    -0.226 N 
ATOM      2  H1  UNL     1       0.721   5.294  12.550  1.00  0.00     0.177 HD
HETATM    3  C4  UNL     1      -0.863   4.081  12.359  1.00  0.00     0.678 A 
HETATM    4  N2  UNL     1      -1.537   3.128  11.703  1.00  0.00    -0.194 N 
ATOM      5  H2  UNL     1      -1.254   2.663  10.841  1.00  0.00     0.184 HD
HETATM    6  C5  UNL     1      -2.665   2.907  12.408  1.00  0.00     0.052 A 
HETATM    7  C6  UNL     1      -2.660   3.745  13.501  1.00  0.00     0.063 A 
HETATM    8  N3  UNL     1      -1.540   4.467  13.458  1.00  0.00    -0.193 N 
ATOM      9  H3  UNL     1      -1.250   5.176  14.131  1.00  0.00     0.184 HD
HETATM   10  C7  UNL     1      -3.784   3.749  14.495  1.00  0.00     0.164 C 
HETATM   11  N4  UNL     1      -4.273   2.354  14.436  1.00  0.00    -0.225 NA
HETATM   12  C11 UNL     1      -4.905   2.311  13.104  1.00  0.00     0.112 C 
HETATM   13  C12 UNL     1      -3.792   1.946  12.144  1.00  0.00     0.075 C 
ENDROOT
BRANCH  11  14
HETATM   14  S1  UNL     1      -5.077   1.739  15.768  1.00  0.00     0.096 S 
HETATM   15  O1  UNL     1      -3.639   1.492  16.592  1.00  0.00    -0.238 OA
HETATM   16 CL1  UNL     1      -6.082   3.493  15.896  1.00  0.00    -0.008 Cl
BRANCH  14  17
HETATM   17  C8  UNL     1      -6.102   1.129  17.132  1.00  0.00     0.089 C 
HETATM   18  C9  UNL     1      -7.637   1.241  16.989  1.00  0.00     0.025 C 
HETATM   19  C10 UNL     1      -5.848   1.842  18.479  1.00  0.00     0.025 C 
ENDBRANCH  14  17
ENDBRANCH  11  14
BRANCH   1  20
HETATM   20  C3  UNL     1       0.889   4.065  10.791  1.00  0.00     0.137 C 
BRANCH  20  21
HETATM   21  C2  UNL     1       2.144   4.878  10.550  1.00  0.00     0.016 C 
HETATM   22  C1  UNL     1       2.761   5.182  11.890  1.00  0.00     0.006 C 
ENDBRANCH  20  21
ENDBRANCH   1  20
TORSDOF 4
ENDMDL
MODEL 3
REMARK VINA RESULT: -6.496159317      2.810      7.491
REMARK  4 active torsions:
REMARK  status: ('A' for Active; 'I' for Inactive)
REMARK    1  A    between atoms: C2_2  and  C3_3 
REMARK    2  A    between atoms: C3_3  and  N1_4 
REMARK    3  A    between atoms: N4_14  and  S1_15 
REMARK    4  A    between atoms: S1_15  and  C8_18 
ROOT
HETATM    1  N1  UNL     1      -4.869   0.458  16.040  1.00  0.00    -0.226 N 
ATOM      2  H1  UNL     1      -4.798  -0.558  15.969  1.00  0.00     0.177 HD
HETATM    3  C4  UNL     1      -4.576   1.202  15.037  1.00  0.00     0.678 A 
HETATM    4  N2  UNL     1      -4.638   2.539  15.029  1.00  0.00    -0.194 N 
ATOM      5  H2  UNL     1      -4.921   3.143  15.801  1.00  0.00     0.184 HD
HETATM    6  C5  UNL     1      -4.252   2.931  13.798  1.00  0.00     0.052 A 
HETATM    7  C6  UNL     1      -3.958   1.804  13.062  1.00  0.00     0.063 A 
HETATM    8  N3  UNL     1      -4.163   0.741  13.841  1.00  0.00    -0.193 N 
ATOM      9  H3  UNL     1      -4.032  -0.236  13.580  1.00  0.00     0.184 HD
HETATM   10  C7  UNL     1      -3.496   1.892  11.637  1.00  0.00     0.164 C 
HETATM   11  N4  UNL     1      -2.793   3.194  11.606  1.00  0.00    -0.225 NA
HETATM   12  C11 UNL     1      -3.913   4.145  11.732  1.00  0.00     0.112 C 
HETATM   13  C12 UNL     1      -4.128   4.314  13.221  1.00  0.00     0.075 C 
ENDROOT
BRANCH  11  14
HETATM   14  S1  UNL     1      -1.617   3.430  10.439  1.00  0.00     0.096 S 
HETATM   15  O1  UNL     1      -1.651   1.814   9.998  1.00  0.00    -0.238 OA
HETATM   16 CL1  UNL     1      -2.839   4.790   9.567  1.00  0.00    -0.008 Cl
BRANCH  14  17
HETATM   17  C8  UNL     1      -0.363   3.865   9.205  1.00  0.00     0.089 C 
HETATM   18  C9  UNL     1       0.839   4.720   9.666  1.00  0.00     0.025 C 
HETATM   19  C10 UNL     1      -0.908   4.685   8.015  1.00  0.00     0.025 C 
ENDBRANCH  14  17
ENDBRANCH  11  14
BRANCH   1  20
HETATM   20  C3  UNL     1      -5.303   1.080  17.270  1.00  0.00     0.137 C 
BRANCH  20  21
HETATM   21  C2  UNL     1      -6.770   0.752  17.458  1.00  0.00     0.016 C 
HETATM   22  C1  UNL     1      -7.569   1.953  17.029  1.00  0.00     0.006 C 
ENDBRANCH  20  21
ENDBRANCH   1  20
TORSDOF 4
ENDMDL
MODEL 4
REMARK VINA RESULT: -6.326213135      2.989      7.597
REMARK  4 active torsions:
REMARK  status: ('A' for Active; 'I' for Inactive)
REMARK    1  A    between atoms: C2_2  and  C3_3 
REMARK    2  A    between atoms: C3_3  and  N1_4 
REMARK    3  A    between atoms: N4_14  and  S1_15 
REMARK    4  A    between atoms: S1_15  and  C8_18 
ROOT
HETATM    1  N1  UNL     1      -4.688   1.097  15.646  1.00  0.00    -0.226 N 
ATOM      2  H1  UNL     1      -4.518   0.091  15.615  1.00  0.00     0.177 HD
HETATM    3  C4  UNL     1      -4.433   1.832  14.626  1.00  0.00     0.678 A 
HETATM    4  N2  UNL     1      -4.621   3.156  14.566  1.00  0.00    -0.194 N 
ATOM      5  H2  UNL     1      -4.986   3.755  15.306  1.00  0.00     0.184 HD
HETATM    6  C5  UNL     1      -4.233   3.540  13.333  1.00  0.00     0.052 A 
HETATM    7  C6  UNL     1      -3.809   2.422  12.649  1.00  0.00     0.063 A 
HETATM    8  N3  UNL     1      -3.938   1.372  13.460  1.00  0.00    -0.193 N 
ATOM      9  H3  UNL     1      -3.706   0.403  13.240  1.00  0.00     0.184 HD
HETATM   10  C7  UNL     1      -3.310   2.506  11.237  1.00  0.00     0.164 C 
HETATM   11  N4  UNL     1      -2.733   3.867  11.178  1.00  0.00    -0.225 NA
HETATM   12  C11 UNL     1      -3.942   4.710  11.235  1.00  0.00     0.112 C 
HETATM   13  C12 UNL     1      -4.222   4.909  12.710  1.00  0.00     0.075 C 
ENDROOT
BRANCH  11  14
HETATM   14  S1  UNL     1      -1.546   4.176  10.039  1.00  0.00     0.096 S 
HETATM   15  O1  UNL     1      -1.352   2.543   9.718  1.00  0.00    -0.238 OA
HETATM   16 CL1  UNL     1      -2.893   5.301   9.028  1.00  0.00    -0.008 Cl
BRANCH  14  17
HETATM   17  C8  UNL     1      -0.305   4.686   8.822  1.00  0.00     0.089 C 
HETATM   18  C9  UNL     1      -0.344   4.021   7.427  1.00  0.00     0.025 C 
HETATM   19  C10 UNL     1       1.153   4.429   9.263  1.00  0.00     0.025 C 
ENDBRANCH  14  17
ENDBRANCH  11  14
BRANCH   1  20
HETATM   20  C3  UNL     1      -5.220   1.716  16.839  1.00  0.00     0.137 C 
BRANCH  20  21
HETATM   21  C2  UNL     1      -6.129   0.709  17.512  1.00  0.00     0.016 C 
HETATM   22  C1  UNL     1      -7.552   1.145  17.281  1.00  0.00     0.006 C 
ENDBRANCH  20  21
ENDBRANCH   1  20
TORSDOF 4
ENDMDL
MODEL 5
REMARK VINA RESULT: -6.313553827      4.251      7.488
REMARK  4 active torsions:
REMARK  status: ('A' for Active; 'I' for Inactive)
REMARK    1  A    between atoms: C2_2  and  C3_3 
REMARK    2  A    between atoms: C3_3  and  N1_4 
REMARK    3  A    between atoms: N4_14  and  S1_15 
REMARK    4  A    between atoms: S1_15  and  C8_18 
ROOT
HETATM    1  N1  UNL     1      -5.538   2.560  16.322  1.00  0.00    -0.226 N 
ATOM      2  H1  UNL     1      -5.947   2.993  17.150  1.00  0.00     0.177 HD
HETATM    3  C4  UNL     1      -5.255   3.268  15.289  1.00  0.00     0.678 A 
HETATM    4  N2  UNL     1      -4.718   2.796  14.158  1.00  0.00    -0.194 N 
ATOM      5  H2  UNL     1      -4.462   1.829  13.960  1.00  0.00     0.184 HD
HETATM    6  C5  UNL     1      -4.581   3.853  13.332  1.00  0.00     0.052 A 
HETATM    7  C6  UNL     1      -5.045   4.973  13.987  1.00  0.00     0.063 A 
HETATM    8  N3  UNL     1      -5.459   4.597  15.197  1.00  0.00    -0.193 N 
ATOM      9  H3  UNL     1      -5.855   5.201  15.918  1.00  0.00     0.184 HD
HETATM   10  C7  UNL     1      -5.032   6.326  13.340  1.00  0.00     0.164 C 
HETATM   11  N4  UNL     1      -5.182   5.999  11.905  1.00  0.00    -0.225 NA
HETATM   12  C11 UNL     1      -3.877   5.385  11.596  1.00  0.00     0.112 C 
HETATM   13  C12 UNL     1      -4.035   3.918  11.932  1.00  0.00     0.075 C 
ENDROOT
BRANCH  11  14
HETATM   14  S1  UNL     1      -5.824   7.165  10.890  1.00  0.00     0.096 S 
HETATM   15  O1  UNL     1      -6.059   6.046   9.664  1.00  0.00    -0.238 OA
HETATM   16 CL1  UNL     1      -7.245   7.516  12.289  1.00  0.00    -0.008 Cl
BRANCH  14  17
HETATM   17  C8  UNL     1      -6.520   8.538   9.934  1.00  0.00     0.089 C 
HETATM   18  C9  UNL     1      -6.515   9.943  10.579  1.00  0.00     0.025 C 
HETATM   19  C10 UNL     1      -8.007   8.356   9.562  1.00  0.00     0.025 C 
ENDBRANCH  14  17
ENDBRANCH  11  14
BRANCH   1  20
HETATM   20  C3  UNL     1      -5.267   1.141  16.292  1.00  0.00     0.137 C 
BRANCH  20  21
HETATM   21  C2  UNL     1      -6.083   0.495  17.393  1.00  0.00     0.016 C 
HETATM   22  C1  UNL     1      -7.463   1.095  17.356  1.00  0.00     0.006 C 
ENDBRANCH  20  21
ENDBRANCH   1  20
TORSDOF 4
ENDMDL
