MODEL 1
REMARK VINA RESULT: -6.736315139      0.000      0.000
REMARK  10 active torsions:
REMARK  status: ('A' for Active; 'I' for Inactive)
REMARK    1  A    between atoms: O1_1  and  C1_3 
REMARK    2  A    between atoms: C1_3  and  C2_4 
REMARK    3  A    between atoms: C2_4  and  C3_5 
REMARK    4  A    between atoms: C2_4  and  N1_17 
REMARK    5  A    between atoms: C3_5  and  O2_6 
REMARK    6  A    between atoms: O2_6  and  C4_7 
REMARK    7  A    between atoms: C4_7  and  C5_8 
REMARK    8  A    between atoms: C5_8  and  O3_9 
REMARK    9  A    between atoms: O3_9  and  C6_10 
REMARK   10  A    between atoms: C6_10  and  C7_11 
ROOT
HETATM    1  C2  UNL     1      41.884   8.633  12.801  1.00  0.00     0.134 C 
ENDROOT
BRANCH   1   2
HETATM    2  C1  UNL     1      40.458   9.003  13.236  1.00  0.00     0.191 C 
BRANCH   2   3
HETATM    3  O1  UNL     1      40.429   9.904  14.276  1.00  0.00    -0.399 OA
ATOM      4  H1  UNL     1      39.687  10.494  14.236  1.00  0.00     0.209 HD
ENDBRANCH   2   3
ENDBRANCH   1   2
BRANCH   1   5
HETATM    5  C3  UNL     1      41.902   7.142  12.620  1.00  0.00     0.195 C 
BRANCH   5   6
HETATM    6  O2  UNL     1      42.432   6.508  13.711  1.00  0.00    -0.387 OA
BRANCH   6   7
HETATM    7  C4  UNL     1      43.204   5.431  13.370  1.00  0.00     0.193 C 
BRANCH   7   8
HETATM    8  C5  UNL     1      43.422   4.652  14.686  1.00  0.00     0.194 C 
BRANCH   8   9
HETATM    9  O3  UNL     1      44.644   5.009  15.202  1.00  0.00    -0.385 OA
BRANCH   9  10
HETATM   10  C6  UNL     1      45.645   4.675  14.307  1.00  0.00     0.206 C 
BRANCH  10  11
HETATM   11  C7  UNL     1      46.749   5.658  14.439  1.00  0.00    -0.035 A 
HETATM   12  C8  UNL     1      46.627   6.970  14.029  1.00  0.00     0.009 A 
HETATM   13  C9  UNL     1      47.684   7.827  14.178  1.00  0.00     0.001 A 
HETATM   14  C10 UNL     1      48.875   7.410  14.733  1.00  0.00     0.000 A 
HETATM   15  C11 UNL     1      48.990   6.107  15.139  1.00  0.00     0.001 A 
HETATM   16  C12 UNL     1      47.941   5.244  14.993  1.00  0.00     0.009 A 
ENDBRANCH  10  11
ENDBRANCH   9  10
ENDBRANCH   8   9
ENDBRANCH   7   8
ENDBRANCH   6   7
ENDBRANCH   5   6
ENDBRANCH   1   5
BRANCH   1  17
HETATM   17  N1  UNL     1      42.156   9.296  11.528  1.00  0.00    -0.349 N 
HETATM   18  C13 UNL     1      41.088   9.598  10.626  1.00  0.00     0.127 C 
HETATM   19  C14 UNL     1      41.414   9.268   9.195  1.00  0.00     0.039 C 
HETATM   20  C15 UNL     1      42.835   9.439   8.805  1.00  0.00     0.123 C 
HETATM   21  N2  UNL     1      43.706   9.968   9.798  1.00  0.00    -0.367 N 
HETATM   22  C16 UNL     1      43.478   9.647  11.172  1.00  0.00     0.170 C 
ATOM     23  H2  UNL     1      44.485  10.571   9.532  1.00  0.00     0.161 HD
HETATM   24  S1  UNL     1      44.637   9.672  12.283  1.00  0.00    -0.041 SA
ENDBRANCH   1  17
TORSDOF 10
ENDMDL
MODEL 2
REMARK VINA RESULT: -6.663119569      2.088      2.794
REMARK  10 active torsions:
REMARK  status: ('A' for Active; 'I' for Inactive)
REMARK    1  A    between atoms: O1_1  and  C1_3 
REMARK    2  A    between atoms: C1_3  and  C2_4 
REMARK    3  A    between atoms: C2_4  and  C3_5 
REMARK    4  A    between atoms: C2_4  and  N1_17 
REMARK    5  A    between atoms: C3_5  and  O2_6 
REMARK    6  A    between atoms: O2_6  and  C4_7 
REMARK    7  A    between atoms: C4_7  and  C5_8 
REMARK    8  A    between atoms: C5_8  and  O3_9 
REMARK    9  A    between atoms: O3_9  and  C6_10 
REMARK   10  A    between atoms: C6_10  and  C7_11 
ROOT
HETATM    1  C2  UNL     1      42.295   7.495  11.725  1.00  0.00     0.134 C 
ENDROOT
BRANCH   1   2
HETATM    2  C1  UNL     1      43.758   7.595  11.268  1.00  0.00     0.191 C 
BRANCH   2   3
HETATM    3  O1  UNL     1      44.349   6.366  11.082  1.00  0.00    -0.399 OA
ATOM      4  H1  UNL     1      43.980   5.882  10.352  1.00  0.00     0.209 HD
ENDBRANCH   2   3
ENDBRANCH   1   2
BRANCH   1   5
HETATM    5  C3  UNL     1      42.320   6.940  13.121  1.00  0.00     0.195 C 
BRANCH   5   6
HETATM    6  O2  UNL     1      42.495   5.583  13.121  1.00  0.00    -0.387 OA
BRANCH   6   7
HETATM    7  C4  UNL     1      43.116   5.132  14.253  1.00  0.00     0.193 C 
BRANCH   7   8
HETATM    8  C5  UNL     1      44.157   4.100  13.765  1.00  0.00     0.194 C 
BRANCH   8   9
HETATM    9  O3  UNL     1      45.344   4.755  13.544  1.00  0.00    -0.385 OA
BRANCH   9  10
HETATM   10  C6  UNL     1      46.082   4.792  14.715  1.00  0.00     0.206 C 
BRANCH  10  11
HETATM   11  C7  UNL     1      47.098   5.869  14.603  1.00  0.00    -0.035 A 
HETATM   12  C8  UNL     1      46.832   7.080  13.996  1.00  0.00     0.009 A 
HETATM   13  C9  UNL     1      47.813   8.031  13.926  1.00  0.00     0.001 A 
HETATM   14  C10 UNL     1      49.068   7.810  14.450  1.00  0.00     0.000 A 
HETATM   15  C11 UNL     1      49.327   6.607  15.052  1.00  0.00     0.001 A 
HETATM   16  C12 UNL     1      48.354   5.650  15.127  1.00  0.00     0.009 A 
ENDBRANCH  10  11
ENDBRANCH   9  10
ENDBRANCH   8   9
ENDBRANCH   7   8
ENDBRANCH   6   7
ENDBRANCH   5   6
ENDBRANCH   1   5
BRANCH   1  17
HETATM   17  N1  UNL     1      41.729   8.842  11.732  1.00  0.00    -0.349 N 
HETATM   18  C13 UNL     1      42.393   9.903  12.423  1.00  0.00     0.127 C 
HETATM   19  C14 UNL     1      41.455  10.761  13.226  1.00  0.00     0.039 C 
HETATM   20  C15 UNL     1      40.095  10.933  12.657  1.00  0.00     0.123 C 
HETATM   21  N2  UNL     1      39.860  10.338  11.387  1.00  0.00    -0.367 N 
HETATM   22  C16 UNL     1      40.517   9.113  11.055  1.00  0.00     0.170 C 
ATOM     23  H2  UNL     1      39.229  10.781  10.719  1.00  0.00     0.161 HD
HETATM   24  S1  UNL     1      39.942   8.072   9.976  1.00  0.00    -0.041 SA
ENDBRANCH   1  17
TORSDOF 10
ENDMDL
MODEL 3
REMARK VINA RESULT: -6.594749294      2.827      3.524
REMARK  10 active torsions:
REMARK  status: ('A' for Active; 'I' for Inactive)
REMARK    1  A    between atoms: O1_1  and  C1_3 
REMARK    2  A    between atoms: C1_3  and  C2_4 
REMARK    3  A    between atoms: C2_4  and  C3_5 
REMARK    4  A    between atoms: C2_4  and  N1_17 
REMARK    5  A    between atoms: C3_5  and  O2_6 
REMARK    6  A    between atoms: O2_6  and  C4_7 
REMARK    7  A    between atoms: C4_7  and  C5_8 
REMARK    8  A    between atoms: C5_8  and  O3_9 
REMARK    9  A    between atoms: O3_9  and  C6_10 
REMARK   10  A    between atoms: C6_10  and  C7_11 
ROOT
HETATM    1  C2  UNL     1      40.571  11.347  13.291  1.00  0.00     0.134 C 
ENDROOT
BRANCH   1   2
HETATM    2  C1  UNL     1      39.894  10.393  14.285  1.00  0.00     0.191 C 
BRANCH   2   3
HETATM    3  O1  UNL     1      40.015  10.804  15.593  1.00  0.00    -0.399 OA
ATOM      4  H1  UNL     1      40.637  10.287  16.090  1.00  0.00     0.209 HD
ENDBRANCH   2   3
ENDBRANCH   1   2
BRANCH   1   5
HETATM    5  C3  UNL     1      41.799  10.641  12.789  1.00  0.00     0.195 C 
BRANCH   5   6
HETATM    6  O2  UNL     1      41.877   9.362  13.270  1.00  0.00    -0.387 OA
BRANCH   6   7
HETATM    7  C4  UNL     1      42.842   8.622  12.642  1.00  0.00     0.193 C 
BRANCH   7   8
HETATM    8  C5  UNL     1      43.974   9.620  12.313  1.00  0.00     0.194 C 
BRANCH   8   9
HETATM    9  O3  UNL     1      45.108   9.221  12.978  1.00  0.00    -0.385 OA
BRANCH   9  10
HETATM   10  C6  UNL     1      45.281   7.856  12.827  1.00  0.00     0.206 C 
BRANCH  10  11
HETATM   11  C7  UNL     1      46.473   7.439  13.606  1.00  0.00    -0.035 A 
HETATM   12  C8  UNL     1      47.556   8.271  13.808  1.00  0.00     0.009 A 
HETATM   13  C9  UNL     1      48.626   7.826  14.536  1.00  0.00     0.001 A 
HETATM   14  C10 UNL     1      48.649   6.559  15.078  1.00  0.00     0.000 A 
HETATM   15  C11 UNL     1      47.572   5.737  14.875  1.00  0.00     0.001 A 
HETATM   16  C12 UNL     1      46.500   6.173  14.149  1.00  0.00     0.009 A 
ENDBRANCH  10  11
ENDBRANCH   9  10
ENDBRANCH   8   9
ENDBRANCH   7   8
ENDBRANCH   6   7
ENDBRANCH   5   6
ENDBRANCH   1   5
BRANCH   1  17
HETATM   17  N1  UNL     1      39.644  11.585  12.187  1.00  0.00    -0.349 N 
HETATM   18  C13 UNL     1      38.738  10.560  11.769  1.00  0.00     0.127 C 
HETATM   19  C14 UNL     1      38.656  10.419  10.274  1.00  0.00     0.039 C 
HETATM   20  C15 UNL     1      38.823  11.675   9.501  1.00  0.00     0.123 C 
HETATM   21  N2  UNL     1      38.959  12.872  10.257  1.00  0.00    -0.367 N 
HETATM   22  C16 UNL     1      39.631  12.830  11.518  1.00  0.00     0.170 C 
ATOM     23  H2  UNL     1      38.582  13.751   9.903  1.00  0.00     0.161 HD
HETATM   24  S1  UNL     1      40.345  14.110  12.175  1.00  0.00    -0.041 SA
ENDBRANCH   1  17
TORSDOF 10
ENDMDL
MODEL 4
REMARK VINA RESULT: -6.573620582      2.585      3.229
REMARK  10 active torsions:
REMARK  status: ('A' for Active; 'I' for Inactive)
REMARK    1  A    between atoms: O1_1  and  C1_3 
REMARK    2  A    between atoms: C1_3  and  C2_4 
REMARK    3  A    between atoms: C2_4  and  C3_5 
REMARK    4  A    between atoms: C2_4  and  N1_17 
REMARK    5  A    between atoms: C3_5  and  O2_6 
REMARK    6  A    between atoms: O2_6  and  C4_7 
REMARK    7  A    between atoms: C4_7  and  C5_8 
REMARK    8  A    between atoms: C5_8  and  O3_9 
REMARK    9  A    between atoms: O3_9  and  C6_10 
REMARK   10  A    between atoms: C6_10  and  C7_11 
ROOT
HETATM    1  C2  UNL     1      40.600  11.033  13.196  1.00  0.00     0.134 C 
ENDROOT
BRANCH   1   2
HETATM    2  C1  UNL     1      39.713  10.383  14.269  1.00  0.00     0.191 C 
BRANCH   2   3
HETATM    3  O1  UNL     1      40.011  10.808  15.543  1.00  0.00    -0.399 OA
ATOM      4  H1  UNL     1      40.158  10.092  16.149  1.00  0.00     0.209 HD
ENDBRANCH   2   3
ENDBRANCH   1   2
BRANCH   1   5
HETATM    5  C3  UNL     1      41.680  10.040  12.875  1.00  0.00     0.195 C 
BRANCH   5   6
HETATM    6  O2  UNL     1      41.463   8.840  13.494  1.00  0.00    -0.387 OA
BRANCH   6   7
HETATM    7  C4  UNL     1      42.188   7.821  12.937  1.00  0.00     0.193 C 
BRANCH   7   8
HETATM    8  C5  UNL     1      43.536   8.455  12.529  1.00  0.00     0.194 C 
BRANCH   8   9
HETATM    9  O3  UNL     1      44.546   7.608  12.917  1.00  0.00    -0.385 OA
BRANCH   9  10
HETATM   10  C6  UNL     1      45.757   8.277  12.880  1.00  0.00     0.206 C 
BRANCH  10  11
HETATM   11  C7  UNL     1      46.748   7.511  13.677  1.00  0.00    -0.035 A 
HETATM   12  C8  UNL     1      46.511   6.225  14.118  1.00  0.00     0.009 A 
HETATM   13  C9  UNL     1      47.466   5.574  14.849  1.00  0.00     0.001 A 
HETATM   14  C10 UNL     1      48.668   6.173  15.159  1.00  0.00     0.000 A 
HETATM   15  C11 UNL     1      48.899   7.449  14.718  1.00  0.00     0.001 A 
HETATM   16  C12 UNL     1      47.950   8.108  13.988  1.00  0.00     0.009 A 
ENDBRANCH  10  11
ENDBRANCH   9  10
ENDBRANCH   8   9
ENDBRANCH   7   8
ENDBRANCH   6   7
ENDBRANCH   5   6
ENDBRANCH   1   5
BRANCH   1  17
HETATM   17  N1  UNL     1      39.776  11.278  12.014  1.00  0.00    -0.349 N 
HETATM   18  C13 UNL     1      38.960  10.236  11.473  1.00  0.00     0.127 C 
HETATM   19  C14 UNL     1      39.032  10.150   9.972  1.00  0.00     0.039 C 
HETATM   20  C15 UNL     1      39.222  11.441   9.264  1.00  0.00     0.123 C 
HETATM   21  N2  UNL     1      39.232  12.612  10.072  1.00  0.00    -0.367 N 
HETATM   22  C16 UNL     1      39.777  12.547  11.391  1.00  0.00     0.170 C 
ATOM     23  H2  UNL     1      38.854  13.489   9.713  1.00  0.00     0.161 HD
HETATM   24  S1  UNL     1      40.368  13.827  12.161  1.00  0.00    -0.041 SA
ENDBRANCH   1  17
TORSDOF 10
ENDMDL
MODEL 5
REMARK VINA RESULT: -6.566482400      1.926      3.039
REMARK  10 active torsions:
REMARK  status: ('A' for Active; 'I' for Inactive)
REMARK    1  A    between atoms: O1_1  and  C1_3 
REMARK    2  A    between atoms: C1_3  and  C2_4 
REMARK    3  A    between atoms: C2_4  and  C3_5 
REMARK    4  A    between atoms: C2_4  and  N1_17 
REMARK    5  A    between atoms: C3_5  and  O2_6 
REMARK    6  A    between atoms: O2_6  and  C4_7 
REMARK    7  A    between atoms: C4_7  and  C5_8 
REMARK    8  A    between atoms: C5_8  and  O3_9 
REMARK    9  A    between atoms: O3_9  and  C6_10 
REMARK   10  A    between atoms: C6_10  and  C7_11 
ROOT
HETATM    1  C2  UNL     1      42.273   7.718  11.676  1.00  0.00     0.134 C 
ENDROOT
BRANCH   1   2
HETATM    2  C1  UNL     1      43.420   8.078  10.720  1.00  0.00     0.191 C 
BRANCH   2   3
HETATM    3  O1  UNL     1      43.430   7.310   9.579  1.00  0.00    -0.399 OA
ATOM      4  H1  UNL     1      43.160   7.790   8.805  1.00  0.00     0.209 HD
ENDBRANCH   2   3
ENDBRANCH   1   2
BRANCH   1   5
HETATM    5  C3  UNL     1      42.909   7.299  12.970  1.00  0.00     0.195 C 
BRANCH   5   6
HETATM    6  O2  UNL     1      42.314   6.181  13.486  1.00  0.00    -0.387 OA
BRANCH   6   7
HETATM    7  C4  UNL     1      43.115   5.074  13.406  1.00  0.00     0.193 C 
BRANCH   7   8
HETATM    8  C5  UNL     1      43.298   4.595  14.864  1.00  0.00     0.194 C 
BRANCH   8   9
HETATM    9  O3  UNL     1      44.578   4.899  15.260  1.00  0.00    -0.385 OA
BRANCH   9  10
HETATM   10  C6  UNL     1      45.449   4.725  14.199  1.00  0.00     0.206 C 
BRANCH  10  11
HETATM   11  C7  UNL     1      46.632   5.598  14.407  1.00  0.00    -0.035 A 
HETATM   12  C8  UNL     1      47.812   5.132  14.951  1.00  0.00     0.009 A 
HETATM   13  C9  UNL     1      48.865   5.989  15.117  1.00  0.00     0.001 A 
HETATM   14  C10 UNL     1      48.779   7.315  14.750  1.00  0.00     0.000 A 
HETATM   15  C11 UNL     1      47.606   7.772  14.210  1.00  0.00     0.001 A 
HETATM   16  C12 UNL     1      46.548   6.924  14.042  1.00  0.00     0.009 A 
ENDBRANCH  10  11
ENDBRANCH   9  10
ENDBRANCH   8   9
ENDBRANCH   7   8
ENDBRANCH   6   7
ENDBRANCH   5   6
ENDBRANCH   1   5
BRANCH   1  17
HETATM   17  N1  UNL     1      41.460   8.915  11.881  1.00  0.00    -0.349 N 
HETATM   18  C13 UNL     1      41.915   9.959  12.745  1.00  0.00     0.127 C 
HETATM   19  C14 UNL     1      40.837  10.486  13.652  1.00  0.00     0.039 C 
HETATM   20  C15 UNL     1      39.465  10.485  13.085  1.00  0.00     0.123 C 
HETATM   21  N2  UNL     1      39.339  10.066  11.731  1.00  0.00    -0.367 N 
HETATM   22  C16 UNL     1      40.215   9.056  11.227  1.00  0.00     0.170 C 
ATOM     23  H2  UNL     1      38.630  10.482  11.127  1.00  0.00     0.161 HD
HETATM   24  S1  UNL     1      39.840   8.110   9.984  1.00  0.00    -0.041 SA
ENDBRANCH   1  17
TORSDOF 10
ENDMDL
