MODEL 1
REMARK VINA RESULT: -6.417475563      0.000      0.000
REMARK  4 active torsions:
REMARK  status: ('A' for Active; 'I' for Inactive)
REMARK    1  A    between atoms: C1_2  and  C2_4 
REMARK       I    between atoms: C2_4  and  N2_6 
REMARK    2  A    between atoms: N2_6  and  N3_8 
REMARK       I    between atoms: N3_8  and  C3_10 
REMARK       I    between atoms: C3_10  and  N4_12 
REMARK    3  A    between atoms: N4_12  and  N5_14 
REMARK       I    between atoms: N5_14  and  C4_16 
REMARK    4  A    between atoms: C4_16  and  C5_18 
ROOT
HETATM    1  N3  UNL     1      57.387  16.936  45.348  1.00  0.00    -0.247 N 
ATOM      2  H3  UNL     1      56.809  17.116  46.169  1.00  0.00     0.192 HD
HETATM    3  C3  UNL     1      56.770  16.803  44.077  1.00  0.00     0.353 C 
HETATM    4  O3  UNL     1      57.514  16.595  43.076  1.00  0.00    -0.244 OA
HETATM    5  N4  UNL     1      55.360  16.897  43.950  1.00  0.00    -0.248 N 
ATOM      6  H4  UNL     1      54.796  17.071  44.782  1.00  0.00     0.192 HD
ENDROOT
BRANCH   5   7
HETATM    7  N5  UNL     1      54.729  16.761  42.719  1.00  0.00    -0.266 N 
HETATM    8  C4  UNL     1      54.967  17.725  41.712  1.00  0.00     0.240 C 
HETATM    9  O4  UNL     1      55.718  18.679  41.907  1.00  0.00    -0.271 OA
ATOM     10  H5  UNL     1      54.103  15.975  42.544  1.00  0.00     0.190 HD
BRANCH   8  11
HETATM   11  C5  UNL     1      54.286  17.553  40.413  1.00  0.00     0.082 C 
HETATM   12  C6  UNL     1      55.084  16.714  39.447  1.00  0.00     0.033 C 
HETATM   13  C7  UNL     1      54.173  16.341  38.298  1.00  0.00     0.114 C 
HETATM   14  N6  UNL     1      53.295  17.392  37.918  1.00  0.00    -0.421 N 
HETATM   15  C8  UNL     1      53.692  18.720  38.285  1.00  0.00     0.114 C 
ATOM     16  H6  UNL     1      52.428  17.211  37.412  1.00  0.00     0.153 HD
HETATM   17  C9  UNL     1      53.969  18.870  39.757  1.00  0.00     0.033 C 
ENDBRANCH   8  11
ENDBRANCH   5   7
BRANCH   1  18
HETATM   18  N2  UNL     1      58.766  16.828  45.493  1.00  0.00    -0.258 N 
HETATM   19  C2  UNL     1      59.703  17.787  45.065  1.00  0.00     0.325 C 
HETATM   20  O2  UNL     1      59.284  18.841  44.503  1.00  0.00    -0.261 OA
ATOM     21  H2  UNL     1      59.126  15.986  45.945  1.00  0.00     0.190 HD
BRANCH  19  22
HETATM   22  C1  UNL     1      61.125  17.619  45.243  1.00  0.00     0.324 C 
HETATM   23  N1  UNL     1      61.993  17.459  44.116  1.00  0.00    -0.053 NA
HETATM   24  O1  UNL     1      61.625  17.611  46.402  1.00  0.00    -0.266 OA
ENDBRANCH  19  22
ENDBRANCH   1  18
TORSDOF 4
ENDMDL
MODEL 2
REMARK VINA RESULT: -5.758609859      1.228      1.302
REMARK  4 active torsions:
REMARK  status: ('A' for Active; 'I' for Inactive)
REMARK    1  A    between atoms: C1_2  and  C2_4 
REMARK       I    between atoms: C2_4  and  N2_6 
REMARK    2  A    between atoms: N2_6  and  N3_8 
REMARK       I    between atoms: N3_8  and  C3_10 
REMARK       I    between atoms: C3_10  and  N4_12 
REMARK    3  A    between atoms: N4_12  and  N5_14 
REMARK       I    between atoms: N5_14  and  C4_16 
REMARK    4  A    between atoms: C4_16  and  C5_18 
ROOT
HETATM    1  N3  UNL     1      57.449  16.396  45.176  1.00  0.00    -0.247 N 
ATOM      2  H3  UNL     1      57.156  15.552  45.669  1.00  0.00     0.192 HD
HETATM    3  C3  UNL     1      56.672  16.872  44.087  1.00  0.00     0.353 C 
HETATM    4  O3  UNL     1      57.052  17.928  43.504  1.00  0.00    -0.244 OA
HETATM    5  N4  UNL     1      55.510  16.171  43.675  1.00  0.00    -0.248 N 
ATOM      6  H4  UNL     1      55.235  15.325  44.174  1.00  0.00     0.192 HD
ENDROOT
BRANCH   5   7
HETATM    7  N5  UNL     1      54.736  16.609  42.606  1.00  0.00    -0.266 N 
HETATM    8  C4  UNL     1      55.229  16.455  41.289  1.00  0.00     0.240 C 
HETATM    9  O4  UNL     1      56.327  15.943  41.075  1.00  0.00    -0.271 OA
ATOM     10  H5  UNL     1      53.824  17.037  42.770  1.00  0.00     0.190 HD
BRANCH   8  11
HETATM   11  C5  UNL     1      54.386  16.927  40.173  1.00  0.00     0.082 C 
HETATM   12  C6  UNL     1      54.886  16.458  38.830  1.00  0.00     0.033 C 
HETATM   13  C7  UNL     1      53.794  16.718  37.814  1.00  0.00     0.114 C 
HETATM   14  N6  UNL     1      53.107  17.942  38.036  1.00  0.00    -0.421 N 
HETATM   15  C8  UNL     1      53.799  18.934  38.805  1.00  0.00     0.114 C 
ATOM     16  H6  UNL     1      52.170  18.105  37.667  1.00  0.00     0.153 HD
HETATM   17  C9  UNL     1      54.265  18.426  40.143  1.00  0.00     0.033 C 
ENDBRANCH   8  11
ENDBRANCH   5   7
BRANCH   1  18
HETATM   18  N2  UNL     1      58.601  17.060  45.581  1.00  0.00    -0.258 N 
HETATM   19  C2  UNL     1      59.751  17.242  44.790  1.00  0.00     0.325 C 
HETATM   20  O2  UNL     1      59.763  16.777  43.613  1.00  0.00    -0.261 OA
ATOM     21  H2  UNL     1      58.614  17.445  46.526  1.00  0.00     0.190 HD
BRANCH  19  22
HETATM   22  C1  UNL     1      60.920  17.941  45.266  1.00  0.00     0.324 C 
HETATM   23  N1  UNL     1      61.673  17.443  46.377  1.00  0.00    -0.053 NA
HETATM   24  O1  UNL     1      61.296  19.008  44.704  1.00  0.00    -0.266 OA
ENDBRANCH  19  22
ENDBRANCH   1  18
TORSDOF 4
ENDMDL
MODEL 3
REMARK VINA RESULT: -5.658996714      1.318      1.813
REMARK  4 active torsions:
REMARK  status: ('A' for Active; 'I' for Inactive)
REMARK    1  A    between atoms: C1_2  and  C2_4 
REMARK       I    between atoms: C2_4  and  N2_6 
REMARK    2  A    between atoms: N2_6  and  N3_8 
REMARK       I    between atoms: N3_8  and  C3_10 
REMARK       I    between atoms: C3_10  and  N4_12 
REMARK    3  A    between atoms: N4_12  and  N5_14 
REMARK       I    between atoms: N5_14  and  C4_16 
REMARK    4  A    between atoms: C4_16  and  C5_18 
ROOT
HETATM    1  N3  UNL     1      57.425  16.352  44.698  1.00  0.00    -0.247 N 
ATOM      2  H3  UNL     1      57.121  15.446  45.053  1.00  0.00     0.192 HD
HETATM    3  C3  UNL     1      56.779  16.909  43.563  1.00  0.00     0.353 C 
HETATM    4  O3  UNL     1      57.168  18.041  43.155  1.00  0.00    -0.244 OA
HETATM    5  N4  UNL     1      55.734  16.203  42.915  1.00  0.00    -0.248 N 
ATOM      6  H4  UNL     1      55.446  15.294  43.278  1.00  0.00     0.192 HD
ENDROOT
BRANCH   5   7
HETATM    7  N5  UNL     1      55.091  16.720  41.795  1.00  0.00    -0.266 N 
HETATM    8  C4  UNL     1      55.671  16.533  40.519  1.00  0.00     0.240 C 
HETATM    9  O4  UNL     1      56.731  15.923  40.384  1.00  0.00    -0.271 OA
ATOM     10  H5  UNL     1      54.212  17.228  41.894  1.00  0.00     0.190 HD
BRANCH   8  11
HETATM   11  C5  UNL     1      54.966  17.090  39.348  1.00  0.00     0.082 C 
HETATM   12  C6  UNL     1      54.051  18.232  39.712  1.00  0.00     0.033 C 
HETATM   13  C7  UNL     1      53.639  18.921  38.429  1.00  0.00     0.114 C 
HETATM   14  N6  UNL     1      53.411  18.015  37.358  1.00  0.00    -0.421 N 
HETATM   15  C8  UNL     1      53.120  16.659  37.720  1.00  0.00     0.114 C 
ATOM     16  H6  UNL     1      53.452  18.315  36.384  1.00  0.00     0.153 HD
HETATM   17  C9  UNL     1      54.164  16.048  38.615  1.00  0.00     0.033 C 
ENDBRANCH   8  11
ENDBRANCH   5   7
BRANCH   1  18
HETATM   18  N2  UNL     1      58.464  17.022  45.335  1.00  0.00    -0.258 N 
HETATM   19  C2  UNL     1      59.737  17.254  44.781  1.00  0.00     0.325 C 
HETATM   20  O2  UNL     1      59.981  16.831  43.613  1.00  0.00    -0.261 OA
ATOM     21  H2  UNL     1      58.290  17.373  46.277  1.00  0.00     0.190 HD
BRANCH  19  22
HETATM   22  C1  UNL     1      60.778  17.956  45.491  1.00  0.00     0.324 C 
HETATM   23  N1  UNL     1      61.727  17.247  46.295  1.00  0.00    -0.053 NA
HETATM   24  O1  UNL     1      60.867  19.214  45.410  1.00  0.00    -0.266 OA
ENDBRANCH  19  22
ENDBRANCH   1  18
TORSDOF 4
ENDMDL
MODEL 4
REMARK VINA RESULT: -5.511244697      3.153      8.518
REMARK  4 active torsions:
REMARK  status: ('A' for Active; 'I' for Inactive)
REMARK    1  A    between atoms: C1_2  and  C2_4 
REMARK       I    between atoms: C2_4  and  N2_6 
REMARK    2  A    between atoms: N2_6  and  N3_8 
REMARK       I    between atoms: N3_8  and  C3_10 
REMARK       I    between atoms: C3_10  and  N4_12 
REMARK    3  A    between atoms: N4_12  and  N5_14 
REMARK       I    between atoms: N5_14  and  C4_16 
REMARK    4  A    between atoms: C4_16  and  C5_18 
ROOT
HETATM    1  N3  UNL     1      54.437  17.013  38.207  1.00  0.00    -0.247 N 
ATOM      2  H3  UNL     1      55.004  16.556  37.493  1.00  0.00     0.192 HD
HETATM    3  C3  UNL     1      54.975  17.206  39.506  1.00  0.00     0.353 C 
HETATM    4  O3  UNL     1      54.253  17.788  40.366  1.00  0.00    -0.244 OA
HETATM    5  N4  UNL     1      56.282  16.751  39.816  1.00  0.00    -0.248 N 
ATOM      6  H4  UNL     1      56.834  16.290  39.093  1.00  0.00     0.192 HD
ENDROOT
BRANCH   5   7
HETATM    7  N5  UNL     1      56.830  16.919  41.083  1.00  0.00    -0.266 N 
HETATM    8  C4  UNL     1      56.652  15.903  42.051  1.00  0.00     0.240 C 
HETATM    9  O4  UNL     1      56.022  14.879  41.792  1.00  0.00    -0.271 OA
ATOM     10  H5  UNL     1      57.354  17.764  41.311  1.00  0.00     0.190 HD
BRANCH   8  11
HETATM   11  C5  UNL     1      57.247  16.107  43.387  1.00  0.00     0.082 C 
HETATM   12  C6  UNL     1      56.215  16.106  44.487  1.00  0.00     0.033 C 
HETATM   13  C7  UNL     1      56.947  15.998  45.807  1.00  0.00     0.114 C 
HETATM   14  N6  UNL     1      58.157  16.744  45.837  1.00  0.00    -0.421 N 
HETATM   15  C8  UNL     1      58.268  17.818  44.894  1.00  0.00     0.114 C 
ATOM     16  H6  UNL     1      58.906  16.526  46.494  1.00  0.00     0.153 HD
HETATM   17  C9  UNL     1      58.038  17.384  43.472  1.00  0.00     0.033 C 
ENDBRANCH   8  11
ENDBRANCH   5   7
BRANCH   1  18
HETATM   18  N2  UNL     1      53.150  17.436  37.891  1.00  0.00    -0.258 N 
HETATM   19  C2  UNL     1      52.547  17.315  36.626  1.00  0.00     0.325 C 
HETATM   20  O2  UNL     1      53.204  16.783  35.683  1.00  0.00    -0.261 OA
ATOM     21  H2  UNL     1      52.601  17.867  38.635  1.00  0.00     0.190 HD
BRANCH  19  22
HETATM   22  C1  UNL     1      51.206  17.774  36.356  1.00  0.00     0.324 C 
HETATM   23  N1  UNL     1      50.112  17.380  37.191  1.00  0.00    -0.053 NA
HETATM   24  O1  UNL     1      50.979  18.534  35.373  1.00  0.00    -0.266 OA
ENDBRANCH  19  22
ENDBRANCH   1  18
TORSDOF 4
ENDMDL
MODEL 5
REMARK VINA RESULT: -5.386024452      2.592      8.053
REMARK  4 active torsions:
REMARK  status: ('A' for Active; 'I' for Inactive)
REMARK    1  A    between atoms: C1_2  and  C2_4 
REMARK       I    between atoms: C2_4  and  N2_6 
REMARK    2  A    between atoms: N2_6  and  N3_8 
REMARK       I    between atoms: N3_8  and  C3_10 
REMARK       I    between atoms: C3_10  and  N4_12 
REMARK    3  A    between atoms: N4_12  and  N5_14 
REMARK       I    between atoms: N5_14  and  C4_16 
REMARK    4  A    between atoms: C4_16  and  C5_18 
ROOT
HETATM    1  N3  UNL     1      53.662  18.136  40.103  1.00  0.00    -0.247 N 
ATOM      2  H3  UNL     1      52.904  18.180  40.783  1.00  0.00     0.192 HD
HETATM    3  C3  UNL     1      55.000  17.998  40.557  1.00  0.00     0.353 C 
HETATM    4  O3  UNL     1      55.917  17.932  39.690  1.00  0.00    -0.244 OA
HETATM    5  N4  UNL     1      55.283  17.942  41.946  1.00  0.00    -0.248 N 
ATOM      6  H4  UNL     1      54.514  17.994  42.613  1.00  0.00     0.192 HD
ENDROOT
BRANCH   5   7
HETATM    7  N5  UNL     1      56.585  17.817  42.419  1.00  0.00    -0.266 N 
HETATM    8  C4  UNL     1      56.808  17.754  43.814  1.00  0.00     0.240 C 
HETATM    9  O4  UNL     1      55.874  17.811  44.613  1.00  0.00    -0.271 OA
ATOM     10  H5  UNL     1      57.368  17.770  41.768  1.00  0.00     0.190 HD
BRANCH   8  11
HETATM   11  C5  UNL     1      58.199  17.619  44.288  1.00  0.00     0.082 C 
HETATM   12  C6  UNL     1      58.846  18.950  44.577  1.00  0.00     0.033 C 
HETATM   13  C7  UNL     1      60.123  18.687  45.345  1.00  0.00     0.114 C 
HETATM   14  N6  UNL     1      60.819  17.534  44.892  1.00  0.00    -0.421 N 
HETATM   15  C8  UNL     1      60.531  17.098  43.557  1.00  0.00     0.114 C 
ATOM     16  H6  UNL     1      61.488  17.043  45.485  1.00  0.00     0.153 HD
HETATM   17  C9  UNL     1      59.064  16.867  43.313  1.00  0.00     0.033 C 
ENDBRANCH   8  11
ENDBRANCH   5   7
BRANCH   1  18
HETATM   18  N2  UNL     1      53.368  18.212  38.745  1.00  0.00    -0.258 N 
HETATM   19  C2  UNL     1      53.332  17.116  37.863  1.00  0.00     0.325 C 
HETATM   20  O2  UNL     1      53.582  15.960  38.314  1.00  0.00    -0.261 OA
ATOM     21  H2  UNL     1      53.163  19.134  38.359  1.00  0.00     0.190 HD
BRANCH  19  22
HETATM   22  C1  UNL     1      53.021  17.255  36.461  1.00  0.00     0.324 C 
HETATM   23  N1  UNL     1      51.736  17.722  36.036  1.00  0.00    -0.053 NA
HETATM   24  O1  UNL     1      53.885  16.967  35.586  1.00  0.00    -0.266 OA
ENDBRANCH  19  22
ENDBRANCH   1  18
TORSDOF 4
ENDMDL
