MODEL 1
REMARK VINA RESULT: -4.918515533      0.000      0.000
REMARK  2 active torsions:
REMARK  status: ('A' for Active; 'I' for Inactive)
REMARK       I    between atoms: N1_2  and  C2_4 
REMARK    1  A    between atoms: C2_4  and  C3_6 
REMARK    2  A    between atoms: C3_6  and  N2_7 
ROOT
HETATM    1  N2  UNL     1      49.609  10.097  46.849  1.00  0.00    -0.297 N 
HETATM    2  C4  UNL     1      50.459   9.438  47.793  1.00  0.00     0.175 C 
HETATM    3  C5  UNL     1      51.725  10.231  48.059  1.00  0.00     0.254 C 
HETATM    4  N3  UNL     1      52.721   9.471  48.724  1.00  0.00    -0.073 N 
ATOM      5  H31 UNL     1      53.417   9.137  48.057  1.00  0.00     0.277 HD
ATOM      6  H32 UNL     1      52.337   8.580  49.038  1.00  0.00     0.277 HD
HETATM    7  C6  UNL     1      53.362  10.149  49.814  1.00  0.00     0.234 C 
HETATM    8  C7  UNL     1      53.180   9.482  51.139  1.00  0.00     0.055 C 
HETATM    9  C8  UNL     1      51.781   9.496  51.655  1.00  0.00     0.234 C 
HETATM   10  N4  UNL     1      51.182  10.797  51.533  1.00  0.00    -0.073 N 
ATOM     11  H41 UNL     1      51.023  11.051  50.559  1.00  0.00     0.277 HD
ATOM     12  H42 UNL     1      51.835  11.541  51.779  1.00  0.00     0.277 HD
HETATM   13  C9  UNL     1      49.960  10.868  52.317  1.00  0.00     0.259 C 
HETATM   14  C10 UNL     1      48.765  10.388  51.527  1.00  0.00     0.260 C 
HETATM   15  N5  UNL     1      48.295  11.404  50.601  1.00  0.00    -0.069 N 
ATOM     16  H51 UNL     1      49.051  11.999  50.263  1.00  0.00     0.277 HD
ATOM     17  H52 UNL     1      47.742  12.124  51.066  1.00  0.00     0.277 HD
HETATM   18  C11 UNL     1      47.570  10.762  49.516  1.00  0.00     0.278 C 
HETATM   19  C12 UNL     1      48.018  11.276  48.158  1.00  0.00     0.107 C 
HETATM   20  N6  UNL     1      48.324  10.278  47.222  1.00  0.00    -0.312 N 
ATOM     21  H6  UNL     1      47.585   9.696  46.828  1.00  0.00     0.185 HD
ENDROOT
BRANCH   1  22
HETATM   22  C3  UNL     1      49.951   9.947  45.501  1.00  0.00     0.184 C 
BRANCH  22  23
HETATM   23  C2  UNL     1      48.901   9.219  44.730  1.00  0.00     0.258 C 
HETATM   24  N1  UNL     1      48.236   9.851  43.637  1.00  0.00    -0.361 N 
HETATM   25  C1  UNL     1      47.229   9.114  42.920  1.00  0.00     0.149 C 
ATOM     26  H1  UNL     1      48.471  10.806  43.368  1.00  0.00     0.162 HD
HETATM   27  O1  UNL     1      48.589   8.059  45.025  1.00  0.00    -0.267 OA
ENDBRANCH  22  23
ENDBRANCH   1  22
TORSDOF 2
ENDMDL
MODEL 2
REMARK VINA RESULT: -4.859880152      2.440      6.636
REMARK  2 active torsions:
REMARK  status: ('A' for Active; 'I' for Inactive)
REMARK       I    between atoms: N1_2  and  C2_4 
REMARK    1  A    between atoms: C2_4  and  C3_6 
REMARK    2  A    between atoms: C3_6  and  N2_7 
ROOT
HETATM    1  N2  UNL     1      51.265   8.925  49.307  1.00  0.00    -0.297 N 
HETATM    2  C4  UNL     1      49.864   9.082  49.057  1.00  0.00     0.175 C 
HETATM    3  C5  UNL     1      49.508  10.521  48.732  1.00  0.00     0.254 C 
HETATM    4  N3  UNL     1      48.113  10.772  48.799  1.00  0.00    -0.073 N 
ATOM      5  H31 UNL     1      47.876  11.218  49.685  1.00  0.00     0.277 HD
ATOM      6  H32 UNL     1      47.600   9.897  48.900  1.00  0.00     0.277 HD
HETATM    7  C6  UNL     1      47.590  11.534  47.702  1.00  0.00     0.234 C 
HETATM    8  C7  UNL     1      46.557  10.814  46.898  1.00  0.00     0.055 C 
HETATM    9  C8  UNL     1      47.069   9.640  46.134  1.00  0.00     0.234 C 
HETATM   10  N4  UNL     1      48.287   9.951  45.436  1.00  0.00    -0.073 N 
ATOM     11  H41 UNL     1      49.062  10.108  46.078  1.00  0.00     0.277 HD
ATOM     12  H42 UNL     1      48.254  10.876  45.009  1.00  0.00     0.277 HD
HETATM   13  C9  UNL     1      48.591   8.915  44.463  1.00  0.00     0.259 C 
HETATM   14  C10 UNL     1      49.388   7.789  45.081  1.00  0.00     0.260 C 
HETATM   15  N5  UNL     1      50.788   8.143  45.223  1.00  0.00    -0.069 N 
ATOM     16  H51 UNL     1      50.922   9.142  45.380  1.00  0.00     0.277 HD
ATOM     17  H52 UNL     1      51.299   8.066  44.344  1.00  0.00     0.277 HD
HETATM   18  C11 UNL     1      51.379   7.336  46.278  1.00  0.00     0.278 C 
HETATM   19  C12 UNL     1      52.186   8.181  47.251  1.00  0.00     0.107 C 
HETATM   20  N6  UNL     1      51.895   7.961  48.604  1.00  0.00    -0.312 N 
ATOM     21  H6  UNL     1      52.158   7.083  49.052  1.00  0.00     0.185 HD
ENDROOT
BRANCH   1  22
HETATM   22  C3  UNL     1      51.708   9.292  50.582  1.00  0.00     0.184 C 
BRANCH  22  23
HETATM   23  C2  UNL     1      52.786  10.322  50.529  1.00  0.00     0.258 C 
HETATM   24  N1  UNL     1      52.971  11.234  51.610  1.00  0.00    -0.361 N 
HETATM   25  C1  UNL     1      54.023  12.212  51.519  1.00  0.00     0.149 C 
ATOM     26  H1  UNL     1      52.370  11.194  52.433  1.00  0.00     0.162 HD
HETATM   27  O1  UNL     1      53.538  10.402  49.550  1.00  0.00    -0.267 OA
ENDBRANCH  22  23
ENDBRANCH   1  22
TORSDOF 2
ENDMDL
MODEL 3
REMARK VINA RESULT: -4.567988278      1.159      1.164
REMARK  2 active torsions:
REMARK  status: ('A' for Active; 'I' for Inactive)
REMARK       I    between atoms: N1_2  and  C2_4 
REMARK    1  A    between atoms: C2_4  and  C3_6 
REMARK    2  A    between atoms: C3_6  and  N2_7 
ROOT
HETATM    1  N2  UNL     1      49.507   9.507  46.378  1.00  0.00    -0.297 N 
HETATM    2  C4  UNL     1      50.247   8.616  47.220  1.00  0.00     0.175 C 
HETATM    3  C5  UNL     1      51.702   9.030  47.336  1.00  0.00     0.254 C 
HETATM    4  N3  UNL     1      52.523   8.011  47.883  1.00  0.00    -0.073 N 
ATOM      5  H31 UNL     1      53.023   7.522  47.140  1.00  0.00     0.277 HD
ATOM      6  H32 UNL     1      51.950   7.247  48.241  1.00  0.00     0.277 HD
HETATM    7  C6  UNL     1      53.442   8.460  48.890  1.00  0.00     0.234 C 
HETATM    8  C7  UNL     1      53.235   7.827  50.228  1.00  0.00     0.055 C 
HETATM    9  C8  UNL     1      51.959   8.203  50.903  1.00  0.00     0.234 C 
HETATM   10  N4  UNL     1      51.725   9.619  50.848  1.00  0.00    -0.073 N 
ATOM     11  H41 UNL     1      51.533   9.935  49.898  1.00  0.00     0.277 HD
ATOM     12  H42 UNL     1      52.578  10.152  51.015  1.00  0.00     0.277 HD
HETATM   13  C9  UNL     1      50.663   9.994  51.767  1.00  0.00     0.259 C 
HETATM   14  C10 UNL     1      49.302   9.877  51.122  1.00  0.00     0.260 C 
HETATM   15  N5  UNL     1      49.025  11.008  50.255  1.00  0.00    -0.069 N 
ATOM     16  H51 UNL     1      49.871  11.388  49.830  1.00  0.00     0.277 HD
ATOM     17  H52 UNL     1      48.742  11.837  50.778  1.00  0.00     0.277 HD
HETATM   18  C11 UNL     1      48.036  10.618  49.262  1.00  0.00     0.278 C 
HETATM   19  C12 UNL     1      48.452  11.031  47.860  1.00  0.00     0.107 C 
HETATM   20  N6  UNL     1      48.370  10.016  46.897  1.00  0.00    -0.312 N 
ATOM     21  H6  UNL     1      47.462   9.666  46.592  1.00  0.00     0.185 HD
ENDROOT
BRANCH   1  22
HETATM   22  C3  UNL     1      49.644   9.309  45.000  1.00  0.00     0.184 C 
BRANCH  22  23
HETATM   23  C2  UNL     1      48.327   9.116  44.326  1.00  0.00     0.258 C 
HETATM   24  N1  UNL     1      47.836  10.085  43.402  1.00  0.00    -0.361 N 
HETATM   25  C1  UNL     1      46.562   9.860  42.773  1.00  0.00     0.149 C 
ATOM     26  H1  UNL     1      48.379  10.923  43.190  1.00  0.00     0.162 HD
HETATM   27  O1  UNL     1      47.640   8.113  44.555  1.00  0.00    -0.267 OA
ENDBRANCH  22  23
ENDBRANCH   1  22
TORSDOF 2
ENDMDL
MODEL 4
REMARK VINA RESULT: -4.383252565      1.543      3.429
REMARK  2 active torsions:
REMARK  status: ('A' for Active; 'I' for Inactive)
REMARK       I    between atoms: N1_2  and  C2_4 
REMARK    1  A    between atoms: C2_4  and  C3_6 
REMARK    2  A    between atoms: C3_6  and  N2_7 
ROOT
HETATM    1  N2  UNL     1      50.477   9.683  46.703  1.00  0.00    -0.297 N 
HETATM    2  C4  UNL     1      50.211  10.520  47.832  1.00  0.00     0.175 C 
HETATM    3  C5  UNL     1      48.763  10.426  48.275  1.00  0.00     0.254 C 
HETATM    4  N3  UNL     1      48.390  11.465  49.165  1.00  0.00    -0.073 N 
ATOM      5  H31 UNL     1      47.887  12.198  48.665  1.00  0.00     0.277 HD
ATOM      6  H32 UNL     1      49.213  11.990  49.463  1.00  0.00     0.277 HD
HETATM    7  C6  UNL     1      47.635  11.032  50.307  1.00  0.00     0.234 C 
HETATM    8  C7  UNL     1      48.298  11.309  51.617  1.00  0.00     0.055 C 
HETATM    9  C8  UNL     1      49.544  10.526  51.860  1.00  0.00     0.234 C 
HETATM   10  N4  UNL     1      49.371   9.136  51.538  1.00  0.00    -0.073 N 
ATOM     11  H41 UNL     1      49.253   8.991  50.536  1.00  0.00     0.277 HD
ATOM     12  H42 UNL     1      48.465   8.784  51.850  1.00  0.00     0.277 HD
HETATM   13  C9  UNL     1      50.470   8.351  52.073  1.00  0.00     0.259 C 
HETATM   14  C10 UNL     1      51.632   8.294  51.108  1.00  0.00     0.260 C 
HETATM   15  N5  UNL     1      51.394   7.336  50.044  1.00  0.00    -0.069 N 
ATOM     16  H51 UNL     1      50.404   7.251  49.812  1.00  0.00     0.277 HD
ATOM     17  H52 UNL     1      51.554   6.374  50.345  1.00  0.00     0.277 HD
HETATM   18  C11 UNL     1      52.203   7.695  48.889  1.00  0.00     0.278 C 
HETATM   19  C12 UNL     1      51.388   7.686  47.606  1.00  0.00     0.107 C 
HETATM   20  N6  UNL     1      51.522   8.836  46.816  1.00  0.00    -0.312 N 
ATOM     21  H6  UNL     1      52.398   9.030  46.332  1.00  0.00     0.185 HD
ENDROOT
BRANCH   1  22
HETATM   22  C3  UNL     1      50.093  10.189  45.456  1.00  0.00     0.184 C 
BRANCH  22  23
HETATM   23  C2  UNL     1      49.303   9.201  44.665  1.00  0.00     0.258 C 
HETATM   24  N1  UNL     1      48.189   9.624  43.882  1.00  0.00    -0.361 N 
HETATM   25  C1  UNL     1      47.454   8.639  43.133  1.00  0.00     0.149 C 
ATOM     26  H1  UNL     1      47.917  10.607  43.853  1.00  0.00     0.162 HD
HETATM   27  O1  UNL     1      49.602   8.000  44.673  1.00  0.00    -0.267 OA
ENDBRANCH  22  23
ENDBRANCH   1  22
TORSDOF 2
ENDMDL
MODEL 5
REMARK VINA RESULT: -4.223042244      1.565      3.414
REMARK  2 active torsions:
REMARK  status: ('A' for Active; 'I' for Inactive)
REMARK       I    between atoms: N1_2  and  C2_4 
REMARK    1  A    between atoms: C2_4  and  C3_6 
REMARK    2  A    between atoms: C3_6  and  N2_7 
ROOT
HETATM    1  N2  UNL     1      48.778   9.800  47.255  1.00  0.00    -0.297 N 
HETATM    2  C4  UNL     1      49.375  10.514  48.342  1.00  0.00     0.175 C 
HETATM    3  C5  UNL     1      48.874  10.017  49.686  1.00  0.00     0.254 C 
HETATM    4  N3  UNL     1      49.187  10.899  50.751  1.00  0.00    -0.073 N 
ATOM      5  H31 UNL     1      48.377  11.472  50.987  1.00  0.00     0.277 HD
ATOM      6  H32 UNL     1      49.829  11.625  50.434  1.00  0.00     0.277 HD
HETATM    7  C6  UNL     1      49.702  10.257  51.927  1.00  0.00     0.234 C 
HETATM    8  C7  UNL     1      51.085  10.685  52.298  1.00  0.00     0.055 C 
HETATM    9  C8  UNL     1      52.144  10.272  51.333  1.00  0.00     0.234 C 
HETATM   10  N4  UNL     1      52.008   8.894  50.950  1.00  0.00    -0.073 N 
ATOM     11  H41 UNL     1      51.172   8.737  50.388  1.00  0.00     0.277 HD
ATOM     12  H42 UNL     1      51.768   8.301  51.745  1.00  0.00     0.277 HD
HETATM   13  C9  UNL     1      53.209   8.434  50.274  1.00  0.00     0.259 C 
HETATM   14  C10 UNL     1      53.153   8.714  48.790  1.00  0.00     0.260 C 
HETATM   15  N5  UNL     1      52.325   7.745  48.095  1.00  0.00    -0.069 N 
ATOM     16  H51 UNL     1      51.565   7.395  48.679  1.00  0.00     0.277 HD
ATOM     17  H52 UNL     1      52.810   6.860  47.944  1.00  0.00     0.277 HD
HETATM   18  C11 UNL     1      51.843   8.331  46.855  1.00  0.00     0.278 C 
HETATM   19  C12 UNL     1      50.348   8.118  46.675  1.00  0.00     0.107 C 
HETATM   20  N6  UNL     1      49.624   9.273  46.346  1.00  0.00    -0.312 N 
ATOM     21  H6  UNL     1      49.736   9.709  45.431  1.00  0.00     0.185 HD
ENDROOT
BRANCH   1  22
HETATM   22  C3  UNL     1      47.488  10.201  46.890  1.00  0.00     0.184 C 
BRANCH  22  23
HETATM   23  C2  UNL     1      47.096   9.680  45.547  1.00  0.00     0.258 C 
HETATM   24  N1  UNL     1      46.937  10.569  44.443  1.00  0.00    -0.361 N 
HETATM   25  C1  UNL     1      46.557  10.026  43.166  1.00  0.00     0.149 C 
ATOM     26  H1  UNL     1      47.089  11.571  44.556  1.00  0.00     0.162 HD
HETATM   27  O1  UNL     1      46.902   8.471  45.369  1.00  0.00    -0.267 OA
ENDBRANCH  22  23
ENDBRANCH   1  22
TORSDOF 2
ENDMDL
