MODEL 1
REMARK VINA RESULT: -7.748271401      0.000      0.000
REMARK  9 active torsions:
REMARK  status: ('A' for Active; 'I' for Inactive)
REMARK    1  A    between atoms: C4_4  and  C5_5 
REMARK       I    between atoms: C5_5  and  N1_7 
REMARK    2  A    between atoms: N1_7  and  C6_8 
REMARK    3  A    between atoms: C13_15  and  O2_16 
REMARK    4  A    between atoms: O2_16  and  O3_17 
REMARK    5  A    between atoms: C16_21  and  C17_22 
REMARK    6  A    between atoms: C18_23  and  C19_24 
REMARK    7  A    between atoms: C20_25  and  C21_26 
REMARK    8  A    between atoms: C21_26  and  C22_27 
REMARK    9  A    between atoms: C23_30  and  C24_31 
ROOT
HETATM    1  C1  UNL     1      -3.507   7.588  19.847  1.00  0.00     0.027 C 
HETATM    2  C2  UNL     1      -2.924   6.771  20.525  1.00  0.00    -0.025 C 
HETATM    3  C3  UNL     1      -2.245   5.839  21.338  1.00  0.00    -0.005 C 
HETATM    4  C4  UNL     1      -1.669   5.068  22.054  1.00  0.00     0.024 C 
ENDROOT
BRANCH   4   5
HETATM    5  C5  UNL     1      -0.943   4.139  22.985  1.00  0.00     0.367 C 
HETATM    6  O1  UNL     1      -0.158   3.392  22.321  1.00  0.00    -0.242 OA
HETATM    7  N1  UNL     1      -1.212   4.228  24.292  1.00  0.00    -0.398 NA
BRANCH   7   8
HETATM    8  C6  UNL     1      -1.488   4.319  25.641  1.00  0.00     0.172 C 
HETATM    9  C7  UNL     1      -2.471   5.359  26.142  1.00  0.00     0.051 C 
HETATM   10  C8  UNL     1      -3.172   4.997  27.422  1.00  0.00    -0.019 C 
HETATM   11  C9  UNL     1      -4.206   3.977  27.003  1.00  0.00     0.012 C 
HETATM   12  C14 UNL     1      -2.423   4.468  28.561  1.00  0.00     0.001 C 
HETATM   13  C23 UNL     1      -3.525   6.219  28.153  1.00  0.00     0.025 C 
HETATM   14  C10 UNL     1      -3.487   2.908  26.198  1.00  0.00     0.009 C 
HETATM   15  C11 UNL     1      -1.991   2.999  26.175  1.00  0.00     0.024 C 
HETATM   16  C12 UNL     1      -1.308   2.619  27.455  1.00  0.00     0.043 C 
HETATM   17  C13 UNL     1      -1.094   3.844  28.336  1.00  0.00     0.170 C 
HETATM   18  C15 UNL     1      -3.201   3.586  29.533  1.00  0.00     0.019 C 
HETATM   19  C16 UNL     1      -2.379   5.867  29.144  1.00  0.00     0.028 C 
BRANCH  17  20
HETATM   20  O2  UNL     1      -0.677   3.318  29.584  1.00  0.00    -0.237 OA
BRANCH  20  21
HETATM   21  O3  UNL     1       0.443   3.818  30.006  1.00  0.00    -0.250 OA
ATOM     22  H3  UNL     1       1.197   3.534  29.505  1.00  0.00     0.253 HD
ENDBRANCH  20  21
ENDBRANCH  17  20
BRANCH  19  23
HETATM   23  C17 UNL     1      -1.132   6.584  28.913  1.00  0.00    -0.021 C 
HETATM   24  C18 UNL     1      -0.692   7.587  29.577  1.00  0.00    -0.004 C 
BRANCH  24  25
HETATM   25  C19 UNL     1      -1.358   8.193  30.696  1.00  0.00    -0.004 C 
HETATM   26  C20 UNL     1      -1.032   7.803  31.951  1.00  0.00    -0.016 C 
BRANCH  26  27
HETATM   27  C21 UNL     1      -1.665   8.366  33.156  1.00  0.00     0.140 C 
BRANCH  27  28
HETATM   28  C22 UNL     1      -0.555   9.019  33.924  1.00  0.00     0.176 C 
HETATM   29  O4  UNL     1       0.299   9.749  33.371  1.00  0.00    -0.648 OA
HETATM   30  O5  UNL     1      -0.456   8.825  35.283  1.00  0.00    -0.648 OA
ENDBRANCH  27  28
ENDBRANCH  26  27
ENDBRANCH  24  25
ENDBRANCH  19  23
BRANCH  13  31
HETATM   31  C24 UNL     1      -4.766   6.519  28.802  1.00  0.00    -0.031 C 
HETATM   32  C25 UNL     1      -5.603   7.517  28.774  1.00  0.00     0.007 C 
ENDBRANCH  13  31
ENDBRANCH   7   8
ENDBRANCH   4   5
TORSDOF 9
ENDMDL
MODEL 2
REMARK VINA RESULT: -7.600457404      1.088      1.197
REMARK  9 active torsions:
REMARK  status: ('A' for Active; 'I' for Inactive)
REMARK    1  A    between atoms: C4_4  and  C5_5 
REMARK       I    between atoms: C5_5  and  N1_7 
REMARK    2  A    between atoms: N1_7  and  C6_8 
REMARK    3  A    between atoms: C13_15  and  O2_16 
REMARK    4  A    between atoms: O2_16  and  O3_17 
REMARK    5  A    between atoms: C16_21  and  C17_22 
REMARK    6  A    between atoms: C18_23  and  C19_24 
REMARK    7  A    between atoms: C20_25  and  C21_26 
REMARK    8  A    between atoms: C21_26  and  C22_27 
REMARK    9  A    between atoms: C23_30  and  C24_31 
ROOT
HETATM    1  C1  UNL     1      -3.452   7.589  19.803  1.00  0.00     0.027 C 
HETATM    2  C2  UNL     1      -2.895   6.772  20.503  1.00  0.00    -0.025 C 
HETATM    3  C3  UNL     1      -2.239   5.842  21.337  1.00  0.00    -0.005 C 
HETATM    4  C4  UNL     1      -1.672   5.076  22.066  1.00  0.00     0.024 C 
ENDROOT
BRANCH   4   5
HETATM    5  C5  UNL     1      -0.943   4.157  23.003  1.00  0.00     0.367 C 
HETATM    6  O1  UNL     1      -0.148   3.416  22.346  1.00  0.00    -0.242 OA
HETATM    7  N1  UNL     1      -1.219   4.247  24.309  1.00  0.00    -0.398 NA
BRANCH   7   8
HETATM    8  C6  UNL     1      -1.504   4.339  25.655  1.00  0.00     0.172 C 
HETATM    9  C7  UNL     1      -2.494   5.377  26.148  1.00  0.00     0.051 C 
HETATM   10  C8  UNL     1      -3.201   5.014  27.425  1.00  0.00    -0.019 C 
HETATM   11  C9  UNL     1      -4.229   3.990  27.001  1.00  0.00     0.012 C 
HETATM   12  C14 UNL     1      -2.457   4.490  28.570  1.00  0.00     0.001 C 
HETATM   13  C23 UNL     1      -3.563   6.237  28.152  1.00  0.00     0.025 C 
HETATM   14  C10 UNL     1      -3.502   2.922  26.203  1.00  0.00     0.009 C 
HETATM   15  C11 UNL     1      -2.006   3.019  26.188  1.00  0.00     0.024 C 
HETATM   16  C12 UNL     1      -1.328   2.643  27.473  1.00  0.00     0.043 C 
HETATM   17  C13 UNL     1      -1.125   3.871  28.353  1.00  0.00     0.170 C 
HETATM   18  C15 UNL     1      -3.237   3.607  29.538  1.00  0.00     0.019 C 
HETATM   19  C16 UNL     1      -2.421   5.890  29.150  1.00  0.00     0.028 C 
BRANCH  17  20
HETATM   20  O2  UNL     1      -0.712   3.348  29.605  1.00  0.00    -0.237 OA
BRANCH  20  21
HETATM   21  O3  UNL     1       0.428   3.815  30.009  1.00  0.00    -0.250 OA
ATOM     22  H3  UNL     1       0.473   3.941  30.949  1.00  0.00     0.253 HD
ENDBRANCH  20  21
ENDBRANCH  17  20
BRANCH  19  23
HETATM   23  C17 UNL     1      -1.175   6.612  28.926  1.00  0.00    -0.021 C 
HETATM   24  C18 UNL     1      -0.735   7.606  29.601  1.00  0.00    -0.004 C 
BRANCH  24  25
HETATM   25  C19 UNL     1      -1.399   8.197  30.729  1.00  0.00    -0.004 C 
HETATM   26  C20 UNL     1      -1.036   7.829  31.980  1.00  0.00    -0.016 C 
BRANCH  26  27
HETATM   27  C21 UNL     1      -1.663   8.379  33.194  1.00  0.00     0.140 C 
BRANCH  27  28
HETATM   28  C22 UNL     1      -2.745   7.408  33.561  1.00  0.00     0.176 C 
HETATM   29  O4  UNL     1      -2.521   6.185  33.712  1.00  0.00    -0.648 OA
HETATM   30  O5  UNL     1      -4.033   7.855  33.747  1.00  0.00    -0.648 OA
ENDBRANCH  27  28
ENDBRANCH  26  27
ENDBRANCH  24  25
ENDBRANCH  19  23
BRANCH  13  31
HETATM   31  C24 UNL     1      -4.808   6.534  28.793  1.00  0.00    -0.031 C 
HETATM   32  C25 UNL     1      -5.652   7.525  28.754  1.00  0.00     0.007 C 
ENDBRANCH  13  31
ENDBRANCH   7   8
ENDBRANCH   4   5
TORSDOF 9
ENDMDL
MODEL 3
REMARK VINA RESULT: -7.498208450      0.820      1.007
REMARK  9 active torsions:
REMARK  status: ('A' for Active; 'I' for Inactive)
REMARK    1  A    between atoms: C4_4  and  C5_5 
REMARK       I    between atoms: C5_5  and  N1_7 
REMARK    2  A    between atoms: N1_7  and  C6_8 
REMARK    3  A    between atoms: C13_15  and  O2_16 
REMARK    4  A    between atoms: O2_16  and  O3_17 
REMARK    5  A    between atoms: C16_21  and  C17_22 
REMARK    6  A    between atoms: C18_23  and  C19_24 
REMARK    7  A    between atoms: C20_25  and  C21_26 
REMARK    8  A    between atoms: C21_26  and  C22_27 
REMARK    9  A    between atoms: C23_30  and  C24_31 
ROOT
HETATM    1  C1  UNL     1      -3.173   8.350  19.400  1.00  0.00     0.027 C 
HETATM    2  C2  UNL     1      -2.691   7.419  20.006  1.00  0.00    -0.025 C 
HETATM    3  C3  UNL     1      -2.121   6.353  20.734  1.00  0.00    -0.005 C 
HETATM    4  C4  UNL     1      -1.630   5.468  21.377  1.00  0.00     0.024 C 
ENDROOT
BRANCH   4   5
HETATM    5  C5  UNL     1      -0.996   4.394  22.214  1.00  0.00     0.367 C 
HETATM    6  O1  UNL     1      -0.232   3.680  21.492  1.00  0.00    -0.242 OA
HETATM    7  N1  UNL     1      -1.307   4.348  23.514  1.00  0.00    -0.398 NA
BRANCH   7   8
HETATM    8  C6  UNL     1      -1.629   4.301  24.855  1.00  0.00     0.172 C 
HETATM    9  C7  UNL     1      -2.577   5.328  25.441  1.00  0.00     0.051 C 
HETATM   10  C8  UNL     1      -3.342   4.860  26.649  1.00  0.00    -0.019 C 
HETATM   11  C9  UNL     1      -4.408   3.951  26.084  1.00  0.00     0.012 C 
HETATM   12  C14 UNL     1      -2.662   4.167  27.743  1.00  0.00     0.001 C 
HETATM   13  C23 UNL     1      -3.662   6.009  27.505  1.00  0.00     0.025 C 
HETATM   14  C10 UNL     1      -3.714   2.943  25.185  1.00  0.00     0.009 C 
HETATM   15  C11 UNL     1      -2.215   2.958  25.218  1.00  0.00     0.024 C 
HETATM   16  C12 UNL     1      -1.598   2.399  26.467  1.00  0.00     0.043 C 
HETATM   17  C13 UNL     1      -1.358   3.504  27.488  1.00  0.00     0.170 C 
HETATM   18  C15 UNL     1      -3.517   3.223  28.582  1.00  0.00     0.019 C 
HETATM   19  C16 UNL     1      -2.571   5.487  28.483  1.00  0.00     0.028 C 
BRANCH  17  20
HETATM   20  O2  UNL     1      -1.013   2.819  28.680  1.00  0.00    -0.237 OA
BRANCH  20  21
HETATM   21  O3  UNL     1       0.205   3.038  29.068  1.00  0.00    -0.250 OA
ATOM     22  H3  UNL     1       0.848   2.510  28.609  1.00  0.00     0.253 HD
ENDBRANCH  20  21
ENDBRANCH  17  20
BRANCH  19  23
HETATM   23  C17 UNL     1      -1.283   6.159  28.376  1.00  0.00    -0.021 C 
HETATM   24  C18 UNL     1      -0.862   7.127  29.100  1.00  0.00    -0.004 C 
BRANCH  24  25
HETATM   25  C19 UNL     1      -1.595   7.732  30.177  1.00  0.00    -0.004 C 
HETATM   26  C20 UNL     1      -1.077   7.707  31.427  1.00  0.00    -0.016 C 
BRANCH  26  27
HETATM   27  C21 UNL     1      -1.759   8.298  32.591  1.00  0.00     0.140 C 
BRANCH  27  28
HETATM   28  C22 UNL     1      -0.667   8.677  33.546  1.00  0.00     0.176 C 
HETATM   29  O4  UNL     1      -0.508   8.093  34.643  1.00  0.00    -0.648 OA
HETATM   30  O5  UNL     1       0.201   9.695  33.225  1.00  0.00    -0.648 OA
ENDBRANCH  27  28
ENDBRANCH  26  27
ENDBRANCH  24  25
ENDBRANCH  19  23
BRANCH  13  31
HETATM   31  C24 UNL     1      -4.909   6.299  28.145  1.00  0.00    -0.031 C 
HETATM   32  C25 UNL     1      -5.791   7.254  28.056  1.00  0.00     0.007 C 
ENDBRANCH  13  31
ENDBRANCH   7   8
ENDBRANCH   4   5
TORSDOF 9
ENDMDL
MODEL 4
REMARK VINA RESULT: -7.120695604      1.459      1.874
REMARK  9 active torsions:
REMARK  status: ('A' for Active; 'I' for Inactive)
REMARK    1  A    between atoms: C4_4  and  C5_5 
REMARK       I    between atoms: C5_5  and  N1_7 
REMARK    2  A    between atoms: N1_7  and  C6_8 
REMARK    3  A    between atoms: C13_15  and  O2_16 
REMARK    4  A    between atoms: O2_16  and  O3_17 
REMARK    5  A    between atoms: C16_21  and  C17_22 
REMARK    6  A    between atoms: C18_23  and  C19_24 
REMARK    7  A    between atoms: C20_25  and  C21_26 
REMARK    8  A    between atoms: C21_26  and  C22_27 
REMARK    9  A    between atoms: C23_30  and  C24_31 
ROOT
HETATM    1  C1  UNL     1      -2.868   9.277  19.370  1.00  0.00     0.027 C 
HETATM    2  C2  UNL     1      -2.519   8.207  19.817  1.00  0.00    -0.025 C 
HETATM    3  C3  UNL     1      -2.128   6.966  20.363  1.00  0.00    -0.005 C 
HETATM    4  C4  UNL     1      -1.812   5.918  20.855  1.00  0.00     0.024 C 
ENDROOT
BRANCH   4   5
HETATM    5  C5  UNL     1      -1.435   4.623  21.515  1.00  0.00     0.367 C 
HETATM    6  O1  UNL     1      -0.825   3.879  20.684  1.00  0.00    -0.242 OA
HETATM    7  N1  UNL     1      -1.773   4.453  22.798  1.00  0.00    -0.398 NA
BRANCH   7   8
HETATM    8  C6  UNL     1      -2.122   4.276  24.121  1.00  0.00     0.172 C 
HETATM    9  C7  UNL     1      -2.894   5.359  24.849  1.00  0.00     0.051 C 
HETATM   10  C8  UNL     1      -3.749   4.867  25.984  1.00  0.00    -0.019 C 
HETATM   11  C9  UNL     1      -4.943   4.239  25.304  1.00  0.00     0.012 C 
HETATM   12  C14 UNL     1      -3.217   3.924  26.967  1.00  0.00     0.001 C 
HETATM   13  C23 UNL     1      -3.885   5.924  26.993  1.00  0.00     0.025 C 
HETATM   14  C10 UNL     1      -4.413   3.261  24.270  1.00  0.00     0.009 C 
HETATM   15  C11 UNL     1      -2.935   3.016  24.296  1.00  0.00     0.024 C 
HETATM   16  C12 UNL     1      -2.444   2.194  25.452  1.00  0.00     0.043 C 
HETATM   17  C13 UNL     1      -2.039   3.090  26.616  1.00  0.00     0.170 C 
HETATM   18  C15 UNL     1      -4.234   3.033  27.672  1.00  0.00     0.019 C 
HETATM   19  C16 UNL     1      -2.917   5.094  27.883  1.00  0.00     0.028 C 
BRANCH  17  20
HETATM   20  O2  UNL     1      -1.837   2.198  27.699  1.00  0.00    -0.237 OA
BRANCH  20  21
HETATM   21  O3  UNL     1      -0.762   1.482  27.585  1.00  0.00    -0.250 OA
ATOM     22  H3  UNL     1       0.002   1.985  27.328  1.00  0.00     0.253 HD
ENDBRANCH  20  21
ENDBRANCH  17  20
BRANCH  19  23
HETATM   23  C17 UNL     1      -1.531   5.545  27.863  1.00  0.00    -0.021 C 
HETATM   24  C18 UNL     1      -1.019   6.476  28.578  1.00  0.00    -0.004 C 
BRANCH  24  25
HETATM   25  C19 UNL     1      -1.730   7.253  29.555  1.00  0.00    -0.004 C 
HETATM   26  C20 UNL     1      -1.033   8.006  30.437  1.00  0.00    -0.016 C 
BRANCH  26  27
HETATM   27  C21 UNL     1      -1.677   8.830  31.474  1.00  0.00     0.140 C 
BRANCH  27  28
HETATM   28  C22 UNL     1      -0.846   8.643  32.708  1.00  0.00     0.176 C 
HETATM   29  O4  UNL     1      -1.040   7.697  33.506  1.00  0.00    -0.648 OA
HETATM   30  O5  UNL     1       0.171   9.527  32.991  1.00  0.00    -0.648 OA
ENDBRANCH  27  28
ENDBRANCH  26  27
ENDBRANCH  24  25
ENDBRANCH  19  23
BRANCH  13  31
HETATM   31  C24 UNL     1      -5.077   6.331  27.674  1.00  0.00    -0.031 C 
HETATM   32  C25 UNL     1      -5.819   7.402  27.674  1.00  0.00     0.007 C 
ENDBRANCH  13  31
ENDBRANCH   7   8
ENDBRANCH   4   5
TORSDOF 9
ENDMDL
MODEL 5
REMARK VINA RESULT: -6.870317301      4.100     10.567
REMARK  9 active torsions:
REMARK  status: ('A' for Active; 'I' for Inactive)
REMARK    1  A    between atoms: C4_4  and  C5_5 
REMARK       I    between atoms: C5_5  and  N1_7 
REMARK    2  A    between atoms: N1_7  and  C6_8 
REMARK    3  A    between atoms: C13_15  and  O2_16 
REMARK    4  A    between atoms: O2_16  and  O3_17 
REMARK    5  A    between atoms: C16_21  and  C17_22 
REMARK    6  A    between atoms: C18_23  and  C19_24 
REMARK    7  A    between atoms: C20_25  and  C21_26 
REMARK    8  A    between atoms: C21_26  and  C22_27 
REMARK    9  A    between atoms: C23_30  and  C24_31 
ROOT
HETATM    1  C1  UNL     1      -1.577   7.723  29.880  1.00  0.00     0.027 C 
HETATM    2  C2  UNL     1      -1.483   6.760  29.152  1.00  0.00    -0.025 C 
HETATM    3  C3  UNL     1      -1.386   5.621  28.324  1.00  0.00    -0.005 C 
HETATM    4  C4  UNL     1      -1.319   4.636  27.644  1.00  0.00     0.024 C 
ENDROOT
BRANCH   4   5
HETATM    5  C5  UNL     1      -1.249   3.375  26.832  1.00  0.00     0.367 C 
HETATM    6  O1  UNL     1      -0.885   2.407  27.570  1.00  0.00    -0.242 OA
HETATM    7  N1  UNL     1      -1.561   3.449  25.533  1.00  0.00    -0.398 NA
BRANCH   7   8
HETATM    8  C6  UNL     1      -1.882   3.525  24.193  1.00  0.00     0.172 C 
HETATM    9  C7  UNL     1      -2.464   2.316  23.487  1.00  0.00     0.051 C 
HETATM   10  C8  UNL     1      -3.337   2.639  22.306  1.00  0.00    -0.019 C 
HETATM   11  C9  UNL     1      -4.634   3.115  22.921  1.00  0.00     0.012 C 
HETATM   12  C14 UNL     1      -2.908   3.612  21.302  1.00  0.00     0.001 C 
HETATM   13  C23 UNL     1      -3.285   1.537  21.338  1.00  0.00     0.025 C 
HETATM   14  C10 UNL     1      -4.286   4.195  23.930  1.00  0.00     0.009 C 
HETATM   15  C11 UNL     1      -2.857   4.649  23.940  1.00  0.00     0.024 C 
HETATM   16  C12 UNL     1      -2.446   5.489  22.767  1.00  0.00     0.043 C 
HETATM   17  C13 UNL     1      -1.875   4.618  21.654  1.00  0.00     0.170 C 
HETATM   18  C15 UNL     1      -4.015   4.321  20.528  1.00  0.00     0.019 C 
HETATM   19  C16 UNL     1      -2.412   2.463  20.445  1.00  0.00     0.028 C 
BRANCH  17  20
HETATM   20  O2  UNL     1      -1.761   5.489  20.542  1.00  0.00    -0.237 OA
BRANCH  20  21
HETATM   21  O3  UNL     1      -0.578   6.002  20.407  1.00  0.00    -0.250 OA
ATOM     22  H3  UNL     1      -0.458   6.810  20.891  1.00  0.00     0.253 HD
ENDBRANCH  20  21
ENDBRANCH  17  20
BRANCH  19  23
HETATM   23  C17 UNL     1      -0.978   2.216  20.528  1.00  0.00    -0.021 C 
HETATM   24  C18 UNL     1      -0.288   1.455  19.764  1.00  0.00    -0.004 C 
BRANCH  24  25
HETATM   25  C19 UNL     1      -0.811   0.699  18.660  1.00  0.00    -0.004 C 
HETATM   26  C20 UNL     1      -1.134  -0.603  18.843  1.00  0.00    -0.016 C 
BRANCH  26  27
HETATM   27  C21 UNL     1      -1.672  -1.455  17.769  1.00  0.00     0.140 C 
BRANCH  27  28
HETATM   28  C22 UNL     1      -1.045  -0.951  16.504  1.00  0.00     0.176 C 
HETATM   29  O4  UNL     1      -1.677  -0.253  15.679  1.00  0.00    -0.648 OA
HETATM   30  O5  UNL     1       0.269  -1.250  16.224  1.00  0.00    -0.648 OA
ENDBRANCH  27  28
ENDBRANCH  26  27
ENDBRANCH  24  25
ENDBRANCH  19  23
BRANCH  13  31
HETATM   31  C24 UNL     1      -4.381   0.939  20.637  1.00  0.00    -0.031 C 
HETATM   32  C25 UNL     1      -4.843  -0.273  20.510  1.00  0.00     0.007 C 
ENDBRANCH  13  31
ENDBRANCH   7   8
ENDBRANCH   4   5
TORSDOF 9
ENDMDL
