MODEL 1
REMARK VINA RESULT: -5.183210825      0.000      0.000
REMARK  5 active torsions:
REMARK  status: ('A' for Active; 'I' for Inactive)
REMARK       I    between atoms: C1_4  and  N2_5 
REMARK       I    between atoms: C1_4  and  N4_14 
REMARK    1  A    between atoms: N2_5  and  C2_7 
REMARK    2  A    between atoms: C2_7  and  C3_8 
REMARK    3  A    between atoms: C3_8  and  C4_9 
REMARK    4  A    between atoms: C4_9  and  N3_10 
REMARK    5  A    between atoms: N4_14  and  C5_16 
ROOT
HETATM    1  N1  UNL     1      42.327  -4.681  28.234  1.00  0.00    -0.235 N 
ATOM      2  H11 UNL     1      41.855  -5.483  28.651  1.00  0.00     0.174 HD
ATOM      3  H12 UNL     1      42.950  -4.862  27.447  1.00  0.00     0.174 HD
HETATM    4  C1  UNL     1      42.175  -3.480  28.647  1.00  0.00     0.667 C 
HETATM    5  N2  UNL     1      42.833  -2.362  28.065  1.00  0.00    -0.227 N 
ATOM      6  H2  UNL     1      42.289  -1.513  27.909  1.00  0.00     0.177 HD
HETATM    7  N4  UNL     1      41.305  -3.228  29.746  1.00  0.00    -0.221 N 
ATOM      8  H4  UNL     1      41.669  -3.330  30.693  1.00  0.00     0.178 HD
ENDROOT
BRANCH   5   9
HETATM    9  C2  UNL     1      44.212  -2.357  27.686  1.00  0.00     0.139 C 
BRANCH   9  10
HETATM   10  C3  UNL     1      44.328  -2.048  26.213  1.00  0.00     0.047 C 
BRANCH  10  11
HETATM   11  C4  UNL     1      44.114  -3.300  25.374  1.00  0.00     0.231 C 
BRANCH  11  12
HETATM   12  N3  UNL     1      44.634  -3.112  24.035  1.00  0.00    -0.079 N 
ATOM     13  H33 UNL     1      43.893  -3.136  23.334  1.00  0.00     0.274 HD
ATOM     14  H32 UNL     1      44.957  -2.156  23.885  1.00  0.00     0.274 HD
ATOM     15  H31 UNL     1      45.366  -3.794  23.834  1.00  0.00     0.274 HD
ENDBRANCH  11  12
ENDBRANCH  10  11
ENDBRANCH   9  10
ENDBRANCH   5   9
BRANCH   7  16
HETATM   16  C5  UNL     1      39.922  -2.833  29.572  1.00  0.00     0.114 C 
HETATM   17  C6  UNL     1      39.667  -1.574  30.271  1.00  0.00     0.041 C 
HETATM   18  C7  UNL     1      38.207  -1.390  30.528  1.00  0.00     0.142 C 
HETATM   19  S1  UNL     1      37.541  -3.051  30.477  1.00  0.00     0.146 S 
HETATM   20  O1  UNL     1      36.950  -3.461  31.771  1.00  0.00    -0.228 OA
HETATM   21  O2  UNL     1      36.601  -3.122  29.335  1.00  0.00    -0.228 OA
HETATM   22  C8  UNL     1      39.069  -3.930  30.138  1.00  0.00     0.165 C 
ENDBRANCH   7  16
TORSDOF 5
ENDMDL
MODEL 2
REMARK VINA RESULT: -5.158527707      4.326      6.232
REMARK  5 active torsions:
REMARK  status: ('A' for Active; 'I' for Inactive)
REMARK       I    between atoms: C1_4  and  N2_5 
REMARK       I    between atoms: C1_4  and  N4_14 
REMARK    1  A    between atoms: N2_5  and  C2_7 
REMARK    2  A    between atoms: C2_7  and  C3_8 
REMARK    3  A    between atoms: C3_8  and  C4_9 
REMARK    4  A    between atoms: C4_9  and  N3_10 
REMARK    5  A    between atoms: N4_14  and  C5_16 
ROOT
HETATM    1  N1  UNL     1      42.902  -6.129  29.490  1.00  0.00    -0.235 N 
ATOM      2  H11 UNL     1      43.648  -6.568  28.950  1.00  0.00     0.174 HD
ATOM      3  H12 UNL     1      42.654  -6.558  30.381  1.00  0.00     0.174 HD
HETATM    4  C1  UNL     1      42.273  -5.084  29.104  1.00  0.00     0.667 C 
HETATM    5  N2  UNL     1      41.233  -4.472  29.855  1.00  0.00    -0.227 N 
ATOM      6  H2  UNL     1      41.228  -3.455  29.929  1.00  0.00     0.177 HD
HETATM    7  N4  UNL     1      42.620  -4.485  27.859  1.00  0.00    -0.221 N 
ATOM      8  H4  UNL     1      42.197  -4.851  27.005  1.00  0.00     0.178 HD
ENDROOT
BRANCH   5   9
HETATM    9  C2  UNL     1      40.192  -5.200  30.514  1.00  0.00     0.139 C 
BRANCH   9  10
HETATM   10  C3  UNL     1      38.954  -4.341  30.597  1.00  0.00     0.047 C 
BRANCH  10  11
HETATM   11  C4  UNL     1      39.018  -3.191  29.602  1.00  0.00     0.231 C 
BRANCH  11  12
HETATM   12  N3  UNL     1      38.084  -3.403  28.515  1.00  0.00    -0.079 N 
ATOM     13  H33 UNL     1      37.725  -4.357  28.506  1.00  0.00     0.274 HD
ATOM     14  H32 UNL     1      37.205  -2.909  28.670  1.00  0.00     0.274 HD
ATOM     15  H31 UNL     1      38.508  -3.149  27.622  1.00  0.00     0.274 HD
ENDBRANCH  11  12
ENDBRANCH  10  11
ENDBRANCH   9  10
ENDBRANCH   5   9
BRANCH   7  16
HETATM   16  C5  UNL     1      43.548  -3.379  27.756  1.00  0.00     0.114 C 
HETATM   17  C6  UNL     1      42.988  -2.190  28.397  1.00  0.00     0.041 C 
HETATM   18  C7  UNL     1      43.658  -0.949  27.905  1.00  0.00     0.142 C 
HETATM   19  S1  UNL     1      44.335  -1.419  26.315  1.00  0.00     0.146 S 
HETATM   20  O1  UNL     1      43.748  -0.640  25.201  1.00  0.00    -0.228 OA
HETATM   21  O2  UNL     1      45.810  -1.319  26.410  1.00  0.00    -0.228 OA
HETATM   22  C8  UNL     1      43.783  -3.126  26.295  1.00  0.00     0.165 C 
ENDBRANCH   7  16
TORSDOF 5
ENDMDL
MODEL 3
REMARK VINA RESULT: -5.130697309      3.061      3.735
REMARK  5 active torsions:
REMARK  status: ('A' for Active; 'I' for Inactive)
REMARK       I    between atoms: C1_4  and  N2_5 
REMARK       I    between atoms: C1_4  and  N4_14 
REMARK    1  A    between atoms: N2_5  and  C2_7 
REMARK    2  A    between atoms: C2_7  and  C3_8 
REMARK    3  A    between atoms: C3_8  and  C4_9 
REMARK    4  A    between atoms: C4_9  and  N3_10 
REMARK    5  A    between atoms: N4_14  and  C5_16 
ROOT
HETATM    1  N1  UNL     1      41.488  -1.398  29.218  1.00  0.00    -0.235 N 
ATOM      2  H11 UNL     1      40.539  -1.468  29.584  1.00  0.00     0.174 HD
ATOM      3  H12 UNL     1      41.917  -0.473  29.201  1.00  0.00     0.174 HD
HETATM    4  C1  UNL     1      42.153  -2.402  28.785  1.00  0.00     0.667 C 
HETATM    5  N2  UNL     1      43.477  -2.305  28.273  1.00  0.00    -0.227 N 
ATOM      6  H2  UNL     1      44.154  -3.013  28.557  1.00  0.00     0.177 HD
HETATM    7  N4  UNL     1      41.554  -3.694  28.807  1.00  0.00    -0.221 N 
ATOM      8  H4  UNL     1      40.953  -3.969  28.030  1.00  0.00     0.178 HD
ENDROOT
BRANCH   5   9
HETATM    9  C2  UNL     1      43.914  -1.272  27.385  1.00  0.00     0.139 C 
BRANCH   9  10
HETATM   10  C3  UNL     1      44.783  -1.872  26.307  1.00  0.00     0.047 C 
BRANCH  10  11
HETATM   11  C4  UNL     1      44.111  -3.082  25.673  1.00  0.00     0.231 C 
BRANCH  11  12
HETATM   12  N3  UNL     1      44.535  -3.239  24.296  1.00  0.00    -0.079 N 
ATOM     13  H33 UNL     1      43.750  -3.169  23.649  1.00  0.00     0.274 HD
ATOM     14  H32 UNL     1      45.073  -2.435  23.972  1.00  0.00     0.274 HD
ATOM     15  H31 UNL     1      45.049  -4.111  24.174  1.00  0.00     0.274 HD
ENDBRANCH  11  12
ENDBRANCH  10  11
ENDBRANCH   9  10
ENDBRANCH   5   9
BRANCH   7  16
HETATM   16  C5  UNL     1      41.764  -4.633  29.890  1.00  0.00     0.114 C 
HETATM   17  C6  UNL     1      42.858  -5.545  29.560  1.00  0.00     0.041 C 
HETATM   18  C7  UNL     1      42.788  -6.788  30.386  1.00  0.00     0.142 C 
HETATM   19  S1  UNL     1      41.072  -6.882  30.889  1.00  0.00     0.146 S 
HETATM   20  O1  UNL     1      40.399  -8.093  30.367  1.00  0.00    -0.228 OA
HETATM   21  O2  UNL     1      41.030  -6.756  32.364  1.00  0.00    -0.228 OA
HETATM   22  C8  UNL     1      40.484  -5.394  30.077  1.00  0.00     0.165 C 
ENDBRANCH   7  16
TORSDOF 5
ENDMDL
MODEL 4
REMARK VINA RESULT: -5.114821395      3.169      3.567
REMARK  5 active torsions:
REMARK  status: ('A' for Active; 'I' for Inactive)
REMARK       I    between atoms: C1_4  and  N2_5 
REMARK       I    between atoms: C1_4  and  N4_14 
REMARK    1  A    between atoms: N2_5  and  C2_7 
REMARK    2  A    between atoms: C2_7  and  C3_8 
REMARK    3  A    between atoms: C3_8  and  C4_9 
REMARK    4  A    between atoms: C4_9  and  N3_10 
REMARK    5  A    between atoms: N4_14  and  C5_16 
ROOT
HETATM    1  N1  UNL     1      43.484  -0.334  28.886  1.00  0.00    -0.235 N 
ATOM      2  H11 UNL     1      42.860   0.210  29.481  1.00  0.00     0.174 HD
ATOM      3  H12 UNL     1      44.373   0.092  28.626  1.00  0.00     0.174 HD
HETATM    4  C1  UNL     1      43.206  -1.508  28.460  1.00  0.00     0.667 C 
HETATM    5  N2  UNL     1      44.076  -2.268  27.630  1.00  0.00    -0.227 N 
ATOM      6  H2  UNL     1      44.198  -3.258  27.843  1.00  0.00     0.177 HD
HETATM    7  N4  UNL     1      41.964  -2.103  28.823  1.00  0.00    -0.221 N 
ATOM      8  H4  UNL     1      41.136  -1.887  28.268  1.00  0.00     0.178 HD
ENDROOT
BRANCH   5   9
HETATM    9  C2  UNL     1      44.791  -1.725  26.517  1.00  0.00     0.139 C 
BRANCH   9  10
HETATM   10  C3  UNL     1      44.376  -2.442  25.255  1.00  0.00     0.047 C 
BRANCH  10  11
HETATM   11  C4  UNL     1      43.690  -3.762  25.577  1.00  0.00     0.231 C 
BRANCH  11  12
HETATM   12  N3  UNL     1      44.544  -4.880  25.228  1.00  0.00    -0.079 N 
ATOM     13  H33 UNL     1      45.529  -4.617  25.225  1.00  0.00     0.274 HD
ATOM     14  H32 UNL     1      44.574  -5.579  25.971  1.00  0.00     0.274 HD
ATOM     15  H31 UNL     1      44.258  -5.287  24.338  1.00  0.00     0.274 HD
ENDBRANCH  11  12
ENDBRANCH  10  11
ENDBRANCH   9  10
ENDBRANCH   5   9
BRANCH   7  16
HETATM   16  C5  UNL     1      41.830  -3.004  29.949  1.00  0.00     0.114 C 
HETATM   17  C6  UNL     1      40.599  -2.711  30.684  1.00  0.00     0.041 C 
HETATM   18  C7  UNL     1      40.663  -3.255  32.074  1.00  0.00     0.142 C 
HETATM   19  S1  UNL     1      42.415  -3.404  32.405  1.00  0.00     0.146 S 
HETATM   20  O1  UNL     1      42.851  -2.543  33.528  1.00  0.00    -0.228 OA
HETATM   21  O2  UNL     1      42.714  -4.843  32.596  1.00  0.00    -0.228 OA
HETATM   22  C8  UNL     1      43.028  -2.801  30.830  1.00  0.00     0.165 C 
ENDBRANCH   7  16
TORSDOF 5
ENDMDL
MODEL 5
REMARK VINA RESULT: -5.106851577      2.909      3.789
REMARK  5 active torsions:
REMARK  status: ('A' for Active; 'I' for Inactive)
REMARK       I    between atoms: C1_4  and  N2_5 
REMARK       I    between atoms: C1_4  and  N4_14 
REMARK    1  A    between atoms: N2_5  and  C2_7 
REMARK    2  A    between atoms: C2_7  and  C3_8 
REMARK    3  A    between atoms: C3_8  and  C4_9 
REMARK    4  A    between atoms: C4_9  and  N3_10 
REMARK    5  A    between atoms: N4_14  and  C5_16 
ROOT
HETATM    1  N1  UNL     1      43.827  -0.209  28.598  1.00  0.00    -0.235 N 
ATOM      2  H11 UNL     1      43.327   0.326  29.308  1.00  0.00     0.174 HD
ATOM      3  H12 UNL     1      44.565   0.271  28.082  1.00  0.00     0.174 HD
HETATM    4  C1  UNL     1      43.575  -1.434  28.330  1.00  0.00     0.667 C 
HETATM    5  N2  UNL     1      44.273  -2.181  27.341  1.00  0.00    -0.227 N 
ATOM      6  H2  UNL     1      44.553  -3.135  27.568  1.00  0.00     0.177 HD
HETATM    7  N4  UNL     1      42.546  -2.105  29.050  1.00  0.00    -0.221 N 
ATOM      8  H4  UNL     1      41.582  -2.010  28.729  1.00  0.00     0.178 HD
ENDROOT
BRANCH   5   9
HETATM    9  C2  UNL     1      44.605  -1.672  26.046  1.00  0.00     0.139 C 
BRANCH   9  10
HETATM   10  C3  UNL     1      44.251  -2.697  24.997  1.00  0.00     0.047 C 
BRANCH  10  11
HETATM   11  C4  UNL     1      43.887  -4.030  25.636  1.00  0.00     0.231 C 
BRANCH  11  12
HETATM   12  N3  UNL     1      43.533  -5.003  24.623  1.00  0.00    -0.079 N 
ATOM     13  H33 UNL     1      42.530  -5.192  24.614  1.00  0.00     0.274 HD
ATOM     14  H32 UNL     1      43.625  -4.620  23.682  1.00  0.00     0.274 HD
ATOM     15  H31 UNL     1      44.077  -5.858  24.738  1.00  0.00     0.274 HD
ENDBRANCH  11  12
ENDBRANCH  10  11
ENDBRANCH   9  10
ENDBRANCH   5   9
BRANCH   7  16
HETATM   16  C5  UNL     1      42.812  -2.916  30.220  1.00  0.00     0.114 C 
HETATM   17  C6  UNL     1      43.472  -4.161  29.830  1.00  0.00     0.041 C 
HETATM   18  C7  UNL     1      43.323  -5.202  30.892  1.00  0.00     0.142 C 
HETATM   19  S1  UNL     1      41.878  -4.685  31.812  1.00  0.00     0.146 S 
HETATM   20  O1  UNL     1      40.781  -5.677  31.742  1.00  0.00    -0.228 OA
HETATM   21  O2  UNL     1      42.315  -4.365  33.191  1.00  0.00    -0.228 OA
HETATM   22  C8  UNL     1      41.492  -3.204  30.875  1.00  0.00     0.165 C 
ENDBRANCH   7  16
TORSDOF 5
ENDMDL
