MODEL 1
REMARK VINA RESULT: -5.400054796      0.000      0.000
REMARK  6 active torsions:
REMARK  status: ('A' for Active; 'I' for Inactive)
REMARK    1  A    between atoms: N1_1  and  S1_4 
REMARK    2  A    between atoms: S1_4  and  N2_7 
REMARK    3  A    between atoms: N2_7  and  C1_9 
REMARK    4  A    between atoms: C1_9  and  C2_10 
REMARK    5  A    between atoms: C4_12  and  C5_13 
REMARK    6  A    between atoms: C9_20  and  O3_21 
ROOT
HETATM    1  C2  UNL     1      43.725  -3.445  29.422  1.00  0.00     0.011 A 
HETATM    2  C3  UNL     1      42.731  -4.422  28.908  1.00  0.00     0.013 A 
HETATM    3  C4  UNL     1      43.939  -3.994  28.080  1.00  0.00     0.025 A 
ENDROOT
BRANCH   3   4
HETATM    4  C5  UNL     1      43.584  -3.251  26.821  1.00  0.00     0.218 C 
HETATM    5  N3  UNL     1      44.569  -2.181  26.685  1.00  0.00    -0.068 N 
HETATM    6  C6  UNL     1      44.297  -1.458  25.470  1.00  0.00     0.233 C 
ATOM      7  H32 UNL     1      44.601  -1.572  27.502  1.00  0.00     0.277 HD
ATOM      8  H31 UNL     1      45.528  -2.525  26.729  1.00  0.00     0.277 HD
HETATM    9  C7  UNL     1      44.442  -2.308  24.240  1.00  0.00     0.030 C 
HETATM   10  C8  UNL     1      43.640  -3.574  24.327  1.00  0.00     0.035 C 
HETATM   11  C9  UNL     1      43.673  -4.223  25.681  1.00  0.00     0.149 C 
BRANCH  11  12
HETATM   12  O3  UNL     1      44.836  -5.008  25.730  1.00  0.00    -0.393 OA
ATOM     13  H3  UNL     1      45.098  -5.326  24.874  1.00  0.00     0.210 HD
ENDBRANCH  11  12
ENDBRANCH   3   4
BRANCH   1  14
HETATM   14  C1  UNL     1      43.263  -2.041  29.676  1.00  0.00     0.138 C 
BRANCH  14  15
HETATM   15  N2  UNL     1      43.844  -1.465  30.859  1.00  0.00    -0.303 N 
ATOM     16  H2  UNL     1      44.838  -1.529  31.082  1.00  0.00     0.173 HD
BRANCH  15  17
HETATM   17  S1  UNL     1      42.706  -0.659  31.860  1.00  0.00     0.312 S 
HETATM   18  O1  UNL     1      41.774  -1.627  32.554  1.00  0.00    -0.183 OA
HETATM   19  O2  UNL     1      41.849   0.230  30.988  1.00  0.00    -0.183 OA
BRANCH  17  20
HETATM   20  N1  UNL     1      43.470   0.380  33.016  1.00  0.00    -0.312 N 
ATOM     21  H12 UNL     1      44.293   0.120  33.559  1.00  0.00     0.170 HD
ATOM     22  H11 UNL     1      42.980   1.274  33.070  1.00  0.00     0.170 HD
ENDBRANCH  17  20
ENDBRANCH  15  17
ENDBRANCH  14  15
ENDBRANCH   1  14
TORSDOF 6
ENDMDL
MODEL 2
REMARK VINA RESULT: -5.059817328      5.818      8.830
REMARK  6 active torsions:
REMARK  status: ('A' for Active; 'I' for Inactive)
REMARK    1  A    between atoms: N1_1  and  S1_4 
REMARK    2  A    between atoms: S1_4  and  N2_7 
REMARK    3  A    between atoms: N2_7  and  C1_9 
REMARK    4  A    between atoms: C1_9  and  C2_10 
REMARK    5  A    between atoms: C4_12  and  C5_13 
REMARK    6  A    between atoms: C9_20  and  O3_21 
ROOT
HETATM    1  C2  UNL     1      43.742   0.746  33.659  1.00  0.00     0.011 A 
HETATM    2  C3  UNL     1      43.038   0.995  34.943  1.00  0.00     0.013 A 
HETATM    3  C4  UNL     1      44.506   1.359  34.748  1.00  0.00     0.025 A 
ENDROOT
BRANCH   3   4
HETATM    4  C5  UNL     1      45.449   0.584  35.628  1.00  0.00     0.218 C 
HETATM    5  N3  UNL     1      46.706   0.478  34.892  1.00  0.00    -0.068 N 
HETATM    6  C6  UNL     1      47.660  -0.225  35.708  1.00  0.00     0.233 C 
ATOM      7  H32 UNL     1      46.586   0.050  33.974  1.00  0.00     0.277 HD
ATOM      8  H31 UNL     1      47.053   1.385  34.578  1.00  0.00     0.277 HD
HETATM    9  C7  UNL     1      47.990   0.504  36.979  1.00  0.00     0.030 C 
HETATM   10  C8  UNL     1      46.760   0.877  37.755  1.00  0.00     0.035 C 
HETATM   11  C9  UNL     1      45.626   1.362  36.900  1.00  0.00     0.149 C 
BRANCH  11  12
HETATM   12  O3  UNL     1      45.843   2.730  36.669  1.00  0.00    -0.393 OA
ATOM     13  H3  UNL     1      46.281   3.158  37.396  1.00  0.00     0.210 HD
ENDBRANCH  11  12
ENDBRANCH   3   4
BRANCH   1  14
HETATM   14  C1  UNL     1      43.922  -0.678  33.222  1.00  0.00     0.138 C 
BRANCH  14  15
HETATM   15  N2  UNL     1      44.365  -0.793  31.858  1.00  0.00    -0.303 N 
ATOM     16  H2  UNL     1      45.326  -0.615  31.565  1.00  0.00     0.173 HD
BRANCH  15  17
HETATM   17  S1  UNL     1      43.122  -1.260  30.770  1.00  0.00     0.312 S 
HETATM   18  O1  UNL     1      41.745  -1.056  31.360  1.00  0.00    -0.183 OA
HETATM   19  O2  UNL     1      43.265  -2.739  30.487  1.00  0.00    -0.183 OA
BRANCH  17  20
HETATM   20  N1  UNL     1      43.252  -0.455  29.242  1.00  0.00    -0.312 N 
ATOM     21  H12 UNL     1      43.795  -0.811  28.455  1.00  0.00     0.170 HD
ATOM     22  H11 UNL     1      42.713   0.411  29.249  1.00  0.00     0.170 HD
ENDBRANCH  17  20
ENDBRANCH  15  17
ENDBRANCH  14  15
ENDBRANCH   1  14
TORSDOF 6
ENDMDL
MODEL 3
REMARK VINA RESULT: -5.051927545      8.197     10.448
REMARK  6 active torsions:
REMARK  status: ('A' for Active; 'I' for Inactive)
REMARK    1  A    between atoms: N1_1  and  S1_4 
REMARK    2  A    between atoms: S1_4  and  N2_7 
REMARK    3  A    between atoms: N2_7  and  C1_9 
REMARK    4  A    between atoms: C1_9  and  C2_10 
REMARK    5  A    between atoms: C4_12  and  C5_13 
REMARK    6  A    between atoms: C9_20  and  O3_21 
ROOT
HETATM    1  C2  UNL     1      45.969   0.539  34.354  1.00  0.00     0.011 A 
HETATM    2  C3  UNL     1      44.545   0.123  34.261  1.00  0.00     0.013 A 
HETATM    3  C4  UNL     1      44.944   1.529  34.698  1.00  0.00     0.025 A 
ENDROOT
BRANCH   3   4
HETATM    4  C5  UNL     1      44.563   1.859  36.115  1.00  0.00     0.218 C 
HETATM    5  N3  UNL     1      45.670   2.634  36.669  1.00  0.00    -0.068 N 
HETATM    6  C6  UNL     1      45.339   3.011  38.018  1.00  0.00     0.233 C 
ATOM      7  H32 UNL     1      46.561   2.142  36.608  1.00  0.00     0.277 HD
ATOM      8  H31 UNL     1      45.914   3.437  36.088  1.00  0.00     0.277 HD
HETATM    9  C7  UNL     1      44.134   3.903  38.096  1.00  0.00     0.030 C 
HETATM   10  C8  UNL     1      42.952   3.327  37.372  1.00  0.00     0.035 C 
HETATM   11  C9  UNL     1      43.300   2.669  36.068  1.00  0.00     0.149 C 
BRANCH  11  12
HETATM   12  O3  UNL     1      43.344   3.682  35.098  1.00  0.00    -0.393 OA
ATOM     13  H3  UNL     1      42.488   4.052  34.916  1.00  0.00     0.210 HD
ENDBRANCH  11  12
ENDBRANCH   3   4
BRANCH   1  14
HETATM   14  C1  UNL     1      46.834  -0.142  35.372  1.00  0.00     0.138 C 
BRANCH  14  15
HETATM   15  N2  UNL     1      48.133   0.464  35.499  1.00  0.00    -0.303 N 
ATOM     16  H2  UNL     1      48.397   1.327  35.023  1.00  0.00     0.173 HD
BRANCH  15  17
HETATM   17  S1  UNL     1      49.196  -0.404  36.530  1.00  0.00     0.312 S 
HETATM   18  O1  UNL     1      48.766  -1.843  36.709  1.00  0.00    -0.183 OA
HETATM   19  O2  UNL     1      49.165   0.238  37.898  1.00  0.00    -0.183 OA
BRANCH  17  20
HETATM   20  N1  UNL     1      50.841  -0.327  35.991  1.00  0.00    -0.312 N 
ATOM     21  H12 UNL     1      51.302  -1.066  35.461  1.00  0.00     0.170 HD
ATOM     22  H11 UNL     1      51.269   0.554  36.279  1.00  0.00     0.170 HD
ENDBRANCH  17  20
ENDBRANCH  15  17
ENDBRANCH  14  15
ENDBRANCH   1  14
TORSDOF 6
ENDMDL
MODEL 4
REMARK VINA RESULT: -5.038835598      8.233     10.484
REMARK  6 active torsions:
REMARK  status: ('A' for Active; 'I' for Inactive)
REMARK    1  A    between atoms: N1_1  and  S1_4 
REMARK    2  A    between atoms: S1_4  and  N2_7 
REMARK    3  A    between atoms: N2_7  and  C1_9 
REMARK    4  A    between atoms: C1_9  and  C2_10 
REMARK    5  A    between atoms: C4_12  and  C5_13 
REMARK    6  A    between atoms: C9_20  and  O3_21 
ROOT
HETATM    1  C2  UNL     1      45.983   0.506  34.432  1.00  0.00     0.011 A 
HETATM    2  C3  UNL     1      44.572   0.042  34.370  1.00  0.00     0.013 A 
HETATM    3  C4  UNL     1      44.931   1.473  34.757  1.00  0.00     0.025 A 
ENDROOT
BRANCH   3   4
HETATM    4  C5  UNL     1      44.555   1.837  36.167  1.00  0.00     0.218 C 
HETATM    5  N3  UNL     1      45.664   2.626  36.697  1.00  0.00    -0.068 N 
HETATM    6  C6  UNL     1      45.339   3.034  38.039  1.00  0.00     0.233 C 
ATOM      7  H32 UNL     1      46.555   2.133  36.645  1.00  0.00     0.277 HD
ATOM      8  H31 UNL     1      45.905   3.414  36.096  1.00  0.00     0.277 HD
HETATM    9  C7  UNL     1      44.133   3.928  38.100  1.00  0.00     0.030 C 
HETATM   10  C8  UNL     1      42.949   3.333  37.395  1.00  0.00     0.035 C 
HETATM   11  C9  UNL     1      43.292   2.645  36.106  1.00  0.00     0.149 C 
BRANCH  11  12
HETATM   12  O3  UNL     1      43.331   3.634  35.112  1.00  0.00    -0.393 OA
ATOM     13  H3  UNL     1      43.755   4.432  35.406  1.00  0.00     0.210 HD
ENDBRANCH  11  12
ENDBRANCH   3   4
BRANCH   1  14
HETATM   14  C1  UNL     1      46.881  -0.115  35.461  1.00  0.00     0.138 C 
BRANCH  14  15
HETATM   15  N2  UNL     1      48.192   0.478  35.490  1.00  0.00    -0.303 N 
ATOM     16  H2  UNL     1      48.427   1.341  35.000  1.00  0.00     0.173 HD
BRANCH  15  17
HETATM   17  S1  UNL     1      49.323  -0.408  36.430  1.00  0.00     0.312 S 
HETATM   18  O1  UNL     1      50.662  -0.535  35.737  1.00  0.00    -0.183 OA
HETATM   19  O2  UNL     1      48.792  -1.810  36.621  1.00  0.00    -0.183 OA
BRANCH  17  20
HETATM   20  N1  UNL     1      49.524   0.260  38.015  1.00  0.00    -0.312 N 
ATOM     21  H12 UNL     1      50.418   0.310  38.503  1.00  0.00     0.170 HD
ATOM     22  H11 UNL     1      48.629   0.589  38.379  1.00  0.00     0.170 HD
ENDBRANCH  17  20
ENDBRANCH  15  17
ENDBRANCH  14  15
ENDBRANCH   1  14
TORSDOF 6
ENDMDL
MODEL 5
REMARK VINA RESULT: -5.037755819      8.272     10.952
REMARK  6 active torsions:
REMARK  status: ('A' for Active; 'I' for Inactive)
REMARK    1  A    between atoms: N1_1  and  S1_4 
REMARK    2  A    between atoms: S1_4  and  N2_7 
REMARK    3  A    between atoms: N2_7  and  C1_9 
REMARK    4  A    between atoms: C1_9  and  C2_10 
REMARK    5  A    between atoms: C4_12  and  C5_13 
REMARK    6  A    between atoms: C9_20  and  O3_21 
ROOT
HETATM    1  C2  UNL     1      44.101   3.324  35.887  1.00  0.00     0.011 A 
HETATM    2  C3  UNL     1      43.426   3.548  37.191  1.00  0.00     0.013 A 
HETATM    3  C4  UNL     1      44.911   3.214  37.103  1.00  0.00     0.025 A 
ENDROOT
BRANCH   3   4
HETATM    4  C5  UNL     1      45.280   1.897  37.729  1.00  0.00     0.218 C 
HETATM    5  N3  UNL     1      46.567   1.514  37.154  1.00  0.00    -0.068 N 
HETATM    6  C6  UNL     1      46.986   0.272  37.749  1.00  0.00     0.233 C 
ATOM      7  H32 UNL     1      46.542   1.470  36.135  1.00  0.00     0.277 HD
ATOM      8  H31 UNL     1      47.269   2.248  37.245  1.00  0.00     0.277 HD
HETATM    9  C7  UNL     1      47.215   0.383  39.229  1.00  0.00     0.030 C 
HETATM   10  C8  UNL     1      46.034   0.974  39.944  1.00  0.00     0.035 C 
HETATM   11  C9  UNL     1      45.387   2.113  39.210  1.00  0.00     0.149 C 
BRANCH  11  12
HETATM   12  O3  UNL     1      46.109   3.272  39.536  1.00  0.00    -0.393 OA
ATOM     13  H3  UNL     1      46.443   3.256  40.425  1.00  0.00     0.210 HD
ENDBRANCH  11  12
ENDBRANCH   3   4
BRANCH   1  14
HETATM   14  C1  UNL     1      43.674   2.142  35.068  1.00  0.00     0.138 C 
BRANCH  14  15
HETATM   15  N2  UNL     1      44.544   1.890  33.951  1.00  0.00    -0.303 N 
ATOM     16  H2  UNL     1      44.731   2.579  33.221  1.00  0.00     0.173 HD
BRANCH  15  17
HETATM   17  S1  UNL     1      45.239   0.321  33.963  1.00  0.00     0.312 S 
HETATM   18  O1  UNL     1      46.709   0.352  34.318  1.00  0.00    -0.183 OA
HETATM   19  O2  UNL     1      45.135  -0.258  32.570  1.00  0.00    -0.183 OA
BRANCH  17  20
HETATM   20  N1  UNL     1      44.387  -0.765  35.009  1.00  0.00    -0.312 N 
ATOM     21  H12 UNL     1      43.474  -0.564  35.417  1.00  0.00     0.170 HD
ATOM     22  H11 UNL     1      44.927  -1.619  35.152  1.00  0.00     0.170 HD
ENDBRANCH  17  20
ENDBRANCH  15  17
ENDBRANCH  14  15
ENDBRANCH   1  14
TORSDOF 6
ENDMDL
