MODEL 1
REMARK VINA RESULT: -7.660595784      0.000      0.000
REMARK  4 active torsions:
REMARK  status: ('A' for Active; 'I' for Inactive)
REMARK    1  A    between atoms: N1_4  and  C3_5 
REMARK    2  A    between atoms: C3_5  and  C4_6 
REMARK    3  A    between atoms: C4_6  and  C5_7 
REMARK    4  A    between atoms: C8_10  and  C9_11 
ROOT
HETATM    1  C5  UNL     1      -5.506   5.873  14.360  1.00  0.00    -0.010 C 
HETATM    2  C6  UNL     1      -4.380   6.288  15.334  1.00  0.00     0.005 C 
HETATM    3  C7  UNL     1      -3.681   7.416  14.619  1.00  0.00     0.008 C 
HETATM    4  C8  UNL     1      -4.689   8.362  14.031  1.00  0.00     0.024 C 
HETATM    5  C14 UNL     1      -6.058   8.285  14.658  1.00  0.00     0.175 C 
HETATM    6  F1  UNL     1      -6.099   8.772  15.927  1.00  0.00    -0.249 F 
HETATM    7  C15 UNL     1      -6.602   6.874  14.632  1.00  0.00     0.042 C 
ENDROOT
BRANCH   1   8
HETATM    8  C4  UNL     1      -5.830   4.460  14.709  1.00  0.00     0.035 C 
BRANCH   8   9
HETATM    9  C3  UNL     1      -6.484   4.255  16.011  1.00  0.00     0.273 C 
BRANCH   9  10
HETATM   10  N1  UNL     1      -6.188   2.938  16.528  1.00  0.00     0.098 N 
HETATM   11  C2  UNL     1      -5.375   2.186  15.554  1.00  0.00     0.374 C 
HETATM   12  C1  UNL     1      -4.793   1.062  16.374  1.00  0.00     0.246 C 
HETATM   13  O1  UNL     1      -3.586   0.768  16.379  1.00  0.00    -0.272 OA
HETATM   14  N3  UNL     1      -5.752   0.351  17.159  1.00  0.00    -0.358 N 
HETATM   15  C17 UNL     1      -7.055   0.857  17.438  1.00  0.00     0.152 C 
ATOM     16  H3  UNL     1      -5.493  -0.561  17.537  1.00  0.00     0.162 HD
HETATM   17  C16 UNL     1      -7.393   2.176  16.817  1.00  0.00     0.292 C 
ENDBRANCH   9  10
ENDBRANCH   8   9
ENDBRANCH   1   8
BRANCH   4  18
HETATM   18  C9  UNL     1      -4.094   9.718  14.019  1.00  0.00    -0.005 C 
HETATM   19  C10 UNL     1      -4.221  10.495  12.756  1.00  0.00     0.032 C 
HETATM   20  C11 UNL     1      -4.257  11.981  13.144  1.00  0.00     0.232 C 
HETATM   21  N2  UNL     1      -3.471  12.121  14.373  1.00  0.00    -0.075 N 
HETATM   22  C12 UNL     1      -2.284  11.274  14.359  1.00  0.00     0.232 C 
ATOM     23  H22 UNL     1      -3.228  13.096  14.549  1.00  0.00     0.277 HD
ATOM     24  H21 UNL     1      -4.041  11.946  15.201  1.00  0.00     0.277 HD
HETATM   25  C13 UNL     1      -2.654   9.794  14.478  1.00  0.00     0.032 C 
ENDBRANCH   4  18
TORSDOF 4
ENDMDL
MODEL 2
REMARK VINA RESULT: -7.500742390      1.237      1.740
REMARK  4 active torsions:
REMARK  status: ('A' for Active; 'I' for Inactive)
REMARK    1  A    between atoms: N1_4  and  C3_5 
REMARK    2  A    between atoms: C3_5  and  C4_6 
REMARK    3  A    between atoms: C4_6  and  C5_7 
REMARK    4  A    between atoms: C8_10  and  C9_11 
ROOT
HETATM    1  C5  UNL     1      -5.283   5.666  14.523  1.00  0.00    -0.010 C 
HETATM    2  C6  UNL     1      -3.798   5.409  14.867  1.00  0.00     0.005 C 
HETATM    3  C7  UNL     1      -3.059   6.470  14.093  1.00  0.00     0.008 C 
HETATM    4  C8  UNL     1      -3.749   7.796  14.241  1.00  0.00     0.024 C 
HETATM    5  C14 UNL     1      -4.657   7.898  15.440  1.00  0.00     0.175 C 
HETATM    6  F1  UNL     1      -3.988   7.929  16.624  1.00  0.00    -0.249 F 
HETATM    7  C15 UNL     1      -5.679   6.782  15.459  1.00  0.00     0.042 C 
ENDROOT
BRANCH   1   8
HETATM    8  C4  UNL     1      -5.974   4.365  14.754  1.00  0.00     0.035 C 
BRANCH   8   9
HETATM    9  C3  UNL     1      -6.538   4.167  16.098  1.00  0.00     0.273 C 
BRANCH   9  10
HETATM   10  N1  UNL     1      -6.222   2.847  16.595  1.00  0.00     0.098 N 
HETATM   11  C2  UNL     1      -5.430   2.109  15.593  1.00  0.00     0.374 C 
HETATM   12  C1  UNL     1      -4.821   0.981  16.388  1.00  0.00     0.246 C 
HETATM   13  O1  UNL     1      -3.612   0.694  16.360  1.00  0.00    -0.272 OA
HETATM   14  N3  UNL     1      -5.757   0.256  17.190  1.00  0.00    -0.358 N 
HETATM   15  C17 UNL     1      -7.055   0.752  17.506  1.00  0.00     0.152 C 
ATOM     16  H3  UNL     1      -5.483  -0.657  17.552  1.00  0.00     0.162 HD
HETATM   17  C16 UNL     1      -7.415   2.075  16.906  1.00  0.00     0.292 C 
ENDBRANCH   9  10
ENDBRANCH   8   9
ENDBRANCH   1   8
BRANCH   4  18
HETATM   18  C9  UNL     1      -2.722   8.859  14.156  1.00  0.00    -0.005 C 
HETATM   19  C10 UNL     1      -1.523   8.704  15.025  1.00  0.00     0.032 C 
HETATM   20  C11 UNL     1      -0.351   9.386  14.301  1.00  0.00     0.232 C 
HETATM   21  N2  UNL     1      -0.919  10.475  13.500  1.00  0.00    -0.075 N 
HETATM   22  C12 UNL     1      -1.999  11.159  14.200  1.00  0.00     0.232 C 
ATOM     23  H22 UNL     1      -0.197  11.130  13.201  1.00  0.00     0.277 HD
ATOM     24  H21 UNL     1      -1.222  10.143  12.584  1.00  0.00     0.277 HD
HETATM   25  C13 UNL     1      -3.241  10.271  14.313  1.00  0.00     0.032 C 
ENDBRANCH   4  18
TORSDOF 4
ENDMDL
MODEL 3
REMARK VINA RESULT: -7.404342923      1.052      1.486
REMARK  4 active torsions:
REMARK  status: ('A' for Active; 'I' for Inactive)
REMARK    1  A    between atoms: N1_4  and  C3_5 
REMARK    2  A    between atoms: C3_5  and  C4_6 
REMARK    3  A    between atoms: C4_6  and  C5_7 
REMARK    4  A    between atoms: C8_10  and  C9_11 
ROOT
HETATM    1  C5  UNL     1      -5.488   5.903  15.231  1.00  0.00    -0.010 C 
HETATM    2  C6  UNL     1      -6.112   6.701  14.064  1.00  0.00     0.005 C 
HETATM    3  C7  UNL     1      -5.802   8.137  14.401  1.00  0.00     0.008 C 
HETATM    4  C8  UNL     1      -4.376   8.268  14.854  1.00  0.00     0.024 C 
HETATM    5  C14 UNL     1      -3.477   7.136  14.424  1.00  0.00     0.175 C 
HETATM    6  F1  UNL     1      -3.224   7.124  13.088  1.00  0.00    -0.249 F 
HETATM    7  C15 UNL     1      -4.031   5.794  14.852  1.00  0.00     0.042 C 
ENDROOT
BRANCH   1   8
HETATM    8  C4  UNL     1      -6.235   4.613  15.273  1.00  0.00     0.035 C 
BRANCH   8   9
HETATM    9  C3  UNL     1      -6.727   4.199  16.596  1.00  0.00     0.273 C 
BRANCH   9  10
HETATM   10  N1  UNL     1      -6.327   2.840  16.886  1.00  0.00     0.098 N 
HETATM   11  C2  UNL     1      -5.452   2.334  15.813  1.00  0.00     0.374 C 
HETATM   12  C1  UNL     1      -4.784   1.135  16.440  1.00  0.00     0.246 C 
HETATM   13  O1  UNL     1      -3.557   0.941  16.417  1.00  0.00    -0.272 OA
HETATM   14  N3  UNL     1      -5.687   0.226  17.074  1.00  0.00    -0.358 N 
HETATM   15  C17 UNL     1      -7.028   0.572  17.410  1.00  0.00     0.152 C 
ATOM     16  H3  UNL     1      -5.356  -0.714  17.295  1.00  0.00     0.162 HD
HETATM   17  C16 UNL     1      -7.468   1.947  17.018  1.00  0.00     0.292 C 
ENDBRANCH   9  10
ENDBRANCH   8   9
ENDBRANCH   1   8
BRANCH   4  18
HETATM   18  C9  UNL     1      -3.894   9.614  14.470  1.00  0.00    -0.005 C 
HETATM   19  C10 UNL     1      -4.239  10.083  13.100  1.00  0.00     0.032 C 
HETATM   20  C11 UNL     1      -4.342  11.616  13.162  1.00  0.00     0.232 C 
HETATM   21  N2  UNL     1      -3.422  12.064  14.212  1.00  0.00    -0.075 N 
HETATM   22  C12 UNL     1      -2.184  11.294  14.215  1.00  0.00     0.232 C 
ATOM     23  H22 UNL     1      -3.236  13.064  14.140  1.00  0.00     0.277 HD
ATOM     24  H21 UNL     1      -3.870  12.049  15.129  1.00  0.00     0.277 HD
HETATM   25  C13 UNL     1      -2.420   9.861  14.698  1.00  0.00     0.032 C 
ENDBRANCH   4  18
TORSDOF 4
ENDMDL
MODEL 4
REMARK VINA RESULT: -7.402404469      1.508      2.220
REMARK  4 active torsions:
REMARK  status: ('A' for Active; 'I' for Inactive)
REMARK    1  A    between atoms: N1_4  and  C3_5 
REMARK    2  A    between atoms: C3_5  and  C4_6 
REMARK    3  A    between atoms: C4_6  and  C5_7 
REMARK    4  A    between atoms: C8_10  and  C9_11 
ROOT
HETATM    1  C5  UNL     1      -4.857   5.524  14.971  1.00  0.00    -0.010 C 
HETATM    2  C6  UNL     1      -5.539   6.901  14.808  1.00  0.00     0.005 C 
HETATM    3  C7  UNL     1      -4.532   7.872  15.368  1.00  0.00     0.008 C 
HETATM    4  C8  UNL     1      -3.156   7.541  14.865  1.00  0.00     0.024 C 
HETATM    5  C14 UNL     1      -3.133   6.705  13.611  1.00  0.00     0.175 C 
HETATM    6  F1  UNL     1      -3.553   7.377  12.506  1.00  0.00    -0.249 F 
HETATM    7  C15 UNL     1      -3.940   5.435  13.775  1.00  0.00     0.042 C 
ENDROOT
BRANCH   1   8
HETATM    8  C4  UNL     1      -5.969   4.532  14.998  1.00  0.00     0.035 C 
BRANCH   8   9
HETATM    9  C3  UNL     1      -6.541   4.244  16.323  1.00  0.00     0.273 C 
BRANCH   9  10
HETATM   10  N1  UNL     1      -6.231   2.891  16.728  1.00  0.00     0.098 N 
HETATM   11  C2  UNL     1      -5.420   2.228  15.690  1.00  0.00     0.374 C 
HETATM   12  C1  UNL     1      -4.824   1.045  16.412  1.00  0.00     0.246 C 
HETATM   13  O1  UNL     1      -3.615   0.761  16.385  1.00  0.00    -0.272 OA
HETATM   14  N3  UNL     1      -5.774   0.264  17.142  1.00  0.00    -0.358 N 
HETATM   15  C17 UNL     1      -7.078   0.736  17.469  1.00  0.00     0.152 C 
ATOM     16  H3  UNL     1      -5.505  -0.673  17.442  1.00  0.00     0.162 HD
HETATM   17  C16 UNL     1      -7.429   2.099  16.961  1.00  0.00     0.292 C 
ENDBRANCH   9  10
ENDBRANCH   8   9
ENDBRANCH   1   8
BRANCH   4  18
HETATM   18  C9  UNL     1      -2.383   8.801  14.778  1.00  0.00    -0.005 C 
HETATM   19  C10 UNL     1      -1.505   9.130  15.934  1.00  0.00     0.032 C 
HETATM   20  C11 UNL     1      -0.325   9.947  15.384  1.00  0.00     0.232 C 
HETATM   21  N2  UNL     1      -0.821  10.681  14.215  1.00  0.00    -0.075 N 
HETATM   22  C12 UNL     1      -2.177  11.176  14.421  1.00  0.00     0.232 C 
ATOM     23  H22 UNL     1      -0.186  11.435  13.954  1.00  0.00     0.277 HD
ATOM     24  H21 UNL     1      -0.757  10.117  13.368  1.00  0.00     0.277 HD
HETATM   25  C13 UNL     1      -3.193  10.031  14.434  1.00  0.00     0.032 C 
ENDBRANCH   4  18
TORSDOF 4
ENDMDL
MODEL 5
REMARK VINA RESULT: -7.088180672      1.032      1.466
REMARK  4 active torsions:
REMARK  status: ('A' for Active; 'I' for Inactive)
REMARK    1  A    between atoms: N1_4  and  C3_5 
REMARK    2  A    between atoms: C3_5  and  C4_6 
REMARK    3  A    between atoms: C4_6  and  C5_7 
REMARK    4  A    between atoms: C8_10  and  C9_11 
ROOT
HETATM    1  C5  UNL     1      -5.212   5.964  13.963  1.00  0.00    -0.010 C 
HETATM    2  C6  UNL     1      -4.098   6.340  14.967  1.00  0.00     0.005 C 
HETATM    3  C7  UNL     1      -3.447   7.550  14.347  1.00  0.00     0.008 C 
HETATM    4  C8  UNL     1      -4.493   8.502  13.843  1.00  0.00     0.024 C 
HETATM    5  C14 UNL     1      -5.855   8.320  14.463  1.00  0.00     0.175 C 
HETATM    6  F1  UNL     1      -5.909   8.696  15.769  1.00  0.00    -0.249 F 
HETATM    7  C15 UNL     1      -6.345   6.896  14.320  1.00  0.00     0.042 C 
ENDROOT
BRANCH   1   8
HETATM    8  C4  UNL     1      -5.480   4.516  14.193  1.00  0.00     0.035 C 
BRANCH   8   9
HETATM    9  C3  UNL     1      -6.217   4.187  15.424  1.00  0.00     0.273 C 
BRANCH   9  10
HETATM   10  N1  UNL     1      -6.002   2.805  15.793  1.00  0.00     0.098 N 
HETATM   11  C2  UNL     1      -6.573   2.547  17.127  1.00  0.00     0.374 C 
HETATM   12  C1  UNL     1      -6.671   1.042  17.182  1.00  0.00     0.246 C 
HETATM   13  O1  UNL     1      -7.699   0.432  17.521  1.00  0.00    -0.272 OA
HETATM   14  N3  UNL     1      -5.471   0.363  16.807  1.00  0.00    -0.358 N 
HETATM   15  C17 UNL     1      -4.406   0.998  16.105  1.00  0.00     0.152 C 
ATOM     16  H3  UNL     1      -5.372  -0.622  17.054  1.00  0.00     0.162 HD
HETATM   17  C16 UNL     1      -4.591   2.454  15.813  1.00  0.00     0.292 C 
ENDBRANCH   9  10
ENDBRANCH   8   9
ENDBRANCH   1   8
BRANCH   4  18
HETATM   18  C9  UNL     1      -3.950   9.876  13.944  1.00  0.00    -0.005 C 
HETATM   19  C10 UNL     1      -4.076  10.736  12.735  1.00  0.00     0.032 C 
HETATM   20  C11 UNL     1      -4.179  12.189  13.226  1.00  0.00     0.232 C 
HETATM   21  N2  UNL     1      -3.430  12.269  14.485  1.00  0.00    -0.075 N 
HETATM   22  C12 UNL     1      -2.212  11.469  14.443  1.00  0.00     0.232 C 
ATOM     23  H22 UNL     1      -3.230  13.237  14.736  1.00  0.00     0.277 HD
ATOM     24  H21 UNL     1      -4.014  12.014  15.281  1.00  0.00     0.277 HD
HETATM   25  C13 UNL     1      -2.527   9.972  14.447  1.00  0.00     0.032 C 
ENDBRANCH   4  18
TORSDOF 4
ENDMDL
