MODEL 1
REMARK VINA RESULT: -8.203667235      0.000      0.000
REMARK  5 active torsions:
REMARK  status: ('A' for Active; 'I' for Inactive)
REMARK    1  A    between atoms: N1_2  and  C2_4 
REMARK    2  A    between atoms: N3_7  and  C4_9 
REMARK    3  A    between atoms: C9_14  and  C10_15 
REMARK    4  A    between atoms: C10_15  and  N4_16 
REMARK       I    between atoms: N4_16  and  C11_18 
REMARK    5  A    between atoms: C11_18  and  C12_20 
ROOT
HETATM    1  C2  UNL     1      -5.572   2.756  15.956  1.00  0.00     0.180 C 
HETATM    2  C3  UNL     1      -4.399   1.982  16.266  1.00  0.00     0.136 C 
HETATM    3  N2  UNL     1      -3.469   1.354  16.525  1.00  0.00    -0.188 NA
HETATM    4  N3  UNL     1      -5.538   3.934  15.483  1.00  0.00    -0.363 N 
ATOM      5  H3  UNL     1      -6.427   4.398  15.296  1.00  0.00     0.162 HD
ENDROOT
BRANCH   1   6
HETATM    6  N1  UNL     1      -6.845   2.166  16.191  1.00  0.00    -0.372 N 
HETATM    7  C1  UNL     1      -7.019   1.300  17.335  1.00  0.00     0.148 C 
ATOM      8  H1  UNL     1      -7.625   2.351  15.561  1.00  0.00     0.161 HD
ENDBRANCH   1   6
BRANCH   4   9
HETATM    9  C4  UNL     1      -4.318   4.665  15.191  1.00  0.00     0.089 C 
HETATM   10  C5  UNL     1      -4.685   6.122  15.096  1.00  0.00     0.026 C 
HETATM   11  C6  UNL     1      -3.553   6.982  14.600  1.00  0.00     0.002 C 
HETATM   12  C7  UNL     1      -2.363   6.159  14.160  1.00  0.00     0.001 C 
HETATM   13  C8  UNL     1      -2.883   5.141  13.167  1.00  0.00     0.008 C 
HETATM   14  C9  UNL     1      -3.674   4.119  13.950  1.00  0.00     0.026 C 
BRANCH  14  15
HETATM   15  C10 UNL     1      -4.670   3.476  13.017  1.00  0.00     0.129 C 
BRANCH  15  16
HETATM   16  N4  UNL     1      -4.261   2.142  12.631  1.00  0.00    -0.360 N 
HETATM   17  C11 UNL     1      -4.969   1.387  11.663  1.00  0.00     0.225 C 
HETATM   18  O1  UNL     1      -5.990   1.964  11.149  1.00  0.00    -0.273 OA
ATOM     19  H4  UNL     1      -3.437   1.732  13.070  1.00  0.00     0.162 HD
BRANCH  17  20
HETATM   20  C12 UNL     1      -4.619   0.036  11.224  1.00  0.00     0.119 A 
HETATM   21  C13 UNL     1      -4.052  -0.215   9.861  1.00  0.00     0.060 A 
HETATM   22  C14 UNL     1      -3.223  -0.455  11.094  1.00  0.00     0.126 A 
HETATM   23 CL1  UNL     1      -1.825   0.588  11.318  1.00  0.00    -0.101 Cl
HETATM   24 CL2  UNL     1      -2.893  -2.185  11.461  1.00  0.00    -0.101 Cl
ENDBRANCH  17  20
ENDBRANCH  15  16
ENDBRANCH  14  15
ENDBRANCH   4   9
TORSDOF 5
ENDMDL
MODEL 2
REMARK VINA RESULT: -7.653479278      3.520      6.017
REMARK  5 active torsions:
REMARK  status: ('A' for Active; 'I' for Inactive)
REMARK    1  A    between atoms: N1_2  and  C2_4 
REMARK    2  A    between atoms: N3_7  and  C4_9 
REMARK    3  A    between atoms: C9_14  and  C10_15 
REMARK    4  A    between atoms: C10_15  and  N4_16 
REMARK       I    between atoms: N4_16  and  C11_18 
REMARK    5  A    between atoms: C11_18  and  C12_20 
ROOT
HETATM    1  C2  UNL     1      -2.740  -0.009  11.048  1.00  0.00     0.180 C 
HETATM    2  C3  UNL     1      -3.809   0.113  10.094  1.00  0.00     0.136 C 
HETATM    3  N2  UNL     1      -4.662   0.197   9.324  1.00  0.00    -0.188 NA
HETATM    4  N3  UNL     1      -2.216   0.976  11.654  1.00  0.00    -0.363 N 
ATOM      5  H3  UNL     1      -1.461   0.782  12.313  1.00  0.00     0.162 HD
ENDROOT
BRANCH   1   6
HETATM    6  N1  UNL     1      -2.239  -1.311  11.329  1.00  0.00    -0.372 N 
HETATM    7  C1  UNL     1      -3.172  -2.391  11.554  1.00  0.00     0.148 C 
ATOM      8  H1  UNL     1      -1.234  -1.480  11.372  1.00  0.00     0.161 HD
ENDBRANCH   1   6
BRANCH   4   9
HETATM    9  C4  UNL     1      -2.619   2.359  11.472  1.00  0.00     0.089 C 
HETATM   10  C5  UNL     1      -1.427   3.216  11.807  1.00  0.00     0.026 C 
HETATM   11  C6  UNL     1      -1.756   4.685  11.855  1.00  0.00     0.002 C 
HETATM   12  C7  UNL     1      -3.240   4.941  11.715  1.00  0.00     0.001 C 
HETATM   13  C8  UNL     1      -3.929   4.091  12.762  1.00  0.00     0.008 C 
HETATM   14  C9  UNL     1      -3.834   2.656  12.302  1.00  0.00     0.026 C 
BRANCH  14  15
HETATM   15  C10 UNL     1      -3.937   1.763  13.515  1.00  0.00     0.129 C 
BRANCH  15  16
HETATM   16  N4  UNL     1      -4.808   2.328  14.525  1.00  0.00    -0.360 N 
HETATM   17  C11 UNL     1      -4.541   2.194  15.911  1.00  0.00     0.225 C 
HETATM   18  O1  UNL     1      -3.479   1.545  16.210  1.00  0.00    -0.273 OA
ATOM     19  H4  UNL     1      -5.639   2.840  14.229  1.00  0.00     0.162 HD
BRANCH  17  20
HETATM   20  C12 UNL     1      -5.373   2.734  16.986  1.00  0.00     0.119 A 
HETATM   21  C13 UNL     1      -6.865   2.778  16.866  1.00  0.00     0.060 A 
HETATM   22  C14 UNL     1      -6.203   1.896  17.889  1.00  0.00     0.126 A 
HETATM   23 CL1  UNL     1      -6.387   0.160  17.670  1.00  0.00    -0.101 Cl
HETATM   24 CL2  UNL     1      -6.406   2.428  19.595  1.00  0.00    -0.101 Cl
ENDBRANCH  17  20
ENDBRANCH  15  16
ENDBRANCH  14  15
ENDBRANCH   4   9
TORSDOF 5
ENDMDL
MODEL 3
REMARK VINA RESULT: -7.541897255      2.951      5.029
REMARK  5 active torsions:
REMARK  status: ('A' for Active; 'I' for Inactive)
REMARK    1  A    between atoms: N1_2  and  C2_4 
REMARK    2  A    between atoms: N3_7  and  C4_9 
REMARK    3  A    between atoms: C9_14  and  C10_15 
REMARK    4  A    between atoms: C10_15  and  N4_16 
REMARK       I    between atoms: N4_16  and  C11_18 
REMARK    5  A    between atoms: C11_18  and  C12_20 
ROOT
HETATM    1  C2  UNL     1      -4.183   1.750  15.024  1.00  0.00     0.180 C 
HETATM    2  C3  UNL     1      -4.803   0.606  15.637  1.00  0.00     0.136 C 
HETATM    3  N2  UNL     1      -5.292  -0.306  16.142  1.00  0.00    -0.188 NA
HETATM    4  N3  UNL     1      -4.027   1.884  13.770  1.00  0.00    -0.363 N 
ATOM      5  H3  UNL     1      -3.575   2.735  13.435  1.00  0.00     0.162 HD
ENDROOT
BRANCH   1   6
HETATM    6  N1  UNL     1      -3.717   2.794  15.871  1.00  0.00    -0.372 N 
HETATM    7  C1  UNL     1      -3.561   4.124  15.328  1.00  0.00     0.148 C 
ATOM      8  H1  UNL     1      -3.496   2.606  16.848  1.00  0.00     0.161 HD
ENDBRANCH   1   6
BRANCH   4   9
HETATM    9  C4  UNL     1      -4.449   0.906  12.783  1.00  0.00     0.089 C 
HETATM   10  C5  UNL     1      -3.267   0.016  12.506  1.00  0.00     0.026 C 
HETATM   11  C6  UNL     1      -3.497  -0.923  11.352  1.00  0.00     0.002 C 
HETATM   12  C7  UNL     1      -4.801  -0.641  10.639  1.00  0.00     0.001 C 
HETATM   13  C8  UNL     1      -4.791   0.830  10.281  1.00  0.00     0.008 C 
HETATM   14  C9  UNL     1      -4.984   1.601  11.565  1.00  0.00     0.026 C 
BRANCH  14  15
HETATM   15  C10 UNL     1      -4.397   2.979  11.382  1.00  0.00     0.129 C 
BRANCH  15  16
HETATM   16  N4  UNL     1      -3.223   2.954  10.534  1.00  0.00    -0.360 N 
HETATM   17  C11 UNL     1      -1.914   3.111  11.055  1.00  0.00     0.225 C 
HETATM   18  O1  UNL     1      -1.838   3.272  12.324  1.00  0.00    -0.273 OA
ATOM     19  H4  UNL     1      -3.341   2.819   9.530  1.00  0.00     0.162 HD
BRANCH  17  20
HETATM   20  C12 UNL     1      -0.683   3.099  10.265  1.00  0.00     0.119 A 
HETATM   21  C13 UNL     1      -0.633   3.710   8.899  1.00  0.00     0.060 A 
HETATM   22  C14 UNL     1       0.162   4.297  10.033  1.00  0.00     0.126 A 
HETATM   23 CL1  UNL     1      -0.304   5.906  10.571  1.00  0.00    -0.101 Cl
HETATM   24 CL2  UNL     1       1.942   4.071   9.910  1.00  0.00    -0.101 Cl
ENDBRANCH  17  20
ENDBRANCH  15  16
ENDBRANCH  14  15
ENDBRANCH   4   9
TORSDOF 5
ENDMDL
MODEL 4
REMARK VINA RESULT: -7.526483069      3.246      5.359
REMARK  5 active torsions:
REMARK  status: ('A' for Active; 'I' for Inactive)
REMARK    1  A    between atoms: N1_2  and  C2_4 
REMARK    2  A    between atoms: N3_7  and  C4_9 
REMARK    3  A    between atoms: C9_14  and  C10_15 
REMARK    4  A    between atoms: C10_15  and  N4_16 
REMARK       I    between atoms: N4_16  and  C11_18 
REMARK    5  A    between atoms: C11_18  and  C12_20 
ROOT
HETATM    1  C2  UNL     1      -3.773   1.473  12.394  1.00  0.00     0.180 C 
HETATM    2  C3  UNL     1      -4.968   1.714  11.632  1.00  0.00     0.136 C 
HETATM    3  N2  UNL     1      -5.927   1.891  11.018  1.00  0.00    -0.188 NA
HETATM    4  N3  UNL     1      -2.934   2.377  12.700  1.00  0.00    -0.363 N 
ATOM      5  H3  UNL     1      -2.117   2.102  13.245  1.00  0.00     0.162 HD
ENDROOT
BRANCH   1   6
HETATM    6  N1  UNL     1      -3.513   0.144  12.831  1.00  0.00    -0.372 N 
HETATM    7  C1  UNL     1      -3.833  -0.960  11.955  1.00  0.00     0.148 C 
ATOM      8  H1  UNL     1      -3.107  -0.027  13.751  1.00  0.00     0.161 HD
ENDBRANCH   1   6
BRANCH   4   9
HETATM    9  C4  UNL     1      -3.062   3.774  12.326  1.00  0.00     0.089 C 
HETATM   10  C5  UNL     1      -1.707   4.234  11.859  1.00  0.00     0.026 C 
HETATM   11  C6  UNL     1      -1.640   5.720  11.626  1.00  0.00     0.002 C 
HETATM   12  C7  UNL     1      -2.902   6.424  12.071  1.00  0.00     0.001 C 
HETATM   13  C8  UNL     1      -3.149   6.006  13.506  1.00  0.00     0.008 C 
HETATM   14  C9  UNL     1      -3.609   4.568  13.477  1.00  0.00     0.026 C 
BRANCH  14  15
HETATM   15  C10 UNL     1      -3.291   3.943  14.813  1.00  0.00     0.129 C 
BRANCH  15  16
HETATM   16  N4  UNL     1      -4.454   3.310  15.400  1.00  0.00    -0.360 N 
HETATM   17  C11 UNL     1      -4.349   2.187  16.258  1.00  0.00     0.225 C 
HETATM   18  O1  UNL     1      -3.159   1.771  16.482  1.00  0.00    -0.273 OA
ATOM     19  H4  UNL     1      -5.379   3.686  15.190  1.00  0.00     0.162 HD
BRANCH  17  20
HETATM   20  C12 UNL     1      -5.475   1.495  16.885  1.00  0.00     0.119 A 
HETATM   21  C13 UNL     1      -5.829   1.731  18.320  1.00  0.00     0.060 A 
HETATM   22  C14 UNL     1      -6.765   2.149  17.219  1.00  0.00     0.126 A 
HETATM   23 CL1  UNL     1      -7.031   3.877  17.025  1.00  0.00    -0.101 Cl
HETATM   24 CL2  UNL     1      -8.272   1.174  17.092  1.00  0.00    -0.101 Cl
ENDBRANCH  17  20
ENDBRANCH  15  16
ENDBRANCH  14  15
ENDBRANCH   4   9
TORSDOF 5
ENDMDL
MODEL 5
REMARK VINA RESULT: -7.517351013      3.349      5.665
REMARK  5 active torsions:
REMARK  status: ('A' for Active; 'I' for Inactive)
REMARK    1  A    between atoms: N1_2  and  C2_4 
REMARK    2  A    between atoms: N3_7  and  C4_9 
REMARK    3  A    between atoms: C9_14  and  C10_15 
REMARK    4  A    between atoms: C10_15  and  N4_16 
REMARK       I    between atoms: N4_16  and  C11_18 
REMARK    5  A    between atoms: C11_18  and  C12_20 
ROOT
HETATM    1  C2  UNL     1      -2.113   1.560  11.418  1.00  0.00     0.180 C 
HETATM    2  C3  UNL     1      -1.522   2.136  10.240  1.00  0.00     0.136 C 
HETATM    3  N2  UNL     1      -1.039   2.584   9.295  1.00  0.00    -0.188 NA
HETATM    4  N3  UNL     1      -2.724   2.232  12.304  1.00  0.00    -0.363 N 
ATOM      5  H3  UNL     1      -3.109   1.728  13.104  1.00  0.00     0.162 HD
ENDROOT
BRANCH   1   6
HETATM    6  N1  UNL     1      -2.008   0.152  11.600  1.00  0.00    -0.372 N 
HETATM    7  C1  UNL     1      -3.156  -0.681  11.323  1.00  0.00     0.148 C 
ATOM      8  H1  UNL     1      -1.135  -0.263  11.922  1.00  0.00     0.161 HD
ENDBRANCH   1   6
BRANCH   4   9
HETATM    9  C4  UNL     1      -2.911   3.671  12.257  1.00  0.00     0.089 C 
HETATM   10  C5  UNL     1      -2.172   4.254  13.433  1.00  0.00     0.026 C 
HETATM   11  C6  UNL     1      -2.442   5.722  13.626  1.00  0.00     0.002 C 
HETATM   12  C7  UNL     1      -3.518   6.232  12.693  1.00  0.00     0.001 C 
HETATM   13  C8  UNL     1      -4.717   5.326  12.877  1.00  0.00     0.008 C 
HETATM   14  C9  UNL     1      -4.375   4.001  12.237  1.00  0.00     0.026 C 
BRANCH  14  15
HETATM   15  C10 UNL     1      -5.217   2.931  12.888  1.00  0.00     0.129 C 
BRANCH  15  16
HETATM   16  N4  UNL     1      -5.681   3.335  14.199  1.00  0.00    -0.360 N 
HETATM   17  C11 UNL     1      -5.147   2.783  15.390  1.00  0.00     0.225 C 
HETATM   18  O1  UNL     1      -4.226   1.908  15.231  1.00  0.00    -0.273 OA
ATOM     19  H4  UNL     1      -6.415   4.040  14.267  1.00  0.00     0.162 HD
BRANCH  17  20
HETATM   20  C12 UNL     1      -5.565   3.139  16.746  1.00  0.00     0.119 A 
HETATM   21  C13 UNL     1      -6.951   3.629  17.028  1.00  0.00     0.060 A 
HETATM   22  C14 UNL     1      -6.477   2.310  17.574  1.00  0.00     0.126 A 
HETATM   23 CL1  UNL     1      -7.274   0.869  16.956  1.00  0.00    -0.101 Cl
HETATM   24 CL2  UNL     1      -6.214   2.276  19.354  1.00  0.00    -0.101 Cl
ENDBRANCH  17  20
ENDBRANCH  15  16
ENDBRANCH  14  15
ENDBRANCH   4   9
TORSDOF 5
ENDMDL
