MODEL 1
REMARK VINA RESULT: -6.401549627      0.000      0.000
REMARK  8 active torsions:
REMARK  status: ('A' for Active; 'I' for Inactive)
REMARK    1  A    between atoms: C2_2  and  N1_5 
REMARK       I    between atoms: N1_5  and  C5_7 
REMARK    2  A    between atoms: C5_7  and  C6_9 
REMARK    3  A    between atoms: C6_9  and  C7_10 
REMARK    4  A    between atoms: N2_13  and  C10_14 
REMARK    5  A    between atoms: C10_14  and  O2_15 
REMARK    6  A    between atoms: C10_14  and  C11_17 
REMARK    7  A    between atoms: C12_20  and  C13_21 
REMARK    8  A    between atoms: C13_21  and  O3_22 
ROOT
HETATM    1  C7  UNL     1      -4.182   3.590  14.480  1.00  0.00     0.021 C 
HETATM    2  C8  UNL     1      -3.611   4.227  13.206  1.00  0.00     0.027 C 
HETATM    3  C9  UNL     1      -3.126   3.048  12.349  1.00  0.00     0.125 C 
HETATM    4  N2  UNL     1      -4.169   2.040  12.779  1.00  0.00    -0.356 N 
HETATM    5  C12 UNL     1      -4.019   2.117  14.178  1.00  0.00     0.114 C 
ENDROOT
BRANCH   1   6
HETATM    6  C6  UNL     1      -5.581   4.029  14.727  1.00  0.00     0.109 C 
BRANCH   6   7
HETATM    7  C5  UNL     1      -5.703   5.526  14.688  1.00  0.00     0.218 C 
HETATM    8  N1  UNL     1      -6.484   6.169  13.708  1.00  0.00    -0.353 N 
ATOM      9  H1  UNL     1      -6.979   5.615  13.008  1.00  0.00     0.163 HD
HETATM   10  O1  UNL     1      -5.097   6.215  15.548  1.00  0.00    -0.274 OA
BRANCH   8  11
HETATM   11  C2  UNL     1      -6.588   7.612  13.690  1.00  0.00     0.022 C 
HETATM   12  C1  UNL     1      -7.130   8.141  15.009  1.00  0.00     0.037 C 
HETATM   13  C3  UNL     1      -7.541   7.996  12.568  1.00  0.00     0.037 C 
HETATM   14  C4  UNL     1      -5.273   8.283  13.448  1.00  0.00     0.037 C 
ENDBRANCH   8  11
ENDBRANCH   6   7
ENDBRANCH   1   6
BRANCH   5  15
HETATM   15  C13 UNL     1      -4.683   1.189  15.093  1.00  0.00     0.189 C 
BRANCH  15  16
HETATM   16  O3  UNL     1      -3.875   0.793  16.157  1.00  0.00    -0.399 OA
ATOM     17  H3  UNL     1      -4.220   0.047  16.633  1.00  0.00     0.209 HD
ENDBRANCH  15  16
ENDBRANCH   5  15
BRANCH   4  18
HETATM   18  C10 UNL     1      -4.915   1.378  11.797  1.00  0.00     0.147 C 
BRANCH  18  19
HETATM   19  O2  UNL     1      -6.017   1.918  11.357  1.00  0.00    -0.347 OA
ATOM     20  H2  UNL     1      -6.313   1.723  10.475  1.00  0.00     0.219 HD
ENDBRANCH  18  19
BRANCH  18  21
HETATM   21  C11 UNL     1      -4.628   0.090  11.148  1.00  0.00     0.252 C 
HETATM   22 CL1  UNL     1      -4.090  -1.136  12.367  1.00  0.00    -0.099 Cl
HETATM   23 CL2  UNL     1      -3.222   0.253  10.024  1.00  0.00    -0.099 Cl
ENDBRANCH  18  21
ENDBRANCH   4  18
TORSDOF 8
ENDMDL
MODEL 2
REMARK VINA RESULT: -6.319394258      0.930      1.409
REMARK  8 active torsions:
REMARK  status: ('A' for Active; 'I' for Inactive)
REMARK    1  A    between atoms: C2_2  and  N1_5 
REMARK       I    between atoms: N1_5  and  C5_7 
REMARK    2  A    between atoms: C5_7  and  C6_9 
REMARK    3  A    between atoms: C6_9  and  C7_10 
REMARK    4  A    between atoms: N2_13  and  C10_14 
REMARK    5  A    between atoms: C10_14  and  O2_15 
REMARK    6  A    between atoms: C10_14  and  C11_17 
REMARK    7  A    between atoms: C12_20  and  C13_21 
REMARK    8  A    between atoms: C13_21  and  O3_22 
ROOT
HETATM    1  C7  UNL     1      -4.282   3.558  14.756  1.00  0.00     0.021 C 
HETATM    2  C8  UNL     1      -3.753   4.330  13.539  1.00  0.00     0.027 C 
HETATM    3  C9  UNL     1      -3.177   3.257  12.602  1.00  0.00     0.125 C 
HETATM    4  N2  UNL     1      -4.143   2.145  12.946  1.00  0.00    -0.356 N 
HETATM    5  C12 UNL     1      -4.007   2.129  14.348  1.00  0.00     0.114 C 
ENDROOT
BRANCH   1   6
HETATM    6  C6  UNL     1      -5.712   3.872  15.019  1.00  0.00     0.109 C 
BRANCH   6   7
HETATM    7  C5  UNL     1      -6.073   5.245  14.528  1.00  0.00     0.218 C 
HETATM    8  N1  UNL     1      -5.461   6.396  15.063  1.00  0.00    -0.353 N 
ATOM      9  H1  UNL     1      -4.759   6.304  15.797  1.00  0.00     0.163 HD
HETATM   10  O1  UNL     1      -6.937   5.368  13.622  1.00  0.00    -0.274 OA
BRANCH   8  11
HETATM   11  C2  UNL     1      -5.824   7.708  14.575  1.00  0.00     0.022 C 
HETATM   12  C1  UNL     1      -5.842   7.745  13.054  1.00  0.00     0.037 C 
HETATM   13  C3  UNL     1      -4.789   8.698  15.086  1.00  0.00     0.037 C 
HETATM   14  C4  UNL     1      -7.175   8.147  15.046  1.00  0.00     0.037 C 
ENDBRANCH   8  11
ENDBRANCH   6   7
ENDBRANCH   1   6
BRANCH   5  15
HETATM   15  C13 UNL     1      -4.605   1.088  15.185  1.00  0.00     0.189 C 
BRANCH  15  16
HETATM   16  O3  UNL     1      -3.786   0.695  16.242  1.00  0.00    -0.399 OA
ATOM     17  H3  UNL     1      -2.878   0.949  16.126  1.00  0.00     0.209 HD
ENDBRANCH  15  16
ENDBRANCH   5  15
BRANCH   4  18
HETATM   18  C10 UNL     1      -4.832   1.504  11.909  1.00  0.00     0.147 C 
BRANCH  18  19
HETATM   19  O2  UNL     1      -5.976   1.982  11.508  1.00  0.00    -0.347 OA
ATOM     20  H2  UNL     1      -6.472   1.514  10.846  1.00  0.00     0.219 HD
ENDBRANCH  18  19
BRANCH  18  21
HETATM   21  C11 UNL     1      -4.437   0.302  11.159  1.00  0.00     0.252 C 
HETATM   22 CL1  UNL     1      -4.138  -1.085  12.283  1.00  0.00    -0.099 Cl
HETATM   23 CL2  UNL     1      -2.848   0.567  10.340  1.00  0.00    -0.099 Cl
ENDBRANCH  18  21
ENDBRANCH   4  18
TORSDOF 8
ENDMDL
MODEL 3
REMARK VINA RESULT: -6.286847576      3.554      5.160
REMARK  8 active torsions:
REMARK  status: ('A' for Active; 'I' for Inactive)
REMARK    1  A    between atoms: C2_2  and  N1_5 
REMARK       I    between atoms: N1_5  and  C5_7 
REMARK    2  A    between atoms: C5_7  and  C6_9 
REMARK    3  A    between atoms: C6_9  and  C7_10 
REMARK    4  A    between atoms: N2_13  and  C10_14 
REMARK    5  A    between atoms: C10_14  and  O2_15 
REMARK    6  A    between atoms: C10_14  and  C11_17 
REMARK    7  A    between atoms: C12_20  and  C13_21 
REMARK    8  A    between atoms: C13_21  and  O3_22 
ROOT
HETATM    1  C7  UNL     1      -4.677   1.832  13.089  1.00  0.00     0.021 C 
HETATM    2  C8  UNL     1      -4.112   0.422  12.867  1.00  0.00     0.027 C 
HETATM    3  C9  UNL     1      -3.638   0.404  11.406  1.00  0.00     0.125 C 
HETATM    4  N2  UNL     1      -3.219   1.855  11.309  1.00  0.00    -0.356 N 
HETATM    5  C12 UNL     1      -4.401   2.480  11.751  1.00  0.00     0.114 C 
ENDROOT
BRANCH   1   6
HETATM    6  C6  UNL     1      -4.032   2.497  14.253  1.00  0.00     0.109 C 
BRANCH   6   7
HETATM    7  C5  UNL     1      -4.542   1.946  15.554  1.00  0.00     0.218 C 
HETATM    8  N1  UNL     1      -5.909   2.012  15.889  1.00  0.00    -0.353 N 
ATOM      9  H1  UNL     1      -6.571   2.441  15.242  1.00  0.00     0.163 HD
HETATM   10  O1  UNL     1      -3.733   1.415  16.358  1.00  0.00    -0.274 OA
BRANCH   8  11
HETATM   11  C2  UNL     1      -6.378   1.474  17.147  1.00  0.00     0.022 C 
HETATM   12  C1  UNL     1      -5.772   0.107  17.422  1.00  0.00     0.037 C 
HETATM   13  C3  UNL     1      -7.891   1.342  17.061  1.00  0.00     0.037 C 
HETATM   14  C4  UNL     1      -6.044   2.352  18.312  1.00  0.00     0.037 C 
ENDBRANCH   8  11
ENDBRANCH   6   7
ENDBRANCH   1   6
BRANCH   5  15
HETATM   15  C13 UNL     1      -4.601   3.928  11.677  1.00  0.00     0.189 C 
BRANCH  15  16
HETATM   16  O3  UNL     1      -4.864   4.380  10.386  1.00  0.00    -0.399 OA
ATOM     17  H3  UNL     1      -5.632   3.978   9.998  1.00  0.00     0.209 HD
ENDBRANCH  15  16
ENDBRANCH   5  15
BRANCH   4  18
HETATM   18  C10 UNL     1      -1.927   2.156  10.862  1.00  0.00     0.147 C 
BRANCH  18  19
HETATM   19  O2  UNL     1      -1.564   1.797   9.663  1.00  0.00    -0.347 OA
ATOM     20  H2  UNL     1      -1.836   2.318   8.916  1.00  0.00     0.219 HD
ENDBRANCH  18  19
BRANCH  18  21
HETATM   21  C11 UNL     1      -0.853   2.856  11.582  1.00  0.00     0.252 C 
HETATM   22 CL1  UNL     1      -1.509   4.286  12.478  1.00  0.00    -0.099 Cl
HETATM   23 CL2  UNL     1       0.331   3.563  10.414  1.00  0.00    -0.099 Cl
ENDBRANCH  18  21
ENDBRANCH   4  18
TORSDOF 8
ENDMDL
MODEL 4
REMARK VINA RESULT: -6.259654333      3.361      4.928
REMARK  8 active torsions:
REMARK  status: ('A' for Active; 'I' for Inactive)
REMARK    1  A    between atoms: C2_2  and  N1_5 
REMARK       I    between atoms: N1_5  and  C5_7 
REMARK    2  A    between atoms: C5_7  and  C6_9 
REMARK    3  A    between atoms: C6_9  and  C7_10 
REMARK    4  A    between atoms: N2_13  and  C10_14 
REMARK    5  A    between atoms: C10_14  and  O2_15 
REMARK    6  A    between atoms: C10_14  and  C11_17 
REMARK    7  A    between atoms: C12_20  and  C13_21 
REMARK    8  A    between atoms: C13_21  and  O3_22 
ROOT
HETATM    1  C7  UNL     1      -4.820   1.259  13.079  1.00  0.00     0.021 C 
HETATM    2  C8  UNL     1      -4.404   0.164  12.088  1.00  0.00     0.027 C 
HETATM    3  C9  UNL     1      -3.953   0.915  10.825  1.00  0.00     0.125 C 
HETATM    4  N2  UNL     1      -3.391   2.144  11.507  1.00  0.00    -0.356 N 
HETATM    5  C12 UNL     1      -4.499   2.512  12.296  1.00  0.00     0.114 C 
ENDROOT
BRANCH   1   6
HETATM    6  C6  UNL     1      -4.097   1.124  14.372  1.00  0.00     0.109 C 
BRANCH   6   7
HETATM    7  C5  UNL     1      -5.046   1.118  15.536  1.00  0.00     0.218 C 
HETATM    8  N1  UNL     1      -5.635   2.309  16.005  1.00  0.00    -0.353 N 
ATOM      9  H1  UNL     1      -5.417   3.196  15.551  1.00  0.00     0.163 HD
HETATM   10  O1  UNL     1      -5.319   0.028  16.101  1.00  0.00    -0.274 OA
BRANCH   8  11
HETATM   11  C2  UNL     1      -6.546   2.278  17.128  1.00  0.00     0.022 C 
HETATM   12  C1  UNL     1      -7.701   1.321  16.874  1.00  0.00     0.037 C 
HETATM   13  C3  UNL     1      -7.096   3.683  17.319  1.00  0.00     0.037 C 
HETATM   14  C4  UNL     1      -5.884   1.849  18.399  1.00  0.00     0.037 C 
ENDBRANCH   8  11
ENDBRANCH   6   7
ENDBRANCH   1   6
BRANCH   5  15
HETATM   15  C13 UNL     1      -4.553   3.773  13.037  1.00  0.00     0.189 C 
BRANCH  15  16
HETATM   16  O3  UNL     1      -5.821   4.060  13.539  1.00  0.00    -0.399 OA
ATOM     17  H3  UNL     1      -6.274   3.295  13.872  1.00  0.00     0.209 HD
ENDBRANCH  15  16
ENDBRANCH   5  15
BRANCH   4  18
HETATM   18  C10 UNL     1      -2.082   2.541  11.212  1.00  0.00     0.147 C 
BRANCH  18  19
HETATM   19  O2  UNL     1      -1.108   2.171  11.994  1.00  0.00    -0.347 OA
ATOM     20  H2  UNL     1      -1.047   1.263  12.267  1.00  0.00     0.219 HD
ENDBRANCH  18  19
BRANCH  18  21
HETATM   21  C11 UNL     1      -1.611   3.361  10.086  1.00  0.00     0.252 C 
HETATM   22 CL1  UNL     1       0.180   3.612  10.181  1.00  0.00    -0.099 Cl
HETATM   23 CL2  UNL     1      -2.303   5.027  10.190  1.00  0.00    -0.099 Cl
ENDBRANCH  18  21
ENDBRANCH   4  18
TORSDOF 8
ENDMDL
MODEL 5
REMARK VINA RESULT: -6.230854133      3.306      5.204
REMARK  8 active torsions:
REMARK  status: ('A' for Active; 'I' for Inactive)
REMARK    1  A    between atoms: C2_2  and  N1_5 
REMARK       I    between atoms: N1_5  and  C5_7 
REMARK    2  A    between atoms: C5_7  and  C6_9 
REMARK    3  A    between atoms: C6_9  and  C7_10 
REMARK    4  A    between atoms: N2_13  and  C10_14 
REMARK    5  A    between atoms: C10_14  and  O2_15 
REMARK    6  A    between atoms: C10_14  and  C11_17 
REMARK    7  A    between atoms: C12_20  and  C13_21 
REMARK    8  A    between atoms: C13_21  and  O3_22 
ROOT
HETATM    1  C7  UNL     1      -4.534   2.825  13.404  1.00  0.00     0.021 C 
HETATM    2  C8  UNL     1      -4.115   1.399  13.021  1.00  0.00     0.027 C 
HETATM    3  C9  UNL     1      -3.473   1.528  11.631  1.00  0.00     0.125 C 
HETATM    4  N2  UNL     1      -2.879   2.908  11.807  1.00  0.00    -0.356 N 
HETATM    5  C12 UNL     1      -4.026   3.615  12.219  1.00  0.00     0.114 C 
ENDROOT
BRANCH   1   6
HETATM    6  C6  UNL     1      -3.961   3.225  14.717  1.00  0.00     0.109 C 
BRANCH   6   7
HETATM    7  C5  UNL     1      -4.490   2.368  15.832  1.00  0.00     0.218 C 
HETATM    8  N1  UNL     1      -5.861   2.352  16.154  1.00  0.00    -0.353 N 
ATOM      9  H1  UNL     1      -6.514   2.931  15.625  1.00  0.00     0.163 HD
HETATM   10  O1  UNL     1      -3.692   1.651  16.489  1.00  0.00    -0.274 OA
BRANCH   8  11
HETATM   11  C2  UNL     1      -6.348   1.519  17.231  1.00  0.00     0.022 C 
HETATM   12  C1  UNL     1      -5.684   0.150  17.212  1.00  0.00     0.037 C 
HETATM   13  C3  UNL     1      -7.848   1.349  17.047  1.00  0.00     0.037 C 
HETATM   14  C4  UNL     1      -6.099   2.115  18.581  1.00  0.00     0.037 C 
ENDBRANCH   8  11
ENDBRANCH   6   7
ENDBRANCH   1   6
BRANCH   5  15
HETATM   15  C13 UNL     1      -4.045   5.073  12.354  1.00  0.00     0.189 C 
BRANCH  15  16
HETATM   16  O3  UNL     1      -5.333   5.606  12.364  1.00  0.00    -0.399 OA
ATOM     17  H3  UNL     1      -5.709   5.693  11.497  1.00  0.00     0.209 HD
ENDBRANCH  15  16
ENDBRANCH   5  15
BRANCH   4  18
HETATM   18  C10 UNL     1      -1.517   3.095  11.546  1.00  0.00     0.147 C 
BRANCH  18  19
HETATM   19  O2  UNL     1      -0.672   3.122  12.537  1.00  0.00    -0.347 OA
ATOM     20  H2  UNL     1      -0.136   2.357  12.715  1.00  0.00     0.219 HD
ENDBRANCH  18  19
BRANCH  18  21
HETATM   21  C11 UNL     1      -0.855   3.279  10.245  1.00  0.00     0.252 C 
HETATM   22 CL1  UNL     1       0.839   3.879  10.467  1.00  0.00    -0.099 Cl
HETATM   23 CL2  UNL     1      -1.674   4.585   9.303  1.00  0.00    -0.099 Cl
ENDBRANCH  18  21
ENDBRANCH   4  18
TORSDOF 8
ENDMDL
