MODEL 1
REMARK VINA RESULT: -6.222125475      0.000      0.000
REMARK  5 active torsions:
REMARK  status: ('A' for Active; 'I' for Inactive)
REMARK    1  A    between atoms: C2_2  and  N1_4 
REMARK    2  A    between atoms: N1_4  and  C4_6 
REMARK    3  A    between atoms: N3_14  and  C8_16 
REMARK    4  A    between atoms: C8_16  and  C9_17 
REMARK    5  A    between atoms: C9_17  and  N4_18 
ROOT
HETATM    1  C4  UNL     1      -5.098   2.595  15.466  1.00  0.00     0.681 A 
HETATM    2  N2  UNL     1      -5.613   3.806  15.215  1.00  0.00    -0.180 N 
ATOM      3  H2  UNL     1      -6.226   4.228  15.913  1.00  0.00     0.185 HD
HETATM    4  C5  UNL     1      -5.358   4.496  14.083  1.00  0.00     0.140 A 
HETATM    5 CL1  UNL     1      -6.061   6.060  13.830  1.00  0.00    -0.062 Cl
HETATM    6  C6  UNL     1      -4.512   3.879  13.157  1.00  0.00     0.094 A 
HETATM    7 BR1  UNL     1      -4.186   4.890  11.580  1.00  0.00    -0.044 Br
HETATM    8  C7  UNL     1      -3.967   2.644  13.374  1.00  0.00     0.137 A 
HETATM    9  N3  UNL     1      -3.224   2.045  12.615  1.00  0.00    -0.373 N 
ATOM     10  H3  UNL     1      -2.984   1.154  13.049  1.00  0.00     0.161 HD
HETATM   11  N5  UNL     1      -4.286   2.027  14.551  1.00  0.00    -0.176 N 
ATOM     12  H5  UNL     1      -3.896   1.105  14.745  1.00  0.00     0.186 HD
ENDROOT
BRANCH   9  13
HETATM   13  C8  UNL     1      -2.581   2.110  11.391  1.00  0.00     0.151 C 
BRANCH  13  14
HETATM   14  C9  UNL     1      -2.458   0.670  10.861  1.00  0.00     0.290 C 
BRANCH  14  15
HETATM   15  N4  UNL     1      -3.512  -0.172  11.308  1.00  0.00     0.081 N 
HETATM   16  C10 UNL     1      -4.636   0.017  10.412  1.00  0.00     0.309 C 
HETATM   17  C11 UNL     1      -3.188  -1.571  11.337  1.00  0.00     0.309 C 
ENDBRANCH  14  15
ENDBRANCH  13  14
ENDBRANCH   9  13
BRANCH   1  18
HETATM   18  N1  UNL     1      -5.352   1.951  16.551  1.00  0.00    -0.222 N 
ATOM     19  H1  UNL     1      -4.670   1.286  16.915  1.00  0.00     0.178 HD
BRANCH  18  20
HETATM   20  C2  UNL     1      -6.583   2.161  17.253  1.00  0.00     0.091 C 
HETATM   21  C1  UNL     1      -7.580   1.038  16.950  1.00  0.00     0.032 C 
HETATM   22  C3  UNL     1      -6.261   2.090  18.751  1.00  0.00     0.032 C 
ENDBRANCH  18  20
ENDBRANCH   1  18
TORSDOF 5
ENDMDL
MODEL 2
REMARK VINA RESULT: -6.156045082      1.283      1.641
REMARK  5 active torsions:
REMARK  status: ('A' for Active; 'I' for Inactive)
REMARK    1  A    between atoms: C2_2  and  N1_4 
REMARK    2  A    between atoms: N1_4  and  C4_6 
REMARK    3  A    between atoms: N3_14  and  C8_16 
REMARK    4  A    between atoms: C8_16  and  C9_17 
REMARK    5  A    between atoms: C9_17  and  N4_18 
ROOT
HETATM    1  C4  UNL     1      -4.742   2.338  15.574  1.00  0.00     0.681 A 
HETATM    2  N2  UNL     1      -4.009   3.457  15.503  1.00  0.00    -0.180 N 
ATOM      3  H2  UNL     1      -3.756   3.928  16.372  1.00  0.00     0.185 HD
HETATM    4  C5  UNL     1      -3.588   3.990  14.337  1.00  0.00     0.140 A 
HETATM    5 CL1  UNL     1      -2.641   5.442  14.326  1.00  0.00    -0.062 Cl
HETATM    6  C6  UNL     1      -3.958   3.310  13.173  1.00  0.00     0.094 A 
HETATM    7 BR1  UNL     1      -3.341   4.102  11.559  1.00  0.00    -0.044 Br
HETATM    8  C7  UNL     1      -4.705   2.166  13.202  1.00  0.00     0.137 A 
HETATM    9  N3  UNL     1      -5.065   1.520  12.232  1.00  0.00    -0.373 N 
ATOM     10  H3  UNL     1      -5.606   0.723  12.568  1.00  0.00     0.161 HD
HETATM   11  N5  UNL     1      -5.083   1.706  14.432  1.00  0.00    -0.176 N 
ATOM     12  H5  UNL     1      -5.642   0.854  14.489  1.00  0.00     0.186 HD
ENDROOT
BRANCH   9  13
HETATM   13  C8  UNL     1      -5.021   1.452  10.850  1.00  0.00     0.151 C 
BRANCH  13  14
HETATM   14  C9  UNL     1      -4.348   0.120  10.476  1.00  0.00     0.290 C 
BRANCH  14  15
HETATM   15  N4  UNL     1      -3.268  -0.211  11.339  1.00  0.00     0.081 N 
HETATM   16  C10 UNL     1      -3.064  -1.644  11.259  1.00  0.00     0.309 C 
HETATM   17  C11 UNL     1      -2.028   0.441  11.021  1.00  0.00     0.309 C 
ENDBRANCH  14  15
ENDBRANCH  13  14
ENDBRANCH   9  13
BRANCH   1  18
HETATM   18  N1  UNL     1      -5.136   1.843  16.695  1.00  0.00    -0.222 N 
ATOM     19  H1  UNL     1      -4.522   1.215  17.213  1.00  0.00     0.178 HD
BRANCH  18  20
HETATM   20  C2  UNL     1      -6.428   2.166  17.221  1.00  0.00     0.091 C 
HETATM   21  C1  UNL     1      -7.418   1.024  16.970  1.00  0.00     0.032 C 
HETATM   22  C3  UNL     1      -6.271   2.304  18.740  1.00  0.00     0.032 C 
ENDBRANCH  18  20
ENDBRANCH   1  18
TORSDOF 5
ENDMDL
MODEL 3
REMARK VINA RESULT: -5.959239965      1.666      2.095
REMARK  5 active torsions:
REMARK  status: ('A' for Active; 'I' for Inactive)
REMARK    1  A    between atoms: C2_2  and  N1_4 
REMARK    2  A    between atoms: N1_4  and  C4_6 
REMARK    3  A    between atoms: N3_14  and  C8_16 
REMARK    4  A    between atoms: C8_16  and  C9_17 
REMARK    5  A    between atoms: C9_17  and  N4_18 
ROOT
HETATM    1  C4  UNL     1      -5.141   3.032  15.503  1.00  0.00     0.681 A 
HETATM    2  N2  UNL     1      -6.011   3.989  15.152  1.00  0.00    -0.180 N 
ATOM      3  H2  UNL     1      -6.940   3.979  15.574  1.00  0.00     0.185 HD
HETATM    4  C5  UNL     1      -5.717   4.965  14.268  1.00  0.00     0.140 A 
HETATM    5 CL1  UNL     1      -6.896   6.169  13.864  1.00  0.00    -0.062 Cl
HETATM    6  C6  UNL     1      -4.432   4.938  13.717  1.00  0.00     0.094 A 
HETATM    7 BR1  UNL     1      -4.068   6.333  12.478  1.00  0.00    -0.044 Br
HETATM    8  C7  UNL     1      -3.515   3.980  14.048  1.00  0.00     0.137 A 
HETATM    9  N3  UNL     1      -2.380   3.893  13.611  1.00  0.00    -0.373 N 
ATOM     10  H3  UNL     1      -1.940   3.079  14.041  1.00  0.00     0.161 HD
HETATM   11  N5  UNL     1      -3.909   3.034  14.953  1.00  0.00    -0.176 N 
ATOM     12  H5  UNL     1      -3.249   2.305  15.221  1.00  0.00     0.186 HD
ENDROOT
BRANCH   9  13
HETATM   13  C8  UNL     1      -1.460   4.472  12.755  1.00  0.00     0.151 C 
BRANCH  13  14
HETATM   14  C9  UNL     1      -0.834   3.341  11.920  1.00  0.00     0.290 C 
BRANCH  14  15
HETATM   15  N4  UNL     1      -1.740   2.790  10.974  1.00  0.00     0.081 N 
HETATM   16  C10 UNL     1      -1.329   3.240   9.658  1.00  0.00     0.309 C 
HETATM   17  C11 UNL     1      -1.795   1.355  10.965  1.00  0.00     0.309 C 
ENDBRANCH  14  15
ENDBRANCH  13  14
ENDBRANCH   9  13
BRANCH   1  18
HETATM   18  N1  UNL     1      -5.438   2.108  16.348  1.00  0.00    -0.222 N 
ATOM     19  H1  UNL     1      -4.832   1.293  16.440  1.00  0.00     0.178 HD
BRANCH  18  20
HETATM   20  C2  UNL     1      -6.613   2.213  17.160  1.00  0.00     0.091 C 
HETATM   21  C1  UNL     1      -7.588   1.072  16.856  1.00  0.00     0.032 C 
HETATM   22  C3  UNL     1      -6.166   2.051  18.618  1.00  0.00     0.032 C 
ENDBRANCH  18  20
ENDBRANCH   1  18
TORSDOF 5
ENDMDL
MODEL 4
REMARK VINA RESULT: -5.925789557      1.157      1.999
REMARK  5 active torsions:
REMARK  status: ('A' for Active; 'I' for Inactive)
REMARK    1  A    between atoms: C2_2  and  N1_4 
REMARK    2  A    between atoms: N1_4  and  C4_6 
REMARK    3  A    between atoms: N3_14  and  C8_16 
REMARK    4  A    between atoms: C8_16  and  C9_17 
REMARK    5  A    between atoms: C9_17  and  N4_18 
ROOT
HETATM    1  C4  UNL     1      -5.106   2.470  15.338  1.00  0.00     0.681 A 
HETATM    2  N2  UNL     1      -5.478   3.742  15.142  1.00  0.00    -0.180 N 
ATOM      3  H2  UNL     1      -5.954   4.231  15.901  1.00  0.00     0.185 HD
HETATM    4  C5  UNL     1      -5.255   4.408  13.990  1.00  0.00     0.140 A 
HETATM    5 CL1  UNL     1      -5.767   6.054  13.813  1.00  0.00    -0.062 Cl
HETATM    6  C6  UNL     1      -4.600   3.698  12.980  1.00  0.00     0.094 A 
HETATM    7 BR1  UNL     1      -4.309   4.679  11.378  1.00  0.00    -0.044 Br
HETATM    8  C7  UNL     1      -4.203   2.399  13.139  1.00  0.00     0.137 A 
HETATM    9  N3  UNL     1      -3.629   1.718  12.305  1.00  0.00    -0.373 N 
ATOM     10  H3  UNL     1      -3.466   0.797  12.712  1.00  0.00     0.161 HD
HETATM   11  N5  UNL     1      -4.476   1.813  14.343  1.00  0.00    -0.176 N 
ATOM     12  H5  UNL     1      -4.194   0.844  14.494  1.00  0.00     0.186 HD
ENDROOT
BRANCH   9  13
HETATM   13  C8  UNL     1      -3.115   1.714  11.020  1.00  0.00     0.151 C 
BRANCH  13  14
HETATM   14  C9  UNL     1      -1.605   1.437  11.131  1.00  0.00     0.290 C 
BRANCH  14  15
HETATM   15  N4  UNL     1      -0.812   2.568  10.797  1.00  0.00     0.081 N 
HETATM   16  C10 UNL     1      -1.372   3.157   9.596  1.00  0.00     0.309 C 
HETATM   17  C11 UNL     1      -0.757   3.580  11.814  1.00  0.00     0.309 C 
ENDBRANCH  14  15
ENDBRANCH  13  14
ENDBRANCH   9  13
BRANCH   1  18
HETATM   18  N1  UNL     1      -5.327   1.850  16.444  1.00  0.00    -0.222 N 
ATOM     19  H1  UNL     1      -4.653   1.164  16.782  1.00  0.00     0.178 HD
BRANCH  18  20
HETATM   20  C2  UNL     1      -6.513   2.115  17.203  1.00  0.00     0.091 C 
HETATM   21  C1  UNL     1      -7.607   1.095  16.877  1.00  0.00     0.032 C 
HETATM   22  C3  UNL     1      -6.147   1.931  18.681  1.00  0.00     0.032 C 
ENDBRANCH  18  20
ENDBRANCH   1  18
TORSDOF 5
ENDMDL
MODEL 5
REMARK VINA RESULT: -5.901123818      1.660      5.555
REMARK  5 active torsions:
REMARK  status: ('A' for Active; 'I' for Inactive)
REMARK    1  A    between atoms: C2_2  and  N1_4 
REMARK    2  A    between atoms: N1_4  and  C4_6 
REMARK    3  A    between atoms: N3_14  and  C8_16 
REMARK    4  A    between atoms: C8_16  and  C9_17 
REMARK    5  A    between atoms: C9_17  and  N4_18 
ROOT
HETATM    1  C4  UNL     1      -3.240   1.717  12.376  1.00  0.00     0.681 A 
HETATM    2  N2  UNL     1      -2.601   2.856  12.081  1.00  0.00    -0.180 N 
ATOM      3  H2  UNL     1      -1.854   2.828  11.386  1.00  0.00     0.185 HD
HETATM    4  C5  UNL     1      -2.897   4.040  12.657  1.00  0.00     0.140 A 
HETATM    5 CL1  UNL     1      -2.024   5.473  12.221  1.00  0.00    -0.062 Cl
HETATM    6  C6  UNL     1      -3.928   4.030  13.601  1.00  0.00     0.094 A 
HETATM    7 BR1  UNL     1      -4.306   5.721  14.383  1.00  0.00    -0.044 Br
HETATM    8  C7  UNL     1      -4.606   2.890  13.931  1.00  0.00     0.137 A 
HETATM    9  N3  UNL     1      -5.512   2.804  14.743  1.00  0.00    -0.373 N 
ATOM     10  H3  UNL     1      -5.815   1.831  14.773  1.00  0.00     0.161 HD
HETATM   11  N5  UNL     1      -4.230   1.741  13.293  1.00  0.00    -0.176 N 
ATOM     12  H5  UNL     1      -4.715   0.872  13.516  1.00  0.00     0.186 HD
ENDROOT
BRANCH   9  13
HETATM   13  C8  UNL     1      -6.288   3.520  15.639  1.00  0.00     0.151 C 
BRANCH  13  14
HETATM   14  C9  UNL     1      -6.974   2.502  16.567  1.00  0.00     0.290 C 
BRANCH  14  15
HETATM   15  N4  UNL     1      -6.060   1.848  17.436  1.00  0.00     0.081 N 
HETATM   16  C10 UNL     1      -6.385   2.244  18.793  1.00  0.00     0.309 C 
HETATM   17  C11 UNL     1      -6.090   0.414  17.365  1.00  0.00     0.309 C 
ENDBRANCH  14  15
ENDBRANCH  13  14
ENDBRANCH   9  13
BRANCH   1  18
HETATM   18  N1  UNL     1      -2.945   0.596  11.817  1.00  0.00    -0.222 N 
ATOM     19  H1  UNL     1      -1.983   0.412  11.531  1.00  0.00     0.178 HD
BRANCH  18  20
HETATM   20  C2  UNL     1      -3.954  -0.395  11.592  1.00  0.00     0.091 C 
HETATM   21  C1  UNL     1      -4.756  -0.077  10.326  1.00  0.00     0.032 C 
HETATM   22  C3  UNL     1      -3.229  -1.724  11.347  1.00  0.00     0.032 C 
ENDBRANCH  18  20
ENDBRANCH   1  18
TORSDOF 5
ENDMDL
