MODEL 1
REMARK VINA RESULT: -5.981651165      0.000      0.000
REMARK  5 active torsions:
REMARK  status: ('A' for Active; 'I' for Inactive)
REMARK    1  A    between atoms: N1_2  and  C3_4 
REMARK    2  A    between atoms: C3_4  and  C4_5 
REMARK    3  A    between atoms: C4_5  and  N2_6 
REMARK    4  A    between atoms: N2_6  and  C5_8 
REMARK    5  A    between atoms: C8_14  and  C9_15 
ROOT
HETATM    1  C5  UNL     1      -1.966   4.185  12.788  1.00  0.00     0.680 A 
HETATM    2  N3  UNL     1      -2.039   3.833  11.510  1.00  0.00    -0.200 N 
ATOM      3  H3  UNL     1      -1.339   4.139  10.835  1.00  0.00     0.183 HD
HETATM    4  C6  UNL     1      -3.067   3.059  11.142  1.00  0.00     0.132 A 
HETATM    5  C7  UNL     1      -4.010   2.657  12.075  1.00  0.00     0.077 A 
HETATM    6 CL1  UNL     1      -5.345   1.734  11.485  1.00  0.00    -0.080 Cl
HETATM    7  C8  UNL     1      -3.961   3.013  13.400  1.00  0.00     0.076 A 
HETATM    8  N5  UNL     1      -2.903   3.789  13.724  1.00  0.00    -0.186 N 
HETATM    9  C15 UNL     1      -2.683   4.149  15.107  1.00  0.00     0.175 C 
ENDROOT
BRANCH   7  10
HETATM   10  C9  UNL     1      -4.947   2.506  14.353  1.00  0.00    -0.046 C 
HETATM   11  C10 UNL     1      -4.648   1.092  14.796  1.00  0.00     0.064 C 
HETATM   12  C11 UNL     1      -4.295   0.979  16.246  1.00  0.00     0.236 C 
HETATM   13  N4  UNL     1      -5.420   0.685  17.097  1.00  0.00    -0.072 N 
HETATM   14  C12 UNL     1      -6.555   1.397  16.530  1.00  0.00     0.269 C 
ATOM     15  H42 UNL     1      -5.587  -0.314  17.218  1.00  0.00     0.277 HD
ATOM     16  H41 UNL     1      -5.253   0.903  18.079  1.00  0.00     0.277 HD
HETATM   17  C13 UNL     1      -6.196   2.859  16.511  1.00  0.00     0.199 C 
HETATM   18  F1  UNL     1      -7.383   3.504  16.898  1.00  0.00    -0.247 F 
HETATM   19  C14 UNL     1      -5.869   3.340  15.099  1.00  0.00     0.075 C 
ENDBRANCH   7  10
BRANCH   1  20
HETATM   20  N2  UNL     1      -1.032   4.965  13.171  1.00  0.00    -0.224 N 
ATOM     21  H2  UNL     1      -0.533   4.651  14.002  1.00  0.00     0.177 HD
BRANCH  20  22
HETATM   22  C4  UNL     1      -0.570   6.197  12.634  1.00  0.00     0.168 C 
BRANCH  22  23
HETATM   23  C3  UNL     1      -1.569   7.255  13.034  1.00  0.00     0.291 C 
BRANCH  23  24
HETATM   24  N1  UNL     1      -1.481   7.627  14.409  1.00  0.00     0.081 N 
HETATM   25  C1  UNL     1      -0.647   8.818  14.627  1.00  0.00     0.309 C 
HETATM   26  C2  UNL     1      -2.779   7.849  15.022  1.00  0.00     0.309 C 
ENDBRANCH  23  24
ENDBRANCH  22  23
ENDBRANCH  20  22
ENDBRANCH   1  20
TORSDOF 5
ENDMDL
MODEL 2
REMARK VINA RESULT: -5.904340046      1.342      2.336
REMARK  5 active torsions:
REMARK  status: ('A' for Active; 'I' for Inactive)
REMARK    1  A    between atoms: N1_2  and  C3_4 
REMARK    2  A    between atoms: C3_4  and  C4_5 
REMARK    3  A    between atoms: C4_5  and  N2_6 
REMARK    4  A    between atoms: N2_6  and  C5_8 
REMARK    5  A    between atoms: C8_14  and  C9_15 
ROOT
HETATM    1  C5  UNL     1      -1.985   4.116  12.643  1.00  0.00     0.680 A 
HETATM    2  N3  UNL     1      -2.073   3.719  11.379  1.00  0.00    -0.200 N 
ATOM      3  H3  UNL     1      -1.380   4.002  10.686  1.00  0.00     0.183 HD
HETATM    4  C6  UNL     1      -3.105   2.934  11.049  1.00  0.00     0.132 A 
HETATM    5  C7  UNL     1      -4.036   2.564  12.007  1.00  0.00     0.077 A 
HETATM    6 CL1  UNL     1      -5.378   1.622  11.464  1.00  0.00    -0.080 Cl
HETATM    7  C8  UNL     1      -3.973   2.966  13.318  1.00  0.00     0.076 A 
HETATM    8  N5  UNL     1      -2.910   3.752  13.603  1.00  0.00    -0.186 N 
HETATM    9  C15 UNL     1      -2.675   4.160  14.970  1.00  0.00     0.175 C 
ENDROOT
BRANCH   7  10
HETATM   10  C9  UNL     1      -4.947   2.492  14.299  1.00  0.00    -0.046 C 
HETATM   11  C10 UNL     1      -4.658   1.085  14.769  1.00  0.00     0.064 C 
HETATM   12  C11 UNL     1      -4.280   1.000  16.214  1.00  0.00     0.236 C 
HETATM   13  N4  UNL     1      -5.393   0.739  17.091  1.00  0.00    -0.072 N 
HETATM   14  C12 UNL     1      -6.529   1.452  16.529  1.00  0.00     0.269 C 
ATOM     15  H42 UNL     1      -5.570  -0.255  17.238  1.00  0.00     0.277 HD
ATOM     16  H41 UNL     1      -5.206   0.977  18.065  1.00  0.00     0.277 HD
HETATM   17  C13 UNL     1      -6.153   2.909  16.470  1.00  0.00     0.199 C 
HETATM   18  F1  UNL     1      -7.326   3.577  16.863  1.00  0.00    -0.247 F 
HETATM   19  C14 UNL     1      -5.846   3.354  15.042  1.00  0.00     0.075 C 
ENDBRANCH   7  10
BRANCH   1  20
HETATM   20  N2  UNL     1      -1.046   4.908  12.988  1.00  0.00    -0.224 N 
ATOM     21  H2  UNL     1      -0.615   4.688  13.885  1.00  0.00     0.177 HD
BRANCH  20  22
HETATM   22  C4  UNL     1      -0.501   6.045  12.334  1.00  0.00     0.168 C 
BRANCH  22  23
HETATM   23  C3  UNL     1       0.951   5.743  12.058  1.00  0.00     0.291 C 
BRANCH  23  24
HETATM   24  N1  UNL     1       1.229   5.506  10.678  1.00  0.00     0.081 N 
HETATM   25  C1  UNL     1       1.401   4.079  10.367  1.00  0.00     0.309 C 
HETATM   26  C2  UNL     1       0.220   6.058   9.792  1.00  0.00     0.309 C 
ENDBRANCH  23  24
ENDBRANCH  22  23
ENDBRANCH  20  22
ENDBRANCH   1  20
TORSDOF 5
ENDMDL
MODEL 3
REMARK VINA RESULT: -5.809799972      0.821      1.110
REMARK  5 active torsions:
REMARK  status: ('A' for Active; 'I' for Inactive)
REMARK    1  A    between atoms: N1_2  and  C3_4 
REMARK    2  A    between atoms: C3_4  and  C4_5 
REMARK    3  A    between atoms: C4_5  and  N2_6 
REMARK    4  A    between atoms: N2_6  and  C5_8 
REMARK    5  A    between atoms: C8_14  and  C9_15 
ROOT
HETATM    1  C5  UNL     1      -1.957   4.083  12.687  1.00  0.00     0.680 A 
HETATM    2  N3  UNL     1      -2.049   3.710  11.416  1.00  0.00    -0.200 N 
ATOM      3  H3  UNL     1      -1.352   3.995  10.729  1.00  0.00     0.183 HD
HETATM    4  C6  UNL     1      -3.092   2.945  11.072  1.00  0.00     0.132 A 
HETATM    5  C7  UNL     1      -4.030   2.573  12.021  1.00  0.00     0.077 A 
HETATM    6 CL1  UNL     1      -5.384   1.660  11.461  1.00  0.00    -0.080 Cl
HETATM    7  C8  UNL     1      -3.962   2.950  13.340  1.00  0.00     0.076 A 
HETATM    8  N5  UNL     1      -2.889   3.716  13.639  1.00  0.00    -0.186 N 
HETATM    9  C15 UNL     1      -2.650   4.096  15.013  1.00  0.00     0.175 C 
ENDROOT
BRANCH   7  10
HETATM   10  C9  UNL     1      -4.945   2.473  14.311  1.00  0.00    -0.046 C 
HETATM   11  C10 UNL     1      -4.663   1.062  14.773  1.00  0.00     0.064 C 
HETATM   12  C11 UNL     1      -4.296   0.966  16.220  1.00  0.00     0.236 C 
HETATM   13  N4  UNL     1      -5.415   0.703  17.089  1.00  0.00    -0.072 N 
HETATM   14  C12 UNL     1      -6.545   1.424  16.523  1.00  0.00     0.269 C 
ATOM     15  H42 UNL     1      -5.596  -0.291  17.227  1.00  0.00     0.277 HD
ATOM     16  H41 UNL     1      -5.234   0.934  18.065  1.00  0.00     0.277 HD
HETATM   17  C13 UNL     1      -6.164   2.879  16.477  1.00  0.00     0.199 C 
HETATM   18  F1  UNL     1      -7.337   3.549  16.866  1.00  0.00    -0.247 F 
HETATM   19  C14 UNL     1      -5.846   3.333  15.054  1.00  0.00     0.075 C 
ENDBRANCH   7  10
BRANCH   1  20
HETATM   20  N2  UNL     1      -1.008   4.855  13.047  1.00  0.00    -0.224 N 
ATOM     21  H2  UNL     1      -0.424   4.487  13.797  1.00  0.00     0.177 HD
BRANCH  20  22
HETATM   22  C4  UNL     1      -0.627   6.141  12.579  1.00  0.00     0.168 C 
BRANCH  22  23
HETATM   23  C3  UNL     1      -1.446   7.151  13.346  1.00  0.00     0.291 C 
BRANCH  23  24
HETATM   24  N1  UNL     1      -2.497   7.731  12.574  1.00  0.00     0.081 N 
HETATM   25  C1  UNL     1      -2.317   7.540  11.127  1.00  0.00     0.309 C 
HETATM   26  C2  UNL     1      -3.813   7.243  12.947  1.00  0.00     0.309 C 
ENDBRANCH  23  24
ENDBRANCH  22  23
ENDBRANCH  20  22
ENDBRANCH   1  20
TORSDOF 5
ENDMDL
MODEL 4
REMARK VINA RESULT: -5.784645863      3.743      6.602
REMARK  5 active torsions:
REMARK  status: ('A' for Active; 'I' for Inactive)
REMARK    1  A    between atoms: N1_2  and  C3_4 
REMARK    2  A    between atoms: C3_4  and  C4_5 
REMARK    3  A    between atoms: C4_5  and  N2_6 
REMARK    4  A    between atoms: N2_6  and  C5_8 
REMARK    5  A    between atoms: C8_14  and  C9_15 
ROOT
HETATM    1  C5  UNL     1      -2.687   3.759  12.149  1.00  0.00     0.680 A 
HETATM    2  N3  UNL     1      -1.953   3.787  13.256  1.00  0.00    -0.200 N 
ATOM      3  H3  UNL     1      -1.326   3.019  13.495  1.00  0.00     0.183 HD
HETATM    4  C6  UNL     1      -2.068   4.862  14.044  1.00  0.00     0.132 A 
HETATM    5  C7  UNL     1      -2.928   5.893  13.702  1.00  0.00     0.077 A 
HETATM    6 CL1  UNL     1      -3.071   7.194  14.828  1.00  0.00    -0.080 Cl
HETATM    7  C8  UNL     1      -3.703   5.886  12.568  1.00  0.00     0.076 A 
HETATM    8  N5  UNL     1      -3.548   4.783  11.802  1.00  0.00    -0.186 N 
HETATM    9  C15 UNL     1      -4.233   4.700  10.531  1.00  0.00     0.175 C 
ENDROOT
BRANCH   7  10
HETATM   10  C9  UNL     1      -4.544   7.030  12.224  1.00  0.00    -0.046 C 
HETATM   11  C10 UNL     1      -3.806   8.066  11.406  1.00  0.00     0.064 C 
HETATM   12  C11 UNL     1      -4.329   8.214  10.012  1.00  0.00     0.236 C 
HETATM   13  N4  UNL     1      -5.321   9.251   9.870  1.00  0.00    -0.072 N 
HETATM   14  C12 UNL     1      -6.103   9.234  11.097  1.00  0.00     0.269 C 
ATOM     15  H42 UNL     1      -4.924  10.165   9.655  1.00  0.00     0.277 HD
ATOM     16  H41 UNL     1      -5.887   9.158   9.027  1.00  0.00     0.277 HD
HETATM   17  C13 UNL     1      -6.702   7.858  11.222  1.00  0.00     0.199 C 
HETATM   18  F1  UNL     1      -8.006   8.099  11.688  1.00  0.00    -0.247 F 
HETATM   19  C14 UNL     1      -5.993   7.032  12.293  1.00  0.00     0.075 C 
ENDBRANCH   7  10
BRANCH   1  20
HETATM   20  N2  UNL     1      -2.648   2.730  11.396  1.00  0.00    -0.224 N 
ATOM     21  H2  UNL     1      -3.430   2.650  10.748  1.00  0.00     0.177 HD
BRANCH  20  22
HETATM   22  C4  UNL     1      -1.699   1.677  11.309  1.00  0.00     0.168 C 
BRANCH  22  23
HETATM   23  C3  UNL     1      -2.470   0.381  11.365  1.00  0.00     0.291 C 
BRANCH  23  24
HETATM   24  N1  UNL     1      -3.850   0.556  11.682  1.00  0.00     0.081 N 
HETATM   25  C1  UNL     1      -4.747   0.029  10.642  1.00  0.00     0.309 C 
HETATM   26  C2  UNL     1      -4.220  -0.032  12.957  1.00  0.00     0.309 C 
ENDBRANCH  23  24
ENDBRANCH  22  23
ENDBRANCH  20  22
ENDBRANCH   1  20
TORSDOF 5
ENDMDL
MODEL 5
REMARK VINA RESULT: -5.687661788      3.245      6.621
REMARK  5 active torsions:
REMARK  status: ('A' for Active; 'I' for Inactive)
REMARK    1  A    between atoms: N1_2  and  C3_4 
REMARK    2  A    between atoms: C3_4  and  C4_5 
REMARK    3  A    between atoms: C4_5  and  N2_6 
REMARK    4  A    between atoms: N2_6  and  C5_8 
REMARK    5  A    between atoms: C8_14  and  C9_15 
ROOT
HETATM    1  C5  UNL     1      -4.473   3.042  13.485  1.00  0.00     0.680 A 
HETATM    2  N3  UNL     1      -4.959   1.840  13.199  1.00  0.00    -0.200 N 
ATOM      3  H3  UNL     1      -5.795   1.483  13.661  1.00  0.00     0.183 HD
HETATM    4  C6  UNL     1      -4.310   1.115  12.280  1.00  0.00     0.132 A 
HETATM    5  C7  UNL     1      -3.174   1.619  11.667  1.00  0.00     0.077 A 
HETATM    6 CL1  UNL     1      -2.358   0.573  10.561  1.00  0.00    -0.080 Cl
HETATM    7  C8  UNL     1      -2.646   2.855  11.950  1.00  0.00     0.076 A 
HETATM    8  N5  UNL     1      -3.340   3.550  12.879  1.00  0.00    -0.186 N 
HETATM    9  C15 UNL     1      -2.945   4.905  13.192  1.00  0.00     0.175 C 
ENDROOT
BRANCH   7  10
HETATM   10  C9  UNL     1      -1.482   3.360  11.225  1.00  0.00    -0.046 C 
HETATM   11  C10 UNL     1      -1.866   4.157   9.999  1.00  0.00     0.064 C 
HETATM   12  C11 UNL     1      -1.505   5.606  10.087  1.00  0.00     0.236 C 
HETATM   13  N4  UNL     1      -0.220   5.921   9.516  1.00  0.00    -0.072 N 
HETATM   14  C12 UNL     1       0.644   4.789   9.813  1.00  0.00     0.269 C 
ATOM     15  H42 UNL     1      -0.262   6.150   8.523  1.00  0.00     0.277 HD
ATOM     16  H41 UNL     1       0.157   6.814   9.834  1.00  0.00     0.277 HD
HETATM   17  C13 UNL     1       0.684   4.642  11.311  1.00  0.00     0.199 C 
HETATM   18  F1  UNL     1       2.028   4.338  11.585  1.00  0.00    -0.247 F 
HETATM   19  C14 UNL     1      -0.146   3.450  11.782  1.00  0.00     0.075 C 
ENDBRANCH   7  10
BRANCH   1  20
HETATM   20  N2  UNL     1      -5.031   3.744  14.393  1.00  0.00    -0.224 N 
ATOM     21  H2  UNL     1      -4.403   4.384  14.879  1.00  0.00     0.177 HD
BRANCH  20  22
HETATM   22  C4  UNL     1      -6.378   3.784  14.841  1.00  0.00     0.168 C 
BRANCH  22  23
HETATM   23  C3  UNL     1      -6.386   3.281  16.264  1.00  0.00     0.291 C 
BRANCH  23  24
HETATM   24  N1  UNL     1      -6.364   1.857  16.361  1.00  0.00     0.081 N 
HETATM   25  C1  UNL     1      -5.084   1.338  16.865  1.00  0.00     0.309 C 
HETATM   26  C2  UNL     1      -7.437   1.328  17.183  1.00  0.00     0.309 C 
ENDBRANCH  23  24
ENDBRANCH  22  23
ENDBRANCH  20  22
ENDBRANCH   1  20
TORSDOF 5
ENDMDL
