MODEL 1
REMARK VINA RESULT: -7.692254618      0.000      0.000
REMARK  7 active torsions:
REMARK  status: ('A' for Active; 'I' for Inactive)
REMARK       I    between atoms: N1_2  and  C2_4 
REMARK    1  A    between atoms: C2_4  and  C3_6 
REMARK    2  A    between atoms: N2_8  and  C5_9 
REMARK    3  A    between atoms: C5_9  and  C7_11 
REMARK    4  A    between atoms: N3_16  and  C12_17 
REMARK    5  A    between atoms: C12_17  and  C13_19 
REMARK    6  A    between atoms: C13_19  and  O2_20 
REMARK    7  A    between atoms: C13_19  and  C14_23 
ROOT
HETATM    1  C3  UNL     1      -4.232   3.197  13.132  1.00  0.00     0.344 C 
HETATM    2  C4  UNL     1      -4.445   4.364  12.207  1.00  0.00     0.318 C 
HETATM    3  N2  UNL     1      -4.811   5.494  13.015  1.00  0.00     0.097 N 
HETATM    4  C10 UNL     1      -5.949   5.303  13.858  1.00  0.00     0.303 C 
HETATM    5  C11 UNL     1      -6.403   3.866  13.685  1.00  0.00     0.306 C 
HETATM    6  N3  UNL     1      -5.376   2.925  13.991  1.00  0.00     0.130 N 
ENDROOT
BRANCH   6   7
HETATM    7  C12 UNL     1      -4.890   2.941  15.341  1.00  0.00     0.396 C 
HETATM    8 CL1  UNL     1      -3.275   3.735  15.262  1.00  0.00    -0.086 Cl
BRANCH   7   9
HETATM    9  C13 UNL     1      -4.732   1.612  15.990  1.00  0.00     0.346 C 
HETATM   10  F1  UNL     1      -4.956   0.538  15.139  1.00  0.00    -0.198 F 
BRANCH   9  11
HETATM   11  O2  UNL     1      -3.475   1.479  16.606  1.00  0.00    -0.352 OA
ATOM     12  H2  UNL     1      -3.539   1.527  17.553  1.00  0.00     0.213 HD
ENDBRANCH   9  11
BRANCH   9  13
HETATM   13  C14 UNL     1      -5.757   1.478  17.093  1.00  0.00     0.453 C 
HETATM   14  F2  UNL     1      -5.685   0.326  17.807  1.00  0.00    -0.165 F 
HETATM   15  F3  UNL     1      -7.038   1.567  16.536  1.00  0.00    -0.165 F 
HETATM   16  F4  UNL     1      -5.646   2.609  17.908  1.00  0.00    -0.165 F 
ENDBRANCH   9  13
ENDBRANCH   7   9
ENDBRANCH   6   7
BRANCH   1  17
HETATM   17  C2  UNL     1      -3.861   2.022  12.322  1.00  0.00     0.252 C 
HETATM   18  N1  UNL     1      -4.895   1.252  11.735  1.00  0.00    -0.364 N 
HETATM   19  C1  UNL     1      -4.632   0.076  10.918  1.00  0.00     0.149 C 
ATOM     20  H1  UNL     1      -5.863   1.533  11.891  1.00  0.00     0.161 HD
HETATM   21  O1  UNL     1      -2.666   1.670  12.127  1.00  0.00    -0.271 OA
ENDBRANCH   1  17
BRANCH   3  22
HETATM   22  C5  UNL     1      -4.793   6.740  12.308  1.00  0.00     0.222 C 
HETATM   23  C6  UNL     1      -3.545   7.009  11.538  1.00  0.00     0.043 C 
BRANCH  22  24
HETATM   24  C7  UNL     1      -6.027   6.842  11.472  1.00  0.00     0.010 C 
HETATM   25  C8  UNL     1      -6.710   8.177  11.628  1.00  0.00     0.011 C 
HETATM   26  C9  UNL     1      -5.754   6.616  10.002  1.00  0.00     0.011 C 
ENDBRANCH  22  24
ENDBRANCH   3  22
TORSDOF 7
ENDMDL
MODEL 2
REMARK VINA RESULT: -7.627993297      0.675      1.407
REMARK  7 active torsions:
REMARK  status: ('A' for Active; 'I' for Inactive)
REMARK       I    between atoms: N1_2  and  C2_4 
REMARK    1  A    between atoms: C2_4  and  C3_6 
REMARK    2  A    between atoms: N2_8  and  C5_9 
REMARK    3  A    between atoms: C5_9  and  C7_11 
REMARK    4  A    between atoms: N3_16  and  C12_17 
REMARK    5  A    between atoms: C12_17  and  C13_19 
REMARK    6  A    between atoms: C13_19  and  O2_20 
REMARK    7  A    between atoms: C13_19  and  C14_23 
ROOT
HETATM    1  C3  UNL     1      -4.088   2.949  13.054  1.00  0.00     0.344 C 
HETATM    2  C4  UNL     1      -4.271   4.041  12.035  1.00  0.00     0.318 C 
HETATM    3  N2  UNL     1      -4.714   5.215  12.735  1.00  0.00     0.097 N 
HETATM    4  C10 UNL     1      -5.897   5.051  13.521  1.00  0.00     0.303 C 
HETATM    5  C11 UNL     1      -6.304   3.593  13.426  1.00  0.00     0.306 C 
HETATM    6  N3  UNL     1      -5.275   2.707  13.860  1.00  0.00     0.130 N 
ENDROOT
BRANCH   6   7
HETATM    7  C12 UNL     1      -4.874   2.832  15.232  1.00  0.00     0.396 C 
HETATM    8 CL1  UNL     1      -3.287   3.682  15.193  1.00  0.00    -0.086 Cl
BRANCH   7   9
HETATM    9  C13 UNL     1      -4.709   1.557  15.980  1.00  0.00     0.346 C 
HETATM   10  F1  UNL     1      -4.932   0.420  15.214  1.00  0.00    -0.198 F 
BRANCH   9  11
HETATM   11  O2  UNL     1      -3.449   1.476  16.600  1.00  0.00    -0.352 OA
ATOM     12  H2  UNL     1      -2.830   2.090  16.224  1.00  0.00     0.213 HD
ENDBRANCH   9  11
BRANCH   9  13
HETATM   13  C14 UNL     1      -5.730   1.504  17.094  1.00  0.00     0.453 C 
HETATM   14  F2  UNL     1      -5.659   0.405  17.886  1.00  0.00    -0.165 F 
HETATM   15  F3  UNL     1      -7.012   1.560  16.537  1.00  0.00    -0.165 F 
HETATM   16  F4  UNL     1      -5.610   2.689  17.828  1.00  0.00    -0.165 F 
ENDBRANCH   9  13
ENDBRANCH   7   9
ENDBRANCH   6   7
BRANCH   1  17
HETATM   17  C2  UNL     1      -3.639   1.730  12.354  1.00  0.00     0.252 C 
HETATM   18  N1  UNL     1      -4.607   0.755  12.009  1.00  0.00    -0.364 N 
HETATM   19  C1  UNL     1      -4.265  -0.480  11.317  1.00  0.00     0.149 C 
ATOM     20  H1  UNL     1      -5.582   0.925  12.254  1.00  0.00     0.161 HD
HETATM   21  O1  UNL     1      -2.435   1.516  12.050  1.00  0.00    -0.271 OA
ENDBRANCH   1  17
BRANCH   3  22
HETATM   22  C5  UNL     1      -4.682   6.407  11.943  1.00  0.00     0.222 C 
HETATM   23  C6  UNL     1      -5.905   7.256  12.032  1.00  0.00     0.043 C 
BRANCH  22  24
HETATM   24  C7  UNL     1      -3.427   7.159  12.247  1.00  0.00     0.010 C 
HETATM   25  C8  UNL     1      -3.474   8.576  11.734  1.00  0.00     0.011 C 
HETATM   26  C9  UNL     1      -3.117   7.198  13.727  1.00  0.00     0.011 C 
ENDBRANCH  22  24
ENDBRANCH   3  22
TORSDOF 7
ENDMDL
MODEL 3
REMARK VINA RESULT: -7.587109263      0.998      1.625
REMARK  7 active torsions:
REMARK  status: ('A' for Active; 'I' for Inactive)
REMARK       I    between atoms: N1_2  and  C2_4 
REMARK    1  A    between atoms: C2_4  and  C3_6 
REMARK    2  A    between atoms: N2_8  and  C5_9 
REMARK    3  A    between atoms: C5_9  and  C7_11 
REMARK    4  A    between atoms: N3_16  and  C12_17 
REMARK    5  A    between atoms: C12_17  and  C13_19 
REMARK    6  A    between atoms: C13_19  and  O2_20 
REMARK    7  A    between atoms: C13_19  and  C14_23 
ROOT
HETATM    1  C3  UNL     1      -4.744   3.135  12.940  1.00  0.00     0.344 C 
HETATM    2  C4  UNL     1      -4.983   4.282  11.996  1.00  0.00     0.318 C 
HETATM    3  N2  UNL     1      -4.934   5.493  12.767  1.00  0.00     0.097 N 
HETATM    4  C10 UNL     1      -5.836   5.553  13.874  1.00  0.00     0.303 C 
HETATM    5  C11 UNL     1      -6.557   4.221  13.942  1.00  0.00     0.306 C 
HETATM    6  N3  UNL     1      -5.662   3.118  14.071  1.00  0.00     0.130 N 
ENDROOT
BRANCH   6   7
HETATM    7  C12 UNL     1      -4.854   3.099  15.256  1.00  0.00     0.396 C 
HETATM    8 CL1  UNL     1      -3.194   3.539  14.715  1.00  0.00    -0.086 Cl
BRANCH   7   9
HETATM    9  C13 UNL     1      -4.787   1.799  15.976  1.00  0.00     0.346 C 
HETATM   10  F1  UNL     1      -5.133   0.703  15.196  1.00  0.00    -0.198 F 
BRANCH   9  11
HETATM   11  O2  UNL     1      -3.524   1.590  16.558  1.00  0.00    -0.352 OA
ATOM     12  H2  UNL     1      -3.450   0.722  16.938  1.00  0.00     0.213 HD
ENDBRANCH   9  11
BRANCH   9  13
HETATM   13  C14 UNL     1      -5.779   1.816  17.117  1.00  0.00     0.453 C 
HETATM   14  F2  UNL     1      -5.506   0.953  18.128  1.00  0.00    -0.165 F 
HETATM   15  F3  UNL     1      -7.051   1.516  16.617  1.00  0.00    -0.165 F 
HETATM   16  F4  UNL     1      -5.878   3.137  17.566  1.00  0.00    -0.165 F 
ENDBRANCH   9  13
ENDBRANCH   7   9
ENDBRANCH   6   7
BRANCH   1  17
HETATM   17  C2  UNL     1      -4.797   1.879  12.169  1.00  0.00     0.252 C 
HETATM   18  N1  UNL     1      -3.818   0.887  12.427  1.00  0.00    -0.364 N 
HETATM   19  C1  UNL     1      -3.784  -0.385  11.720  1.00  0.00     0.149 C 
ATOM     20  H1  UNL     1      -3.108   1.072  13.136  1.00  0.00     0.161 HD
HETATM   21  O1  UNL     1      -5.671   1.646  11.292  1.00  0.00    -0.271 OA
ENDBRANCH   1  17
BRANCH   3  22
HETATM   22  C5  UNL     1      -4.883   6.683  11.972  1.00  0.00     0.222 C 
HETATM   23  C6  UNL     1      -6.178   7.412  11.845  1.00  0.00     0.043 C 
BRANCH  22  24
HETATM   24  C7  UNL     1      -3.772   7.551  12.467  1.00  0.00     0.010 C 
HETATM   25  C8  UNL     1      -2.496   6.776  12.676  1.00  0.00     0.011 C 
HETATM   26  C9  UNL     1      -3.480   8.708  11.538  1.00  0.00     0.011 C 
ENDBRANCH  22  24
ENDBRANCH   3  22
TORSDOF 7
ENDMDL
MODEL 4
REMARK VINA RESULT: -7.528870162      1.706      2.550
REMARK  7 active torsions:
REMARK  status: ('A' for Active; 'I' for Inactive)
REMARK       I    between atoms: N1_2  and  C2_4 
REMARK    1  A    between atoms: C2_4  and  C3_6 
REMARK    2  A    between atoms: N2_8  and  C5_9 
REMARK    3  A    between atoms: C5_9  and  C7_11 
REMARK    4  A    between atoms: N3_16  and  C12_17 
REMARK    5  A    between atoms: C12_17  and  C13_19 
REMARK    6  A    between atoms: C13_19  and  O2_20 
REMARK    7  A    between atoms: C13_19  and  C14_23 
ROOT
HETATM    1  C3  UNL     1      -4.552   2.454  13.843  1.00  0.00     0.344 C 
HETATM    2  C4  UNL     1      -4.083   3.545  12.919  1.00  0.00     0.318 C 
HETATM    3  N2  UNL     1      -4.076   4.771  13.668  1.00  0.00     0.097 N 
HETATM    4  C10 UNL     1      -5.318   5.125  14.279  1.00  0.00     0.303 C 
HETATM    5  C11 UNL     1      -6.298   4.002  13.994  1.00  0.00     0.306 C 
HETATM    6  N3  UNL     1      -5.836   2.739  14.467  1.00  0.00     0.130 N 
ENDROOT
BRANCH   6   7
HETATM    7  C12 UNL     1      -5.639   2.631  15.884  1.00  0.00     0.396 C 
HETATM    8 CL1  UNL     1      -3.887   2.272  16.099  1.00  0.00    -0.086 Cl
BRANCH   7   9
HETATM    9  C13 UNL     1      -6.427   1.573  16.571  1.00  0.00     0.346 C 
HETATM   10  F1  UNL     1      -7.786   1.605  16.286  1.00  0.00    -0.198 F 
BRANCH   9  11
HETATM   11  O2  UNL     1      -5.915   0.289  16.309  1.00  0.00    -0.352 OA
ATOM     12  H2  UNL     1      -5.312   0.292  15.575  1.00  0.00     0.213 HD
ENDBRANCH   9  11
BRANCH   9  13
HETATM   13  C14 UNL     1      -6.319   1.771  18.066  1.00  0.00     0.453 C 
HETATM   14  F2  UNL     1      -5.914   3.007  18.454  1.00  0.00    -0.165 F 
HETATM   15  F3  UNL     1      -5.421   0.833  18.585  1.00  0.00    -0.165 F 
HETATM   16  F4  UNL     1      -7.555   1.425  18.623  1.00  0.00    -0.165 F 
ENDBRANCH   9  13
ENDBRANCH   7   9
ENDBRANCH   6   7
BRANCH   1  17
HETATM   17  C2  UNL     1      -4.574   1.185  13.092  1.00  0.00     0.252 C 
HETATM   18  N1  UNL     1      -4.633   1.239  11.677  1.00  0.00    -0.364 N 
HETATM   19  C1  UNL     1      -4.658   0.044  10.846  1.00  0.00     0.149 C 
ATOM     20  H1  UNL     1      -4.661   2.152  11.223  1.00  0.00     0.161 HD
HETATM   21  O1  UNL     1      -4.542   0.055  13.648  1.00  0.00    -0.271 OA
ENDBRANCH   1  17
BRANCH   3  22
HETATM   22  C5  UNL     1      -3.407   5.850  13.004  1.00  0.00     0.222 C 
HETATM   23  C6  UNL     1      -4.283   6.997  12.627  1.00  0.00     0.043 C 
BRANCH  22  24
HETATM   24  C7  UNL     1      -2.224   6.262  13.818  1.00  0.00     0.010 C 
HETATM   25  C8  UNL     1      -2.530   7.437  14.712  1.00  0.00     0.011 C 
HETATM   26  C9  UNL     1      -1.689   5.137  14.676  1.00  0.00     0.011 C 
ENDBRANCH  22  24
ENDBRANCH   3  22
TORSDOF 7
ENDMDL
MODEL 5
REMARK VINA RESULT: -7.442884828      1.718      2.525
REMARK  7 active torsions:
REMARK  status: ('A' for Active; 'I' for Inactive)
REMARK       I    between atoms: N1_2  and  C2_4 
REMARK    1  A    between atoms: C2_4  and  C3_6 
REMARK    2  A    between atoms: N2_8  and  C5_9 
REMARK    3  A    between atoms: C5_9  and  C7_11 
REMARK    4  A    between atoms: N3_16  and  C12_17 
REMARK    5  A    between atoms: C12_17  and  C13_19 
REMARK    6  A    between atoms: C13_19  and  O2_20 
REMARK    7  A    between atoms: C13_19  and  C14_23 
ROOT
HETATM    1  C3  UNL     1      -4.492   2.425  13.876  1.00  0.00     0.344 C 
HETATM    2  C4  UNL     1      -3.992   3.508  12.960  1.00  0.00     0.318 C 
HETATM    3  N2  UNL     1      -3.953   4.729  13.716  1.00  0.00     0.097 N 
HETATM    4  C10 UNL     1      -5.187   5.112  14.327  1.00  0.00     0.303 C 
HETATM    5  C11 UNL     1      -6.196   4.018  14.033  1.00  0.00     0.306 C 
HETATM    6  N3  UNL     1      -5.769   2.740  14.499  1.00  0.00     0.130 N 
ENDROOT
BRANCH   6   7
HETATM    7  C12 UNL     1      -5.578   2.618  15.915  1.00  0.00     0.396 C 
HETATM    8 CL1  UNL     1      -3.833   2.228  16.133  1.00  0.00    -0.086 Cl
BRANCH   7   9
HETATM    9  C13 UNL     1      -6.385   1.567  16.592  1.00  0.00     0.346 C 
HETATM   10  F1  UNL     1      -7.744   1.630  16.311  1.00  0.00    -0.198 F 
BRANCH   9  11
HETATM   11  O2  UNL     1      -5.900   0.276  16.313  1.00  0.00    -0.352 OA
ATOM     12  H2  UNL     1      -6.596  -0.369  16.308  1.00  0.00     0.213 HD
ENDBRANCH   9  11
BRANCH   9  13
HETATM   13  C14 UNL     1      -6.270   1.745  18.088  1.00  0.00     0.453 C 
HETATM   14  F2  UNL     1      -5.405   0.898  18.703  1.00  0.00    -0.165 F 
HETATM   15  F3  UNL     1      -7.534   1.574  18.664  1.00  0.00    -0.165 F 
HETATM   16  F4  UNL     1      -5.951   3.086  18.327  1.00  0.00    -0.165 F 
ENDBRANCH   9  13
ENDBRANCH   7   9
ENDBRANCH   6   7
BRANCH   1  17
HETATM   17  C2  UNL     1      -4.546   1.162  13.116  1.00  0.00     0.252 C 
HETATM   18  N1  UNL     1      -4.605   1.227  11.702  1.00  0.00    -0.364 N 
HETATM   19  C1  UNL     1      -4.661   0.038  10.863  1.00  0.00     0.149 C 
ATOM     20  H1  UNL     1      -4.610   2.143  11.253  1.00  0.00     0.161 HD
HETATM   21  O1  UNL     1      -4.542   0.027  13.665  1.00  0.00    -0.271 OA
ENDBRANCH   1  17
BRANCH   3  22
HETATM   22  C5  UNL     1      -3.254   5.794  13.061  1.00  0.00     0.222 C 
HETATM   23  C6  UNL     1      -4.074   7.009  12.785  1.00  0.00     0.043 C 
BRANCH  22  24
HETATM   24  C7  UNL     1      -2.004   6.094  13.822  1.00  0.00     0.010 C 
HETATM   25  C8  UNL     1      -0.811   6.254  12.914  1.00  0.00     0.011 C 
HETATM   26  C9  UNL     1      -2.126   7.340  14.672  1.00  0.00     0.011 C 
ENDBRANCH  22  24
ENDBRANCH   3  22
TORSDOF 7
ENDMDL
