MODEL 1
REMARK VINA RESULT: -7.231928498      0.000      0.000
REMARK  5 active torsions:
REMARK  status: ('A' for Active; 'I' for Inactive)
REMARK    1  A    between atoms: C3_6  and  O2_7 
REMARK    2  A    between atoms: O2_7  and  C4_8 
REMARK    3  A    between atoms: C4_8  and  C5_9 
REMARK       I    between atoms: N2_13  and  C9_14 
REMARK    4  A    between atoms: C9_14  and  C10_16 
REMARK    5  A    between atoms: C10_16  and  C11_19 
ROOT
HETATM    1  C5  UNL     1      -4.850   3.223  11.094  1.00  0.00     0.111 C 
HETATM    2  C6  UNL     1      -3.672   3.879  10.360  1.00  0.00     0.029 C 
HETATM    3  C7  UNL     1      -3.814   5.312  10.803  1.00  0.00     0.022 C 
HETATM    4  C8  UNL     1      -4.407   5.204  12.191  1.00  0.00     0.126 C 
HETATM    5  N2  UNL     1      -4.624   3.772  12.426  1.00  0.00    -0.342 N 
HETATM    6  C9  UNL     1      -4.583   3.125  13.657  1.00  0.00     0.268 C 
HETATM    7  O3  UNL     1      -4.758   1.839  13.625  1.00  0.00    -0.269 OA
ENDROOT
BRANCH   1   8
HETATM    8  C4  UNL     1      -4.813   1.755  10.970  1.00  0.00     0.193 C 
BRANCH   8   9
HETATM    9  O2  UNL     1      -3.559   1.436  10.399  1.00  0.00    -0.381 OA
BRANCH   9  10
HETATM   10  C3  UNL     1      -3.398   0.068  10.470  1.00  0.00     0.157 C 
HETATM   11  C2  UNL     1      -2.191  -0.170  11.390  1.00  0.00     0.157 C 
HETATM   12  N1  UNL     1      -1.967  -1.603  11.357  1.00  0.00    -0.341 N 
HETATM   13  C1  UNL     1      -3.090  -2.427  11.640  1.00  0.00     0.316 C 
ATOM     14  H1  UNL     1      -1.051  -1.999  11.141  1.00  0.00     0.164 HD
HETATM   15  O1  UNL     1      -2.947  -3.669  11.774  1.00  0.00    -0.247 OA
HETATM   16  N3  UNL     1      -4.358  -1.798  11.763  1.00  0.00    -0.341 N 
HETATM   17  C12 UNL     1      -4.627  -0.565  11.057  1.00  0.00     0.157 C 
ATOM     18  H3  UNL     1      -5.080  -2.216  12.350  1.00  0.00     0.164 HD
ENDBRANCH   9  10
ENDBRANCH   8   9
ENDBRANCH   1   8
BRANCH   6  19
HETATM   19  C10 UNL     1      -4.372   3.655  15.000  1.00  0.00     0.290 C 
HETATM   20 CL1  UNL     1      -4.155   2.289  16.188  1.00  0.00    -0.082 Cl
HETATM   21 CL2  UNL     1      -2.851   4.581  15.115  1.00  0.00    -0.082 Cl
BRANCH  19  22
HETATM   22  C11 UNL     1      -5.475   4.475  15.580  1.00  0.00     0.431 C 
HETATM   23  F1  UNL     1      -5.948   3.955  16.774  1.00  0.00    -0.167 F 
HETATM   24  F2  UNL     1      -6.536   4.716  14.755  1.00  0.00    -0.167 F 
HETATM   25  F3  UNL     1      -4.999   5.760  15.930  1.00  0.00    -0.167 F 
ENDBRANCH  19  22
ENDBRANCH   6  19
TORSDOF 5
ENDMDL
MODEL 2
REMARK VINA RESULT: -7.173065387      0.966      1.242
REMARK  5 active torsions:
REMARK  status: ('A' for Active; 'I' for Inactive)
REMARK    1  A    between atoms: C3_6  and  O2_7 
REMARK    2  A    between atoms: O2_7  and  C4_8 
REMARK    3  A    between atoms: C4_8  and  C5_9 
REMARK       I    between atoms: N2_13  and  C9_14 
REMARK    4  A    between atoms: C9_14  and  C10_16 
REMARK    5  A    between atoms: C10_16  and  C11_19 
ROOT
HETATM    1  C5  UNL     1      -5.564   3.253  11.661  1.00  0.00     0.111 C 
HETATM    2  C6  UNL     1      -4.559   4.215  11.012  1.00  0.00     0.029 C 
HETATM    3  C7  UNL     1      -4.784   5.464  11.824  1.00  0.00     0.022 C 
HETATM    4  C8  UNL     1      -5.182   4.942  13.187  1.00  0.00     0.126 C 
HETATM    5  N2  UNL     1      -5.225   3.480  13.062  1.00  0.00    -0.342 N 
HETATM    6  C9  UNL     1      -4.964   2.561  14.072  1.00  0.00     0.268 C 
HETATM    7  O3  UNL     1      -5.015   1.310  13.724  1.00  0.00    -0.269 OA
ENDROOT
BRANCH   1   8
HETATM    8  C4  UNL     1      -5.399   1.878  11.158  1.00  0.00     0.193 C 
BRANCH   8   9
HETATM    9  O2  UNL     1      -4.153   1.847  10.488  1.00  0.00    -0.381 OA
BRANCH   9  10
HETATM   10  C3  UNL     1      -3.707   0.542  10.486  1.00  0.00     0.157 C 
HETATM   11  C2  UNL     1      -2.509   0.502  11.447  1.00  0.00     0.157 C 
HETATM   12  N1  UNL     1      -1.983  -0.846  11.340  1.00  0.00    -0.341 N 
HETATM   13  C1  UNL     1      -2.914  -1.905  11.520  1.00  0.00     0.316 C 
ATOM     14  H1  UNL     1      -0.998  -1.025  11.145  1.00  0.00     0.164 HD
HETATM   15  O1  UNL     1      -2.515  -3.096  11.586  1.00  0.00    -0.247 OA
HETATM   16  N3  UNL     1      -4.291  -1.567  11.619  1.00  0.00    -0.341 N 
HETATM   17  C12 UNL     1      -4.793  -0.374  10.975  1.00  0.00     0.157 C 
ATOM     18  H3  UNL     1      -4.926  -2.167  12.145  1.00  0.00     0.164 HD
ENDBRANCH   9  10
ENDBRANCH   8   9
ENDBRANCH   1   8
BRANCH   6  19
HETATM   19  C10 UNL     1      -4.637   2.765  15.479  1.00  0.00     0.290 C 
HETATM   20 CL1  UNL     1      -4.082   1.199  16.229  1.00  0.00    -0.082 Cl
HETATM   21 CL2  UNL     1      -3.247   3.865  15.683  1.00  0.00    -0.082 Cl
BRANCH  19  22
HETATM   22  C11 UNL     1      -5.745   3.226  16.367  1.00  0.00     0.431 C 
HETATM   23  F1  UNL     1      -6.965   2.668  16.020  1.00  0.00    -0.167 F 
HETATM   24  F2  UNL     1      -5.895   4.578  16.479  1.00  0.00    -0.167 F 
HETATM   25  F3  UNL     1      -5.528   2.781  17.691  1.00  0.00    -0.167 F 
ENDBRANCH  19  22
ENDBRANCH   6  19
TORSDOF 5
ENDMDL
MODEL 3
REMARK VINA RESULT: -7.056275059      4.638      5.722
REMARK  5 active torsions:
REMARK  status: ('A' for Active; 'I' for Inactive)
REMARK    1  A    between atoms: C3_6  and  O2_7 
REMARK    2  A    between atoms: O2_7  and  C4_8 
REMARK    3  A    between atoms: C4_8  and  C5_9 
REMARK       I    between atoms: N2_13  and  C9_14 
REMARK    4  A    between atoms: C9_14  and  C10_16 
REMARK    5  A    between atoms: C10_16  and  C11_19 
ROOT
HETATM    1  C5  UNL     1      -3.842   5.218  13.491  1.00  0.00     0.111 C 
HETATM    2  C6  UNL     1      -3.770   6.073  14.764  1.00  0.00     0.029 C 
HETATM    3  C7  UNL     1      -3.042   7.290  14.256  1.00  0.00     0.022 C 
HETATM    4  C8  UNL     1      -3.473   7.391  12.810  1.00  0.00     0.126 C 
HETATM    5  N2  UNL     1      -4.336   6.230  12.564  1.00  0.00    -0.342 N 
HETATM    6  C9  UNL     1      -5.393   6.167  11.662  1.00  0.00     0.268 C 
HETATM    7  O3  UNL     1      -6.053   5.049  11.643  1.00  0.00    -0.269 OA
ENDROOT
BRANCH   1   8
HETATM    8  C4  UNL     1      -4.693   4.030  13.685  1.00  0.00     0.193 C 
BRANCH   8   9
HETATM    9  O2  UNL     1      -5.425   4.257  14.874  1.00  0.00    -0.381 OA
BRANCH   9  10
HETATM   10  C3  UNL     1      -5.792   3.029  15.385  1.00  0.00     0.157 C 
HETATM   11  C2  UNL     1      -4.509   2.185  15.418  1.00  0.00     0.157 C 
HETATM   12  N1  UNL     1      -4.936   0.865  15.844  1.00  0.00    -0.341 N 
HETATM   13  C1  UNL     1      -5.709   0.803  17.036  1.00  0.00     0.316 C 
ATOM     14  H1  UNL     1      -4.695   0.025  15.316  1.00  0.00     0.164 HD
HETATM   15  O1  UNL     1      -5.994  -0.309  17.549  1.00  0.00    -0.247 OA
HETATM   16  N3  UNL     1      -6.138   2.029  17.610  1.00  0.00    -0.341 N 
HETATM   17  C12 UNL     1      -6.340   3.191  16.773  1.00  0.00     0.157 C 
ATOM     18  H3  UNL     1      -6.305   2.091  18.615  1.00  0.00     0.164 HD
ENDBRANCH   9  10
ENDBRANCH   8   9
ENDBRANCH   1   8
BRANCH   6  19
HETATM   19  C10 UNL     1      -5.894   7.160  10.718  1.00  0.00     0.290 C 
HETATM   20 CL1  UNL     1      -4.511   8.129  10.031  1.00  0.00    -0.082 Cl
HETATM   21 CL2  UNL     1      -6.646   6.398   9.291  1.00  0.00    -0.082 Cl
BRANCH  19  22
HETATM   22  C11 UNL     1      -6.831   8.189  11.259  1.00  0.00     0.431 C 
HETATM   23  F1  UNL     1      -6.233   9.433  11.385  1.00  0.00    -0.167 F 
HETATM   24  F2  UNL     1      -7.444   7.875  12.438  1.00  0.00    -0.167 F 
HETATM   25  F3  UNL     1      -7.893   8.408  10.353  1.00  0.00    -0.167 F 
ENDBRANCH  19  22
ENDBRANCH   6  19
TORSDOF 5
ENDMDL
MODEL 4
REMARK VINA RESULT: -7.026102448      3.963      5.570
REMARK  5 active torsions:
REMARK  status: ('A' for Active; 'I' for Inactive)
REMARK    1  A    between atoms: C3_6  and  O2_7 
REMARK    2  A    between atoms: O2_7  and  C4_8 
REMARK    3  A    between atoms: C4_8  and  C5_9 
REMARK       I    between atoms: N2_13  and  C9_14 
REMARK    4  A    between atoms: C9_14  and  C10_16 
REMARK    5  A    between atoms: C10_16  and  C11_19 
ROOT
HETATM    1  C5  UNL     1      -4.779   4.097  12.948  1.00  0.00     0.111 C 
HETATM    2  C6  UNL     1      -5.539   4.896  11.880  1.00  0.00     0.029 C 
HETATM    3  C7  UNL     1      -4.498   4.996  10.795  1.00  0.00     0.022 C 
HETATM    4  C8  UNL     1      -3.697   3.722  10.945  1.00  0.00     0.126 C 
HETATM    5  N2  UNL     1      -4.262   3.024  12.106  1.00  0.00    -0.342 N 
HETATM    6  C9  UNL     1      -4.299   1.648  12.300  1.00  0.00     0.268 C 
HETATM    7  O3  UNL     1      -4.892   1.246  13.384  1.00  0.00    -0.269 OA
ENDROOT
BRANCH   1   8
HETATM    8  C4  UNL     1      -5.665   3.697  14.057  1.00  0.00     0.193 C 
BRANCH   8   9
HETATM    9  O2  UNL     1      -5.033   4.131  15.246  1.00  0.00    -0.381 OA
BRANCH   9  10
HETATM   10  C3  UNL     1      -5.191   3.141  16.193  1.00  0.00     0.157 C 
HETATM   11  C2  UNL     1      -6.564   2.510  15.921  1.00  0.00     0.157 C 
HETATM   12  N1  UNL     1      -6.761   1.555  16.997  1.00  0.00    -0.341 N 
HETATM   13  C1  UNL     1      -5.717   0.615  17.208  1.00  0.00     0.316 C 
ATOM     14  H1  UNL     1      -7.605   1.559  17.571  1.00  0.00     0.164 HD
HETATM   15  O1  UNL     1      -5.872  -0.332  18.020  1.00  0.00    -0.247 OA
HETATM   16  N3  UNL     1      -4.511   0.789  16.476  1.00  0.00    -0.341 N 
HETATM   17  C12 UNL     1      -4.109   2.109  16.044  1.00  0.00     0.157 C 
ATOM     18  H3  UNL     1      -3.928  -0.018  16.255  1.00  0.00     0.164 HD
ENDBRANCH   9  10
ENDBRANCH   8   9
ENDBRANCH   1   8
BRANCH   6  19
HETATM   19  C10 UNL     1      -3.778   0.560  11.479  1.00  0.00     0.290 C 
HETATM   20 CL1  UNL     1      -4.081  -1.043  12.293  1.00  0.00    -0.082 Cl
HETATM   21 CL2  UNL     1      -4.643   0.431   9.924  1.00  0.00    -0.082 Cl
BRANCH  19  22
HETATM   22  C11 UNL     1      -2.310   0.564  11.210  1.00  0.00     0.431 C 
HETATM   23  F1  UNL     1      -1.752  -0.701  11.309  1.00  0.00    -0.167 F 
HETATM   24  F2  UNL     1      -1.569   1.431  11.961  1.00  0.00    -0.167 F 
HETATM   25  F3  UNL     1      -2.059   0.947   9.873  1.00  0.00    -0.167 F 
ENDBRANCH  19  22
ENDBRANCH   6  19
TORSDOF 5
ENDMDL
MODEL 5
REMARK VINA RESULT: -6.985895904      4.352      5.711
REMARK  5 active torsions:
REMARK  status: ('A' for Active; 'I' for Inactive)
REMARK    1  A    between atoms: C3_6  and  O2_7 
REMARK    2  A    between atoms: O2_7  and  C4_8 
REMARK    3  A    between atoms: C4_8  and  C5_9 
REMARK       I    between atoms: N2_13  and  C9_14 
REMARK    4  A    between atoms: C9_14  and  C10_16 
REMARK    5  A    between atoms: C10_16  and  C11_19 
ROOT
HETATM    1  C5  UNL     1      -3.025   5.071  14.259  1.00  0.00     0.111 C 
HETATM    2  C6  UNL     1      -4.101   6.162  14.159  1.00  0.00     0.029 C 
HETATM    3  C7  UNL     1      -3.574   6.985  13.012  1.00  0.00     0.022 C 
HETATM    4  C8  UNL     1      -2.855   5.977  12.144  1.00  0.00     0.126 C 
HETATM    5  N2  UNL     1      -2.949   4.695  12.852  1.00  0.00    -0.342 N 
HETATM    6  C9  UNL     1      -2.985   3.434  12.267  1.00  0.00     0.268 C 
HETATM    7  O3  UNL     1      -3.119   2.435  13.087  1.00  0.00    -0.269 OA
ENDROOT
BRANCH   1   8
HETATM    8  C4  UNL     1      -3.418   4.010  15.205  1.00  0.00     0.193 C 
BRANCH   8   9
HETATM    9  O2  UNL     1      -4.809   4.160  15.414  1.00  0.00    -0.381 OA
BRANCH   9  10
HETATM   10  C3  UNL     1      -5.320   2.925  15.751  1.00  0.00     0.157 C 
HETATM   11  C2  UNL     1      -4.116   2.067  16.168  1.00  0.00     0.157 C 
HETATM   12  N1  UNL     1      -4.659   0.742  16.403  1.00  0.00    -0.341 N 
HETATM   13  C1  UNL     1      -5.769   0.660  17.286  1.00  0.00     0.316 C 
ATOM     14  H1  UNL     1      -4.264  -0.088  15.958  1.00  0.00     0.164 HD
HETATM   15  O1  UNL     1      -6.204  -0.461  17.655  1.00  0.00    -0.247 OA
HETATM   16  N3  UNL     1      -6.356   1.877  17.726  1.00  0.00    -0.341 N 
HETATM   17  C12 UNL     1      -6.280   3.059  16.898  1.00  0.00     0.157 C 
ATOM     18  H3  UNL     1      -6.832   1.916  18.628  1.00  0.00     0.164 HD
ENDBRANCH   9  10
ENDBRANCH   8   9
ENDBRANCH   1   8
BRANCH   6  19
HETATM   19  C10 UNL     1      -2.898   3.035  10.866  1.00  0.00     0.290 C 
HETATM   20 CL1  UNL     1      -3.884   1.529  10.578  1.00  0.00    -0.082 Cl
HETATM   21 CL2  UNL     1      -3.629   4.251   9.784  1.00  0.00    -0.082 Cl
BRANCH  19  22
HETATM   22  C11 UNL     1      -1.541   2.691  10.349  1.00  0.00     0.431 C 
HETATM   23  F1  UNL     1      -0.529   3.286  11.085  1.00  0.00    -0.167 F 
HETATM   24  F2  UNL     1      -1.326   2.942   9.024  1.00  0.00    -0.167 F 
HETATM   25  F3  UNL     1      -1.300   1.305  10.492  1.00  0.00    -0.167 F 
ENDBRANCH  19  22
ENDBRANCH   6  19
TORSDOF 5
ENDMDL
