MODEL 1
REMARK VINA RESULT: -7.763511326      0.000      0.000
REMARK  14 active torsions:
REMARK  status: ('A' for Active; 'I' for Inactive)
REMARK    1  A    between atoms: N1_2  and  N2_3 
REMARK    2  A    between atoms: N1_2  and  N3_7 
REMARK    3  A    between atoms: N2_3  and  O1_5 
REMARK    4  A    between atoms: N3_7  and  C2_8 
REMARK    5  A    between atoms: C2_8  and  C3_9 
REMARK    6  A    between atoms: C3_9  and  N4_10 
REMARK    7  A    between atoms: N4_10  and  C4_13 
REMARK    8  A    between atoms: C4_13  and  C5_14 
REMARK    9  A    between atoms: C5_14  and  O2_15 
REMARK   10  A    between atoms: O2_15  and  N5_16 
REMARK       I    between atoms: N5_16  and  C6_18 
REMARK       I    between atoms: C6_18  and  N7_20 
REMARK   11  A    between atoms: N7_20  and  C7_21 
REMARK   12  A    between atoms: C7_21  and  C8_22 
REMARK   13  A    between atoms: C8_22  and  O3_23 
REMARK   14  A    between atoms: N11_31  and  N12_32 
REMARK       I    between atoms: N12_32  and  C10_34 
ROOT
HETATM    1  N5  UNL     1       7.849 106.734  82.278  1.00  0.00    -0.227 N 
ATOM      2  H5  UNL     1       8.494 106.878  83.056  1.00  0.00     0.198 HD
HETATM    3  C6  UNL     1       8.043 107.323  80.955  1.00  0.00     0.282 C 
HETATM    4  N6  UNL     1       7.221 106.688  79.910  1.00  0.00    -0.048 NA
HETATM    5  N7  UNL     1       8.828 108.175  80.772  1.00  0.00    -0.412 NA
ENDROOT
BRANCH   5   6
HETATM    6  C7  UNL     1       9.742 109.163  80.577  1.00  0.00     0.292 C 
BRANCH   6   7
HETATM    7  C8  UNL     1       9.107 110.540  81.001  1.00  0.00     0.276 C 
HETATM    8  N8  UNL     1      10.372 111.394  81.148  1.00  0.00    -0.017 N 
HETATM    9  C9  UNL     1      10.224 111.845  79.803  1.00  0.00     0.325 C 
ATOM     10  H82 UNL     1      10.446 112.070  81.908  1.00  0.00     0.283 HD
ATOM     11  H81 UNL     1      11.247 110.962  81.448  1.00  0.00     0.283 HD
HETATM   12  N9  UNL     1      10.197 113.299  79.783  1.00  0.00    -0.094 NA
HETATM   13  C11 UNL     1       8.758 111.403  79.880  1.00  0.00     0.214 C 
HETATM   14  N10 UNL     1       9.088 113.581  80.557  1.00  0.00    -0.034 NA
HETATM   15  N11 UNL     1       8.106 112.667  80.112  1.00  0.00    -0.112 NA
BRANCH   7  16
HETATM   16  O3  UNL     1       8.538 110.569  82.225  1.00  0.00    -0.361 OA
ATOM     17  H3  UNL     1       7.640 110.265  82.268  1.00  0.00     0.212 HD
ENDBRANCH   7  16
BRANCH  15  18
HETATM   18  N12 UNL     1       7.731 113.181  78.852  1.00  0.00    -0.276 N 
HETATM   19  C10 UNL     1       6.428 113.226  78.332  1.00  0.00     0.197 C 
HETATM   20  N13 UNL     1       5.931 112.237  77.669  1.00  0.00    -0.373 N 
HETATM   21  N14 UNL     1       5.656 114.406  78.538  1.00  0.00    -0.063 NA
ATOM     22 2H13 UNL     1       6.483 111.392  77.521  1.00  0.00     0.158 HD
ATOM     23 1H13 UNL     1       4.984 112.269  77.291  1.00  0.00     0.158 HD
ATOM     24  H12 UNL     1       8.475 113.555  78.264  1.00  0.00     0.185 HD
ENDBRANCH  15  18
ENDBRANCH   6   7
ENDBRANCH   5   6
BRANCH   1  25
HETATM   25  O2  UNL     1       6.727 105.977  82.371  1.00  0.00    -0.275 OA
BRANCH  25  26
HETATM   26  C5  UNL     1       7.022 104.804  83.095  1.00  0.00     0.228 C 
BRANCH  26  27
HETATM   27  C4  UNL     1       6.613 103.625  82.292  1.00  0.00     0.261 C 
BRANCH  27  28
HETATM   28  N4  UNL     1       6.444 103.878  80.910  1.00  0.00    -0.072 N 
ATOM     29  H42 UNL     1       6.341 104.875  80.727  1.00  0.00     0.277 HD
ATOM     30  H41 UNL     1       5.531 103.558  80.586  1.00  0.00     0.277 HD
BRANCH  28  31
HETATM   31  C3  UNL     1       7.524 103.301  80.108  1.00  0.00     0.250 C 
BRANCH  31  32
HETATM   32  C2  UNL     1       7.734 101.906  80.717  1.00  0.00     0.164 C 
BRANCH  32  33
HETATM   33  N3  UNL     1       7.847 100.924  79.655  1.00  0.00    -0.120 NA
BRANCH  33  34
HETATM   34  N1  UNL     1       7.611  99.685  80.236  1.00  0.00    -0.223 N 
HETATM   35  C1  UNL     1       6.457  99.449  81.028  1.00  0.00     0.197 C 
BRANCH  34  36
HETATM   36  N2  UNL     1       8.545  98.658  80.045  1.00  0.00    -0.197 N 
ATOM     37  H2  UNL     1       9.488  98.755  80.421  1.00  0.00     0.217 HD
BRANCH  36  38
HETATM   38  O1  UNL     1       8.228  97.606  79.407  1.00  0.00    -0.273 OA
ATOM     39  H1  UNL     1       8.486  97.495  78.500  1.00  0.00     0.246 HD
ENDBRANCH  36  38
ENDBRANCH  34  36
ENDBRANCH  33  34
ENDBRANCH  32  33
ENDBRANCH  31  32
ENDBRANCH  28  31
ENDBRANCH  27  28
ENDBRANCH  26  27
ENDBRANCH  25  26
ENDBRANCH   1  25
TORSDOF 14
ENDMDL
MODEL 2
REMARK VINA RESULT: -7.761670129      2.226      2.755
REMARK  14 active torsions:
REMARK  status: ('A' for Active; 'I' for Inactive)
REMARK    1  A    between atoms: N1_2  and  N2_3 
REMARK    2  A    between atoms: N1_2  and  N3_7 
REMARK    3  A    between atoms: N2_3  and  O1_5 
REMARK    4  A    between atoms: N3_7  and  C2_8 
REMARK    5  A    between atoms: C2_8  and  C3_9 
REMARK    6  A    between atoms: C3_9  and  N4_10 
REMARK    7  A    between atoms: N4_10  and  C4_13 
REMARK    8  A    between atoms: C4_13  and  C5_14 
REMARK    9  A    between atoms: C5_14  and  O2_15 
REMARK   10  A    between atoms: O2_15  and  N5_16 
REMARK       I    between atoms: N5_16  and  C6_18 
REMARK       I    between atoms: C6_18  and  N7_20 
REMARK   11  A    between atoms: N7_20  and  C7_21 
REMARK   12  A    between atoms: C7_21  and  C8_22 
REMARK   13  A    between atoms: C8_22  and  O3_23 
REMARK   14  A    between atoms: N11_31  and  N12_32 
REMARK       I    between atoms: N12_32  and  C10_34 
ROOT
HETATM    1  N5  UNL     1       7.506 107.391  78.961  1.00  0.00    -0.227 N 
ATOM      2  H5  UNL     1       7.384 108.103  78.241  1.00  0.00     0.198 HD
HETATM    3  C6  UNL     1       8.394 107.556  80.110  1.00  0.00     0.282 C 
HETATM    4  N6  UNL     1       8.129 106.591  81.191  1.00  0.00    -0.048 NA
HETATM    5  N7  UNL     1       9.186 108.419  80.155  1.00  0.00    -0.412 NA
ENDROOT
BRANCH   5   6
HETATM    6  C7  UNL     1      10.100 109.426  80.191  1.00  0.00     0.292 C 
BRANCH   6   7
HETATM    7  C8  UNL     1       9.405 110.728  80.742  1.00  0.00     0.276 C 
HETATM    8  N8  UNL     1      10.625 111.640  80.914  1.00  0.00    -0.017 N 
HETATM    9  C9  UNL     1      10.404 112.183  79.613  1.00  0.00     0.325 C 
ATOM     10  H82 UNL     1      10.689 112.260  81.722  1.00  0.00     0.283 HD
ATOM     11  H81 UNL     1      11.533 111.238  81.151  1.00  0.00     0.283 HD
HETATM   12  N9  UNL     1      10.295 113.630  79.708  1.00  0.00    -0.094 NA
HETATM   13  C11 UNL     1       8.968 111.652  79.703  1.00  0.00     0.214 C 
HETATM   14  N10 UNL     1       9.201 113.787  80.536  1.00  0.00    -0.034 NA
HETATM   15  N11 UNL     1       8.256 112.854  80.054  1.00  0.00    -0.112 NA
BRANCH   7  16
HETATM   16  O3  UNL     1       8.881 110.631  81.982  1.00  0.00    -0.361 OA
ATOM     17  H3  UNL     1       9.136 111.313  82.591  1.00  0.00     0.212 HD
ENDBRANCH   7  16
BRANCH  15  18
HETATM   18  N12 UNL     1       7.807 113.440  78.850  1.00  0.00    -0.276 N 
HETATM   19  C10 UNL     1       6.504 113.368  78.332  1.00  0.00     0.197 C 
HETATM   20  N13 UNL     1       6.134 112.395  77.570  1.00  0.00    -0.373 N 
HETATM   21  N14 UNL     1       5.589 114.412  78.652  1.00  0.00    -0.063 NA
ATOM     22 2H13 UNL     1       6.789 111.648  77.340  1.00  0.00     0.158 HD
ATOM     23 1H13 UNL     1       5.188 112.343  77.193  1.00  0.00     0.158 HD
ATOM     24  H12 UNL     1       8.492 113.964  78.307  1.00  0.00     0.185 HD
ENDBRANCH  15  18
ENDBRANCH   6   7
ENDBRANCH   5   6
BRANCH   1  25
HETATM   25  O2  UNL     1       6.861 106.198  78.946  1.00  0.00    -0.275 OA
BRANCH  25  26
HETATM   26  C5  UNL     1       7.157 105.529  77.742  1.00  0.00     0.228 C 
BRANCH  26  27
HETATM   27  C4  UNL     1       8.561 105.053  77.786  1.00  0.00     0.261 C 
BRANCH  27  28
HETATM   28  N4  UNL     1       8.870 104.214  78.882  1.00  0.00    -0.072 N 
ATOM     29  H42 UNL     1       8.801 104.719  79.765  1.00  0.00     0.277 HD
ATOM     30  H41 UNL     1       9.863 103.984  78.903  1.00  0.00     0.277 HD
BRANCH  28  31
HETATM   31  C3  UNL     1       8.045 103.004  78.899  1.00  0.00     0.250 C 
BRANCH  31  32
HETATM   32  C2  UNL     1       7.677 102.828  80.380  1.00  0.00     0.164 C 
BRANCH  32  33
HETATM   33  N3  UNL     1       6.259 103.081  80.562  1.00  0.00    -0.120 NA
BRANCH  33  34
HETATM   34  N1  UNL     1       5.845 102.267  81.608  1.00  0.00    -0.223 N 
HETATM   35  C1  UNL     1       6.251 100.911  81.693  1.00  0.00     0.197 C 
BRANCH  34  36
HETATM   36  N2  UNL     1       4.993 102.801  82.585  1.00  0.00    -0.197 N 
ATOM     37  H2  UNL     1       5.379 103.114  83.476  1.00  0.00     0.217 HD
BRANCH  36  38
HETATM   38  O1  UNL     1       3.745 102.897  82.371  1.00  0.00    -0.273 OA
ATOM     39  H1  UNL     1       3.333 103.749  82.290  1.00  0.00     0.246 HD
ENDBRANCH  36  38
ENDBRANCH  34  36
ENDBRANCH  33  34
ENDBRANCH  32  33
ENDBRANCH  31  32
ENDBRANCH  28  31
ENDBRANCH  27  28
ENDBRANCH  26  27
ENDBRANCH  25  26
ENDBRANCH   1  25
TORSDOF 14
ENDMDL
MODEL 3
REMARK VINA RESULT: -7.661392803      3.967      7.299
REMARK  14 active torsions:
REMARK  status: ('A' for Active; 'I' for Inactive)
REMARK    1  A    between atoms: N1_2  and  N2_3 
REMARK    2  A    between atoms: N1_2  and  N3_7 
REMARK    3  A    between atoms: N2_3  and  O1_5 
REMARK    4  A    between atoms: N3_7  and  C2_8 
REMARK    5  A    between atoms: C2_8  and  C3_9 
REMARK    6  A    between atoms: C3_9  and  N4_10 
REMARK    7  A    between atoms: N4_10  and  C4_13 
REMARK    8  A    between atoms: C4_13  and  C5_14 
REMARK    9  A    between atoms: C5_14  and  O2_15 
REMARK   10  A    between atoms: O2_15  and  N5_16 
REMARK       I    between atoms: N5_16  and  C6_18 
REMARK       I    between atoms: C6_18  and  N7_20 
REMARK   11  A    between atoms: N7_20  and  C7_21 
REMARK   12  A    between atoms: C7_21  and  C8_22 
REMARK   13  A    between atoms: C8_22  and  O3_23 
REMARK   14  A    between atoms: N11_31  and  N12_32 
REMARK       I    between atoms: N12_32  and  C10_34 
ROOT
HETATM    1  N5  UNL     1       8.070 105.669  77.008  1.00  0.00    -0.227 N 
ATOM      2  H5  UNL     1       7.302 105.034  76.790  1.00  0.00     0.198 HD
HETATM    3  C6  UNL     1       8.243 106.971  76.364  1.00  0.00     0.282 C 
HETATM    4  N6  UNL     1       9.171 107.857  77.087  1.00  0.00    -0.048 NA
HETATM    5  N7  UNL     1       7.640 107.264  75.402  1.00  0.00    -0.412 NA
ENDROOT
BRANCH   5   6
HETATM    6  C7  UNL     1       6.933 107.590  74.287  1.00  0.00     0.292 C 
BRANCH   6   7
HETATM    7  C8  UNL     1       7.230 109.090  73.912  1.00  0.00     0.276 C 
HETATM    8  N8  UNL     1       5.939 109.449  73.167  1.00  0.00    -0.017 N 
HETATM    9  C9  UNL     1       5.381 109.958  74.378  1.00  0.00     0.325 C 
ATOM     10  H82 UNL     1       5.977 110.038  72.335  1.00  0.00     0.283 HD
ATOM     11  H81 UNL     1       5.441 108.733  72.637  1.00  0.00     0.283 HD
HETATM   12  N9  UNL     1       4.951 111.331  74.168  1.00  0.00    -0.094 NA
HETATM   13  C11 UNL     1       6.810 110.050  74.926  1.00  0.00     0.214 C 
HETATM   14  N10 UNL     1       6.134 111.960  73.830  1.00  0.00    -0.034 NA
HETATM   15  N11 UNL     1       7.078 111.454  74.751  1.00  0.00    -0.112 NA
BRANCH   7  16
HETATM   16  O3  UNL     1       8.208 109.283  73.002  1.00  0.00    -0.361 OA
ATOM     17  H3  UNL     1       7.922 109.592  72.151  1.00  0.00     0.212 HD
ENDBRANCH   7  16
BRANCH  15  18
HETATM   18  N12 UNL     1       6.732 112.099  75.958  1.00  0.00    -0.276 N 
HETATM   19  C10 UNL     1       7.525 112.171  77.114  1.00  0.00     0.197 C 
HETATM   20  N13 UNL     1       7.485 111.252  78.019  1.00  0.00    -0.373 N 
HETATM   21  N14 UNL     1       8.376 113.301  77.282  1.00  0.00    -0.063 NA
ATOM     22 2H13 UNL     1       6.876 110.443  77.899  1.00  0.00     0.158 HD
ATOM     23 1H13 UNL     1       8.061 111.305  78.859  1.00  0.00     0.158 HD
ATOM     24  H12 UNL     1       5.821 112.554  75.995  1.00  0.00     0.185 HD
ENDBRANCH  15  18
ENDBRANCH   6   7
ENDBRANCH   5   6
BRANCH   1  25
HETATM   25  O2  UNL     1       9.032 105.390  77.922  1.00  0.00    -0.275 OA
BRANCH  25  26
HETATM   26  C5  UNL     1       8.431 104.812  79.059  1.00  0.00     0.228 C 
BRANCH  26  27
HETATM   27  C4  UNL     1       8.005 105.892  79.982  1.00  0.00     0.261 C 
BRANCH  27  28
HETATM   28  N4  UNL     1       8.909 106.975  80.087  1.00  0.00    -0.072 N 
ATOM     29  H42 UNL     1       9.429 107.107  79.220  1.00  0.00     0.277 HD
ATOM     30  H41 UNL     1       9.685 106.749  80.709  1.00  0.00     0.277 HD
BRANCH  28  31
HETATM   31  C3  UNL     1       8.243 108.211  80.498  1.00  0.00     0.250 C 
BRANCH  31  32
HETATM   32  C2  UNL     1       9.390 109.102  81.000  1.00  0.00     0.164 C 
BRANCH  32  33
HETATM   33  N3  UNL     1       9.366 110.370  80.294  1.00  0.00    -0.120 NA
BRANCH  33  34
HETATM   34  N1  UNL     1      10.690 110.709  80.048  1.00  0.00    -0.223 N 
HETATM   35  C1  UNL     1      11.116 112.062  80.040  1.00  0.00     0.197 C 
BRANCH  34  36
HETATM   36  N2  UNL     1      11.613 109.687  79.786  1.00  0.00    -0.197 N 
ATOM     37  H2  UNL     1      11.695 108.902  80.431  1.00  0.00     0.217 HD
BRANCH  36  38
HETATM   38  O1  UNL     1      12.350 109.731  78.752  1.00  0.00    -0.273 OA
ATOM     39  H1  UNL     1      12.941 110.461  78.611  1.00  0.00     0.246 HD
ENDBRANCH  36  38
ENDBRANCH  34  36
ENDBRANCH  33  34
ENDBRANCH  32  33
ENDBRANCH  31  32
ENDBRANCH  28  31
ENDBRANCH  27  28
ENDBRANCH  26  27
ENDBRANCH  25  26
ENDBRANCH   1  25
TORSDOF 14
ENDMDL
MODEL 4
REMARK VINA RESULT: -7.658025686      2.875      4.354
REMARK  14 active torsions:
REMARK  status: ('A' for Active; 'I' for Inactive)
REMARK    1  A    between atoms: N1_2  and  N2_3 
REMARK    2  A    between atoms: N1_2  and  N3_7 
REMARK    3  A    between atoms: N2_3  and  O1_5 
REMARK    4  A    between atoms: N3_7  and  C2_8 
REMARK    5  A    between atoms: C2_8  and  C3_9 
REMARK    6  A    between atoms: C3_9  and  N4_10 
REMARK    7  A    between atoms: N4_10  and  C4_13 
REMARK    8  A    between atoms: C4_13  and  C5_14 
REMARK    9  A    between atoms: C5_14  and  O2_15 
REMARK   10  A    between atoms: O2_15  and  N5_16 
REMARK       I    between atoms: N5_16  and  C6_18 
REMARK       I    between atoms: C6_18  and  N7_20 
REMARK   11  A    between atoms: N7_20  and  C7_21 
REMARK   12  A    between atoms: C7_21  and  C8_22 
REMARK   13  A    between atoms: C8_22  and  O3_23 
REMARK   14  A    between atoms: N11_31  and  N12_32 
REMARK       I    between atoms: N12_32  and  C10_34 
ROOT
HETATM    1  N5  UNL     1       8.143 107.755  77.104  1.00  0.00    -0.227 N 
ATOM      2  H5  UNL     1       7.511 107.818  76.305  1.00  0.00     0.198 HD
HETATM    3  C6  UNL     1       8.244 108.789  78.132  1.00  0.00     0.282 C 
HETATM    4  N6  UNL     1       8.917 108.326  79.357  1.00  0.00    -0.048 NA
HETATM    5  N7  UNL     1       7.771 109.852  77.981  1.00  0.00    -0.412 NA
ENDROOT
BRANCH   5   6
HETATM    6  C7  UNL     1       7.218 111.079  77.791  1.00  0.00     0.292 C 
BRANCH   6   7
HETATM    7  C8  UNL     1       8.331 112.178  77.975  1.00  0.00     0.276 C 
HETATM    8  N8  UNL     1       7.620 113.134  78.938  1.00  0.00    -0.017 N 
HETATM    9  C9  UNL     1       8.224 112.468  80.046  1.00  0.00     0.325 C 
ATOM     10  H82 UNL     1       7.728 114.143  78.828  1.00  0.00     0.283 HD
ATOM     11  H81 UNL     1       6.606 113.238  78.897  1.00  0.00     0.283 HD
HETATM   12  N9  UNL     1       8.938 113.439  80.860  1.00  0.00    -0.094 NA
HETATM   13  C11 UNL     1       9.259 111.906  79.065  1.00  0.00     0.214 C 
HETATM   14  N10 UNL     1       9.873 113.933  79.970  1.00  0.00    -0.034 NA
HETATM   15  N11 UNL     1      10.371 112.788  79.309  1.00  0.00    -0.112 NA
BRANCH   7  16
HETATM   16  O3  UNL     1       8.594 112.931  76.886  1.00  0.00    -0.361 OA
ATOM     17  H3  UNL     1       9.073 112.497  76.191  1.00  0.00     0.212 HD
ENDBRANCH   7  16
BRANCH  15  18
HETATM   18  N12 UNL     1      11.184 112.176  80.288  1.00  0.00    -0.276 N 
HETATM   19  C10 UNL     1      11.134 110.829  80.679  1.00  0.00     0.197 C 
HETATM   20  N13 UNL     1      10.339 110.426  81.611  1.00  0.00    -0.373 N 
HETATM   21  N14 UNL     1      12.001 109.902  80.030  1.00  0.00    -0.063 NA
ATOM     22 2H13 UNL     1       9.719 111.089  82.076  1.00  0.00     0.158 HD
ATOM     23 1H13 UNL     1      10.303 109.447  81.896  1.00  0.00     0.158 HD
ATOM     24  H12 UNL     1      11.871 112.767  80.754  1.00  0.00     0.185 HD
ENDBRANCH  15  18
ENDBRANCH   6   7
ENDBRANCH   5   6
BRANCH   1  25
HETATM   25  O2  UNL     1       8.972 106.702  77.316  1.00  0.00    -0.275 OA
BRANCH  25  26
HETATM   26  C5  UNL     1       8.219 105.511  77.293  1.00  0.00     0.228 C 
BRANCH  26  27
HETATM   27  C4  UNL     1       8.613 104.668  78.448  1.00  0.00     0.261 C 
BRANCH  27  28
HETATM   28  N4  UNL     1       8.650 105.342  79.691  1.00  0.00    -0.072 N 
ATOM     29  H42 UNL     1       9.008 106.291  79.585  1.00  0.00     0.277 HD
ATOM     30  H41 UNL     1       9.378 104.962  80.296  1.00  0.00     0.277 HD
BRANCH  28  31
HETATM   31  C3  UNL     1       7.348 105.338  80.360  1.00  0.00     0.250 C 
BRANCH  31  32
HETATM   32  C2  UNL     1       7.090 103.853  80.659  1.00  0.00     0.164 C 
BRANCH  32  33
HETATM   33  N3  UNL     1       6.738 103.694  82.058  1.00  0.00    -0.120 NA
BRANCH  33  34
HETATM   34  N1  UNL     1       5.999 102.521  82.147  1.00  0.00    -0.223 N 
HETATM   35  C1  UNL     1       6.431 101.327  81.515  1.00  0.00     0.197 C 
BRANCH  34  36
HETATM   36  N2  UNL     1       4.794 102.533  82.864  1.00  0.00    -0.197 N 
ATOM     37  H2  UNL     1       4.775 102.197  83.827  1.00  0.00     0.217 HD
BRANCH  36  38
HETATM   38  O1  UNL     1       3.726 102.958  82.324  1.00  0.00    -0.273 OA
ATOM     39  H1  UNL     1       3.052 103.374  82.849  1.00  0.00     0.246 HD
ENDBRANCH  36  38
ENDBRANCH  34  36
ENDBRANCH  33  34
ENDBRANCH  32  33
ENDBRANCH  31  32
ENDBRANCH  28  31
ENDBRANCH  27  28
ENDBRANCH  26  27
ENDBRANCH  25  26
ENDBRANCH   1  25
TORSDOF 14
ENDMDL
MODEL 5
REMARK VINA RESULT: -7.657343759      4.431      8.881
REMARK  14 active torsions:
REMARK  status: ('A' for Active; 'I' for Inactive)
REMARK    1  A    between atoms: N1_2  and  N2_3 
REMARK    2  A    between atoms: N1_2  and  N3_7 
REMARK    3  A    between atoms: N2_3  and  O1_5 
REMARK    4  A    between atoms: N3_7  and  C2_8 
REMARK    5  A    between atoms: C2_8  and  C3_9 
REMARK    6  A    between atoms: C3_9  and  N4_10 
REMARK    7  A    between atoms: N4_10  and  C4_13 
REMARK    8  A    between atoms: C4_13  and  C5_14 
REMARK    9  A    between atoms: C5_14  and  O2_15 
REMARK   10  A    between atoms: O2_15  and  N5_16 
REMARK       I    between atoms: N5_16  and  C6_18 
REMARK       I    between atoms: C6_18  and  N7_20 
REMARK   11  A    between atoms: N7_20  and  C7_21 
REMARK   12  A    between atoms: C7_21  and  C8_22 
REMARK   13  A    between atoms: C8_22  and  O3_23 
REMARK   14  A    between atoms: N11_31  and  N12_32 
REMARK       I    between atoms: N12_32  and  C10_34 
ROOT
HETATM    1  N5  UNL     1       6.000 110.240  74.305  1.00  0.00    -0.227 N 
ATOM      2  H5  UNL     1       5.286 110.102  75.020  1.00  0.00     0.198 HD
HETATM    3  C6  UNL     1       7.171 109.377  74.162  1.00  0.00     0.282 C 
HETATM    4  N6  UNL     1       7.847 109.526  72.862  1.00  0.00    -0.048 NA
HETATM    5  N7  UNL     1       7.475 108.612  74.998  1.00  0.00    -0.412 NA
ENDROOT
BRANCH   5   6
HETATM    6  C7  UNL     1       7.814 107.731  75.976  1.00  0.00     0.292 C 
BRANCH   6   7
HETATM    7  C8  UNL     1       7.570 108.404  77.379  1.00  0.00     0.276 C 
HETATM    8  N8  UNL     1       6.982 107.220  78.155  1.00  0.00    -0.017 N 
HETATM    9  C9  UNL     1       8.283 106.892  78.641  1.00  0.00     0.325 C 
ATOM     10  H82 UNL     1       6.215 107.370  78.811  1.00  0.00     0.283 HD
ATOM     11  H81 UNL     1       6.428 106.516  77.667  1.00  0.00     0.283 HD
HETATM   12  N9  UNL     1       8.255 106.842  80.094  1.00  0.00    -0.094 NA
HETATM   13  C11 UNL     1       8.711 108.321  78.283  1.00  0.00     0.214 C 
HETATM   14  N10 UNL     1       7.880 108.130  80.424  1.00  0.00    -0.034 NA
HETATM   15  N11 UNL     1       8.658 108.952  79.577  1.00  0.00    -0.112 NA
BRANCH   7  16
HETATM   16  O3  UNL     1       6.602 109.344  77.416  1.00  0.00    -0.361 OA
ATOM     17  H3  UNL     1       6.253 109.541  78.277  1.00  0.00     0.212 HD
ENDBRANCH   7  16
BRANCH  15  18
HETATM   18  N12 UNL     1       9.951 108.864  80.137  1.00  0.00    -0.276 N 
HETATM   19  C10 UNL     1      10.937 109.862  80.101  1.00  0.00     0.197 C 
HETATM   20  N13 UNL     1      11.767 109.955  79.117  1.00  0.00    -0.373 N 
HETATM   21  N14 UNL     1      11.019 110.774  81.192  1.00  0.00    -0.063 NA
ATOM     22 2H13 UNL     1      11.709 109.302  78.336  1.00  0.00     0.158 HD
ATOM     23 1H13 UNL     1      12.484 110.680  79.090  1.00  0.00     0.158 HD
ATOM     24  H12 UNL     1      10.191 107.994  80.613  1.00  0.00     0.185 HD
ENDBRANCH  15  18
ENDBRANCH   6   7
ENDBRANCH   5   6
BRANCH   1  25
HETATM   25  O2  UNL     1       5.957 111.244  73.393  1.00  0.00    -0.275 OA
BRANCH  25  26
HETATM   26  C5  UNL     1       5.477 112.413  74.017  1.00  0.00     0.228 C 
BRANCH  26  27
HETATM   27  C4  UNL     1       5.475 112.211  75.486  1.00  0.00     0.261 C 
BRANCH  27  28
HETATM   28  N4  UNL     1       5.822 113.354  76.244  1.00  0.00    -0.072 N 
ATOM     29  H42 UNL     1       5.220 114.145  76.014  1.00  0.00     0.277 HD
ATOM     30  H41 UNL     1       6.717 113.739  75.943  1.00  0.00     0.277 HD
BRANCH  28  31
HETATM   31  C3  UNL     1       5.816 113.085  77.682  1.00  0.00     0.250 C 
BRANCH  31  32
HETATM   32  C2  UNL     1       7.295 112.844  78.020  1.00  0.00     0.164 C 
BRANCH  32  33
HETATM   33  N3  UNL     1       7.394 111.980  79.183  1.00  0.00    -0.120 NA
BRANCH  33  34
HETATM   34  N1  UNL     1       8.242 112.620  80.078  1.00  0.00    -0.223 N 
HETATM   35  C1  UNL     1       9.114 113.656  79.656  1.00  0.00     0.197 C 
BRANCH  34  36
HETATM   36  N2  UNL     1       8.239 112.216  81.420  1.00  0.00    -0.197 N 
ATOM     37  H2  UNL     1       8.393 112.904  82.156  1.00  0.00     0.217 HD
BRANCH  36  38
HETATM   38  O1  UNL     1       8.046 110.998  81.727  1.00  0.00    -0.273 OA
ATOM     39  H1  UNL     1       8.319 110.303  81.140  1.00  0.00     0.246 HD
ENDBRANCH  36  38
ENDBRANCH  34  36
ENDBRANCH  33  34
ENDBRANCH  32  33
ENDBRANCH  31  32
ENDBRANCH  28  31
ENDBRANCH  27  28
ENDBRANCH  26  27
ENDBRANCH  25  26
ENDBRANCH   1  25
TORSDOF 14
ENDMDL
