MODEL 1
REMARK VINA RESULT: -7.711478469      0.000      0.000
REMARK  17 active torsions:
REMARK  status: ('A' for Active; 'I' for Inactive)
REMARK    1  A    between atoms: N1_1  and  C1_4 
REMARK    2  A    between atoms: C3_9  and  N4_10 
REMARK    3  A    between atoms: N4_10  and  N5_12 
REMARK    4  A    between atoms: C4_14  and  N6_15 
REMARK    5  A    between atoms: N6_15  and  N7_17 
REMARK    6  A    between atoms: N7_17  and  C5_19 
REMARK    7  A    between atoms: C5_19  and  N8_20 
REMARK    8  A    between atoms: C5_19  and  C6_24 
REMARK    9  A    between atoms: C6_24  and  N9_25 
REMARK   10  A    between atoms: N9_25  and  N10_26 
REMARK   11  A    between atoms: N9_25  and  C7_29 
REMARK   12  A    between atoms: C7_29  and  C8_30 
REMARK   13  A    between atoms: C8_30  and  O1_31 
REMARK   14  A    between atoms: O1_31  and  C9_32 
REMARK   15  A    between atoms: C11_34  and  N11_35 
REMARK   16  A    between atoms: C12_39  and  O2_40 
REMARK   17  A    between atoms: C13_42  and  O3_43 
ROOT
HETATM    1  C5  UNL     1       8.965 109.174  81.581  1.00  0.00     0.311 C 
ENDROOT
BRANCH   1   2
HETATM    2  N7  UNL     1       8.111 108.866  80.511  1.00  0.00    -0.304 N 
ATOM      3  H7  UNL     1       7.107 108.813  80.683  1.00  0.00     0.182 HD
BRANCH   2   4
HETATM    4  N6  UNL     1       8.568 108.637  79.271  1.00  0.00    -0.297 N 
ATOM      5  H6  UNL     1       9.330 109.219  78.921  1.00  0.00     0.187 HD
BRANCH   4   6
HETATM    6  C4  UNL     1       8.040 107.613  78.408  1.00  0.00     0.213 C 
HETATM    7  N5  UNL     1       8.035 106.375  78.637  1.00  0.00    -0.294 N 
ATOM      8  H5  UNL     1       7.612 105.815  77.897  1.00  0.00     0.187 HD
BRANCH   7   9
HETATM    9  N4  UNL     1       8.492 105.648  79.693  1.00  0.00    -0.292 N 
ATOM     10  H4  UNL     1       9.478 105.723  79.943  1.00  0.00     0.187 HD
BRANCH   9  11
HETATM   11  C3  UNL     1       7.663 104.790  80.465  1.00  0.00     0.159 A 
HETATM   12  C2  UNL     1       7.407 103.474  80.120  1.00  0.00     0.165 A 
HETATM   13  N2  UNL     1       6.628 102.663  80.883  1.00  0.00    -0.176 N 
HETATM   14  N3  UNL     1       7.982 102.966  78.914  1.00  0.00    -0.079 NA
HETATM   15  C1  UNL     1       6.072 103.121  82.013  1.00  0.00     0.680 A 
ATOM     16  H2  UNL     1       6.465 101.699  80.594  1.00  0.00     0.185 HD
HETATM   17  N12 UNL     1       6.312 104.399  82.362  1.00  0.00    -0.154 N 
HETATM   18  C14 UNL     1       7.067 105.229  81.648  1.00  0.00     0.291 A 
ATOM     19  H12 UNL     1       5.892 104.751  83.223  1.00  0.00     0.187 HD
HETATM   20  O4  UNL     1       7.288 106.430  81.983  1.00  0.00    -0.265 OA
BRANCH  15  21
HETATM   21  N1  UNL     1       5.327 102.377  82.781  1.00  0.00    -0.234 N 
ATOM     22  H12 UNL     1       4.416 102.064  82.444  1.00  0.00     0.174 HD
ATOM     23  H11 UNL     1       5.612 102.096  83.719  1.00  0.00     0.174 HD
ENDBRANCH  15  21
ENDBRANCH   9  11
ENDBRANCH   7   9
ENDBRANCH   4   6
ENDBRANCH   2   4
ENDBRANCH   1   2
BRANCH   1  24
HETATM   24  N8  UNL     1       8.259 109.190  82.874  1.00  0.00    -0.056 N 
ATOM     25  H83 UNL     1       7.469 109.836  82.854  1.00  0.00     0.276 HD
ATOM     26  H82 UNL     1       7.753 108.319  83.029  1.00  0.00     0.276 HD
ATOM     27  H81 UNL     1       8.884 109.397  83.654  1.00  0.00     0.276 HD
ENDBRANCH   1  24
BRANCH   1  28
HETATM   28  C6  UNL     1       9.777 110.411  81.437  1.00  0.00     0.168 C 
BRANCH  28  29
HETATM   29  N9  UNL     1       9.064 111.502  80.816  1.00  0.00    -0.232 NA
BRANCH  29  30
HETATM   30  N10 UNL     1       8.017 111.973  81.605  1.00  0.00    -0.363 NA
ATOM     31 2H10 UNL     1       7.631 111.242  82.203  1.00  0.00     0.171 HD
ATOM     32 1H10 UNL     1       7.295 112.440  81.057  1.00  0.00     0.171 HD
ENDBRANCH  29  30
BRANCH  29  33
HETATM   33  C7  UNL     1       9.954 112.569  80.404  1.00  0.00     0.139 C 
BRANCH  33  34
HETATM   34  C8  UNL     1       9.235 113.783  79.936  1.00  0.00     0.184 C 
BRANCH  34  35
HETATM   35  O1  UNL     1       7.985 113.463  79.456  1.00  0.00    -0.382 OA
BRANCH  35  36
HETATM   36  C9  UNL     1       7.700 113.885  78.171  1.00  0.00     0.154 C 
HETATM   37  C10 UNL     1       6.191 113.800  78.010  1.00  0.00     0.070 C 
HETATM   38  C11 UNL     1       5.917 112.594  77.189  1.00  0.00     0.217 C 
HETATM   39  C12 UNL     1       7.162 111.755  77.314  1.00  0.00     0.179 C 
HETATM   40  C13 UNL     1       8.242 112.834  77.192  1.00  0.00     0.177 C 
BRANCH  38  41
HETATM   41  N11 UNL     1       5.766 112.976  75.790  1.00  0.00    -0.072 N 
ATOM     42 3H11 UNL     1       6.652 113.257  75.371  1.00  0.00     0.274 HD
ATOM     43 2H11 UNL     1       5.567 112.174  75.192  1.00  0.00     0.274 HD
ATOM     44 1H11 UNL     1       5.054 113.703  75.707  1.00  0.00     0.274 HD
ENDBRANCH  38  41
BRANCH  39  45
HETATM   45  O2  UNL     1       7.220 111.147  78.557  1.00  0.00    -0.391 OA
ATOM     46  H2  UNL     1       7.116 111.789  79.250  1.00  0.00     0.210 HD
ENDBRANCH  39  45
BRANCH  40  47
HETATM   47  O3  UNL     1       8.231 113.266  75.887  1.00  0.00    -0.390 OA
ATOM     48  H3  UNL     1       8.462 114.184  75.802  1.00  0.00     0.210 HD
ENDBRANCH  40  47
ENDBRANCH  35  36
ENDBRANCH  34  35
ENDBRANCH  33  34
ENDBRANCH  29  33
ENDBRANCH  28  29
ENDBRANCH   1  28
TORSDOF 17
ENDMDL
MODEL 2
REMARK VINA RESULT: -7.680212660      2.101      3.471
REMARK  17 active torsions:
REMARK  status: ('A' for Active; 'I' for Inactive)
REMARK    1  A    between atoms: N1_1  and  C1_4 
REMARK    2  A    between atoms: C3_9  and  N4_10 
REMARK    3  A    between atoms: N4_10  and  N5_12 
REMARK    4  A    between atoms: C4_14  and  N6_15 
REMARK    5  A    between atoms: N6_15  and  N7_17 
REMARK    6  A    between atoms: N7_17  and  C5_19 
REMARK    7  A    between atoms: C5_19  and  N8_20 
REMARK    8  A    between atoms: C5_19  and  C6_24 
REMARK    9  A    between atoms: C6_24  and  N9_25 
REMARK   10  A    between atoms: N9_25  and  N10_26 
REMARK   11  A    between atoms: N9_25  and  C7_29 
REMARK   12  A    between atoms: C7_29  and  C8_30 
REMARK   13  A    between atoms: C8_30  and  O1_31 
REMARK   14  A    between atoms: O1_31  and  C9_32 
REMARK   15  A    between atoms: C11_34  and  N11_35 
REMARK   16  A    between atoms: C12_39  and  O2_40 
REMARK   17  A    between atoms: C13_42  and  O3_43 
ROOT
HETATM    1  C5  UNL     1      10.857 112.206  80.283  1.00  0.00     0.311 C 
ENDROOT
BRANCH   1   2
HETATM    2  N7  UNL     1      10.965 111.072  81.102  1.00  0.00    -0.304 N 
ATOM      3  H7  UNL     1      11.073 111.199  82.108  1.00  0.00     0.182 HD
BRANCH   2   4
HETATM    4  N6  UNL     1      10.932 109.825  80.607  1.00  0.00    -0.297 N 
ATOM      5  H6  UNL     1      11.264 109.062  81.196  1.00  0.00     0.187 HD
BRANCH   4   6
HETATM    6  C4  UNL     1      10.451 109.509  79.288  1.00  0.00     0.213 C 
HETATM    7  N5  UNL     1       9.265 109.223  78.975  1.00  0.00    -0.294 N 
ATOM      8  H5  UNL     1       9.130 109.031  77.983  1.00  0.00     0.187 HD
BRANCH   7   9
HETATM    9  N4  UNL     1       8.131 109.126  79.722  1.00  0.00    -0.292 N 
ATOM     10  H4  UNL     1       7.458 109.892  79.683  1.00  0.00     0.187 HD
BRANCH   9  11
HETATM   11  C3  UNL     1       7.838 108.010  80.551  1.00  0.00     0.159 A 
HETATM   12  C2  UNL     1       8.067 108.002  81.917  1.00  0.00     0.165 A 
HETATM   13  N2  UNL     1       7.761 106.932  82.697  1.00  0.00    -0.176 N 
HETATM   14  N3  UNL     1       8.653 109.161  82.512  1.00  0.00    -0.079 NA
HETATM   15  C1  UNL     1       7.219 105.831  82.158  1.00  0.00     0.680 A 
ATOM     16  H2  UNL     1       7.944 106.967  83.699  1.00  0.00     0.185 HD
HETATM   17  N12 UNL     1       6.990 105.824  80.831  1.00  0.00    -0.154 N 
HETATM   18  C14 UNL     1       7.273 106.846  80.029  1.00  0.00     0.291 A 
ATOM     19  H12 UNL     1       6.576 104.988  80.418  1.00  0.00     0.187 HD
HETATM   20  O4  UNL     1       7.054 106.832  78.782  1.00  0.00    -0.265 OA
BRANCH  15  21
HETATM   21  N1  UNL     1       6.900 104.786  82.868  1.00  0.00    -0.234 N 
ATOM     22  H12 UNL     1       7.445 104.560  83.699  1.00  0.00     0.174 HD
ATOM     23  H11 UNL     1       6.125 104.171  82.622  1.00  0.00     0.174 HD
ENDBRANCH  15  21
ENDBRANCH   9  11
ENDBRANCH   7   9
ENDBRANCH   4   6
ENDBRANCH   2   4
ENDBRANCH   1   2
BRANCH   1  24
HETATM   24  N8  UNL     1      12.030 113.092  80.399  1.00  0.00    -0.056 N 
ATOM     25  H83 UNL     1      12.192 113.364  81.368  1.00  0.00     0.276 HD
ATOM     26  H82 UNL     1      12.896 112.582  80.226  1.00  0.00     0.276 HD
ATOM     27  H81 UNL     1      11.958 113.911  79.793  1.00  0.00     0.276 HD
ENDBRANCH   1  24
BRANCH   1  28
HETATM   28  C6  UNL     1       9.611 113.004  80.427  1.00  0.00     0.168 C 
BRANCH  28  29
HETATM   29  N9  UNL     1       8.405 112.216  80.322  1.00  0.00    -0.232 NA
BRANCH  29  30
HETATM   30  N10 UNL     1       7.885 111.869  81.566  1.00  0.00    -0.363 NA
ATOM     31 2H10 UNL     1       8.612 111.798  82.278  1.00  0.00     0.171 HD
ATOM     32 1H10 UNL     1       7.305 111.030  81.527  1.00  0.00     0.171 HD
ENDBRANCH  29  30
BRANCH  29  33
HETATM   33  C7  UNL     1       7.413 112.852  79.478  1.00  0.00     0.139 C 
BRANCH  33  34
HETATM   34  C8  UNL     1       7.489 112.419  78.057  1.00  0.00     0.184 C 
BRANCH  34  35
HETATM   35  O1  UNL     1       6.316 111.819  77.661  1.00  0.00    -0.382 OA
BRANCH  35  36
HETATM   36  C9  UNL     1       6.030 111.876  76.309  1.00  0.00     0.154 C 
HETATM   37  C10 UNL     1       4.686 111.192  76.119  1.00  0.00     0.070 C 
HETATM   38  C11 UNL     1       4.966 109.854  75.542  1.00  0.00     0.217 C 
HETATM   39  C12 UNL     1       6.412 109.590  75.869  1.00  0.00     0.179 C 
HETATM   40  C13 UNL     1       7.022 110.964  75.573  1.00  0.00     0.177 C 
BRANCH  38  41
HETATM   41  N11 UNL     1       4.830 109.906  74.092  1.00  0.00    -0.072 N 
ATOM     42 3H11 UNL     1       3.856 109.854  73.795  1.00  0.00     0.274 HD
ATOM     43 2H11 UNL     1       5.049 110.830  73.718  1.00  0.00     0.274 HD
ATOM     44 1H11 UNL     1       5.401 109.175  73.667  1.00  0.00     0.274 HD
ENDBRANCH  38  41
BRANCH  39  45
HETATM   45  O2  UNL     1       6.562 109.272  77.209  1.00  0.00    -0.391 OA
ATOM     46  H2  UNL     1       7.298 109.739  77.585  1.00  0.00     0.210 HD
ENDBRANCH  39  45
BRANCH  40  47
HETATM   47  O3  UNL     1       6.988 111.132  74.209  1.00  0.00    -0.390 OA
ATOM     48  H3  UNL     1       7.544 110.514  73.748  1.00  0.00     0.210 HD
ENDBRANCH  40  47
ENDBRANCH  35  36
ENDBRANCH  34  35
ENDBRANCH  33  34
ENDBRANCH  29  33
ENDBRANCH  28  29
ENDBRANCH   1  28
TORSDOF 17
ENDMDL
MODEL 3
REMARK VINA RESULT: -7.664118351      1.237      1.724
REMARK  17 active torsions:
REMARK  status: ('A' for Active; 'I' for Inactive)
REMARK    1  A    between atoms: N1_1  and  C1_4 
REMARK    2  A    between atoms: C3_9  and  N4_10 
REMARK    3  A    between atoms: N4_10  and  N5_12 
REMARK    4  A    between atoms: C4_14  and  N6_15 
REMARK    5  A    between atoms: N6_15  and  N7_17 
REMARK    6  A    between atoms: N7_17  and  C5_19 
REMARK    7  A    between atoms: C5_19  and  N8_20 
REMARK    8  A    between atoms: C5_19  and  C6_24 
REMARK    9  A    between atoms: C6_24  and  N9_25 
REMARK   10  A    between atoms: N9_25  and  N10_26 
REMARK   11  A    between atoms: N9_25  and  C7_29 
REMARK   12  A    between atoms: C7_29  and  C8_30 
REMARK   13  A    between atoms: C8_30  and  O1_31 
REMARK   14  A    between atoms: O1_31  and  C9_32 
REMARK   15  A    between atoms: C11_34  and  N11_35 
REMARK   16  A    between atoms: C12_39  and  O2_40 
REMARK   17  A    between atoms: C13_42  and  O3_43 
ROOT
HETATM    1  C5  UNL     1       9.825 109.381  81.859  1.00  0.00     0.311 C 
ENDROOT
BRANCH   1   2
HETATM    2  N7  UNL     1       9.331 108.347  81.050  1.00  0.00    -0.304 N 
ATOM      3  H7  UNL     1       8.923 107.525  81.495  1.00  0.00     0.182 HD
BRANCH   2   4
HETATM    4  N6  UNL     1       9.376 108.401  79.710  1.00  0.00    -0.297 N 
ATOM      5  H6  UNL     1      10.128 108.934  79.272  1.00  0.00     0.187 HD
BRANCH   4   6
HETATM    6  C4  UNL     1       8.420 107.745  78.857  1.00  0.00     0.213 C 
HETATM    7  N5  UNL     1       8.109 106.525  78.886  1.00  0.00    -0.294 N 
ATOM      8  H5  UNL     1       7.407 106.257  78.197  1.00  0.00     0.187 HD
BRANCH   7   9
HETATM    9  N4  UNL     1       8.540 105.500  79.670  1.00  0.00    -0.292 N 
ATOM     10  H4  UNL     1       9.538 105.286  79.684  1.00  0.00     0.187 HD
BRANCH   9  11
HETATM   11  C3  UNL     1       7.670 104.711  80.470  1.00  0.00     0.159 A 
HETATM   12  C2  UNL     1       7.351 103.397  80.172  1.00  0.00     0.165 A 
HETATM   13  N2  UNL     1       6.533 102.653  80.962  1.00  0.00    -0.176 N 
HETATM   14  N3  UNL     1       7.902 102.819  78.987  1.00  0.00    -0.079 NA
HETATM   15  C1  UNL     1       5.999 103.178  82.073  1.00  0.00     0.680 A 
ATOM     16  H2  UNL     1       6.324 101.688  80.707  1.00  0.00     0.185 HD
HETATM   17  N12 UNL     1       6.301 104.455  82.377  1.00  0.00    -0.154 N 
HETATM   18  C14 UNL     1       7.095 105.220  81.635  1.00  0.00     0.291 A 
ATOM     19  H12 UNL     1       5.897 104.857  83.223  1.00  0.00     0.187 HD
HETATM   20  O4  UNL     1       7.375 106.420  81.927  1.00  0.00    -0.265 OA
BRANCH  15  21
HETATM   21  N1  UNL     1       5.218 102.499  82.865  1.00  0.00    -0.234 N 
ATOM     22  H12 UNL     1       4.664 101.732  82.485  1.00  0.00     0.174 HD
ATOM     23  H11 UNL     1       5.127 102.708  83.859  1.00  0.00     0.174 HD
ENDBRANCH  15  21
ENDBRANCH   9  11
ENDBRANCH   7   9
ENDBRANCH   4   6
ENDBRANCH   2   4
ENDBRANCH   1   2
BRANCH   1  24
HETATM   24  N8  UNL     1       9.007 109.585  83.068  1.00  0.00    -0.056 N 
ATOM     25  H83 UNL     1       8.062 109.226  82.937  1.00  0.00     0.276 HD
ATOM     26  H82 UNL     1       9.310 108.973  83.825  1.00  0.00     0.276 HD
ATOM     27  H81 UNL     1       8.993 110.561  83.365  1.00  0.00     0.276 HD
ENDBRANCH   1  24
BRANCH   1  28
HETATM   28  C6  UNL     1      10.059 110.686  81.186  1.00  0.00     0.168 C 
BRANCH  28  29
HETATM   29  N9  UNL     1      11.351 110.785  80.550  1.00  0.00    -0.232 NA
BRANCH  29  30
HETATM   30  N10 UNL     1      11.963 109.545  80.387  1.00  0.00    -0.363 NA
ATOM     31 2H10 UNL     1      12.707 109.394  81.069  1.00  0.00     0.171 HD
ATOM     32 1H10 UNL     1      12.282 109.389  79.431  1.00  0.00     0.171 HD
ENDBRANCH  29  30
BRANCH  29  33
HETATM   33  C7  UNL     1      11.289 111.526  79.306  1.00  0.00     0.139 C 
BRANCH  33  34
HETATM   34  C8  UNL     1      10.539 112.805  79.423  1.00  0.00     0.184 C 
BRANCH  34  35
HETATM   35  O1  UNL     1       9.644 112.948  78.387  1.00  0.00    -0.382 OA
BRANCH  35  36
HETATM   36  C9  UNL     1       8.305 112.925  78.733  1.00  0.00     0.154 C 
HETATM   37  C10 UNL     1       7.718 111.668  78.114  1.00  0.00     0.070 C 
HETATM   38  C11 UNL     1       6.937 112.101  76.928  1.00  0.00     0.217 C 
HETATM   39  C12 UNL     1       7.477 113.466  76.592  1.00  0.00     0.179 C 
HETATM   40  C13 UNL     1       7.601 114.072  77.994  1.00  0.00     0.177 C 
BRANCH  38  41
HETATM   41  N11 UNL     1       5.533 112.244  77.289  1.00  0.00    -0.072 N 
ATOM     42 3H11 UNL     1       5.281 111.664  78.089  1.00  0.00     0.274 HD
ATOM     43 2H11 UNL     1       5.333 113.157  77.701  1.00  0.00     0.274 HD
ATOM     44 1H11 UNL     1       4.947 112.053  76.476  1.00  0.00     0.274 HD
ENDBRANCH  38  41
BRANCH  39  45
HETATM   45  O2  UNL     1       8.723 113.368  75.994  1.00  0.00    -0.391 OA
ATOM     46  H2  UNL     1       8.908 114.141  75.474  1.00  0.00     0.210 HD
ENDBRANCH  39  45
BRANCH  40  47
HETATM   47  O3  UNL     1       6.324 114.294  78.449  1.00  0.00    -0.390 OA
ATOM     48  H3  UNL     1       6.302 114.815  79.243  1.00  0.00     0.210 HD
ENDBRANCH  40  47
ENDBRANCH  35  36
ENDBRANCH  34  35
ENDBRANCH  33  34
ENDBRANCH  29  33
ENDBRANCH  28  29
ENDBRANCH   1  28
TORSDOF 17
ENDMDL
MODEL 4
REMARK VINA RESULT: -7.650378002      1.285      1.757
REMARK  17 active torsions:
REMARK  status: ('A' for Active; 'I' for Inactive)
REMARK    1  A    between atoms: N1_1  and  C1_4 
REMARK    2  A    between atoms: C3_9  and  N4_10 
REMARK    3  A    between atoms: N4_10  and  N5_12 
REMARK    4  A    between atoms: C4_14  and  N6_15 
REMARK    5  A    between atoms: N6_15  and  N7_17 
REMARK    6  A    between atoms: N7_17  and  C5_19 
REMARK    7  A    between atoms: C5_19  and  N8_20 
REMARK    8  A    between atoms: C5_19  and  C6_24 
REMARK    9  A    between atoms: C6_24  and  N9_25 
REMARK   10  A    between atoms: N9_25  and  N10_26 
REMARK   11  A    between atoms: N9_25  and  C7_29 
REMARK   12  A    between atoms: C7_29  and  C8_30 
REMARK   13  A    between atoms: C8_30  and  O1_31 
REMARK   14  A    between atoms: O1_31  and  C9_32 
REMARK   15  A    between atoms: C11_34  and  N11_35 
REMARK   16  A    between atoms: C12_39  and  O2_40 
REMARK   17  A    between atoms: C13_42  and  O3_43 
ROOT
HETATM    1  C5  UNL     1      10.533 109.727  80.096  1.00  0.00     0.311 C 
ENDROOT
BRANCH   1   2
HETATM    2  N7  UNL     1       9.706 109.443  78.998  1.00  0.00    -0.304 N 
ATOM      3  H7  UNL     1       9.997 109.750  78.071  1.00  0.00     0.182 HD
BRANCH   2   4
HETATM    4  N6  UNL     1       8.546 108.781  79.127  1.00  0.00    -0.297 N 
ATOM      5  H6  UNL     1       7.963 108.981  79.940  1.00  0.00     0.187 HD
BRANCH   4   6
HETATM    6  C4  UNL     1       8.081 107.805  78.177  1.00  0.00     0.213 C 
HETATM    7  N5  UNL     1       8.136 106.553  78.308  1.00  0.00    -0.294 N 
ATOM      8  H5  UNL     1       7.751 106.034  77.520  1.00  0.00     0.187 HD
BRANCH   7   9
HETATM    9  N4  UNL     1       8.617 105.769  79.311  1.00  0.00    -0.292 N 
ATOM     10  H4  UNL     1       9.624 105.613  79.364  1.00  0.00     0.187 HD
BRANCH   9  11
HETATM   11  C3  UNL     1       7.786 105.155  80.287  1.00  0.00     0.159 A 
HETATM   12  C2  UNL     1       7.469 105.753  81.495  1.00  0.00     0.165 A 
HETATM   13  N2  UNL     1       6.655 105.158  82.406  1.00  0.00    -0.176 N 
HETATM   14  N3  UNL     1       8.030 107.035  81.783  1.00  0.00    -0.079 NA
HETATM   15  C1  UNL     1       6.125 103.952  82.159  1.00  0.00     0.680 A 
ATOM     16  H2  UNL     1       6.446 105.632  83.284  1.00  0.00     0.185 HD
HETATM   17  N12 UNL     1       6.424 103.358  80.988  1.00  0.00    -0.154 N 
HETATM   18  C14 UNL     1       7.214 103.901  80.067  1.00  0.00     0.291 A 
ATOM     19  H12 UNL     1       6.021 102.440  80.797  1.00  0.00     0.187 HD
HETATM   20  O4  UNL     1       7.490 103.336  78.968  1.00  0.00    -0.265 OA
BRANCH  15  21
HETATM   21  N1  UNL     1       5.332 103.348  82.999  1.00  0.00    -0.234 N 
ATOM     22  H12 UNL     1       4.465 103.802  83.284  1.00  0.00     0.174 HD
ATOM     23  H11 UNL     1       5.547 102.434  83.398  1.00  0.00     0.174 HD
ENDBRANCH  15  21
ENDBRANCH   9  11
ENDBRANCH   7   9
ENDBRANCH   4   6
ENDBRANCH   2   4
ENDBRANCH   1   2
BRANCH   1  24
HETATM   24  N8  UNL     1      10.301 108.805  81.223  1.00  0.00    -0.056 N 
ATOM     25  H83 UNL     1      10.581 109.228  82.108  1.00  0.00     0.276 HD
ATOM     26  H82 UNL     1       9.305 108.689  81.406  1.00  0.00     0.276 HD
ATOM     27  H81 UNL     1      10.757 107.903  81.085  1.00  0.00     0.276 HD
ENDBRANCH   1  24
BRANCH   1  28
HETATM   28  C6  UNL     1      10.516 111.130  80.586  1.00  0.00     0.168 C 
BRANCH  28  29
HETATM   29  N9  UNL     1       9.270 111.815  80.334  1.00  0.00    -0.232 NA
BRANCH  29  30
HETATM   30  N10 UNL     1       8.204 111.262  81.040  1.00  0.00    -0.363 NA
ATOM     31 2H10 UNL     1       7.344 111.795  80.912  1.00  0.00     0.171 HD
ATOM     32 1H10 UNL     1       8.422 111.118  82.026  1.00  0.00     0.171 HD
ENDBRANCH  29  30
BRANCH  29  33
HETATM   33  C7  UNL     1       9.381 113.244  80.553  1.00  0.00     0.139 C 
BRANCH  33  34
HETATM   34  C8  UNL     1       8.923 114.052  79.392  1.00  0.00     0.184 C 
BRANCH  34  35
HETATM   35  O1  UNL     1       7.673 113.652  78.976  1.00  0.00    -0.382 OA
BRANCH  35  36
HETATM   36  C9  UNL     1       7.360 113.912  77.655  1.00  0.00     0.154 C 
HETATM   37  C10 UNL     1       5.871 113.651  77.501  1.00  0.00     0.070 C 
HETATM   38  C11 UNL     1       5.736 112.348  76.804  1.00  0.00     0.217 C 
HETATM   39  C12 UNL     1       7.061 111.662  77.014  1.00  0.00     0.179 C 
HETATM   40  C13 UNL     1       8.022 112.832  76.786  1.00  0.00     0.177 C 
BRANCH  38  41
HETATM   41  N11 UNL     1       5.562 112.571  75.374  1.00  0.00    -0.072 N 
ATOM     42 3H11 UNL     1       5.771 113.533  75.107  1.00  0.00     0.274 HD
ATOM     43 2H11 UNL     1       6.283 112.105  74.822  1.00  0.00     0.274 HD
ATOM     44 1H11 UNL     1       4.622 112.289  75.094  1.00  0.00     0.274 HD
ENDBRANCH  38  41
BRANCH  39  45
HETATM   45  O2  UNL     1       7.168 111.191  78.312  1.00  0.00    -0.391 OA
ATOM     46  H2  UNL     1       6.540 110.497  78.471  1.00  0.00     0.210 HD
ENDBRANCH  39  45
BRANCH  40  47
HETATM   47  O3  UNL     1       7.982 113.129  75.445  1.00  0.00    -0.390 OA
ATOM     48  H3  UNL     1       7.454 112.515  74.948  1.00  0.00     0.210 HD
ENDBRANCH  40  47
ENDBRANCH  35  36
ENDBRANCH  34  35
ENDBRANCH  33  34
ENDBRANCH  29  33
ENDBRANCH  28  29
ENDBRANCH   1  28
TORSDOF 17
ENDMDL
MODEL 5
REMARK VINA RESULT: -7.639527402      1.897      3.452
REMARK  17 active torsions:
REMARK  status: ('A' for Active; 'I' for Inactive)
REMARK    1  A    between atoms: N1_1  and  C1_4 
REMARK    2  A    between atoms: C3_9  and  N4_10 
REMARK    3  A    between atoms: N4_10  and  N5_12 
REMARK    4  A    between atoms: C4_14  and  N6_15 
REMARK    5  A    between atoms: N6_15  and  N7_17 
REMARK    6  A    between atoms: N7_17  and  C5_19 
REMARK    7  A    between atoms: C5_19  and  N8_20 
REMARK    8  A    between atoms: C5_19  and  C6_24 
REMARK    9  A    between atoms: C6_24  and  N9_25 
REMARK   10  A    between atoms: N9_25  and  N10_26 
REMARK   11  A    between atoms: N9_25  and  C7_29 
REMARK   12  A    between atoms: C7_29  and  C8_30 
REMARK   13  A    between atoms: C8_30  and  O1_31 
REMARK   14  A    between atoms: O1_31  and  C9_32 
REMARK   15  A    between atoms: C11_34  and  N11_35 
REMARK   16  A    between atoms: C12_39  and  O2_40 
REMARK   17  A    between atoms: C13_42  and  O3_43 
ROOT
HETATM    1  C5  UNL     1       9.150 109.115  82.796  1.00  0.00     0.311 C 
ENDROOT
BRANCH   1   2
HETATM    2  N7  UNL     1       7.808 108.795  82.538  1.00  0.00    -0.304 N 
ATOM      3  H7  UNL     1       7.090 109.135  83.177  1.00  0.00     0.182 HD
BRANCH   2   4
HETATM    4  N6  UNL     1       7.437 108.055  81.482  1.00  0.00    -0.297 N 
ATOM      5  H6  UNL     1       7.307 108.524  80.585  1.00  0.00     0.187 HD
BRANCH   4   6
HETATM    6  C4  UNL     1       7.213 106.635  81.548  1.00  0.00     0.213 C 
HETATM    7  N5  UNL     1       7.725 105.764  80.796  1.00  0.00    -0.294 N 
ATOM      8  H5  UNL     1       7.439 104.809  81.008  1.00  0.00     0.187 HD
BRANCH   7   9
HETATM    9  N4  UNL     1       8.591 105.867  79.751  1.00  0.00    -0.292 N 
ATOM     10  H4  UNL     1       9.585 105.716  79.928  1.00  0.00     0.187 HD
BRANCH   9  11
HETATM   11  C3  UNL     1       8.181 106.174  78.426  1.00  0.00     0.159 A 
HETATM   12  C2  UNL     1       8.436 107.391  77.817  1.00  0.00     0.165 A 
HETATM   13  N2  UNL     1       8.053 107.657  76.541  1.00  0.00    -0.176 N 
HETATM   14  N3  UNL     1       9.120 108.394  78.570  1.00  0.00    -0.079 NA
HETATM   15  C1  UNL     1       7.403 106.734  75.820  1.00  0.00     0.680 A 
ATOM     16  H2  UNL     1       8.262 108.566  76.129  1.00  0.00     0.185 HD
HETATM   17  N12 UNL     1       7.147 105.545  76.398  1.00  0.00    -0.154 N 
HETATM   18  C14 UNL     1       7.502 105.240  77.642  1.00  0.00     0.291 A 
ATOM     19  H12 UNL     1       6.653 104.840  75.850  1.00  0.00     0.187 HD
HETATM   20  O4  UNL     1       7.259 104.119  78.179  1.00  0.00    -0.265 OA
BRANCH  15  21
HETATM   21  N1  UNL     1       7.025 106.942  74.590  1.00  0.00    -0.234 N 
ATOM     22  H12 UNL     1       6.370 107.697  74.388  1.00  0.00     0.174 HD
ATOM     23  H11 UNL     1       7.353 106.372  73.810  1.00  0.00     0.174 HD
ENDBRANCH  15  21
ENDBRANCH   9  11
ENDBRANCH   7   9
ENDBRANCH   4   6
ENDBRANCH   2   4
ENDBRANCH   1   2
BRANCH   1  24
HETATM   24  N8  UNL     1       9.334 109.720  84.127  1.00  0.00    -0.056 N 
ATOM     25  H83 UNL     1      10.316 109.933  84.301  1.00  0.00     0.276 HD
ATOM     26  H82 UNL     1       8.955 110.666  84.158  1.00  0.00     0.276 HD
ATOM     27  H81 UNL     1       8.945 109.142  84.872  1.00  0.00     0.276 HD
ENDBRANCH   1  24
BRANCH   1  28
HETATM   28  C6  UNL     1       9.836 109.943  81.769  1.00  0.00     0.168 C 
BRANCH  28  29
HETATM   29  N9  UNL     1       8.960 110.874  81.098  1.00  0.00    -0.232 NA
BRANCH  29  30
HETATM   30  N10 UNL     1       8.000 111.414  81.950  1.00  0.00    -0.363 NA
ATOM     31 2H10 UNL     1       7.560 110.700  82.531  1.00  0.00     0.171 HD
ATOM     32 1H10 UNL     1       7.312 111.982  81.455  1.00  0.00     0.171 HD
ENDBRANCH  29  30
BRANCH  29  33
HETATM   33  C7  UNL     1       9.698 111.903  80.392  1.00  0.00     0.139 C 
BRANCH  33  34
HETATM   34  C8  UNL     1       8.954 113.186  80.283  1.00  0.00     0.184 C 
BRANCH  34  35
HETATM   35  O1  UNL     1       7.740 113.001  79.663  1.00  0.00    -0.382 OA
BRANCH  35  36
HETATM   36  C9  UNL     1       7.585 113.614  78.433  1.00  0.00     0.154 C 
HETATM   37  C10 UNL     1       6.105 113.542  78.094  1.00  0.00     0.070 C 
HETATM   38  C11 UNL     1       5.951 112.476  77.074  1.00  0.00     0.217 C 
HETATM   39  C12 UNL     1       7.195 111.637  77.207  1.00  0.00     0.179 C 
HETATM   40  C13 UNL     1       8.255 112.730  77.371  1.00  0.00     0.177 C 
BRANCH  38  41
HETATM   41  N11 UNL     1       5.943 113.067  75.742  1.00  0.00    -0.072 N 
ATOM     42 3H11 UNL     1       6.764 113.649  75.575  1.00  0.00     0.274 HD
ATOM     43 2H11 UNL     1       6.104 112.372  75.012  1.00  0.00     0.274 HD
ATOM     44 1H11 UNL     1       5.073 113.580  75.599  1.00  0.00     0.274 HD
ENDBRANCH  38  41
BRANCH  39  45
HETATM   45  O2  UNL     1       7.134 110.846  78.343  1.00  0.00    -0.391 OA
ATOM     46  H2  UNL     1       8.006 110.662  78.672  1.00  0.00     0.210 HD
ENDBRANCH  39  45
BRANCH  40  47
HETATM   47  O3  UNL     1       8.376 113.357  76.155  1.00  0.00    -0.390 OA
ATOM     48  H3  UNL     1       8.856 114.176  76.208  1.00  0.00     0.210 HD
ENDBRANCH  40  47
ENDBRANCH  35  36
ENDBRANCH  34  35
ENDBRANCH  33  34
ENDBRANCH  29  33
ENDBRANCH  28  29
ENDBRANCH   1  28
TORSDOF 17
ENDMDL
