MODEL 1
REMARK VINA RESULT: -6.436465953      0.000      0.000
REMARK  4 active torsions:
REMARK  status: ('A' for Active; 'I' for Inactive)
REMARK    1  A    between atoms: C2_2  and  C3_3 
REMARK    2  A    between atoms: C3_3  and  C4_4 
REMARK    3  A    between atoms: C4_4  and  C5_5 
REMARK    4  A    between atoms: C5_5  and  C6_6 
ROOT
HETATM    1  C6  UNL     1      -2.314   0.611   2.589  1.00  0.00     0.192 C 
HETATM    2  N1  UNL     1      -3.606   0.026   2.899  1.00  0.00    -0.066 N 
ATOM      3  H11 UNL     1      -4.146  -0.484   2.200  1.00  0.00     0.278 HD
ATOM      4  H12 UNL     1      -4.432   0.603   3.062  1.00  0.00     0.278 HD
HETATM    5  C7  UNL     1      -2.942  -0.634   3.951  1.00  0.00     0.193 A 
HETATM    6  C8  UNL     1      -1.868  -1.591   4.018  1.00  0.00     0.042 A 
HETATM    7  C9  UNL     1      -1.826  -0.746   2.871  1.00  0.00     0.049 A 
ENDROOT
BRANCH   1   8
HETATM    8  C5  UNL     1      -1.828   1.774   3.343  1.00  0.00     0.034 C 
BRANCH   8   9
HETATM    9  C4  UNL     1      -0.313   1.813   3.402  1.00  0.00     0.006 C 
BRANCH   9  10
HETATM   10  C3  UNL     1       0.189   1.595   4.810  1.00  0.00     0.026 C 
BRANCH  10  11
HETATM   11  C2  UNL     1       1.447   0.781   4.729  1.00  0.00    -0.037 C 
HETATM   12  C1  UNL     1       1.608  -0.219   3.883  1.00  0.00     0.007 C 
ENDBRANCH  10  11
ENDBRANCH   9  10
ENDBRANCH   8   9
ENDBRANCH   1   8
TORSDOF 4
ENDMDL
MODEL 2
REMARK VINA RESULT: -6.267657362      1.292      1.785
REMARK  4 active torsions:
REMARK  status: ('A' for Active; 'I' for Inactive)
REMARK    1  A    between atoms: C2_2  and  C3_3 
REMARK    2  A    between atoms: C3_3  and  C4_4 
REMARK    3  A    between atoms: C4_4  and  C5_5 
REMARK    4  A    between atoms: C5_5  and  C6_6 
ROOT
HETATM    1  C6  UNL     1      -2.312   0.930   4.491  1.00  0.00     0.192 C 
HETATM    2  N1  UNL     1      -2.492  -0.498   4.297  1.00  0.00    -0.066 N 
ATOM      3  H11 UNL     1      -2.477  -1.153   5.079  1.00  0.00     0.278 HD
ATOM      4  H12 UNL     1      -1.779  -1.074   3.849  1.00  0.00     0.278 HD
HETATM    5  C7  UNL     1      -3.690  -0.155   3.639  1.00  0.00     0.193 A 
HETATM    6  C8  UNL     1      -4.903   0.510   4.042  1.00  0.00     0.042 A 
HETATM    7  C9  UNL     1      -3.751   0.896   4.787  1.00  0.00     0.049 A 
ENDROOT
BRANCH   1   8
HETATM    8  C5  UNL     1      -1.770   1.761   3.409  1.00  0.00     0.034 C 
BRANCH   8   9
HETATM    9  C4  UNL     1      -0.254   1.744   3.392  1.00  0.00     0.006 C 
BRANCH   9  10
HETATM   10  C3  UNL     1       0.312   1.625   4.787  1.00  0.00     0.026 C 
BRANCH  10  11
HETATM   11  C2  UNL     1       1.445   0.642   4.742  1.00  0.00    -0.037 C 
HETATM   12  C1  UNL     1       1.471  -0.394   3.925  1.00  0.00     0.007 C 
ENDBRANCH  10  11
ENDBRANCH   9  10
ENDBRANCH   8   9
ENDBRANCH   1   8
TORSDOF 4
ENDMDL
MODEL 3
REMARK VINA RESULT: -6.167054869      3.358      4.573
REMARK  4 active torsions:
REMARK  status: ('A' for Active; 'I' for Inactive)
REMARK    1  A    between atoms: C2_2  and  C3_3 
REMARK    2  A    between atoms: C3_3  and  C4_4 
REMARK    3  A    between atoms: C4_4  and  C5_5 
REMARK    4  A    between atoms: C5_5  and  C6_6 
ROOT
HETATM    1  C6  UNL     1       0.917  -0.678   6.584  1.00  0.00     0.192 C 
HETATM    2  N1  UNL     1       1.919  -0.902   7.609  1.00  0.00    -0.066 N 
ATOM      3  H11 UNL     1       1.822  -0.516   8.549  1.00  0.00     0.278 HD
ATOM      4  H12 UNL     1       2.840  -0.464   7.566  1.00  0.00     0.278 HD
HETATM    5  C7  UNL     1       1.736  -2.274   7.348  1.00  0.00     0.193 A 
HETATM    6  C8  UNL     1       0.620  -3.177   7.455  1.00  0.00     0.042 A 
HETATM    7  C9  UNL     1       0.252  -1.819   7.229  1.00  0.00     0.049 A 
ENDROOT
BRANCH   1   8
HETATM    8  C5  UNL     1       1.290  -0.710   5.164  1.00  0.00     0.034 C 
BRANCH   8   9
HETATM    9  C4  UNL     1       1.501   0.684   4.606  1.00  0.00     0.006 C 
BRANCH   9  10
HETATM   10  C3  UNL     1       0.301   1.566   4.859  1.00  0.00     0.026 C 
BRANCH  10  11
HETATM   11  C2  UNL     1      -0.482   1.656   3.582  1.00  0.00    -0.037 C 
HETATM   12  C1  UNL     1      -1.801   1.684   3.544  1.00  0.00     0.007 C 
ENDBRANCH  10  11
ENDBRANCH   9  10
ENDBRANCH   8   9
ENDBRANCH   1   8
TORSDOF 4
ENDMDL
MODEL 4
REMARK VINA RESULT: -6.056321245      2.417      3.933
REMARK  4 active torsions:
REMARK  status: ('A' for Active; 'I' for Inactive)
REMARK    1  A    between atoms: C2_2  and  C3_3 
REMARK    2  A    between atoms: C3_3  and  C4_4 
REMARK    3  A    between atoms: C4_4  and  C5_5 
REMARK    4  A    between atoms: C5_5  and  C6_6 
ROOT
HETATM    1  C6  UNL     1       0.830   0.696   4.816  1.00  0.00     0.192 C 
HETATM    2  N1  UNL     1       1.663  -0.211   5.585  1.00  0.00    -0.066 N 
ATOM      3  H11 UNL     1       2.263   0.121   6.340  1.00  0.00     0.278 HD
ATOM      4  H12 UNL     1       2.484  -0.661   5.180  1.00  0.00     0.278 HD
HETATM    5  C7  UNL     1       0.475  -0.925   5.840  1.00  0.00     0.193 A 
HETATM    6  C8  UNL     1      -0.764  -0.610   6.502  1.00  0.00     0.042 A 
HETATM    7  C9  UNL     1      -0.100   0.518   5.939  1.00  0.00     0.049 A 
ENDROOT
BRANCH   1   8
HETATM    8  C5  UNL     1       0.445   0.359   3.439  1.00  0.00     0.034 C 
BRANCH   8   9
HETATM    9  C4  UNL     1      -0.562   1.346   2.880  1.00  0.00     0.006 C 
BRANCH   9  10
HETATM   10  C3  UNL     1      -1.907   0.694   2.659  1.00  0.00     0.026 C 
BRANCH  10  11
HETATM   11  C2  UNL     1      -2.922   1.448   3.466  1.00  0.00    -0.037 C 
HETATM   12  C1  UNL     1      -3.564   0.923   4.493  1.00  0.00     0.007 C 
ENDBRANCH  10  11
ENDBRANCH   9  10
ENDBRANCH   8   9
ENDBRANCH   1   8
TORSDOF 4
ENDMDL
MODEL 5
REMARK VINA RESULT: -6.042490155      2.987      3.995
REMARK  4 active torsions:
REMARK  status: ('A' for Active; 'I' for Inactive)
REMARK    1  A    between atoms: C2_2  and  C3_3 
REMARK    2  A    between atoms: C3_3  and  C4_4 
REMARK    3  A    between atoms: C4_4  and  C5_5 
REMARK    4  A    between atoms: C5_5  and  C6_6 
ROOT
HETATM    1  C6  UNL     1       0.118  -0.741   6.226  1.00  0.00     0.192 C 
HETATM    2  N1  UNL     1       0.124  -0.648   7.674  1.00  0.00    -0.066 N 
ATOM      3  H11 UNL     1      -0.705  -0.364   8.197  1.00  0.00     0.278 HD
ATOM      4  H12 UNL     1       0.638   0.085   8.164  1.00  0.00     0.278 HD
HETATM    5  C7  UNL     1       0.570  -1.984   7.658  1.00  0.00     0.193 A 
HETATM    6  C8  UNL     1       0.013  -3.223   7.182  1.00  0.00     0.042 A 
HETATM    7  C9  UNL     1      -0.452  -2.070   6.486  1.00  0.00     0.049 A 
ENDROOT
BRANCH   1   8
HETATM    8  C5  UNL     1       1.366  -0.575   5.469  1.00  0.00     0.034 C 
BRANCH   8   9
HETATM    9  C4  UNL     1       1.235   0.485   4.393  1.00  0.00     0.006 C 
BRANCH   9  10
HETATM   10  C3  UNL     1       0.238   1.549   4.787  1.00  0.00     0.026 C 
BRANCH  10  11
HETATM   11  C2  UNL     1      -0.644   1.815   3.602  1.00  0.00    -0.037 C 
HETATM   12  C1  UNL     1      -0.626   1.077   2.508  1.00  0.00     0.007 C 
ENDBRANCH  10  11
ENDBRANCH   9  10
ENDBRANCH   8   9
ENDBRANCH   1   8
TORSDOF 4
ENDMDL
