MODEL 1
REMARK VINA RESULT: -10.890459170      0.000      0.000
REMARK  13 active torsions:
REMARK  status: ('A' for Active; 'I' for Inactive)
REMARK    1  A    between atoms: N1_1  and  C1_4 
REMARK    2  A    between atoms: C2_7  and  N3_8 
REMARK    3  A    between atoms: N3_8  and  C3_10 
REMARK    4  A    between atoms: C3_10  and  C4_11 
REMARK    5  A    between atoms: C4_11  and  O1_12 
REMARK    6  A    between atoms: C6_15  and  O2_16 
REMARK    7  A    between atoms: C7_18  and  O3_19 
REMARK    8  A    between atoms: O3_19  and  S1_20 
REMARK    9  A    between atoms: S1_20  and  N4_21 
REMARK   10  A    between atoms: C9_30  and  C10_31 
REMARK       I    between atoms: C10_31  and  N7_33 
REMARK   11  A    between atoms: N7_33  and  C11_34 
REMARK   12  A    between atoms: C11_34  and  C12_35 
REMARK   13  A    between atoms: C12_35  and  C13_36 
ROOT
HETATM    1  C1  UNL     1      24.330  46.836  66.073  1.00  0.00     0.162 A 
HETATM    2  N2  UNL     1      25.309  46.757  65.128  1.00  0.00    -0.172 N 
ATOM      3  H2  UNL     1      25.473  45.858  64.675  1.00  0.00     0.186 HD
HETATM    4  C2  UNL     1      26.073  47.809  64.763  1.00  0.00     0.695 A 
HETATM    5  N5  UNL     1      25.876  48.996  65.347  1.00  0.00    -0.122 N 
ATOM      6  H5  UNL     1      26.449  49.796  65.076  1.00  0.00     0.206 HD
HETATM    7  N6  UNL     1      24.954  49.137  66.261  1.00  0.00    -0.197 N 
HETATM    8  C9  UNL     1      24.609  50.234  66.996  1.00  0.00     0.228 A 
HETATM    9  N9  UNL     1      23.631  49.836  67.801  1.00  0.00    -0.277 N 
ATOM     10  H9  UNL     1      23.155  50.433  68.478  1.00  0.00     0.189 HD
HETATM   11  N10 UNL     1      23.361  48.558  67.603  1.00  0.00    -0.279 N 
ATOM     12  H10 UNL     1      22.656  48.007  68.091  1.00  0.00     0.189 HD
HETATM   13  C16 UNL     1      24.181  48.119  66.647  1.00  0.00     0.189 A 
ENDROOT
BRANCH   4  14
HETATM   14  N3  UNL     1      27.076  47.591  63.771  1.00  0.00    -0.222 N 
ATOM     15  H3  UNL     1      27.907  47.056  64.026  1.00  0.00     0.177 HD
BRANCH  14  16
HETATM   16  C3  UNL     1      26.967  48.091  62.434  1.00  0.00     0.176 C 
BRANCH  16  17
HETATM   17  C4  UNL     1      27.640  47.085  61.521  1.00  0.00     0.079 C 
HETATM   18  C5  UNL     1      28.867  47.623  60.875  1.00  0.00     0.074 C 
HETATM   19  C6  UNL     1      29.047  46.780  59.600  1.00  0.00     0.151 C 
HETATM   20  C7  UNL     1      27.854  45.843  59.596  1.00  0.00     0.175 C 
HETATM   21  C8  UNL     1      26.796  46.731  60.282  1.00  0.00     0.075 C 
BRANCH  17  22
HETATM   22  O1  UNL     1      27.881  45.889  62.138  1.00  0.00    -0.388 OA
ATOM     23  H1  UNL     1      27.142  45.294  62.088  1.00  0.00     0.210 HD
ENDBRANCH  17  22
BRANCH  19  24
HETATM   24  O2  UNL     1      30.215  46.026  59.717  1.00  0.00    -0.393 OA
ATOM     25  H2  UNL     1      30.614  45.941  58.859  1.00  0.00     0.210 HD
ENDBRANCH  19  24
BRANCH  20  26
HETATM   26  O3  UNL     1      27.487  45.376  58.374  1.00  0.00    -0.252 OA
BRANCH  26  27
HETATM   27  S1  UNL     1      27.682  43.679  58.401  1.00  0.00     0.356 S 
HETATM   28  O4  UNL     1      28.892  43.317  59.222  1.00  0.00    -0.176 OA
HETATM   29  O5  UNL     1      26.492  43.066  59.077  1.00  0.00    -0.176 OA
BRANCH  27  30
HETATM   30  N4  UNL     1      27.789  43.125  56.784  1.00  0.00    -0.306 N 
ATOM     31  H42 UNL     1      27.132  42.483  56.339  1.00  0.00     0.171 HD
ATOM     32  H41 UNL     1      28.613  43.546  56.355  1.00  0.00     0.171 HD
ENDBRANCH  27  30
ENDBRANCH  26  27
ENDBRANCH  20  26
ENDBRANCH  16  17
ENDBRANCH  14  16
ENDBRANCH   4  14
BRANCH   1  33
HETATM   33  N1  UNL     1      23.662  45.886  66.363  1.00  0.00    -0.382 N 
ATOM     34  H12 UNL     1      23.115  45.343  65.694  1.00  0.00     0.157 HD
ATOM     35  H11 UNL     1      23.606  45.547  67.323  1.00  0.00     0.157 HD
ENDBRANCH   1  33
BRANCH   8  36
HETATM   36  C10 UNL     1      25.193  51.613  66.869  1.00  0.00     0.362 C 
HETATM   37  O6  UNL     1      26.474  51.563  66.774  1.00  0.00    -0.247 OA
HETATM   38  N7  UNL     1      24.408  52.699  66.861  1.00  0.00    -0.381 NA
BRANCH  38  39
HETATM   39  C11 UNL     1      23.591  53.827  66.853  1.00  0.00     0.166 C 
BRANCH  39  40
HETATM   40  C12 UNL     1      22.278  53.682  67.589  1.00  0.00     0.127 C 
BRANCH  40  41
HETATM   41  C13 UNL     1      21.260  52.938  66.854  1.00  0.00     0.085 A 
HETATM   42  C14 UNL     1      19.991  53.275  66.438  1.00  0.00     0.074 A 
HETATM   43  C15 UNL     1      19.479  52.148  65.774  1.00  0.00     0.103 A 
HETATM   44 BR1  UNL     1      17.772  51.976  64.957  1.00  0.00    -0.029 Br
HETATM   45  N8  UNL     1      20.445  51.234  65.833  1.00  0.00    -0.254 N 
HETATM   46  O7  UNL     1      21.470  51.691  66.455  1.00  0.00    -0.241 OA
ATOM     47  H8  UNL     1      20.379  50.296  65.436  1.00  0.00     0.195 HD
ENDBRANCH  40  41
ENDBRANCH  39  40
ENDBRANCH  38  39
ENDBRANCH   8  36
TORSDOF 13
ENDMDL
MODEL 2
REMARK VINA RESULT: -10.559518068      2.494      3.113
REMARK  13 active torsions:
REMARK  status: ('A' for Active; 'I' for Inactive)
REMARK    1  A    between atoms: N1_1  and  C1_4 
REMARK    2  A    between atoms: C2_7  and  N3_8 
REMARK    3  A    between atoms: N3_8  and  C3_10 
REMARK    4  A    between atoms: C3_10  and  C4_11 
REMARK    5  A    between atoms: C4_11  and  O1_12 
REMARK    6  A    between atoms: C6_15  and  O2_16 
REMARK    7  A    between atoms: C7_18  and  O3_19 
REMARK    8  A    between atoms: O3_19  and  S1_20 
REMARK    9  A    between atoms: S1_20  and  N4_21 
REMARK   10  A    between atoms: C9_30  and  C10_31 
REMARK       I    between atoms: C10_31  and  N7_33 
REMARK   11  A    between atoms: N7_33  and  C11_34 
REMARK   12  A    between atoms: C11_34  and  C12_35 
REMARK   13  A    between atoms: C12_35  and  C13_36 
ROOT
HETATM    1  C1  UNL     1      24.335  46.858  66.059  1.00  0.00     0.162 A 
HETATM    2  N2  UNL     1      25.302  46.827  65.099  1.00  0.00    -0.172 N 
ATOM      3  H2  UNL     1      25.515  45.934  64.655  1.00  0.00     0.186 HD
HETATM    4  C2  UNL     1      25.993  47.919  64.707  1.00  0.00     0.695 A 
HETATM    5  N5  UNL     1      25.731  49.101  65.279  1.00  0.00    -0.122 N 
ATOM      6  H5  UNL     1      26.248  49.930  64.988  1.00  0.00     0.206 HD
HETATM    7  N6  UNL     1      24.816  49.196  66.206  1.00  0.00    -0.197 N 
HETATM    8  C9  UNL     1      24.414  50.280  66.932  1.00  0.00     0.228 A 
HETATM    9  N9  UNL     1      23.477  49.833  67.759  1.00  0.00    -0.277 N 
ATOM     10  H9  UNL     1      22.975  50.408  68.436  1.00  0.00     0.189 HD
HETATM   11  N10 UNL     1      23.285  48.537  67.582  1.00  0.00    -0.279 N 
ATOM     12  H10 UNL     1      22.623  47.950  68.089  1.00  0.00     0.189 HD
HETATM   13  C16 UNL     1      24.114  48.137  66.618  1.00  0.00     0.189 A 
ENDROOT
BRANCH   4  14
HETATM   14  N3  UNL     1      26.992  47.751  63.702  1.00  0.00    -0.222 N 
ATOM     15  H3  UNL     1      27.883  47.332  63.965  1.00  0.00     0.177 HD
BRANCH  14  16
HETATM   16  C3  UNL     1      26.796  48.144  62.339  1.00  0.00     0.176 C 
BRANCH  16  17
HETATM   17  C4  UNL     1      27.535  47.145  61.472  1.00  0.00     0.079 C 
HETATM   18  C5  UNL     1      28.778  47.706  60.877  1.00  0.00     0.074 C 
HETATM   19  C6  UNL     1      29.038  46.854  59.622  1.00  0.00     0.151 C 
HETATM   20  C7  UNL     1      27.869  45.888  59.573  1.00  0.00     0.175 C 
HETATM   21  C8  UNL     1      26.759  46.758  60.198  1.00  0.00     0.075 C 
BRANCH  17  22
HETATM   22  O1  UNL     1      27.774  45.963  62.113  1.00  0.00    -0.388 OA
ATOM     23  H1  UNL     1      27.066  45.709  62.693  1.00  0.00     0.210 HD
ENDBRANCH  17  22
BRANCH  19  24
HETATM   24  O2  UNL     1      30.217  46.130  59.804  1.00  0.00    -0.393 OA
ATOM     25  H2  UNL     1      30.289  45.480  59.114  1.00  0.00     0.210 HD
ENDBRANCH  19  24
BRANCH  20  26
HETATM   26  O3  UNL     1      27.571  45.400  58.341  1.00  0.00    -0.252 OA
BRANCH  26  27
HETATM   27  S1  UNL     1      27.720  43.699  58.421  1.00  0.00     0.356 S 
HETATM   28  O4  UNL     1      28.934  43.330  59.234  1.00  0.00    -0.176 OA
HETATM   29  O5  UNL     1      26.525  43.143  59.137  1.00  0.00    -0.176 OA
BRANCH  27  30
HETATM   30  N4  UNL     1      27.784  43.090  56.822  1.00  0.00    -0.306 N 
ATOM     31  H42 UNL     1      27.325  43.512  56.015  1.00  0.00     0.171 HD
ATOM     32  H41 UNL     1      28.353  42.243  56.825  1.00  0.00     0.171 HD
ENDBRANCH  27  30
ENDBRANCH  26  27
ENDBRANCH  20  26
ENDBRANCH  16  17
ENDBRANCH  14  16
ENDBRANCH   4  14
BRANCH   1  33
HETATM   33  N1  UNL     1      23.732  45.872  66.372  1.00  0.00    -0.382 N 
ATOM     34  H12 UNL     1      23.677  45.028  65.802  1.00  0.00     0.157 HD
ATOM     35  H11 UNL     1      23.232  45.813  67.259  1.00  0.00     0.157 HD
ENDBRANCH   1  33
BRANCH   8  36
HETATM   36  C10 UNL     1      24.909  51.690  66.778  1.00  0.00     0.362 C 
HETATM   37  O6  UNL     1      26.167  51.767  67.032  1.00  0.00    -0.247 OA
HETATM   38  N7  UNL     1      24.079  52.678  66.415  1.00  0.00    -0.381 NA
BRANCH  38  39
HETATM   39  C11 UNL     1      23.216  53.705  66.039  1.00  0.00     0.166 C 
BRANCH  39  40
HETATM   40  C12 UNL     1      22.757  54.609  67.160  1.00  0.00     0.127 C 
BRANCH  40  41
HETATM   41  C13 UNL     1      23.740  55.612  67.559  1.00  0.00     0.085 A 
HETATM   42  C14 UNL     1      24.873  55.535  68.338  1.00  0.00     0.074 A 
HETATM   43  C15 UNL     1      25.419  56.830  68.374  1.00  0.00     0.103 A 
HETATM   44 BR1  UNL     1      26.996  57.385  69.275  1.00  0.00    -0.029 Br
HETATM   45  N8  UNL     1      24.601  57.578  67.636  1.00  0.00    -0.254 N 
HETATM   46  O7  UNL     1      23.635  56.875  67.168  1.00  0.00    -0.241 OA
ATOM     47  H8  UNL     1      24.727  58.576  67.465  1.00  0.00     0.195 HD
ENDBRANCH  40  41
ENDBRANCH  39  40
ENDBRANCH  38  39
ENDBRANCH   8  36
TORSDOF 13
ENDMDL
MODEL 3
REMARK VINA RESULT: -10.552523163      4.686     10.192
REMARK  13 active torsions:
REMARK  status: ('A' for Active; 'I' for Inactive)
REMARK    1  A    between atoms: N1_1  and  C1_4 
REMARK    2  A    between atoms: C2_7  and  N3_8 
REMARK    3  A    between atoms: N3_8  and  C3_10 
REMARK    4  A    between atoms: C3_10  and  C4_11 
REMARK    5  A    between atoms: C4_11  and  O1_12 
REMARK    6  A    between atoms: C6_15  and  O2_16 
REMARK    7  A    between atoms: C7_18  and  O3_19 
REMARK    8  A    between atoms: O3_19  and  S1_20 
REMARK    9  A    between atoms: S1_20  and  N4_21 
REMARK   10  A    between atoms: C9_30  and  C10_31 
REMARK       I    between atoms: C10_31  and  N7_33 
REMARK   11  A    between atoms: N7_33  and  C11_34 
REMARK   12  A    between atoms: C11_34  and  C12_35 
REMARK   13  A    between atoms: C12_35  and  C13_36 
ROOT
HETATM    1  C1  UNL     1      29.916  45.103  60.600  1.00  0.00     0.162 A 
HETATM    2  N2  UNL     1      29.406  45.968  61.521  1.00  0.00    -0.172 N 
ATOM      3  H2  UNL     1      29.968  46.185  62.345  1.00  0.00     0.186 HD
HETATM    4  C2  UNL     1      28.195  46.552  61.399  1.00  0.00     0.695 A 
HETATM    5  N5  UNL     1      27.441  46.280  60.327  1.00  0.00    -0.122 N 
ATOM      6  H5  UNL     1      26.525  46.718  60.227  1.00  0.00     0.206 HD
HETATM    7  N6  UNL     1      27.873  45.457  59.410  1.00  0.00    -0.197 N 
HETATM    8  C9  UNL     1      27.265  45.021  58.268  1.00  0.00     0.228 A 
HETATM    9  N9  UNL     1      28.119  44.175  57.704  1.00  0.00    -0.277 N 
ATOM     10  H9  UNL     1      27.954  43.678  56.829  1.00  0.00     0.189 HD
HETATM   11  N10 UNL     1      29.213  44.067  58.438  1.00  0.00    -0.279 N 
ATOM     12  H10 UNL     1      30.022  43.482  58.232  1.00  0.00     0.189 HD
HETATM   13  C16 UNL     1      29.064  44.861  59.498  1.00  0.00     0.189 A 
ENDROOT
BRANCH   4  14
HETATM   14  N3  UNL     1      27.770  47.429  62.441  1.00  0.00    -0.222 N 
ATOM     15  H3  UNL     1      28.232  48.333  62.537  1.00  0.00     0.177 HD
BRANCH  14  16
HETATM   16  C3  UNL     1      26.723  47.095  63.359  1.00  0.00     0.176 C 
BRANCH  16  17
HETATM   17  C4  UNL     1      26.783  48.096  64.495  1.00  0.00     0.079 C 
HETATM   18  C5  UNL     1      27.699  47.675  65.588  1.00  0.00     0.074 C 
HETATM   19  C6  UNL     1      27.193  48.416  66.838  1.00  0.00     0.151 C 
HETATM   20  C7  UNL     1      25.972  49.177  66.358  1.00  0.00     0.175 C 
HETATM   21  C8  UNL     1      25.454  48.218  65.267  1.00  0.00     0.075 C 
BRANCH  17  22
HETATM   22  O1  UNL     1      27.061  49.364  64.068  1.00  0.00    -0.388 OA
ATOM     23  H1  UNL     1      26.358  49.741  63.553  1.00  0.00     0.210 HD
ENDBRANCH  17  22
BRANCH  19  24
HETATM   24  O2  UNL     1      28.165  49.330  67.247  1.00  0.00    -0.393 OA
ATOM     25  H2  UNL     1      28.157  50.074  66.656  1.00  0.00     0.210 HD
ENDBRANCH  19  24
BRANCH  20  26
HETATM   26  O3  UNL     1      25.059  49.476  67.319  1.00  0.00    -0.252 OA
BRANCH  26  27
HETATM   27  S1  UNL     1      24.732  51.150  67.201  1.00  0.00     0.356 S 
HETATM   28  O4  UNL     1      23.982  51.611  68.423  1.00  0.00    -0.176 OA
HETATM   29  O5  UNL     1      26.034  51.896  67.174  1.00  0.00    -0.176 OA
BRANCH  27  30
HETATM   30  N4  UNL     1      23.867  51.426  65.749  1.00  0.00    -0.306 N 
ATOM     31  H42 UNL     1      23.866  50.805  64.939  1.00  0.00     0.171 HD
ATOM     32  H41 UNL     1      23.363  52.308  65.840  1.00  0.00     0.171 HD
ENDBRANCH  27  30
ENDBRANCH  26  27
ENDBRANCH  20  26
ENDBRANCH  16  17
ENDBRANCH  14  16
ENDBRANCH   4  14
BRANCH   1  33
HETATM   33  N1  UNL     1      31.000  44.613  60.735  1.00  0.00    -0.382 N 
ATOM     34  H12 UNL     1      31.274  44.032  61.527  1.00  0.00     0.157 HD
ATOM     35  H11 UNL     1      31.734  44.743  60.038  1.00  0.00     0.157 HD
ENDBRANCH   1  33
BRANCH   8  36
HETATM   36  C10 UNL     1      25.925  45.459  57.748  1.00  0.00     0.362 C 
HETATM   37  O6  UNL     1      25.257  46.077  58.657  1.00  0.00    -0.247 OA
HETATM   38  N7  UNL     1      25.555  45.201  56.486  1.00  0.00    -0.381 NA
BRANCH  38  39
HETATM   39  C11 UNL     1      25.170  44.932  55.174  1.00  0.00     0.166 C 
BRANCH  39  40
HETATM   40  C12 UNL     1      23.680  44.824  54.945  1.00  0.00     0.127 C 
BRANCH  40  41
HETATM   41  C13 UNL     1      23.023  46.100  54.677  1.00  0.00     0.085 A 
HETATM   42  C14 UNL     1      21.701  46.434  54.487  1.00  0.00     0.074 A 
HETATM   43  C15 UNL     1      21.670  47.822  54.264  1.00  0.00     0.103 A 
HETATM   44 BR1  UNL     1      20.138  48.899  53.946  1.00  0.00    -0.029 Br
HETATM   45  N8  UNL     1      22.939  48.218  54.332  1.00  0.00    -0.254 N 
HETATM   46  O7  UNL     1      23.716  47.225  54.570  1.00  0.00    -0.241 OA
ATOM     47  H8  UNL     1      23.251  49.181  54.212  1.00  0.00     0.195 HD
ENDBRANCH  40  41
ENDBRANCH  39  40
ENDBRANCH  38  39
ENDBRANCH   8  36
TORSDOF 13
ENDMDL
MODEL 4
REMARK VINA RESULT: -10.521449910      1.713      1.957
REMARK  13 active torsions:
REMARK  status: ('A' for Active; 'I' for Inactive)
REMARK    1  A    between atoms: N1_1  and  C1_4 
REMARK    2  A    between atoms: C2_7  and  N3_8 
REMARK    3  A    between atoms: N3_8  and  C3_10 
REMARK    4  A    between atoms: C3_10  and  C4_11 
REMARK    5  A    between atoms: C4_11  and  O1_12 
REMARK    6  A    between atoms: C6_15  and  O2_16 
REMARK    7  A    between atoms: C7_18  and  O3_19 
REMARK    8  A    between atoms: O3_19  and  S1_20 
REMARK    9  A    between atoms: S1_20  and  N4_21 
REMARK   10  A    between atoms: C9_30  and  C10_31 
REMARK       I    between atoms: C10_31  and  N7_33 
REMARK   11  A    between atoms: N7_33  and  C11_34 
REMARK   12  A    between atoms: C11_34  and  C12_35 
REMARK   13  A    between atoms: C12_35  and  C13_36 
ROOT
HETATM    1  C1  UNL     1      24.273  46.800  66.003  1.00  0.00     0.162 A 
HETATM    2  N2  UNL     1      25.262  46.679  65.073  1.00  0.00    -0.172 N 
ATOM      3  H2  UNL     1      25.355  45.792  64.578  1.00  0.00     0.186 HD
HETATM    4  C2  UNL     1      26.125  47.674  64.775  1.00  0.00     0.695 A 
HETATM    5  N5  UNL     1      26.021  48.845  65.414  1.00  0.00    -0.122 N 
ATOM      6  H5  UNL     1      26.669  49.602  65.194  1.00  0.00     0.206 HD
HETATM    7  N6  UNL     1      25.095  49.024  66.317  1.00  0.00    -0.197 N 
HETATM    8  C9  UNL     1      24.832  50.111  67.100  1.00  0.00     0.228 A 
HETATM    9  N9  UNL     1      23.805  49.764  67.866  1.00  0.00    -0.277 N 
ATOM     10  H9  UNL     1      23.369  50.368  68.564  1.00  0.00     0.189 HD
HETATM   11  N10 UNL     1      23.427  48.526  67.599  1.00  0.00    -0.279 N 
ATOM     12  H10 UNL     1      22.664  48.018  68.047  1.00  0.00     0.189 HD
HETATM   13  C16 UNL     1      24.225  48.062  66.637  1.00  0.00     0.189 A 
ENDROOT
BRANCH   4  14
HETATM   14  N3  UNL     1      27.126  47.415  63.791  1.00  0.00    -0.222 N 
ATOM     15  H3  UNL     1      27.893  46.787  64.030  1.00  0.00     0.177 HD
BRANCH  14  16
HETATM   16  C3  UNL     1      27.101  48.000  62.485  1.00  0.00     0.176 C 
BRANCH  16  17
HETATM   17  C4  UNL     1      27.745  47.009  61.536  1.00  0.00     0.079 C 
HETATM   18  C5  UNL     1      28.963  47.551  60.876  1.00  0.00     0.074 C 
HETATM   19  C6  UNL     1      29.108  46.735  59.579  1.00  0.00     0.151 C 
HETATM   20  C7  UNL     1      27.907  45.808  59.580  1.00  0.00     0.175 C 
HETATM   21  C8  UNL     1      26.872  46.690  60.307  1.00  0.00     0.075 C 
BRANCH  17  22
HETATM   22  O1  UNL     1      27.988  45.798  62.120  1.00  0.00    -0.388 OA
ATOM     23  H1  UNL     1      28.886  45.705  62.415  1.00  0.00     0.210 HD
ENDBRANCH  17  22
BRANCH  19  24
HETATM   24  O2  UNL     1      30.272  45.969  59.654  1.00  0.00    -0.393 OA
ATOM     25  H2  UNL     1      30.993  46.466  59.286  1.00  0.00     0.210 HD
ENDBRANCH  19  24
BRANCH  20  26
HETATM   26  O3  UNL     1      27.510  45.373  58.355  1.00  0.00    -0.252 OA
BRANCH  26  27
HETATM   27  S1  UNL     1      27.684  43.673  58.343  1.00  0.00     0.356 S 
HETATM   28  O4  UNL     1      28.911  43.279  59.122  1.00  0.00    -0.176 OA
HETATM   29  O5  UNL     1      26.504  43.061  59.040  1.00  0.00    -0.176 OA
BRANCH  27  30
HETATM   30  N4  UNL     1      27.738  43.150  56.712  1.00  0.00    -0.306 N 
ATOM     31  H42 UNL     1      27.615  42.187  56.401  1.00  0.00     0.171 HD
ATOM     32  H41 UNL     1      27.912  43.964  56.122  1.00  0.00     0.171 HD
ENDBRANCH  27  30
ENDBRANCH  26  27
ENDBRANCH  20  26
ENDBRANCH  16  17
ENDBRANCH  14  16
ENDBRANCH   4  14
BRANCH   1  33
HETATM   33  N1  UNL     1      23.516  45.901  66.232  1.00  0.00    -0.382 N 
ATOM     34  H12 UNL     1      23.463  45.409  67.124  1.00  0.00     0.157 HD
ATOM     35  H11 UNL     1      22.853  45.570  65.531  1.00  0.00     0.157 HD
ENDBRANCH   1  33
BRANCH   8  36
HETATM   36  C10 UNL     1      25.539  51.436  67.053  1.00  0.00     0.362 C 
HETATM   37  O6  UNL     1      26.692  51.323  66.494  1.00  0.00    -0.247 OA
HETATM   38  N7  UNL     1      24.969  52.542  67.550  1.00  0.00    -0.381 NA
BRANCH  38  39
HETATM   39  C11 UNL     1      24.376  53.692  68.066  1.00  0.00     0.166 C 
BRANCH  39  40
HETATM   40  C12 UNL     1      22.880  53.791  67.875  1.00  0.00     0.127 C 
BRANCH  40  41
HETATM   41  C13 UNL     1      22.451  54.951  67.100  1.00  0.00     0.085 A 
HETATM   42  C14 UNL     1      21.404  55.141  66.226  1.00  0.00     0.074 A 
HETATM   43  C15 UNL     1      21.497  56.470  65.779  1.00  0.00     0.103 A 
HETATM   44 BR1  UNL     1      20.335  57.354  64.563  1.00  0.00    -0.029 Br
HETATM   45  N8  UNL     1      22.563  56.976  66.395  1.00  0.00    -0.254 N 
HETATM   46  O7  UNL     1      23.111  56.100  67.155  1.00  0.00    -0.241 OA
ATOM     47  H8  UNL     1      22.898  57.932  66.278  1.00  0.00     0.195 HD
ENDBRANCH  40  41
ENDBRANCH  39  40
ENDBRANCH  38  39
ENDBRANCH   8  36
TORSDOF 13
ENDMDL
MODEL 5
REMARK VINA RESULT: -10.505079247      2.010      2.499
REMARK  13 active torsions:
REMARK  status: ('A' for Active; 'I' for Inactive)
REMARK    1  A    between atoms: N1_1  and  C1_4 
REMARK    2  A    between atoms: C2_7  and  N3_8 
REMARK    3  A    between atoms: N3_8  and  C3_10 
REMARK    4  A    between atoms: C3_10  and  C4_11 
REMARK    5  A    between atoms: C4_11  and  O1_12 
REMARK    6  A    between atoms: C6_15  and  O2_16 
REMARK    7  A    between atoms: C7_18  and  O3_19 
REMARK    8  A    between atoms: O3_19  and  S1_20 
REMARK    9  A    between atoms: S1_20  and  N4_21 
REMARK   10  A    between atoms: C9_30  and  C10_31 
REMARK       I    between atoms: C10_31  and  N7_33 
REMARK   11  A    between atoms: N7_33  and  C11_34 
REMARK   12  A    between atoms: C11_34  and  C12_35 
REMARK   13  A    between atoms: C12_35  and  C13_36 
ROOT
HETATM    1  C1  UNL     1      25.792  47.531  66.423  1.00  0.00     0.162 A 
HETATM    2  N2  UNL     1      26.543  47.640  65.291  1.00  0.00    -0.172 N 
ATOM      3  H2  UNL     1      27.328  47.000  65.166  1.00  0.00     0.186 HD
HETATM    4  C2  UNL     1      26.301  48.554  64.326  1.00  0.00     0.695 A 
HETATM    5  N5  UNL     1      25.278  49.405  64.471  1.00  0.00    -0.122 N 
ATOM      6  H5  UNL     1      25.089  50.097  63.747  1.00  0.00     0.206 HD
HETATM    7  N6  UNL     1      24.522  49.352  65.535  1.00  0.00    -0.197 N 
HETATM    8  C9  UNL     1      23.461  50.131  65.895  1.00  0.00     0.228 A 
HETATM    9  N9  UNL     1      23.065  49.677  67.078  1.00  0.00    -0.277 N 
ATOM     10  H9  UNL     1      22.284  50.055  67.615  1.00  0.00     0.189 HD
HETATM   11  N10 UNL     1      23.826  48.668  67.464  1.00  0.00    -0.279 N 
ATOM     12  H10 UNL     1      23.737  48.142  68.333  1.00  0.00     0.189 HD
HETATM   13  C16 UNL     1      24.732  48.462  66.508  1.00  0.00     0.189 A 
ENDROOT
BRANCH   4  14
HETATM   14  N3  UNL     1      27.171  48.575  63.195  1.00  0.00    -0.222 N 
ATOM     15  H3  UNL     1      28.174  48.676  63.353  1.00  0.00     0.177 HD
BRANCH  14  16
HETATM   16  C3  UNL     1      26.697  48.461  61.849  1.00  0.00     0.176 C 
BRANCH  16  17
HETATM   17  C4  UNL     1      27.493  47.356  61.184  1.00  0.00     0.079 C 
HETATM   18  C5  UNL     1      28.833  47.807  60.723  1.00  0.00     0.074 C 
HETATM   19  C6  UNL     1      29.215  46.831  59.596  1.00  0.00     0.151 C 
HETATM   20  C7  UNL     1      28.014  45.914  59.468  1.00  0.00     0.175 C 
HETATM   21  C8  UNL     1      26.878  46.883  59.853  1.00  0.00     0.075 C 
BRANCH  17  22
HETATM   22  O1  UNL     1      27.580  46.230  61.953  1.00  0.00    -0.388 OA
ATOM     23  H1  UNL     1      27.515  45.431  61.444  1.00  0.00     0.210 HD
ENDBRANCH  17  22
BRANCH  19  24
HETATM   24  O2  UNL     1      30.319  46.080  60.003  1.00  0.00    -0.393 OA
ATOM     25  H2  UNL     1      31.084  46.371  59.522  1.00  0.00     0.210 HD
ENDBRANCH  19  24
BRANCH  20  26
HETATM   26  O3  UNL     1      27.860  45.325  58.253  1.00  0.00    -0.252 OA
BRANCH  26  27
HETATM   27  S1  UNL     1      27.850  43.635  58.509  1.00  0.00     0.356 S 
HETATM   28  O4  UNL     1      26.568  43.227  59.187  1.00  0.00    -0.176 OA
HETATM   29  O5  UNL     1      27.884  42.945  57.177  1.00  0.00    -0.176 OA
BRANCH  27  30
HETATM   30  N4  UNL     1      29.241  43.221  59.420  1.00  0.00    -0.306 N 
ATOM     31  H42 UNL     1      30.169  43.052  59.029  1.00  0.00     0.171 HD
ATOM     32  H41 UNL     1      28.977  43.177  60.404  1.00  0.00     0.171 HD
ENDBRANCH  27  30
ENDBRANCH  26  27
ENDBRANCH  20  26
ENDBRANCH  16  17
ENDBRANCH  14  16
ENDBRANCH   4  14
BRANCH   1  33
HETATM   33  N1  UNL     1      26.028  46.699  67.251  1.00  0.00    -0.382 N 
ATOM     34  H12 UNL     1      25.691  46.736  68.214  1.00  0.00     0.157 HD
ATOM     35  H11 UNL     1      26.588  45.875  67.035  1.00  0.00     0.157 HD
ENDBRANCH   1  33
BRANCH   8  36
HETATM   36  C10 UNL     1      22.849  51.237  65.082  1.00  0.00     0.362 C 
HETATM   37  O6  UNL     1      23.696  51.708  64.236  1.00  0.00    -0.247 OA
HETATM   38  N7  UNL     1      21.579  51.617  65.276  1.00  0.00    -0.381 NA
BRANCH  38  39
HETATM   39  C11 UNL     1      20.259  52.013  65.479  1.00  0.00     0.166 C 
BRANCH  39  40
HETATM   40  C12 UNL     1      20.042  52.991  66.610  1.00  0.00     0.127 C 
BRANCH  40  41
HETATM   41  C13 UNL     1      21.129  53.950  66.788  1.00  0.00     0.085 A 
HETATM   42  C14 UNL     1      21.320  55.227  66.310  1.00  0.00     0.074 A 
HETATM   43  C15 UNL     1      22.560  55.658  66.813  1.00  0.00     0.103 A 
HETATM   44 BR1  UNL     1      23.392  57.341  66.525  1.00  0.00    -0.029 Br
HETATM   45  N8  UNL     1      23.019  54.641  67.539  1.00  0.00    -0.254 N 
HETATM   46  O7  UNL     1      22.194  53.658  67.524  1.00  0.00    -0.241 OA
ATOM     47  H8  UNL     1      23.907  54.642  68.040  1.00  0.00     0.195 HD
ENDBRANCH  40  41
ENDBRANCH  39  40
ENDBRANCH  38  39
ENDBRANCH   8  36
TORSDOF 13
ENDMDL
