MODEL 1
REMARK VINA RESULT: -10.144781460      0.000      0.000
REMARK  15 active torsions:
REMARK  status: ('A' for Active; 'I' for Inactive)
REMARK    1  A    between atoms: N1_2  and  C3_4 
REMARK    2  A    between atoms: C4_7  and  N3_8 
REMARK    3  A    between atoms: N3_8  and  N4_10 
REMARK    4  A    between atoms: N4_10  and  N5_12 
REMARK    5  A    between atoms: N5_12  and  N6_13 
REMARK    6  A    between atoms: N5_12  and  O1_16 
REMARK    7  A    between atoms: N7_18  and  N8_19 
REMARK    8  A    between atoms: C6_22  and  N9_23 
REMARK    9  A    between atoms: N9_23  and  C7_25 
REMARK   10  A    between atoms: C7_25  and  C8_26 
REMARK   11  A    between atoms: C8_26  and  C9_27 
REMARK   12  A    between atoms: C9_27  and  N10_28 
REMARK   13  A    between atoms: N10_28  and  C10_30 
REMARK   14  A    between atoms: C11_31  and  N11_32 
REMARK   15  A    between atoms: C16_44  and  N14_45 
ROOT
HETATM    1  C7  UNL     1      25.840  48.966  60.847  1.00  0.00     0.139 C 
ENDROOT
BRANCH   1   2
HETATM    2  N9  UNL     1      25.978  47.546  61.012  1.00  0.00    -0.223 N 
ATOM      3  H9  UNL     1      25.702  47.157  61.914  1.00  0.00     0.177 HD
BRANCH   2   4
HETATM    4  C6  UNL     1      26.412  46.725  60.140  1.00  0.00     0.728 A 
HETATM    5  N7  UNL     1      27.557  46.055  60.460  1.00  0.00     0.086 N 
HETATM    6  C4  UNL     1      28.114  45.172  59.639  1.00  0.00     0.750 A 
HETATM    7  N2  UNL     1      27.464  44.975  58.446  1.00  0.00    -0.018 N 
HETATM    8  C3  UNL     1      26.354  45.608  58.108  1.00  0.00     0.708 A 
ATOM      9  H2  UNL     1      27.857  44.304  57.785  1.00  0.00     0.203 HD
HETATM   10  N16 UNL     1      25.820  46.497  58.966  1.00  0.00    -0.020 N 
ATOM     11  H16 UNL     1      24.964  46.995  58.719  1.00  0.00     0.203 HD
BRANCH   5  12
HETATM   12  N8  UNL     1      28.172  46.306  61.704  1.00  0.00    -0.309 N 
ATOM     13  H82 UNL     1      29.005  45.777  61.960  1.00  0.00     0.178 HD
ATOM     14  H81 UNL     1      27.768  47.014  62.317  1.00  0.00     0.178 HD
ENDBRANCH   5  12
BRANCH   6  15
HETATM   15  N3  UNL     1      29.279  44.426  59.847  1.00  0.00    -0.108 N 
HETATM   16  C5  UNL     1      29.313  43.008  60.055  1.00  0.00     0.199 C 
BRANCH  15  17
HETATM   17  N4  UNL     1      30.535  45.076  59.862  1.00  0.00    -0.185 N 
ATOM     18  H4  UNL     1      30.871  45.583  59.044  1.00  0.00     0.213 HD
BRANCH  17  19
HETATM   19  N5  UNL     1      31.295  45.006  61.017  1.00  0.00    -0.086 N 
BRANCH  19  20
HETATM   20  N6  UNL     1      32.690  44.870  60.857  1.00  0.00    -0.302 N 
ATOM     21  H62 UNL     1      33.191  44.261  61.505  1.00  0.00     0.181 HD
ATOM     22  H61 UNL     1      33.121  45.393  60.096  1.00  0.00     0.181 HD
ENDBRANCH  19  20
BRANCH  19  23
HETATM   23  O1  UNL     1      30.841  45.053  62.174  1.00  0.00    -0.253 OA
ATOM     24  H1  UNL     1      30.545  45.842  62.611  1.00  0.00     0.248 HD
ENDBRANCH  19  23
ENDBRANCH  17  19
ENDBRANCH  15  17
ENDBRANCH   6  15
BRANCH   8  25
HETATM   25  N1  UNL     1      25.741  45.343  56.846  1.00  0.00    -0.225 N 
HETATM   26  C1  UNL     1      26.411  44.463  55.928  1.00  0.00     0.168 C 
HETATM   27  C2  UNL     1      24.490  45.939  56.496  1.00  0.00     0.168 C 
ENDBRANCH   8  25
ENDBRANCH   2   4
ENDBRANCH   1   2
BRANCH   1  28
HETATM   28  C8  UNL     1      26.864  49.661  61.753  1.00  0.00     0.040 C 
BRANCH  28  29
HETATM   29  C9  UNL     1      26.117  50.333  62.851  1.00  0.00     0.121 C 
BRANCH  29  30
HETATM   30  N10 UNL     1      26.346  49.857  64.169  1.00  0.00    -0.382 N 
ATOM     31  H10 UNL     1      27.073  50.347  64.689  1.00  0.00     0.160 HD
BRANCH  30  32
HETATM   32  C10 UNL     1      25.713  48.805  64.863  1.00  0.00     0.143 A 
HETATM   33  C11 UNL     1      24.638  49.139  65.688  1.00  0.00     0.163 A 
HETATM   34  N13 UNL     1      24.009  48.156  66.338  1.00  0.00    -0.174 N 
HETATM   35  C16 UNL     1      24.381  46.850  66.220  1.00  0.00     0.680 A 
ATOM     36  H13 UNL     1      23.222  48.391  66.944  1.00  0.00     0.186 HD
HETATM   37  N15 UNL     1      25.418  46.554  65.420  1.00  0.00    -0.154 N 
HETATM   38  C17 UNL     1      26.103  47.491  64.730  1.00  0.00     0.289 A 
ATOM     39  H15 UNL     1      25.700  45.578  65.328  1.00  0.00     0.187 HD
HETATM   40  O4  UNL     1      27.070  47.125  63.992  1.00  0.00    -0.265 OA
BRANCH  33  41
HETATM   41  N11 UNL     1      24.192  50.480  65.863  1.00  0.00    -0.256 N 
HETATM   42  C12 UNL     1      23.019  50.849  65.278  1.00  0.00     0.128 A 
HETATM   43  C13 UNL     1      22.542  52.137  65.418  1.00  0.00     0.095 A 
HETATM   44 BR1  UNL     1      20.915  52.730  64.632  1.00  0.00    -0.044 Br
HETATM   45  C14 UNL     1      23.308  53.011  66.171  1.00  0.00     0.268 A 
HETATM   46  O2  UNL     1      22.878  54.192  66.304  1.00  0.00    -0.267 OA
HETATM   47  N12 UNL     1      24.476  52.628  66.749  1.00  0.00    -0.274 N 
HETATM   48  C15 UNL     1      24.895  51.363  66.580  1.00  0.00     0.335 A 
ATOM     49  H12 UNL     1      25.025  53.288  67.300  1.00  0.00     0.173 HD
HETATM   50  O3  UNL     1      25.968  50.963  67.096  1.00  0.00    -0.246 OA
ENDBRANCH  33  41
BRANCH  35  51
HETATM   51  N14 UNL     1      23.781  45.914  66.839  1.00  0.00    -0.234 N 
ATOM     52 2H14 UNL     1      23.066  46.146  67.527  1.00  0.00     0.174 HD
ATOM     53 1H14 UNL     1      23.990  44.929  66.672  1.00  0.00     0.174 HD
ENDBRANCH  35  51
ENDBRANCH  30  32
ENDBRANCH  29  30
ENDBRANCH  28  29
ENDBRANCH   1  28
TORSDOF 15
ENDMDL
MODEL 2
REMARK VINA RESULT: -10.072658617      1.276      1.426
REMARK  15 active torsions:
REMARK  status: ('A' for Active; 'I' for Inactive)
REMARK    1  A    between atoms: N1_2  and  C3_4 
REMARK    2  A    between atoms: C4_7  and  N3_8 
REMARK    3  A    between atoms: N3_8  and  N4_10 
REMARK    4  A    between atoms: N4_10  and  N5_12 
REMARK    5  A    between atoms: N5_12  and  N6_13 
REMARK    6  A    between atoms: N5_12  and  O1_16 
REMARK    7  A    between atoms: N7_18  and  N8_19 
REMARK    8  A    between atoms: C6_22  and  N9_23 
REMARK    9  A    between atoms: N9_23  and  C7_25 
REMARK   10  A    between atoms: C7_25  and  C8_26 
REMARK   11  A    between atoms: C8_26  and  C9_27 
REMARK   12  A    between atoms: C9_27  and  N10_28 
REMARK   13  A    between atoms: N10_28  and  C10_30 
REMARK   14  A    between atoms: C11_31  and  N11_32 
REMARK   15  A    between atoms: C16_44  and  N14_45 
ROOT
HETATM    1  C7  UNL     1      26.588  49.136  61.206  1.00  0.00     0.139 C 
ENDROOT
BRANCH   1   2
HETATM    2  N9  UNL     1      26.164  47.766  61.129  1.00  0.00    -0.223 N 
ATOM      3  H9  UNL     1      25.497  47.450  61.832  1.00  0.00     0.177 HD
BRANCH   2   4
HETATM    4  C6  UNL     1      26.543  46.909  60.267  1.00  0.00     0.728 A 
HETATM    5  N7  UNL     1      27.665  46.196  60.578  1.00  0.00     0.086 N 
HETATM    6  C4  UNL     1      28.164  45.271  59.766  1.00  0.00     0.750 A 
HETATM    7  N2  UNL     1      27.480  45.078  58.591  1.00  0.00    -0.018 N 
HETATM    8  C3  UNL     1      26.392  45.752  58.263  1.00  0.00     0.708 A 
ATOM      9  H2  UNL     1      27.830  44.376  57.938  1.00  0.00     0.203 HD
HETATM   10  N16 UNL     1      25.916  46.681  59.111  1.00  0.00    -0.020 N 
ATOM     11  H16 UNL     1      25.078  47.211  58.871  1.00  0.00     0.203 HD
BRANCH   5  12
HETATM   12  N8  UNL     1      28.317  46.446  61.803  1.00  0.00    -0.309 N 
ATOM     13  H82 UNL     1      28.712  45.663  62.322  1.00  0.00     0.178 HD
ATOM     14  H81 UNL     1      28.378  47.407  62.139  1.00  0.00     0.178 HD
ENDBRANCH   5  12
BRANCH   6  15
HETATM   15  N3  UNL     1      29.300  44.480  59.967  1.00  0.00    -0.108 N 
HETATM   16  C5  UNL     1      29.275  43.071  60.236  1.00  0.00     0.199 C 
BRANCH  15  17
HETATM   17  N4  UNL     1      30.584  45.068  59.909  1.00  0.00    -0.185 N 
ATOM     18  H4  UNL     1      30.912  45.529  59.060  1.00  0.00     0.213 HD
BRANCH  17  19
HETATM   19  N5  UNL     1      31.386  45.002  61.036  1.00  0.00    -0.086 N 
BRANCH  19  20
HETATM   20  N6  UNL     1      32.774  44.863  60.827  1.00  0.00    -0.302 N 
ATOM     21  H62 UNL     1      33.406  45.188  61.559  1.00  0.00     0.181 HD
ATOM     22  H61 UNL     1      33.069  44.442  59.946  1.00  0.00     0.181 HD
ENDBRANCH  19  20
BRANCH  19  23
HETATM   23  O1  UNL     1      30.974  45.056  62.208  1.00  0.00    -0.253 OA
ATOM     24  H1  UNL     1      31.477  44.807  62.974  1.00  0.00     0.248 HD
ENDBRANCH  19  23
ENDBRANCH  17  19
ENDBRANCH  15  17
ENDBRANCH   6  15
BRANCH   8  25
HETATM   25  N1  UNL     1      25.741  45.487  57.019  1.00  0.00    -0.225 N 
HETATM   26  C1  UNL     1      26.351  44.557  56.108  1.00  0.00     0.168 C 
HETATM   27  C2  UNL     1      24.512  46.133  56.681  1.00  0.00     0.168 C 
ENDBRANCH   8  25
ENDBRANCH   2   4
ENDBRANCH   1   2
BRANCH   1  28
HETATM   28  C8  UNL     1      25.681  49.869  62.203  1.00  0.00     0.040 C 
BRANCH  28  29
HETATM   29  C9  UNL     1      26.556  50.562  63.189  1.00  0.00     0.121 C 
BRANCH  29  30
HETATM   30  N10 UNL     1      26.577  50.037  64.508  1.00  0.00    -0.382 N 
ATOM     31  H10 UNL     1      27.204  50.514  65.156  1.00  0.00     0.160 HD
BRANCH  30  32
HETATM   32  C10 UNL     1      25.858  48.953  65.052  1.00  0.00     0.143 A 
HETATM   33  C11 UNL     1      24.675  49.249  65.732  1.00  0.00     0.163 A 
HETATM   34  N13 UNL     1      23.965  48.236  66.236  1.00  0.00    -0.174 N 
HETATM   35  C16 UNL     1      24.355  46.937  66.108  1.00  0.00     0.680 A 
ATOM     36  H13 UNL     1      23.099  48.443  66.735  1.00  0.00     0.186 HD
HETATM   37  N15 UNL     1      25.497  46.678  65.450  1.00  0.00    -0.154 N 
HETATM   38  C17 UNL     1      26.269  47.647  64.912  1.00  0.00     0.289 A 
ATOM     39  H15 UNL     1      25.794  45.708  65.352  1.00  0.00     0.187 HD
HETATM   40  O4  UNL     1      27.332  47.316  64.301  1.00  0.00    -0.265 OA
BRANCH  33  41
HETATM   41  N11 UNL     1      24.202  50.581  65.908  1.00  0.00    -0.256 N 
HETATM   42  C12 UNL     1      24.694  51.305  66.951  1.00  0.00     0.128 A 
HETATM   43  C13 UNL     1      24.268  52.601  67.165  1.00  0.00     0.095 A 
HETATM   44 BR1  UNL     1      24.905  53.677  68.597  1.00  0.00    -0.044 Br
HETATM   45  C14 UNL     1      23.334  53.109  66.277  1.00  0.00     0.268 A 
HETATM   46  O2  UNL     1      22.940  54.295  66.466  1.00  0.00    -0.267 OA
HETATM   47  N12 UNL     1      22.853  52.374  65.241  1.00  0.00    -0.274 N 
HETATM   48  C15 UNL     1      23.300  51.118  65.079  1.00  0.00     0.335 A 
ATOM     49  H12 UNL     1      22.166  52.768  64.599  1.00  0.00     0.173 HD
HETATM   50  O3  UNL     1      22.885  50.401  64.136  1.00  0.00    -0.246 OA
ENDBRANCH  33  41
BRANCH  35  51
HETATM   51  N14 UNL     1      23.679  45.973  66.589  1.00  0.00    -0.234 N 
ATOM     52 2H14 UNL     1      22.820  45.682  66.123  1.00  0.00     0.174 HD
ATOM     53 1H14 UNL     1      23.964  45.474  67.431  1.00  0.00     0.174 HD
ENDBRANCH  35  51
ENDBRANCH  30  32
ENDBRANCH  29  30
ENDBRANCH  28  29
ENDBRANCH   1  28
TORSDOF 15
ENDMDL
MODEL 3
REMARK VINA RESULT: -9.357401756      1.737      3.686
REMARK  15 active torsions:
REMARK  status: ('A' for Active; 'I' for Inactive)
REMARK    1  A    between atoms: N1_2  and  C3_4 
REMARK    2  A    between atoms: C4_7  and  N3_8 
REMARK    3  A    between atoms: N3_8  and  N4_10 
REMARK    4  A    between atoms: N4_10  and  N5_12 
REMARK    5  A    between atoms: N5_12  and  N6_13 
REMARK    6  A    between atoms: N5_12  and  O1_16 
REMARK    7  A    between atoms: N7_18  and  N8_19 
REMARK    8  A    between atoms: C6_22  and  N9_23 
REMARK    9  A    between atoms: N9_23  and  C7_25 
REMARK   10  A    between atoms: C7_25  and  C8_26 
REMARK   11  A    between atoms: C8_26  and  C9_27 
REMARK   12  A    between atoms: C9_27  and  N10_28 
REMARK   13  A    between atoms: N10_28  and  C10_30 
REMARK   14  A    between atoms: C11_31  and  N11_32 
REMARK   15  A    between atoms: C16_44  and  N14_45 
ROOT
HETATM    1  C7  UNL     1      26.784  49.129  61.328  1.00  0.00     0.139 C 
ENDROOT
BRANCH   1   2
HETATM    2  N9  UNL     1      26.356  47.761  61.240  1.00  0.00    -0.223 N 
ATOM      3  H9  UNL     1      25.490  47.517  61.720  1.00  0.00     0.177 HD
BRANCH   2   4
HETATM    4  C6  UNL     1      26.955  46.824  60.620  1.00  0.00     0.728 A 
HETATM    5  N7  UNL     1      26.419  46.455  59.420  1.00  0.00     0.086 N 
HETATM    6  C4  UNL     1      26.947  45.492  58.674  1.00  0.00     0.750 A 
HETATM    7  N2  UNL     1      28.067  44.887  59.188  1.00  0.00    -0.018 N 
HETATM    8  C3  UNL     1      28.609  45.221  60.346  1.00  0.00     0.708 A 
ATOM      9  H2  UNL     1      28.506  44.141  58.647  1.00  0.00     0.203 HD
HETATM   10  N16 UNL     1      28.045  46.202  61.074  1.00  0.00    -0.020 N 
ATOM     11  H16 UNL     1      28.451  46.471  61.971  1.00  0.00     0.203 HD
BRANCH   5  12
HETATM   12  N8  UNL     1      25.266  47.120  58.953  1.00  0.00    -0.309 N 
ATOM     13  H82 UNL     1      25.372  48.004  58.456  1.00  0.00     0.178 HD
ATOM     14  H81 UNL     1      24.354  46.698  59.122  1.00  0.00     0.178 HD
ENDBRANCH   5  12
BRANCH   6  15
HETATM   15  N3  UNL     1      26.494  45.024  57.436  1.00  0.00    -0.108 N 
HETATM   16  C5  UNL     1      27.290  44.275  56.507  1.00  0.00     0.199 C 
BRANCH  15  17
HETATM   17  N4  UNL     1      25.165  45.284  57.031  1.00  0.00    -0.185 N 
ATOM     18  H4  UNL     1      24.443  45.505  57.716  1.00  0.00     0.213 HD
BRANCH  17  19
HETATM   19  N5  UNL     1      24.870  45.230  55.680  1.00  0.00    -0.086 N 
BRANCH  19  20
HETATM   20  N6  UNL     1      23.937  46.169  55.191  1.00  0.00    -0.302 N 
ATOM     21  H62 UNL     1      23.451  46.760  55.866  1.00  0.00     0.181 HD
ATOM     22  H61 UNL     1      23.801  46.203  54.181  1.00  0.00     0.181 HD
ENDBRANCH  19  20
BRANCH  19  23
HETATM   23  O1  UNL     1      25.362  44.422  54.874  1.00  0.00    -0.253 OA
ATOM     24  H1  UNL     1      26.289  44.341  54.681  1.00  0.00     0.248 HD
ENDBRANCH  19  23
ENDBRANCH  17  19
ENDBRANCH  15  17
ENDBRANCH   6  15
BRANCH   8  25
HETATM   25  N1  UNL     1      29.777  44.541  60.807  1.00  0.00    -0.225 N 
HETATM   26  C1  UNL     1      29.671  43.147  61.146  1.00  0.00     0.168 C 
HETATM   27  C2  UNL     1      31.025  45.224  60.933  1.00  0.00     0.168 C 
ENDBRANCH   8  25
ENDBRANCH   2   4
ENDBRANCH   1   2
BRANCH   1  28
HETATM   28  C8  UNL     1      25.773  49.900  62.186  1.00  0.00     0.040 C 
BRANCH  28  29
HETATM   29  C9  UNL     1      26.524  50.566  63.286  1.00  0.00     0.121 C 
BRANCH  29  30
HETATM   30  N10 UNL     1      26.728  49.813  64.471  1.00  0.00    -0.382 N 
ATOM     31  H10 UNL     1      27.550  50.072  65.017  1.00  0.00     0.160 HD
BRANCH  30  32
HETATM   32  C10 UNL     1      25.959  48.757  65.005  1.00  0.00     0.143 A 
HETATM   33  C11 UNL     1      24.820  49.103  65.734  1.00  0.00     0.163 A 
HETATM   34  N13 UNL     1      24.063  48.120  66.230  1.00  0.00    -0.174 N 
HETATM   35  C16 UNL     1      24.367  46.804  66.047  1.00  0.00     0.680 A 
ATOM     36  H13 UNL     1      23.229  48.363  66.764  1.00  0.00     0.186 HD
HETATM   37  N15 UNL     1      25.468  46.497  65.343  1.00  0.00    -0.154 N 
HETATM   38  C17 UNL     1      26.282  47.433  64.810  1.00  0.00     0.289 A 
ATOM     39  H15 UNL     1      25.700  45.514  65.204  1.00  0.00     0.187 HD
HETATM   40  O4  UNL     1      27.302  47.058  64.153  1.00  0.00    -0.265 OA
BRANCH  33  41
HETATM   41  N11 UNL     1      24.438  50.455  65.968  1.00  0.00    -0.256 N 
HETATM   42  C12 UNL     1      23.281  50.902  65.407  1.00  0.00     0.128 A 
HETATM   43  C13 UNL     1      22.865  52.204  65.604  1.00  0.00     0.095 A 
HETATM   44 BR1  UNL     1      21.264  52.905  64.856  1.00  0.00    -0.044 Br
HETATM   45  C14 UNL     1      23.675  53.009  66.387  1.00  0.00     0.268 A 
HETATM   46  O2  UNL     1      23.302  54.202  66.572  1.00  0.00    -0.267 OA
HETATM   47  N12 UNL     1      24.828  52.548  66.940  1.00  0.00    -0.274 N 
HETATM   48  C15 UNL     1      25.185  51.273  66.716  1.00  0.00     0.335 A 
ATOM     49  H12 UNL     1      25.409  53.158  67.514  1.00  0.00     0.173 HD
HETATM   50  O3  UNL     1      26.241  50.803  67.206  1.00  0.00    -0.246 OA
ENDBRANCH  33  41
BRANCH  35  51
HETATM   51  N14 UNL     1      23.646  45.869  66.520  1.00  0.00    -0.234 N 
ATOM     52 2H14 UNL     1      22.700  45.736  66.164  1.00  0.00     0.174 HD
ATOM     53 1H14 UNL     1      23.981  45.238  67.249  1.00  0.00     0.174 HD
ENDBRANCH  35  51
ENDBRANCH  30  32
ENDBRANCH  29  30
ENDBRANCH  28  29
ENDBRANCH   1  28
TORSDOF 15
ENDMDL
MODEL 4
REMARK VINA RESULT: -9.232941418      4.420      8.231
REMARK  15 active torsions:
REMARK  status: ('A' for Active; 'I' for Inactive)
REMARK    1  A    between atoms: N1_2  and  C3_4 
REMARK    2  A    between atoms: C4_7  and  N3_8 
REMARK    3  A    between atoms: N3_8  and  N4_10 
REMARK    4  A    between atoms: N4_10  and  N5_12 
REMARK    5  A    between atoms: N5_12  and  N6_13 
REMARK    6  A    between atoms: N5_12  and  O1_16 
REMARK    7  A    between atoms: N7_18  and  N8_19 
REMARK    8  A    between atoms: C6_22  and  N9_23 
REMARK    9  A    between atoms: N9_23  and  C7_25 
REMARK   10  A    between atoms: C7_25  and  C8_26 
REMARK   11  A    between atoms: C8_26  and  C9_27 
REMARK   12  A    between atoms: C9_27  and  N10_28 
REMARK   13  A    between atoms: N10_28  and  C10_30 
REMARK   14  A    between atoms: C11_31  and  N11_32 
REMARK   15  A    between atoms: C16_44  and  N14_45 
ROOT
HETATM    1  C7  UNL     1      25.335  45.518  56.622  1.00  0.00     0.139 C 
ENDROOT
BRANCH   1   2
HETATM    2  N9  UNL     1      24.346  46.350  55.995  1.00  0.00    -0.223 N 
ATOM      3  H9  UNL     1      24.318  47.329  56.282  1.00  0.00     0.177 HD
BRANCH   2   4
HETATM    4  C6  UNL     1      23.501  45.983  55.117  1.00  0.00     0.728 A 
HETATM    5  N7  UNL     1      22.882  46.981  54.421  1.00  0.00     0.086 N 
HETATM    6  C4  UNL     1      21.980  46.733  53.478  1.00  0.00     0.750 A 
HETATM    7  N2  UNL     1      21.709  45.407  53.246  1.00  0.00    -0.018 N 
HETATM    8  C3  UNL     1      22.292  44.419  53.903  1.00  0.00     0.708 A 
ATOM      9  H2  UNL     1      21.022  45.172  52.529  1.00  0.00     0.203 HD
HETATM   10  N16 UNL     1      23.200  44.710  54.853  1.00  0.00    -0.020 N 
ATOM     11  H16 UNL     1      23.657  43.959  55.369  1.00  0.00     0.203 HD
BRANCH   5  12
HETATM   12  N8  UNL     1      23.209  48.322  54.710  1.00  0.00    -0.309 N 
ATOM     13  H82 UNL     1      23.252  48.622  55.684  1.00  0.00     0.178 HD
ATOM     14  H81 UNL     1      23.397  48.958  53.937  1.00  0.00     0.178 HD
ENDBRANCH   5  12
BRANCH   6  15
HETATM   15  N3  UNL     1      21.279  47.661  52.700  1.00  0.00    -0.108 N 
HETATM   16  C5  UNL     1      21.791  48.284  51.515  1.00  0.00     0.199 C 
BRANCH  15  17
HETATM   17  N4  UNL     1      19.968  48.039  53.072  1.00  0.00    -0.185 N 
ATOM     18  H4  UNL     1      19.154  47.595  52.646  1.00  0.00     0.213 HD
BRANCH  17  19
HETATM   19  N5  UNL     1      19.819  49.028  54.029  1.00  0.00    -0.086 N 
BRANCH  19  20
HETATM   20  N6  UNL     1      18.586  49.075  54.714  1.00  0.00    -0.302 N 
ATOM     21  H62 UNL     1      18.474  48.491  55.543  1.00  0.00     0.181 HD
ATOM     22  H61 UNL     1      17.871  49.696  54.336  1.00  0.00     0.181 HD
ENDBRANCH  19  20
BRANCH  19  23
HETATM   23  O1  UNL     1      20.684  49.870  54.326  1.00  0.00    -0.253 OA
ATOM     24  H1  UNL     1      20.556  50.595  54.925  1.00  0.00     0.248 HD
ENDBRANCH  19  23
ENDBRANCH  17  19
ENDBRANCH  15  17
ENDBRANCH   6  15
BRANCH   8  25
HETATM   25  N1  UNL     1      21.952  43.066  53.599  1.00  0.00    -0.225 N 
HETATM   26  C1  UNL     1      20.692  42.553  54.065  1.00  0.00     0.168 C 
HETATM   27  C2  UNL     1      22.840  42.235  52.851  1.00  0.00     0.168 C 
ENDBRANCH   8  25
ENDBRANCH   2   4
ENDBRANCH   1   2
BRANCH   1  28
HETATM   28  C8  UNL     1      25.637  46.088  58.014  1.00  0.00     0.040 C 
BRANCH  28  29
HETATM   29  C9  UNL     1      25.878  44.941  58.932  1.00  0.00     0.121 C 
BRANCH  29  30
HETATM   30  N10 UNL     1      26.580  45.218  60.135  1.00  0.00    -0.382 N 
ATOM     31  H10 UNL     1      26.000  45.508  60.922  1.00  0.00     0.160 HD
BRANCH  30  32
HETATM   32  C10 UNL     1      27.964  45.151  60.399  1.00  0.00     0.143 A 
HETATM   33  C11 UNL     1      28.548  46.253  61.027  1.00  0.00     0.163 A 
HETATM   34  N13 UNL     1      29.853  46.204  61.308  1.00  0.00    -0.174 N 
HETATM   35  C16 UNL     1      30.623  45.121  61.004  1.00  0.00     0.680 A 
ATOM     36  H13 UNL     1      30.288  47.004  61.767  1.00  0.00     0.186 HD
HETATM   37  N15 UNL     1      30.038  44.074  60.401  1.00  0.00    -0.154 N 
HETATM   38  C17 UNL     1      28.726  44.049  60.085  1.00  0.00     0.289 A 
ATOM     39  H15 UNL     1      30.610  43.261  60.170  1.00  0.00     0.187 HD
HETATM   40  O4  UNL     1      28.250  43.016  59.517  1.00  0.00    -0.265 OA
BRANCH  33  41
HETATM   41  N11 UNL     1      27.810  47.420  61.375  1.00  0.00    -0.256 N 
HETATM   42  C12 UNL     1      27.222  47.467  62.603  1.00  0.00     0.128 A 
HETATM   43  C13 UNL     1      26.496  48.577  62.989  1.00  0.00     0.095 A 
HETATM   44 BR1  UNL     1      25.646  48.719  64.684  1.00  0.00    -0.044 Br
HETATM   45  C14 UNL     1      26.402  49.613  62.076  1.00  0.00     0.268 A 
HETATM   46  O2  UNL     1      25.739  50.632  62.421  1.00  0.00    -0.267 OA
HETATM   47  N12 UNL     1      26.994  49.551  60.854  1.00  0.00    -0.274 N 
HETATM   48  C15 UNL     1      27.688  48.449  60.529  1.00  0.00     0.335 A 
ATOM     49  H12 UNL     1      26.912  50.327  60.197  1.00  0.00     0.173 HD
HETATM   50  O3  UNL     1      28.252  48.347  59.412  1.00  0.00    -0.246 OA
ENDBRANCH  33  41
BRANCH  35  51
HETATM   51  N14 UNL     1      31.865  45.074  61.272  1.00  0.00    -0.234 N 
ATOM     52 2H14 UNL     1      32.438  44.334  60.868  1.00  0.00     0.174 HD
ATOM     53 1H14 UNL     1      32.318  45.757  61.882  1.00  0.00     0.174 HD
ENDBRANCH  35  51
ENDBRANCH  30  32
ENDBRANCH  29  30
ENDBRANCH  28  29
ENDBRANCH   1  28
TORSDOF 15
ENDMDL
MODEL 5
REMARK VINA RESULT: -9.194053375      4.375      8.082
REMARK  15 active torsions:
REMARK  status: ('A' for Active; 'I' for Inactive)
REMARK    1  A    between atoms: N1_2  and  C3_4 
REMARK    2  A    between atoms: C4_7  and  N3_8 
REMARK    3  A    between atoms: N3_8  and  N4_10 
REMARK    4  A    between atoms: N4_10  and  N5_12 
REMARK    5  A    between atoms: N5_12  and  N6_13 
REMARK    6  A    between atoms: N5_12  and  O1_16 
REMARK    7  A    between atoms: N7_18  and  N8_19 
REMARK    8  A    between atoms: C6_22  and  N9_23 
REMARK    9  A    between atoms: N9_23  and  C7_25 
REMARK   10  A    between atoms: C7_25  and  C8_26 
REMARK   11  A    between atoms: C8_26  and  C9_27 
REMARK   12  A    between atoms: C9_27  and  N10_28 
REMARK   13  A    between atoms: N10_28  and  C10_30 
REMARK   14  A    between atoms: C11_31  and  N11_32 
REMARK   15  A    between atoms: C16_44  and  N14_45 
ROOT
HETATM    1  C7  UNL     1      25.341  45.470  56.688  1.00  0.00     0.139 C 
ENDROOT
BRANCH   1   2
HETATM    2  N9  UNL     1      24.415  46.359  56.043  1.00  0.00    -0.223 N 
ATOM      3  H9  UNL     1      24.450  47.341  56.320  1.00  0.00     0.177 HD
BRANCH   2   4
HETATM    4  C6  UNL     1      23.556  46.040  55.160  1.00  0.00     0.728 A 
HETATM    5  N7  UNL     1      22.929  47.073  54.527  1.00  0.00     0.086 N 
HETATM    6  C4  UNL     1      22.012  46.876  53.586  1.00  0.00     0.750 A 
HETATM    7  N2  UNL     1      21.734  45.565  53.291  1.00  0.00    -0.018 N 
HETATM    8  C3  UNL     1      22.324  44.543  53.886  1.00  0.00     0.708 A 
ATOM      9  H2  UNL     1      21.035  45.368  52.573  1.00  0.00     0.203 HD
HETATM   10  N16 UNL     1      23.247  44.782  54.835  1.00  0.00    -0.020 N 
ATOM     11  H16 UNL     1      23.710  44.004  55.305  1.00  0.00     0.203 HD
BRANCH   5  12
HETATM   12  N8  UNL     1      23.264  48.397  54.880  1.00  0.00    -0.309 N 
ATOM     13  H82 UNL     1      22.606  49.147  54.673  1.00  0.00     0.178 HD
ATOM     14  H81 UNL     1      24.159  48.570  55.337  1.00  0.00     0.178 HD
ENDBRANCH   5  12
BRANCH   6  15
HETATM   15  N3  UNL     1      21.301  47.845  52.869  1.00  0.00    -0.108 N 
HETATM   16  C5  UNL     1      20.011  48.350  53.239  1.00  0.00     0.199 C 
BRANCH  15  17
HETATM   17  N4  UNL     1      21.856  48.392  51.689  1.00  0.00    -0.185 N 
ATOM     18  H4  UNL     1      21.560  48.063  50.770  1.00  0.00     0.213 HD
BRANCH  17  19
HETATM   19  N5  UNL     1      22.811  49.386  51.815  1.00  0.00    -0.086 N 
BRANCH  19  20
HETATM   20  N6  UNL     1      23.939  49.300  50.971  1.00  0.00    -0.302 N 
ATOM     21  H62 UNL     1      24.229  48.376  50.649  1.00  0.00     0.181 HD
ATOM     22  H61 UNL     1      24.402  50.175  50.728  1.00  0.00     0.181 HD
ENDBRANCH  19  20
BRANCH  19  23
HETATM   23  O1  UNL     1      22.747  50.340  52.609  1.00  0.00    -0.253 OA
ATOM     24  H1  UNL     1      22.967  51.240  52.400  1.00  0.00     0.248 HD
ENDBRANCH  19  23
ENDBRANCH  17  19
ENDBRANCH  15  17
ENDBRANCH   6  15
BRANCH   8  25
HETATM   25  N1  UNL     1      21.975  43.208  53.518  1.00  0.00    -0.225 N 
HETATM   26  C1  UNL     1      20.631  42.758  53.759  1.00  0.00     0.168 C 
HETATM   27  C2  UNL     1      22.937  42.334  52.926  1.00  0.00     0.168 C 
ENDBRANCH   8  25
ENDBRANCH   2   4
ENDBRANCH   1   2
BRANCH   1  28
HETATM   28  C8  UNL     1      25.654  46.024  58.084  1.00  0.00     0.040 C 
BRANCH  28  29
HETATM   29  C9  UNL     1      25.991  44.871  58.965  1.00  0.00     0.121 C 
BRANCH  29  30
HETATM   30  N10 UNL     1      26.690  45.164  60.165  1.00  0.00    -0.382 N 
ATOM     31  H10 UNL     1      26.106  45.443  60.953  1.00  0.00     0.160 HD
BRANCH  30  32
HETATM   32  C10 UNL     1      28.075  45.124  60.427  1.00  0.00     0.143 A 
HETATM   33  C11 UNL     1      28.641  46.242  61.043  1.00  0.00     0.163 A 
HETATM   34  N13 UNL     1      29.947  46.218  61.322  1.00  0.00    -0.174 N 
HETATM   35  C16 UNL     1      30.736  45.147  61.025  1.00  0.00     0.680 A 
ATOM     36  H13 UNL     1      30.369  47.031  61.772  1.00  0.00     0.186 HD
HETATM   37  N15 UNL     1      30.169  44.084  60.433  1.00  0.00    -0.154 N 
HETATM   38  C17 UNL     1      28.856  44.033  60.120  1.00  0.00     0.289 A 
ATOM     39  H15 UNL     1      30.755  43.280  60.208  1.00  0.00     0.187 HD
HETATM   40  O4  UNL     1      28.398  42.987  59.564  1.00  0.00    -0.265 OA
BRANCH  33  41
HETATM   41  N11 UNL     1      27.882  47.399  61.382  1.00  0.00    -0.256 N 
HETATM   42  C12 UNL     1      27.280  47.437  62.603  1.00  0.00     0.128 A 
HETATM   43  C13 UNL     1      26.534  48.536  62.981  1.00  0.00     0.095 A 
HETATM   44 BR1  UNL     1      25.662  48.666  64.665  1.00  0.00    -0.044 Br
HETATM   45  C14 UNL     1      26.437  49.572  62.067  1.00  0.00     0.268 A 
HETATM   46  O2  UNL     1      25.756  50.582  62.405  1.00  0.00    -0.267 OA
HETATM   47  N12 UNL     1      27.044  49.519  60.852  1.00  0.00    -0.274 N 
HETATM   48  C15 UNL     1      27.757  48.426  60.536  1.00  0.00     0.335 A 
ATOM     49  H12 UNL     1      26.960  50.294  60.195  1.00  0.00     0.173 HD
HETATM   50  O3  UNL     1      28.336  48.332  59.425  1.00  0.00    -0.246 OA
ENDBRANCH  33  41
BRANCH  35  51
HETATM   51  N14 UNL     1      31.980  45.125  61.290  1.00  0.00    -0.234 N 
ATOM     52 2H14 UNL     1      32.539  44.322  61.006  1.00  0.00     0.174 HD
ATOM     53 1H14 UNL     1      32.446  45.889  61.781  1.00  0.00     0.174 HD
ENDBRANCH  35  51
ENDBRANCH  30  32
ENDBRANCH  29  30
ENDBRANCH  28  29
ENDBRANCH   1  28
TORSDOF 15
ENDMDL
