MODEL 1
REMARK VINA RESULT: -6.508085441      0.000      0.000
REMARK  9 active torsions:
REMARK  status: ('A' for Active; 'I' for Inactive)
REMARK    1  A    between atoms: C4_6  and  N2_7 
REMARK    2  A    between atoms: N5_16  and  C7_17 
REMARK    3  A    between atoms: C7_17  and  C8_18 
REMARK    4  A    between atoms: C8_18  and  N6_19 
REMARK    5  A    between atoms: N6_19  and  C9_22 
REMARK    6  A    between atoms: C9_22  and  C10_23 
REMARK    7  A    between atoms: C10_23  and  S1_24 
REMARK    8  A    between atoms: S1_24  and  C11_25 
REMARK    9  A    between atoms: C11_25  and  C12_26 
ROOT
HETATM    1  C1  UNL     1      55.068  -5.950  13.005  1.00  0.00     0.089 C 
HETATM    2  C2  UNL     1      55.587  -7.088  13.842  1.00  0.00     0.081 A 
HETATM    3  N1  UNL     1      54.948  -7.680  14.864  1.00  0.00    -0.340 N 
ATOM      4  H1  UNL     1      54.019  -7.418  15.195  1.00  0.00     0.167 HD
HETATM    5  C3  UNL     1      55.696  -8.664  15.394  1.00  0.00     0.122 A 
HETATM    6  C4  UNL     1      55.524  -9.569  16.436  1.00  0.00     0.131 A 
HETATM    7  N3  UNL     1      56.477 -10.479  16.754  1.00  0.00    -0.337 N 
ATOM      8  H3  UNL     1      56.344 -11.140  17.518  1.00  0.00     0.168 HD
HETATM    9  C5  UNL     1      57.603 -10.476  16.023  1.00  0.00     0.183 A 
HETATM   10  N4  UNL     1      57.776  -9.605  15.015  1.00  0.00    -0.336 N 
ATOM     11  H4  UNL     1      58.650  -9.645  14.489  1.00  0.00     0.168 HD
HETATM   12  C6  UNL     1      56.864  -8.682  14.656  1.00  0.00     0.141 A 
HETATM   13  N5  UNL     1      56.772  -7.713  13.718  1.00  0.00    -0.319 N 
ENDROOT
BRANCH  13  14
HETATM   14  C7  UNL     1      57.796  -7.431  12.762  1.00  0.00     0.159 C 
BRANCH  14  15
HETATM   15  C8  UNL     1      57.905  -8.399  11.639  1.00  0.00     0.252 C 
BRANCH  15  16
HETATM   16  N6  UNL     1      59.221  -8.628  11.134  1.00  0.00    -0.073 N 
ATOM     17  H62 UNL     1      59.291  -9.461  10.550  1.00  0.00     0.277 HD
ATOM     18  H61 UNL     1      59.506  -7.952  10.425  1.00  0.00     0.277 HD
BRANCH  16  19
HETATM   19  C9  UNL     1      60.115  -8.660  12.304  1.00  0.00     0.242 C 
BRANCH  19  20
HETATM   20  C10 UNL     1      61.387  -7.892  12.015  1.00  0.00     0.101 C 
BRANCH  20  21
HETATM   21  S1  UNL     1      62.558  -8.828  11.046  1.00  0.00    -0.167 SA
BRANCH  21  22
HETATM   22  C11 UNL     1      62.634 -10.569  11.344  1.00  0.00     0.077 C 
BRANCH  22  23
HETATM   23  C12 UNL     1      62.668 -11.466  10.143  1.00  0.00    -0.013 C 
HETATM   24  C13 UNL     1      63.648 -11.000   9.106  1.00  0.00     0.010 C 
HETATM   25  C14 UNL     1      63.014 -12.899  10.580  1.00  0.00     0.010 C 
ENDBRANCH  22  23
ENDBRANCH  21  22
ENDBRANCH  20  21
ENDBRANCH  19  20
ENDBRANCH  16  19
ENDBRANCH  15  16
ENDBRANCH  14  15
ENDBRANCH  13  14
BRANCH   6  26
HETATM   26  N2  UNL     1      54.415  -9.506  17.088  1.00  0.00    -0.383 N 
ATOM     27  H22 UNL     1      53.632 -10.119  16.862  1.00  0.00     0.157 HD
ATOM     28  H21 UNL     1      54.357  -8.817  17.838  1.00  0.00     0.157 HD
ENDBRANCH   6  26
TORSDOF 9
ENDMDL
MODEL 2
REMARK VINA RESULT: -6.305969277      1.288      1.652
REMARK  9 active torsions:
REMARK  status: ('A' for Active; 'I' for Inactive)
REMARK    1  A    between atoms: C4_6  and  N2_7 
REMARK    2  A    between atoms: N5_16  and  C7_17 
REMARK    3  A    between atoms: C7_17  and  C8_18 
REMARK    4  A    between atoms: C8_18  and  N6_19 
REMARK    5  A    between atoms: N6_19  and  C9_22 
REMARK    6  A    between atoms: C9_22  and  C10_23 
REMARK    7  A    between atoms: C10_23  and  S1_24 
REMARK    8  A    between atoms: S1_24  and  C11_25 
REMARK    9  A    between atoms: C11_25  and  C12_26 
ROOT
HETATM    1  C1  UNL     1      55.057  -5.985  13.002  1.00  0.00     0.089 C 
HETATM    2  C2  UNL     1      55.582  -7.116  13.843  1.00  0.00     0.081 A 
HETATM    3  N1  UNL     1      54.941  -7.719  14.859  1.00  0.00    -0.340 N 
ATOM      4  H1  UNL     1      54.006  -7.469  15.180  1.00  0.00     0.167 HD
HETATM    5  C3  UNL     1      55.697  -8.692  15.395  1.00  0.00     0.122 A 
HETATM    6  C4  UNL     1      55.526  -9.601  16.435  1.00  0.00     0.131 A 
HETATM    7  N3  UNL     1      56.488 -10.498  16.762  1.00  0.00    -0.337 N 
ATOM      8  H3  UNL     1      56.355 -11.162  17.524  1.00  0.00     0.168 HD
HETATM    9  C5  UNL     1      57.621 -10.480  16.043  1.00  0.00     0.183 A 
HETATM   10  N4  UNL     1      57.793  -9.605  15.037  1.00  0.00    -0.336 N 
ATOM     11  H4  UNL     1      58.673  -9.633  14.521  1.00  0.00     0.168 HD
HETATM   12  C6  UNL     1      56.873  -8.694  14.670  1.00  0.00     0.141 A 
HETATM   13  N5  UNL     1      56.778  -7.725  13.732  1.00  0.00    -0.319 N 
ENDROOT
BRANCH  13  14
HETATM   14  C7  UNL     1      57.807  -7.429  12.786  1.00  0.00     0.159 C 
BRANCH  14  15
HETATM   15  C8  UNL     1      57.947  -8.399  11.669  1.00  0.00     0.252 C 
BRANCH  15  16
HETATM   16  N6  UNL     1      59.261  -8.551  11.132  1.00  0.00    -0.073 N 
ATOM     17  H62 UNL     1      59.342  -9.327  10.474  1.00  0.00     0.277 HD
ATOM     18  H61 UNL     1      59.522  -7.808  10.484  1.00  0.00     0.277 HD
BRANCH  16  19
HETATM   19  C9  UNL     1      60.171  -8.668  12.284  1.00  0.00     0.242 C 
BRANCH  19  20
HETATM   20  C10 UNL     1      61.568  -8.233  11.898  1.00  0.00     0.101 C 
BRANCH  20  21
HETATM   21  S1  UNL     1      62.538  -9.558  11.195  1.00  0.00    -0.167 SA
BRANCH  21  22
HETATM   22  C11 UNL     1      64.107  -9.124  10.507  1.00  0.00     0.077 C 
BRANCH  22  23
HETATM   23  C12 UNL     1      64.102  -8.209   9.319  1.00  0.00    -0.013 C 
HETATM   24  C13 UNL     1      65.351  -7.381   9.227  1.00  0.00     0.010 C 
HETATM   25  C14 UNL     1      63.928  -9.035   8.034  1.00  0.00     0.010 C 
ENDBRANCH  22  23
ENDBRANCH  21  22
ENDBRANCH  20  21
ENDBRANCH  19  20
ENDBRANCH  16  19
ENDBRANCH  15  16
ENDBRANCH  14  15
ENDBRANCH  13  14
BRANCH   6  26
HETATM   26  N2  UNL     1      54.410  -9.553  17.075  1.00  0.00    -0.383 N 
ATOM     27  H22 UNL     1      54.385  -9.499  18.094  1.00  0.00     0.157 HD
ATOM     28  H21 UNL     1      53.555  -9.573  16.519  1.00  0.00     0.157 HD
ENDBRANCH   6  26
TORSDOF 9
ENDMDL
MODEL 3
REMARK VINA RESULT: -6.036312962      4.095      9.225
REMARK  9 active torsions:
REMARK  status: ('A' for Active; 'I' for Inactive)
REMARK    1  A    between atoms: C4_6  and  N2_7 
REMARK    2  A    between atoms: N5_16  and  C7_17 
REMARK    3  A    between atoms: C7_17  and  C8_18 
REMARK    4  A    between atoms: C8_18  and  N6_19 
REMARK    5  A    between atoms: N6_19  and  C9_22 
REMARK    6  A    between atoms: C9_22  and  C10_23 
REMARK    7  A    between atoms: C10_23  and  S1_24 
REMARK    8  A    between atoms: S1_24  and  C11_25 
REMARK    9  A    between atoms: C11_25  and  C12_26 
ROOT
HETATM    1  C1  UNL     1      63.138 -12.163  10.710  1.00  0.00     0.089 C 
HETATM    2  C2  UNL     1      63.476 -11.102   9.698  1.00  0.00     0.081 A 
HETATM    3  N1  UNL     1      63.696 -11.293   8.387  1.00  0.00    -0.340 N 
ATOM      4  H1  UNL     1      63.658 -12.199   7.920  1.00  0.00     0.167 HD
HETATM    5  C3  UNL     1      63.973 -10.130   7.771  1.00  0.00     0.122 A 
HETATM    6  C4  UNL     1      64.270  -9.765   6.462  1.00  0.00     0.131 A 
HETATM    7  N3  UNL     1      64.511  -8.475   6.120  1.00  0.00    -0.337 N 
ATOM      8  H3  UNL     1      64.727  -8.214   5.159  1.00  0.00     0.168 HD
HETATM    9  C5  UNL     1      64.455  -7.555   7.097  1.00  0.00     0.183 A 
HETATM   10  N4  UNL     1      64.169  -7.901   8.363  1.00  0.00    -0.336 N 
ATOM     11  H4  UNL     1      64.137  -7.164   9.067  1.00  0.00     0.168 HD
HETATM   12  C6  UNL     1      63.921  -9.164   8.758  1.00  0.00     0.141 A 
HETATM   13  N5  UNL     1      63.616  -9.782   9.921  1.00  0.00    -0.319 N 
ENDROOT
BRANCH  13  14
HETATM   14  C7  UNL     1      63.473  -9.102  11.170  1.00  0.00     0.159 C 
BRANCH  14  15
HETATM   15  C8  UNL     1      62.083  -8.723  11.533  1.00  0.00     0.252 C 
BRANCH  15  16
HETATM   16  N6  UNL     1      61.579  -7.532  10.927  1.00  0.00    -0.073 N 
ATOM     17  H62 UNL     1      62.192  -6.725  11.047  1.00  0.00     0.277 HD
ATOM     18  H61 UNL     1      61.600  -7.556   9.908  1.00  0.00     0.277 HD
BRANCH  16  19
HETATM   19  C9  UNL     1      60.229  -7.324  11.478  1.00  0.00     0.242 C 
BRANCH  19  20
HETATM   20  C10 UNL     1      59.472  -8.634  11.524  1.00  0.00     0.101 C 
BRANCH  20  21
HETATM   21  S1  UNL     1      58.065  -8.585  12.623  1.00  0.00    -0.167 SA
BRANCH  21  22
HETATM   22  C11 UNL     1      58.240  -9.391  14.186  1.00  0.00     0.077 C 
BRANCH  22  23
HETATM   23  C12 UNL     1      56.981  -9.713  14.933  1.00  0.00    -0.013 C 
HETATM   24  C13 UNL     1      57.247 -10.145  16.346  1.00  0.00     0.010 C 
HETATM   25  C14 UNL     1      56.052  -8.488  14.928  1.00  0.00     0.010 C 
ENDBRANCH  22  23
ENDBRANCH  21  22
ENDBRANCH  20  21
ENDBRANCH  19  20
ENDBRANCH  16  19
ENDBRANCH  15  16
ENDBRANCH  14  15
ENDBRANCH  13  14
BRANCH   6  26
HETATM   26  N2  UNL     1      64.304 -10.707   5.585  1.00  0.00    -0.383 N 
ATOM     27  H22 UNL     1      64.563 -11.660   5.841  1.00  0.00     0.157 HD
ATOM     28  H21 UNL     1      64.063 -10.456   4.627  1.00  0.00     0.157 HD
ENDBRANCH   6  26
TORSDOF 9
ENDMDL
MODEL 4
REMARK VINA RESULT: -5.693033088      1.575      1.919
REMARK  9 active torsions:
REMARK  status: ('A' for Active; 'I' for Inactive)
REMARK    1  A    between atoms: C4_6  and  N2_7 
REMARK    2  A    between atoms: N5_16  and  C7_17 
REMARK    3  A    between atoms: C7_17  and  C8_18 
REMARK    4  A    between atoms: C8_18  and  N6_19 
REMARK    5  A    between atoms: N6_19  and  C9_22 
REMARK    6  A    between atoms: C9_22  and  C10_23 
REMARK    7  A    between atoms: C10_23  and  S1_24 
REMARK    8  A    between atoms: S1_24  and  C11_25 
REMARK    9  A    between atoms: C11_25  and  C12_26 
ROOT
HETATM    1  C1  UNL     1      57.029  -8.362  11.438  1.00  0.00     0.089 C 
HETATM    2  C2  UNL     1      56.985  -8.868  12.854  1.00  0.00     0.081 A 
HETATM    3  N1  UNL     1      55.882  -9.055  13.599  1.00  0.00    -0.340 N 
ATOM      4  H1  UNL     1      54.931  -8.870  13.280  1.00  0.00     0.167 HD
HETATM    5  C3  UNL     1      56.200  -9.518  14.820  1.00  0.00     0.122 A 
HETATM    6  C4  UNL     1      55.471  -9.872  15.951  1.00  0.00     0.131 A 
HETATM    7  N3  UNL     1      56.076 -10.324  17.076  1.00  0.00    -0.337 N 
ATOM      8  H3  UNL     1      55.536 -10.583  17.901  1.00  0.00     0.168 HD
HETATM    9  C5  UNL     1      57.415 -10.418  17.063  1.00  0.00     0.183 A 
HETATM   10  N4  UNL     1      58.126 -10.078  15.975  1.00  0.00    -0.336 N 
ATOM     11  H4  UNL     1      59.142 -10.169  16.016  1.00  0.00     0.168 HD
HETATM   12  C6  UNL     1      57.577  -9.624  14.832  1.00  0.00     0.141 A 
HETATM   13  N5  UNL     1      58.030  -9.222  13.624  1.00  0.00    -0.319 N 
ENDROOT
BRANCH  13  14
HETATM   14  C7  UNL     1      59.412  -9.196  13.260  1.00  0.00     0.159 C 
BRANCH  14  15
HETATM   15  C8  UNL     1      59.786  -8.172  12.249  1.00  0.00     0.252 C 
BRANCH  15  16
HETATM   16  N6  UNL     1      61.178  -7.868  12.151  1.00  0.00    -0.073 N 
ATOM     17  H62 UNL     1      61.367  -6.989  11.669  1.00  0.00     0.277 HD
ATOM     18  H61 UNL     1      61.602  -7.616  13.044  1.00  0.00     0.277 HD
BRANCH  16  19
HETATM   19  C9  UNL     1      61.814  -9.031  11.511  1.00  0.00     0.242 C 
BRANCH  19  20
HETATM   20  C10 UNL     1      62.905  -8.581  10.564  1.00  0.00     0.101 C 
BRANCH  20  21
HETATM   21  S1  UNL     1      64.076  -9.876  10.187  1.00  0.00    -0.167 SA
BRANCH  21  22
HETATM   22  C11 UNL     1      63.463 -11.275   9.296  1.00  0.00     0.077 C 
BRANCH  22  23
HETATM   23  C12 UNL     1      62.861 -12.387  10.102  1.00  0.00    -0.013 C 
HETATM   24  C13 UNL     1      63.046 -13.729   9.455  1.00  0.00     0.010 C 
HETATM   25  C14 UNL     1      63.479 -12.396  11.510  1.00  0.00     0.010 C 
ENDBRANCH  22  23
ENDBRANCH  21  22
ENDBRANCH  20  21
ENDBRANCH  19  20
ENDBRANCH  16  19
ENDBRANCH  15  16
ENDBRANCH  14  15
ENDBRANCH  13  14
BRANCH   6  26
HETATM   26  N2  UNL     1      54.190  -9.753  15.882  1.00  0.00    -0.383 N 
ATOM     27  H22 UNL     1      53.637 -10.331  15.248  1.00  0.00     0.157 HD
ATOM     28  H21 UNL     1      53.757  -9.057  16.488  1.00  0.00     0.157 HD
ENDBRANCH   6  26
TORSDOF 9
ENDMDL
MODEL 5
REMARK VINA RESULT: -5.674441595      1.125      1.474
REMARK  9 active torsions:
REMARK  status: ('A' for Active; 'I' for Inactive)
REMARK    1  A    between atoms: C4_6  and  N2_7 
REMARK    2  A    between atoms: N5_16  and  C7_17 
REMARK    3  A    between atoms: C7_17  and  C8_18 
REMARK    4  A    between atoms: C8_18  and  N6_19 
REMARK    5  A    between atoms: N6_19  and  C9_22 
REMARK    6  A    between atoms: C9_22  and  C10_23 
REMARK    7  A    between atoms: C10_23  and  S1_24 
REMARK    8  A    between atoms: S1_24  and  C11_25 
REMARK    9  A    between atoms: C11_25  and  C12_26 
ROOT
HETATM    1  C1  UNL     1      55.596  -6.997  11.464  1.00  0.00     0.089 C 
HETATM    2  C2  UNL     1      56.109  -7.756  12.658  1.00  0.00     0.081 A 
HETATM    3  N1  UNL     1      55.481  -7.904  13.837  1.00  0.00    -0.340 N 
ATOM      4  H1  UNL     1      54.567  -7.510  14.059  1.00  0.00     0.167 HD
HETATM    5  C3  UNL     1      56.219  -8.641  14.685  1.00  0.00     0.122 A 
HETATM    6  C4  UNL     1      56.051  -9.087  15.992  1.00  0.00     0.131 A 
HETATM    7  N3  UNL     1      56.991  -9.841  16.614  1.00  0.00    -0.337 N 
ATOM      8  H3  UNL     1      56.861 -10.165  17.571  1.00  0.00     0.168 HD
HETATM    9  C5  UNL     1      58.099 -10.145  15.919  1.00  0.00     0.183 A 
HETATM   10  N4  UNL     1      58.267  -9.719  14.656  1.00  0.00    -0.336 N 
ATOM     11  H4  UNL     1      59.127  -9.979  14.172  1.00  0.00     0.168 HD
HETATM   12  C6  UNL     1      57.369  -8.969  13.992  1.00  0.00     0.141 A 
HETATM   13  N5  UNL     1      57.276  -8.417  12.761  1.00  0.00    -0.319 N 
ENDROOT
BRANCH  13  14
HETATM   14  C7  UNL     1      58.283  -8.543  11.754  1.00  0.00     0.159 C 
BRANCH  14  15
HETATM   15  C8  UNL     1      59.525  -7.764  11.993  1.00  0.00     0.252 C 
BRANCH  15  16
HETATM   16  N6  UNL     1      60.306  -7.458  10.837  1.00  0.00    -0.073 N 
ATOM     17  H62 UNL     1      60.003  -7.958  10.000  1.00  0.00     0.277 HD
ATOM     18  H61 UNL     1      60.152  -6.514  10.482  1.00  0.00     0.277 HD
BRANCH  16  19
HETATM   19  C9  UNL     1      61.708  -7.725  11.199  1.00  0.00     0.242 C 
BRANCH  19  20
HETATM   20  C10 UNL     1      61.943  -9.215  11.332  1.00  0.00     0.101 C 
BRANCH  20  21
HETATM   21  S1  UNL     1      63.428  -9.760  10.503  1.00  0.00    -0.167 SA
BRANCH  21  22
HETATM   22  C11 UNL     1      63.308 -11.233   9.533  1.00  0.00     0.077 C 
BRANCH  22  23
HETATM   23  C12 UNL     1      62.885 -12.484  10.243  1.00  0.00    -0.013 C 
HETATM   24  C13 UNL     1      63.188 -13.723   9.450  1.00  0.00     0.010 C 
HETATM   25  C14 UNL     1      63.579 -12.559  11.613  1.00  0.00     0.010 C 
ENDBRANCH  22  23
ENDBRANCH  21  22
ENDBRANCH  20  21
ENDBRANCH  19  20
ENDBRANCH  16  19
ENDBRANCH  15  16
ENDBRANCH  14  15
ENDBRANCH  13  14
BRANCH   6  26
HETATM   26  N2  UNL     1      54.960  -8.751  16.589  1.00  0.00    -0.383 N 
ATOM     27  H22 UNL     1      54.557  -9.334  17.323  1.00  0.00     0.157 HD
ATOM     28  H21 UNL     1      54.520  -7.880  16.294  1.00  0.00     0.157 HD
ENDBRANCH   6  26
TORSDOF 9
ENDMDL
