MODEL 1
REMARK VINA RESULT: -5.618504072      0.000      0.000
REMARK  7 active torsions:
REMARK  status: ('A' for Active; 'I' for Inactive)
REMARK    1  A    between atoms: C3_3  and  C6_6 
REMARK    2  A    between atoms: C7_7  and  C8_8 
REMARK    3  A    between atoms: C8_8  and  N1_9 
REMARK    4  A    between atoms: N1_9  and  C9_11 
REMARK    5  A    between atoms: C9_11  and  N2_13 
REMARK    6  A    between atoms: N2_13  and  N3_15 
REMARK    7  A    between atoms: N3_15  and  C10_17 
ROOT
HETATM    1  C1  UNL     1      38.231  24.526  55.498  1.00  0.00     0.098 C 
HETATM    2  C2  UNL     1      39.365  24.915  55.725  1.00  0.00    -0.165 C 
HETATM    3  C3  UNL     1      40.726  25.366  56.022  1.00  0.00     0.067 C 
HETATM    4  C4  UNL     1      41.130  24.844  57.398  1.00  0.00     0.042 C 
HETATM    5  C5  UNL     1      40.827  26.878  55.970  1.00  0.00     0.042 C 
ENDROOT
BRANCH   3   6
HETATM    6  C6  UNL     1      41.625  24.742  55.036  1.00  0.00    -0.084 C 
HETATM    7  C7  UNL     1      42.391  24.230  54.230  1.00  0.00    -0.085 C 
BRANCH   7   8
HETATM    8  C8  UNL     1      43.330  23.629  53.285  1.00  0.00     0.216 C 
BRANCH   8   9
HETATM    9  N1  UNL     1      44.531  23.251  53.960  1.00  0.00    -0.356 N 
ATOM     10  H1  UNL     1      44.707  23.663  54.876  1.00  0.00     0.162 HD
BRANCH   9  11
HETATM   11  C9  UNL     1      45.494  22.346  53.452  1.00  0.00     0.187 C 
HETATM   12  S1  UNL     1      46.294  22.787  52.101  1.00  0.00    -0.040 SA
BRANCH  11  13
HETATM   13  N2  UNL     1      45.730  21.121  54.113  1.00  0.00    -0.274 N 
ATOM     14  H2  UNL     1      45.496  21.009  55.100  1.00  0.00     0.189 HD
BRANCH  13  15
HETATM   15  N3  UNL     1      46.287  20.069  53.392  1.00  0.00    -0.276 N 
ATOM     16  H3  UNL     1      47.288  20.060  53.199  1.00  0.00     0.189 HD
BRANCH  15  17
HETATM   17  C10 UNL     1      45.471  19.012  52.927  1.00  0.00     0.199 C 
HETATM   18  N4  UNL     1      45.384  17.803  53.663  1.00  0.00    -0.068 NA
HETATM   19  S2  UNL     1      44.625  19.163  51.548  1.00  0.00    -0.043 SA
ENDBRANCH  15  17
ENDBRANCH  13  15
ENDBRANCH  11  13
ENDBRANCH   9  11
ENDBRANCH   8   9
ENDBRANCH   7   8
ENDBRANCH   3   6
TORSDOF 7
ENDMDL
MODEL 2
REMARK VINA RESULT: -5.547238933      2.320      2.408
REMARK  7 active torsions:
REMARK  status: ('A' for Active; 'I' for Inactive)
REMARK    1  A    between atoms: C3_3  and  C6_6 
REMARK    2  A    between atoms: C7_7  and  C8_8 
REMARK    3  A    between atoms: C8_8  and  N1_9 
REMARK    4  A    between atoms: N1_9  and  C9_11 
REMARK    5  A    between atoms: C9_11  and  N2_13 
REMARK    6  A    between atoms: N2_13  and  N3_15 
REMARK    7  A    between atoms: N3_15  and  C10_17 
ROOT
HETATM    1  C1  UNL     1      38.077  24.558  55.371  1.00  0.00     0.098 C 
HETATM    2  C2  UNL     1      39.224  24.948  55.221  1.00  0.00    -0.165 C 
HETATM    3  C3  UNL     1      40.610  25.394  55.058  1.00  0.00     0.067 C 
HETATM    4  C4  UNL     1      41.506  24.563  55.972  1.00  0.00     0.042 C 
HETATM    5  C5  UNL     1      40.750  26.871  55.365  1.00  0.00     0.042 C 
ENDROOT
BRANCH   3   6
HETATM    6  C6  UNL     1      41.009  25.102  53.670  1.00  0.00    -0.084 C 
HETATM    7  C7  UNL     1      41.363  24.854  52.526  1.00  0.00    -0.085 C 
BRANCH   7   8
HETATM    8  C8  UNL     1      41.815  24.551  51.168  1.00  0.00     0.216 C 
BRANCH   8   9
HETATM    9  N1  UNL     1      42.167  23.171  51.066  1.00  0.00    -0.356 N 
ATOM     10  H1  UNL     1      41.441  22.482  51.266  1.00  0.00     0.162 HD
BRANCH   9  11
HETATM   11  C9  UNL     1      43.448  22.686  50.706  1.00  0.00     0.187 C 
HETATM   12  S1  UNL     1      44.670  23.766  50.667  1.00  0.00    -0.040 SA
BRANCH  11  13
HETATM   13  N2  UNL     1      43.626  21.320  50.402  1.00  0.00    -0.274 N 
ATOM     14  H2  UNL     1      42.830  20.736  50.144  1.00  0.00     0.189 HD
BRANCH  13  15
HETATM   15  N3  UNL     1      44.910  20.784  50.459  1.00  0.00    -0.276 N 
ATOM     16  H3  UNL     1      45.584  21.003  49.727  1.00  0.00     0.189 HD
BRANCH  15  17
HETATM   17  C10 UNL     1      45.282  19.937  51.529  1.00  0.00     0.199 C 
HETATM   18  N4  UNL     1      45.296  18.530  51.352  1.00  0.00    -0.068 NA
HETATM   19  S2  UNL     1      45.694  20.558  52.973  1.00  0.00    -0.043 SA
ENDBRANCH  15  17
ENDBRANCH  13  15
ENDBRANCH  11  13
ENDBRANCH   9  11
ENDBRANCH   8   9
ENDBRANCH   7   8
ENDBRANCH   3   6
TORSDOF 7
ENDMDL
MODEL 3
REMARK VINA RESULT: -5.450335057      2.603      2.800
REMARK  7 active torsions:
REMARK  status: ('A' for Active; 'I' for Inactive)
REMARK    1  A    between atoms: C3_3  and  C6_6 
REMARK    2  A    between atoms: C7_7  and  C8_8 
REMARK    3  A    between atoms: C8_8  and  N1_9 
REMARK    4  A    between atoms: N1_9  and  C9_11 
REMARK    5  A    between atoms: C9_11  and  N2_13 
REMARK    6  A    between atoms: N2_13  and  N3_15 
REMARK    7  A    between atoms: N3_15  and  C10_17 
ROOT
HETATM    1  C1  UNL     1      38.915  24.620  55.409  1.00  0.00     0.098 C 
HETATM    2  C2  UNL     1      39.364  25.428  54.611  1.00  0.00    -0.165 C 
HETATM    3  C3  UNL     1      39.920  26.406  53.674  1.00  0.00     0.067 C 
HETATM    4  C4  UNL     1      40.918  27.290  54.418  1.00  0.00     0.042 C 
HETATM    5  C5  UNL     1      38.826  27.244  53.042  1.00  0.00     0.042 C 
ENDROOT
BRANCH   3   6
HETATM    6  C6  UNL     1      40.673  25.661  52.650  1.00  0.00    -0.084 C 
HETATM    7  C7  UNL     1      41.285  25.052  51.783  1.00  0.00    -0.085 C 
BRANCH   7   8
HETATM    8  C8  UNL     1      41.997  24.337  50.725  1.00  0.00     0.216 C 
BRANCH   8   9
HETATM    9  N1  UNL     1      42.580  23.143  51.248  1.00  0.00    -0.356 N 
ATOM     10  H1  UNL     1      42.119  22.701  52.044  1.00  0.00     0.162 HD
BRANCH   9  11
HETATM   11  C9  UNL     1      43.749  22.525  50.744  1.00  0.00     0.187 C 
HETATM   12  S1  UNL     1      45.043  23.482  50.474  1.00  0.00    -0.040 SA
BRANCH  11  13
HETATM   13  N2  UNL     1      43.763  21.135  50.496  1.00  0.00    -0.274 N 
ATOM     14  H2  UNL     1      42.902  20.640  50.264  1.00  0.00     0.189 HD
BRANCH  13  15
HETATM   15  N3  UNL     1      44.975  20.454  50.574  1.00  0.00    -0.276 N 
ATOM     16  H3  UNL     1      45.636  20.503  49.799  1.00  0.00     0.189 HD
BRANCH  15  17
HETATM   17  C10 UNL     1      45.294  19.694  51.724  1.00  0.00     0.199 C 
HETATM   18  N4  UNL     1      45.284  18.278  51.666  1.00  0.00    -0.068 NA
HETATM   19  S2  UNL     1      45.671  20.428  53.124  1.00  0.00    -0.043 SA
ENDBRANCH  15  17
ENDBRANCH  13  15
ENDBRANCH  11  13
ENDBRANCH   9  11
ENDBRANCH   8   9
ENDBRANCH   7   8
ENDBRANCH   3   6
TORSDOF 7
ENDMDL
MODEL 4
REMARK VINA RESULT: -5.441526138      2.322      2.714
REMARK  7 active torsions:
REMARK  status: ('A' for Active; 'I' for Inactive)
REMARK    1  A    between atoms: C3_3  and  C6_6 
REMARK    2  A    between atoms: C7_7  and  C8_8 
REMARK    3  A    between atoms: C8_8  and  N1_9 
REMARK    4  A    between atoms: N1_9  and  C9_11 
REMARK    5  A    between atoms: C9_11  and  N2_13 
REMARK    6  A    between atoms: N2_13  and  N3_15 
REMARK    7  A    between atoms: N3_15  and  C10_17 
ROOT
HETATM    1  C1  UNL     1      37.958  24.501  55.729  1.00  0.00     0.098 C 
HETATM    2  C2  UNL     1      38.671  25.281  55.117  1.00  0.00    -0.165 C 
HETATM    3  C3  UNL     1      39.534  26.227  54.408  1.00  0.00     0.067 C 
HETATM    4  C4  UNL     1      40.140  27.196  55.421  1.00  0.00     0.042 C 
HETATM    5  C5  UNL     1      38.764  26.978  53.340  1.00  0.00     0.042 C 
ENDROOT
BRANCH   3   6
HETATM    6  C6  UNL     1      40.644  25.459  53.819  1.00  0.00    -0.084 C 
HETATM    7  C7  UNL     1      41.581  24.830  53.345  1.00  0.00    -0.085 C 
BRANCH   7   8
HETATM    8  C8  UNL     1      42.720  24.093  52.800  1.00  0.00     0.216 C 
BRANCH   8   9
HETATM    9  N1  UNL     1      42.337  23.418  51.602  1.00  0.00    -0.356 N 
ATOM     10  H1  UNL     1      41.352  23.178  51.488  1.00  0.00     0.162 HD
BRANCH   9  11
HETATM   11  C9  UNL     1      43.223  23.055  50.559  1.00  0.00     0.187 C 
HETATM   12  S1  UNL     1      43.839  24.260  49.648  1.00  0.00    -0.040 SA
BRANCH  11  13
HETATM   13  N2  UNL     1      43.541  21.697  50.343  1.00  0.00    -0.274 N 
ATOM     14  H2  UNL     1      42.864  21.066  49.913  1.00  0.00     0.189 HD
BRANCH  13  15
HETATM   15  N3  UNL     1      44.798  21.235  50.726  1.00  0.00    -0.276 N 
ATOM     16  H3  UNL     1      45.606  21.408  50.129  1.00  0.00     0.189 HD
BRANCH  15  17
HETATM   17  C10 UNL     1      44.957  20.526  51.940  1.00  0.00     0.199 C 
HETATM   18  N4  UNL     1      44.986  21.225  53.173  1.00  0.00    -0.068 NA
HETATM   19  S2  UNL     1      45.112  18.909  51.941  1.00  0.00    -0.043 SA
ENDBRANCH  15  17
ENDBRANCH  13  15
ENDBRANCH  11  13
ENDBRANCH   9  11
ENDBRANCH   8   9
ENDBRANCH   7   8
ENDBRANCH   3   6
TORSDOF 7
ENDMDL
MODEL 5
REMARK VINA RESULT: -5.422058400      1.150      1.399
REMARK  7 active torsions:
REMARK  status: ('A' for Active; 'I' for Inactive)
REMARK    1  A    between atoms: C3_3  and  C6_6 
REMARK    2  A    between atoms: C7_7  and  C8_8 
REMARK    3  A    between atoms: C8_8  and  N1_9 
REMARK    4  A    between atoms: N1_9  and  C9_11 
REMARK    5  A    between atoms: C9_11  and  N2_13 
REMARK    6  A    between atoms: N2_13  and  N3_15 
REMARK    7  A    between atoms: N3_15  and  C10_17 
ROOT
HETATM    1  C1  UNL     1      38.688  24.594  55.434  1.00  0.00     0.098 C 
HETATM    2  C2  UNL     1      39.507  25.218  54.777  1.00  0.00    -0.165 C 
HETATM    3  C3  UNL     1      40.499  25.978  54.014  1.00  0.00     0.067 C 
HETATM    4  C4  UNL     1      41.239  26.916  54.965  1.00  0.00     0.042 C 
HETATM    5  C5  UNL     1      39.847  26.758  52.890  1.00  0.00     0.042 C 
ENDROOT
BRANCH   3   6
HETATM    6  C6  UNL     1      41.485  25.019  53.490  1.00  0.00    -0.084 C 
HETATM    7  C7  UNL     1      42.322  24.239  53.054  1.00  0.00    -0.085 C 
BRANCH   7   8
HETATM    8  C8  UNL     1      43.342  23.331  52.531  1.00  0.00     0.216 C 
BRANCH   8   9
HETATM    9  N1  UNL     1      44.257  22.974  53.567  1.00  0.00    -0.356 N 
ATOM     10  H1  UNL     1      44.022  23.249  54.521  1.00  0.00     0.162 HD
BRANCH   9  11
HETATM   11  C9  UNL     1      45.467  22.266  53.369  1.00  0.00     0.187 C 
HETATM   12  S1  UNL     1      46.498  22.848  52.247  1.00  0.00    -0.040 SA
BRANCH  11  13
HETATM   13  N2  UNL     1      45.741  21.109  54.129  1.00  0.00    -0.274 N 
ATOM     14  H2  UNL     1      45.519  21.076  55.125  1.00  0.00     0.189 HD
BRANCH  13  15
HETATM   15  N3  UNL     1      46.318  20.012  53.494  1.00  0.00    -0.276 N 
ATOM     16  H3  UNL     1      47.332  19.955  53.403  1.00  0.00     0.189 HD
BRANCH  15  17
HETATM   17  C10 UNL     1      45.504  18.979  52.975  1.00  0.00     0.199 C 
HETATM   18  N4  UNL     1      45.409  17.738  53.656  1.00  0.00    -0.068 NA
HETATM   19  S2  UNL     1      44.671  19.193  51.597  1.00  0.00    -0.043 SA
ENDBRANCH  15  17
ENDBRANCH  13  15
ENDBRANCH  11  13
ENDBRANCH   9  11
ENDBRANCH   8   9
ENDBRANCH   7   8
ENDBRANCH   3   6
TORSDOF 7
ENDMDL
