MODEL 1
REMARK VINA RESULT: -5.512829498      0.000      0.000
REMARK  3 active torsions:
REMARK  status: ('A' for Active; 'I' for Inactive)
REMARK    1  A    between atoms: C5_6  and  C6_7 
REMARK    2  A    between atoms: C6_7  and  N2_8 
REMARK       I    between atoms: N2_8  and  C7_10 
REMARK       I    between atoms: C7_10  and  N6_18 
REMARK       I    between atoms: N3_11  and  C8_13 
REMARK    3  A    between atoms: N6_18  and  C9_20 
ROOT
HETATM    1  N2  UNL     1      39.217  -3.125  29.331  1.00  0.00    -0.224 N 
ATOM      2  H2  UNL     1      39.254  -3.996  29.862  1.00  0.00     0.177 HD
HETATM    3  C7  UNL     1      40.436  -2.424  29.132  1.00  0.00     0.677 C 
HETATM    4  N3  UNL     1      40.708  -1.279  29.620  1.00  0.00    -0.164 N 
ATOM      5  H3  UNL     1      41.622  -0.884  29.399  1.00  0.00     0.187 HD
HETATM    6  C8  UNL     1      39.859  -0.511  30.435  1.00  0.00     0.200 C 
HETATM    7  N4  UNL     1      39.507   0.664  30.043  1.00  0.00    -0.373 N 
ATOM      8  H41 UNL     1      38.891   1.222  30.635  1.00  0.00     0.158 HD
ATOM      9  H42 UNL     1      39.862   0.992  29.145  1.00  0.00     0.158 HD
HETATM   10  N5  UNL     1      39.363  -0.969  31.690  1.00  0.00    -0.063 NA
HETATM   11  N6  UNL     1      41.432  -3.075  28.321  1.00  0.00    -0.218 N 
ATOM     12  H6  UNL     1      41.130  -3.642  27.530  1.00  0.00     0.178 HD
ENDROOT
BRANCH   1  13
HETATM   13  C6  UNL     1      37.937  -2.701  28.841  1.00  0.00     0.173 C 
BRANCH  13  14
HETATM   14  C5  UNL     1      36.780  -3.555  29.305  1.00  0.00     0.240 C 
HETATM   15  N1  UNL     1      36.892  -4.908  28.870  1.00  0.00     0.090 N 
HETATM   16  C1  UNL     1      36.298  -5.859  29.786  1.00  0.00     0.310 C 
HETATM   17  C2  UNL     1      36.178  -5.030  27.611  1.00  0.00     0.272 C 
HETATM   18  C3  UNL     1      35.024  -4.056  27.695  1.00  0.00     0.032 C 
HETATM   19  C4  UNL     1      35.509  -3.009  28.661  1.00  0.00     0.039 C 
ENDBRANCH  13  14
ENDBRANCH   1  13
BRANCH  11  20
HETATM   20  C9  UNL     1      42.835  -2.952  28.589  1.00  0.00     0.036 C 
HETATM   21  C10 UNL     1      43.618  -3.401  27.376  1.00  0.00     0.038 C 
HETATM   22  C11 UNL     1      43.237  -1.522  28.943  1.00  0.00     0.038 C 
HETATM   23  C12 UNL     1      43.279  -3.823  29.747  1.00  0.00     0.038 C 
ENDBRANCH  11  20
TORSDOF 3
ENDMDL
MODEL 2
REMARK VINA RESULT: -5.495114621      1.959      6.208
REMARK  3 active torsions:
REMARK  status: ('A' for Active; 'I' for Inactive)
REMARK    1  A    between atoms: C5_6  and  C6_7 
REMARK    2  A    between atoms: C6_7  and  N2_8 
REMARK       I    between atoms: N2_8  and  C7_10 
REMARK       I    between atoms: C7_10  and  N6_18 
REMARK       I    between atoms: N3_11  and  C8_13 
REMARK    3  A    between atoms: N6_18  and  C9_20 
ROOT
HETATM    1  N2  UNL     1      41.152  -2.577  28.523  1.00  0.00    -0.224 N 
ATOM      2  H2  UNL     1      41.026  -1.711  27.998  1.00  0.00     0.177 HD
HETATM    3  C7  UNL     1      40.213  -2.864  29.551  1.00  0.00     0.677 C 
HETATM    4  N3  UNL     1      40.485  -2.911  30.795  1.00  0.00    -0.164 N 
ATOM      5  H3  UNL     1      39.717  -3.129  31.430  1.00  0.00     0.187 HD
HETATM    6  C8  UNL     1      41.747  -2.687  31.370  1.00  0.00     0.200 C 
HETATM    7  N4  UNL     1      42.294  -3.622  32.067  1.00  0.00    -0.373 N 
ATOM      8  H41 UNL     1      43.211  -3.460  32.483  1.00  0.00     0.158 HD
ATOM      9  H42 UNL     1      41.781  -4.498  32.173  1.00  0.00     0.158 HD
HETATM   10  N5  UNL     1      42.464  -1.465  31.221  1.00  0.00    -0.063 NA
HETATM   11  N6  UNL     1      38.856  -3.112  29.138  1.00  0.00    -0.218 N 
ATOM     12  H6  UNL     1      38.690  -3.598  28.257  1.00  0.00     0.178 HD
ENDROOT
BRANCH   1  13
HETATM   13  C6  UNL     1      42.262  -3.413  28.169  1.00  0.00     0.173 C 
BRANCH  13  14
HETATM   14  C5  UNL     1      43.576  -2.677  28.034  1.00  0.00     0.240 C 
HETATM   15  N1  UNL     1      43.397  -1.293  27.744  1.00  0.00     0.090 N 
HETATM   16  C1  UNL     1      44.447  -0.452  28.280  1.00  0.00     0.310 C 
HETATM   17  C2  UNL     1      43.421  -1.134  26.301  1.00  0.00     0.272 C 
HETATM   18  C3  UNL     1      44.374  -2.191  25.785  1.00  0.00     0.032 C 
HETATM   19  C4  UNL     1      44.318  -3.266  26.837  1.00  0.00     0.039 C 
ENDBRANCH  13  14
ENDBRANCH   1  13
BRANCH  11  20
HETATM   20  C9  UNL     1      37.731  -2.697  29.923  1.00  0.00     0.036 C 
HETATM   21  C10 UNL     1      36.525  -2.538  29.025  1.00  0.00     0.038 C 
HETATM   22  C11 UNL     1      37.399  -3.690  31.034  1.00  0.00     0.038 C 
HETATM   23  C12 UNL     1      37.960  -1.359  30.596  1.00  0.00     0.038 C 
ENDBRANCH  11  20
TORSDOF 3
ENDMDL
MODEL 3
REMARK VINA RESULT: -5.475923929      0.691      1.448
REMARK  3 active torsions:
REMARK  status: ('A' for Active; 'I' for Inactive)
REMARK    1  A    between atoms: C5_6  and  C6_7 
REMARK    2  A    between atoms: C6_7  and  N2_8 
REMARK       I    between atoms: N2_8  and  C7_10 
REMARK       I    between atoms: C7_10  and  N6_18 
REMARK       I    between atoms: N3_11  and  C8_13 
REMARK    3  A    between atoms: N6_18  and  C9_20 
ROOT
HETATM    1  N2  UNL     1      39.396  -3.236  29.518  1.00  0.00    -0.224 N 
ATOM      2  H2  UNL     1      39.547  -4.074  30.080  1.00  0.00     0.177 HD
HETATM    3  C7  UNL     1      40.541  -2.484  29.137  1.00  0.00     0.677 C 
HETATM    4  N3  UNL     1      40.804  -1.303  29.535  1.00  0.00    -0.164 N 
ATOM      5  H3  UNL     1      41.661  -0.875  29.184  1.00  0.00     0.187 HD
HETATM    6  C8  UNL     1      40.018  -0.537  30.413  1.00  0.00     0.200 C 
HETATM    7  N4  UNL     1      39.555   0.596  30.014  1.00  0.00    -0.373 N 
ATOM      8  H41 UNL     1      38.984   1.152  30.651  1.00  0.00     0.158 HD
ATOM      9  H42 UNL     1      39.779   0.894  29.065  1.00  0.00     0.158 HD
HETATM   10  N5  UNL     1      39.705  -0.953  31.739  1.00  0.00    -0.063 NA
HETATM   11  N6  UNL     1      41.467  -3.126  28.240  1.00  0.00    -0.218 N 
ATOM     12  H6  UNL     1      41.104  -3.749  27.519  1.00  0.00     0.178 HD
ENDROOT
BRANCH   1  13
HETATM   13  C6  UNL     1      38.045  -2.903  29.171  1.00  0.00     0.173 C 
BRANCH  13  14
HETATM   14  C5  UNL     1      37.107  -4.088  29.119  1.00  0.00     0.240 C 
HETATM   15  N1  UNL     1      36.386  -4.158  27.892  1.00  0.00     0.090 N 
HETATM   16  C1  UNL     1      36.064  -5.512  27.489  1.00  0.00     0.310 C 
HETATM   17  C2  UNL     1      35.125  -3.460  28.076  1.00  0.00     0.272 C 
HETATM   18  C3  UNL     1      34.741  -3.679  29.524  1.00  0.00     0.032 C 
HETATM   19  C4  UNL     1      36.060  -3.902  30.213  1.00  0.00     0.039 C 
ENDBRANCH  13  14
ENDBRANCH   1  13
BRANCH  11  20
HETATM   20  C9  UNL     1      42.882  -2.918  28.327  1.00  0.00     0.036 C 
HETATM   21  C10 UNL     1      43.430  -3.692  29.505  1.00  0.00     0.038 C 
HETATM   22  C11 UNL     1      43.613  -3.353  27.060  1.00  0.00     0.038 C 
HETATM   23  C12 UNL     1      43.239  -1.462  28.551  1.00  0.00     0.038 C 
ENDBRANCH  11  20
TORSDOF 3
ENDMDL
MODEL 4
REMARK VINA RESULT: -5.390274701      1.036      1.675
REMARK  3 active torsions:
REMARK  status: ('A' for Active; 'I' for Inactive)
REMARK    1  A    between atoms: C5_6  and  C6_7 
REMARK    2  A    between atoms: C6_7  and  N2_8 
REMARK       I    between atoms: N2_8  and  C7_10 
REMARK       I    between atoms: C7_10  and  N6_18 
REMARK       I    between atoms: N3_11  and  C8_13 
REMARK    3  A    between atoms: N6_18  and  C9_20 
ROOT
HETATM    1  N2  UNL     1      39.407  -3.209  29.510  1.00  0.00    -0.224 N 
ATOM      2  H2  UNL     1      39.544  -4.048  30.074  1.00  0.00     0.177 HD
HETATM    3  C7  UNL     1      40.563  -2.471  29.138  1.00  0.00     0.677 C 
HETATM    4  N3  UNL     1      40.835  -1.292  29.536  1.00  0.00    -0.164 N 
ATOM      5  H3  UNL     1      41.700  -0.873  29.193  1.00  0.00     0.187 HD
HETATM    6  C8  UNL     1      40.049  -0.517  30.406  1.00  0.00     0.200 C 
HETATM    7  N4  UNL     1      39.602   0.621  30.002  1.00  0.00    -0.373 N 
ATOM      8  H41 UNL     1      39.031   1.184  30.633  1.00  0.00     0.158 HD
ATOM      9  H42 UNL     1      39.838   0.915  29.054  1.00  0.00     0.158 HD
HETATM   10  N5  UNL     1      39.719  -0.927  31.730  1.00  0.00    -0.063 NA
HETATM   11  N6  UNL     1      41.490  -3.123  28.251  1.00  0.00    -0.218 N 
ATOM     12  H6  UNL     1      41.127  -3.744  27.527  1.00  0.00     0.178 HD
ENDROOT
BRANCH   1  13
HETATM   13  C6  UNL     1      38.062  -2.863  29.150  1.00  0.00     0.173 C 
BRANCH  13  14
HETATM   14  C5  UNL     1      37.031  -3.199  30.203  1.00  0.00     0.240 C 
HETATM   15  N1  UNL     1      35.955  -3.975  29.684  1.00  0.00     0.090 N 
HETATM   16  C1  UNL     1      35.374  -4.878  30.657  1.00  0.00     0.310 C 
HETATM   17  C2  UNL     1      34.903  -3.061  29.275  1.00  0.00     0.272 C 
HETATM   18  C3  UNL     1      34.977  -1.893  30.234  1.00  0.00     0.032 C 
HETATM   19  C4  UNL     1      36.413  -1.889  30.684  1.00  0.00     0.039 C 
ENDBRANCH  13  14
ENDBRANCH   1  13
BRANCH  11  20
HETATM   20  C9  UNL     1      42.907  -2.930  28.350  1.00  0.00     0.036 C 
HETATM   21  C10 UNL     1      43.441  -3.733  29.516  1.00  0.00     0.038 C 
HETATM   22  C11 UNL     1      43.642  -3.346  27.079  1.00  0.00     0.038 C 
HETATM   23  C12 UNL     1      43.275  -1.483  28.606  1.00  0.00     0.038 C 
ENDBRANCH  11  20
TORSDOF 3
ENDMDL
MODEL 5
REMARK VINA RESULT: -5.286530512      3.397      6.353
REMARK  3 active torsions:
REMARK  status: ('A' for Active; 'I' for Inactive)
REMARK    1  A    between atoms: C5_6  and  C6_7 
REMARK    2  A    between atoms: C6_7  and  N2_8 
REMARK       I    between atoms: N2_8  and  C7_10 
REMARK       I    between atoms: C7_10  and  N6_18 
REMARK       I    between atoms: N3_11  and  C8_13 
REMARK    3  A    between atoms: N6_18  and  C9_20 
ROOT
HETATM    1  N2  UNL     1      40.513  -0.859  29.929  1.00  0.00    -0.224 N 
ATOM      2  H2  UNL     1      40.558   0.081  29.533  1.00  0.00     0.177 HD
HETATM    3  C7  UNL     1      39.836  -1.018  31.168  1.00  0.00     0.677 C 
HETATM    4  N3  UNL     1      40.389  -1.358  32.264  1.00  0.00    -0.164 N 
ATOM      5  H3  UNL     1      39.787  -1.437  33.083  1.00  0.00     0.187 HD
HETATM    6  C8  UNL     1      41.756  -1.632  32.444  1.00  0.00     0.200 C 
HETATM    7  N4  UNL     1      42.112  -2.794  32.870  1.00  0.00    -0.373 N 
ATOM      8  H41 UNL     1      43.104  -2.993  33.001  1.00  0.00     0.158 HD
ATOM      9  H42 UNL     1      41.378  -3.476  33.061  1.00  0.00     0.158 HD
HETATM   10  N5  UNL     1      42.781  -0.679  32.178  1.00  0.00    -0.063 NA
HETATM   11  N6  UNL     1      38.418  -0.766  31.168  1.00  0.00    -0.218 N 
ATOM     12  H6  UNL     1      37.872  -1.019  30.345  1.00  0.00     0.178 HD
ENDROOT
BRANCH   1  13
HETATM   13  C6  UNL     1      41.138  -1.920  29.193  1.00  0.00     0.173 C 
BRANCH  13  14
HETATM   14  C5  UNL     1      42.642  -1.807  29.096  1.00  0.00     0.240 C 
HETATM   15  N1  UNL     1      43.068  -1.253  27.854  1.00  0.00     0.090 N 
HETATM   16  C1  UNL     1      44.298  -0.494  27.953  1.00  0.00     0.310 C 
HETATM   17  C2  UNL     1      43.322  -2.353  26.940  1.00  0.00     0.272 C 
HETATM   18  C3  UNL     1      43.823  -3.495  27.798  1.00  0.00     0.032 C 
HETATM   19  C4  UNL     1      43.220  -3.218  29.149  1.00  0.00     0.039 C 
ENDBRANCH  13  14
ENDBRANCH   1  13
BRANCH  11  20
HETATM   20  C9  UNL     1      37.749  -0.169  32.286  1.00  0.00     0.036 C 
HETATM   21  C10 UNL     1      36.274  -0.041  31.976  1.00  0.00     0.038 C 
HETATM   22  C11 UNL     1      37.922  -0.978  33.568  1.00  0.00     0.038 C 
HETATM   23  C12 UNL     1      38.259   1.226  32.586  1.00  0.00     0.038 C 
ENDBRANCH  11  20
TORSDOF 3
ENDMDL
