MODEL 1
REMARK VINA RESULT: -6.011102842      0.000      0.000
REMARK  3 active torsions:
REMARK  status: ('A' for Active; 'I' for Inactive)
REMARK    1  A    between atoms: C2_2  and  C3_3 
REMARK    2  A    between atoms: N1_4  and  C4_5 
REMARK    3  A    between atoms: C6_9  and  N3_10 
REMARK       I    between atoms: N3_10  and  C7_12 
ROOT
HETATM    1  C3  UNL     1       9.439   5.694  25.143  1.00  0.00     0.119 C 
HETATM    2  N1  UNL     1       8.531   5.453  24.038  1.00  0.00    -0.350 N 
HETATM    3  C5  UNL     1       8.360   4.019  23.943  1.00  0.00     0.151 C 
HETATM    4  C6  UNL     1       8.992   3.430  25.227  1.00  0.00     0.112 C 
HETATM    5  C8  UNL     1       8.957   4.642  26.116  1.00  0.00     0.006 C 
HETATM    6  C9  UNL     1       9.607   4.611  27.433  1.00  0.00     0.014 C 
HETATM    7  C10 UNL     1       8.302   5.129  28.050  1.00  0.00     0.002 C 
HETATM    8  C11 UNL     1       7.608   4.908  26.723  1.00  0.00     0.014 C 
ENDROOT
BRANCH   4   9
HETATM    9  N3  UNL     1       8.277   2.295  25.670  1.00  0.00    -0.358 N 
HETATM   10  C7  UNL     1       8.740   0.985  25.448  1.00  0.00     0.182 C 
HETATM   11  N4  UNL     1       8.941   0.211  26.487  1.00  0.00    -0.374 N 
HETATM   12  N5  UNL     1       8.993   0.448  24.139  1.00  0.00    -0.064 NA
ATOM     13  H42 UNL     1       8.762   0.592  27.417  1.00  0.00     0.158 HD
ATOM     14  H41 UNL     1       9.276  -0.739  26.327  1.00  0.00     0.158 HD
ATOM     15  H3  UNL     1       7.397   2.429  26.166  1.00  0.00     0.162 HD
ENDBRANCH   4   9
BRANCH   2  16
HETATM   16  C4  UNL     1       7.904   6.386  23.189  1.00  0.00     0.183 C 
HETATM   17  N2  UNL     1       8.524   6.870  22.019  1.00  0.00    -0.070 NA
HETATM   18  S1  UNL     1       6.394   6.981  23.508  1.00  0.00    -0.044 SA
ENDBRANCH   2  16
BRANCH   1  19
HETATM   19  C2  UNL     1       9.420   7.049  25.656  1.00  0.00    -0.011 C 
HETATM   20  C1  UNL     1      10.320   7.926  25.250  1.00  0.00     0.009 C 
ENDBRANCH   1  19
TORSDOF 3
ENDMDL
MODEL 2
REMARK VINA RESULT: -5.714884330      1.312      1.403
REMARK  3 active torsions:
REMARK  status: ('A' for Active; 'I' for Inactive)
REMARK    1  A    between atoms: C2_2  and  C3_3 
REMARK    2  A    between atoms: N1_4  and  C4_5 
REMARK    3  A    between atoms: C6_9  and  N3_10 
REMARK       I    between atoms: N3_10  and  C7_12 
ROOT
HETATM    1  C3  UNL     1       9.713   6.059  25.479  1.00  0.00     0.119 C 
HETATM    2  N1  UNL     1       9.786   5.740  24.066  1.00  0.00    -0.350 N 
HETATM    3  C5  UNL     1       9.764   4.297  23.963  1.00  0.00     0.151 C 
HETATM    4  C6  UNL     1       9.389   3.776  25.371  1.00  0.00     0.112 C 
HETATM    5  C8  UNL     1       8.733   5.003  25.939  1.00  0.00     0.006 C 
HETATM    6  C9  UNL     1       8.335   5.042  27.352  1.00  0.00     0.014 C 
HETATM    7  C10 UNL     1       6.938   5.495  26.909  1.00  0.00     0.002 C 
HETATM    8  C11 UNL     1       7.318   5.203  25.473  1.00  0.00     0.014 C 
ENDROOT
BRANCH   4   9
HETATM    9  N3  UNL     1       8.594   2.611  25.287  1.00  0.00    -0.358 N 
HETATM   10  C7  UNL     1       9.157   1.322  25.244  1.00  0.00     0.182 C 
HETATM   11  N4  UNL     1       8.816   0.461  26.172  1.00  0.00    -0.374 N 
HETATM   12  N5  UNL     1      10.079   0.897  24.225  1.00  0.00    -0.064 NA
ATOM     13  H42 UNL     1       8.163   0.763  26.895  1.00  0.00     0.158 HD
ATOM     14  H41 UNL     1       9.224  -0.473  26.140  1.00  0.00     0.158 HD
ATOM     15  H3  UNL     1       7.580   2.707  25.257  1.00  0.00     0.162 HD
ENDBRANCH   4   9
BRANCH   2  16
HETATM   16  C4  UNL     1       9.863   6.614  22.965  1.00  0.00     0.183 C 
HETATM   17  N2  UNL     1      11.093   6.980  22.382  1.00  0.00    -0.070 NA
HETATM   18  S1  UNL     1       8.511   7.276  22.278  1.00  0.00    -0.044 SA
ENDBRANCH   2  16
BRANCH   1  19
HETATM   19  C2  UNL     1       9.316   7.423  25.771  1.00  0.00    -0.011 C 
HETATM   20  C1  UNL     1       9.756   8.024  26.860  1.00  0.00     0.009 C 
ENDBRANCH   1  19
TORSDOF 3
ENDMDL
MODEL 3
REMARK VINA RESULT: -5.526070192      2.508      3.992
REMARK  3 active torsions:
REMARK  status: ('A' for Active; 'I' for Inactive)
REMARK    1  A    between atoms: C2_2  and  C3_3 
REMARK    2  A    between atoms: N1_4  and  C4_5 
REMARK    3  A    between atoms: C6_9  and  N3_10 
REMARK       I    between atoms: N3_10  and  C7_12 
ROOT
HETATM    1  C3  UNL     1       7.168   5.385  25.577  1.00  0.00     0.119 C 
HETATM    2  N1  UNL     1       7.943   4.849  26.679  1.00  0.00    -0.350 N 
HETATM    3  C5  UNL     1       8.689   3.724  26.155  1.00  0.00     0.151 C 
HETATM    4  C6  UNL     1       8.534   3.791  24.617  1.00  0.00     0.112 C 
HETATM    5  C8  UNL     1       8.169   5.240  24.452  1.00  0.00     0.006 C 
HETATM    6  C9  UNL     1       7.766   5.757  23.138  1.00  0.00     0.014 C 
HETATM    7  C10 UNL     1       8.799   6.878  23.302  1.00  0.00     0.002 C 
HETATM    8  C11 UNL     1       9.345   6.172  24.524  1.00  0.00     0.014 C 
ENDROOT
BRANCH   4   9
HETATM    9  N3  UNL     1       9.711   3.354  23.968  1.00  0.00    -0.358 N 
HETATM   10  C7  UNL     1       9.710   2.281  23.058  1.00  0.00     0.182 C 
HETATM   11  N4  UNL     1      10.135   2.500  21.837  1.00  0.00    -0.374 N 
HETATM   12  N5  UNL     1       9.279   0.954  23.403  1.00  0.00    -0.064 NA
ATOM     13  H42 UNL     1      10.441   3.442  21.592  1.00  0.00     0.158 HD
ATOM     14  H41 UNL     1      10.135   1.722  21.177  1.00  0.00     0.158 HD
ATOM     15  H3  UNL     1      10.589   3.832  24.167  1.00  0.00     0.162 HD
ENDBRANCH   4   9
BRANCH   2  16
HETATM   16  C4  UNL     1       8.004   5.289  28.014  1.00  0.00     0.183 C 
HETATM   17  N2  UNL     1       7.010   4.962  28.958  1.00  0.00    -0.070 NA
HETATM   18  S1  UNL     1       9.249   6.226  28.570  1.00  0.00    -0.044 SA
ENDBRANCH   2  16
BRANCH   1  19
HETATM   19  C2  UNL     1       6.679   6.735  25.783  1.00  0.00    -0.011 C 
HETATM   20  C1  UNL     1       5.381   6.972  25.824  1.00  0.00     0.009 C 
ENDBRANCH   1  19
TORSDOF 3
ENDMDL
MODEL 4
REMARK VINA RESULT: -5.482905530      1.258      1.373
REMARK  3 active torsions:
REMARK  status: ('A' for Active; 'I' for Inactive)
REMARK    1  A    between atoms: C2_2  and  C3_3 
REMARK    2  A    between atoms: N1_4  and  C4_5 
REMARK    3  A    between atoms: C6_9  and  N3_10 
REMARK       I    between atoms: N3_10  and  C7_12 
ROOT
HETATM    1  C3  UNL     1       8.967   5.951  26.047  1.00  0.00     0.119 C 
HETATM    2  N1  UNL     1       7.918   5.840  25.052  1.00  0.00    -0.350 N 
HETATM    3  C5  UNL     1       7.829   4.441  24.694  1.00  0.00     0.151 C 
HETATM    4  C6  UNL     1       8.688   3.681  25.734  1.00  0.00     0.112 C 
HETATM    5  C8  UNL     1       8.710   4.693  26.845  1.00  0.00     0.006 C 
HETATM    6  C9  UNL     1       9.555   4.474  28.027  1.00  0.00     0.014 C 
HETATM    7  C10 UNL     1       8.329   4.740  28.909  1.00  0.00     0.002 C 
HETATM    8  C11 UNL     1       7.456   4.710  27.673  1.00  0.00     0.014 C 
ENDROOT
BRANCH   4   9
HETATM    9  N3  UNL     1       8.125   2.420  26.032  1.00  0.00    -0.358 N 
HETATM   10  C7  UNL     1       8.704   1.217  25.588  1.00  0.00     0.182 C 
HETATM   11  N4  UNL     1       9.053   0.325  26.483  1.00  0.00    -0.374 N 
HETATM   12  N5  UNL     1       8.921   0.912  24.199  1.00  0.00    -0.064 NA
ATOM     13  H42 UNL     1       8.900   0.542  27.468  1.00  0.00     0.158 HD
ATOM     14  H41 UNL     1       9.473  -0.547  26.161  1.00  0.00     0.158 HD
ATOM     15  H3  UNL     1       7.271   2.380  26.588  1.00  0.00     0.162 HD
ENDBRANCH   4   9
BRANCH   2  16
HETATM   16  C4  UNL     1       7.110   6.854  24.504  1.00  0.00     0.183 C 
HETATM   17  N2  UNL     1       5.819   7.134  24.997  1.00  0.00    -0.070 NA
HETATM   18  S1  UNL     1       7.619   7.789  23.237  1.00  0.00    -0.044 SA
ENDBRANCH   2  16
BRANCH   1  19
HETATM   19  C2  UNL     1       8.939   7.177  26.821  1.00  0.00    -0.011 C 
HETATM   20  C1  UNL     1       9.737   8.180  26.506  1.00  0.00     0.009 C 
ENDBRANCH   1  19
TORSDOF 3
ENDMDL
MODEL 5
REMARK VINA RESULT: -5.390416691      2.560      3.754
REMARK  3 active torsions:
REMARK  status: ('A' for Active; 'I' for Inactive)
REMARK    1  A    between atoms: C2_2  and  C3_3 
REMARK    2  A    between atoms: N1_4  and  C4_5 
REMARK    3  A    between atoms: C6_9  and  N3_10 
REMARK       I    between atoms: N3_10  and  C7_12 
ROOT
HETATM    1  C3  UNL     1       7.620   4.997  25.712  1.00  0.00     0.119 C 
HETATM    2  N1  UNL     1       8.116   4.336  26.904  1.00  0.00    -0.350 N 
HETATM    3  C5  UNL     1       8.493   2.995  26.510  1.00  0.00     0.151 C 
HETATM    4  C6  UNL     1       8.459   2.981  24.963  1.00  0.00     0.112 C 
HETATM    5  C8  UNL     1       8.586   4.453  24.684  1.00  0.00     0.006 C 
HETATM    6  C9  UNL     1       8.448   4.961  23.313  1.00  0.00     0.014 C 
HETATM    7  C10 UNL     1       9.774   5.711  23.496  1.00  0.00     0.002 C 
HETATM    8  C11 UNL     1       9.993   4.971  24.798  1.00  0.00     0.014 C 
ENDROOT
BRANCH   4   9
HETATM    9  N3  UNL     1       9.471   2.145  24.440  1.00  0.00    -0.358 N 
HETATM   10  C7  UNL     1       9.242   0.790  24.140  1.00  0.00     0.182 C 
HETATM   11  N4  UNL     1       9.451   0.379  22.913  1.00  0.00    -0.374 N 
HETATM   12  N5  UNL     1       8.803  -0.171  25.116  1.00  0.00    -0.064 NA
ATOM     13  H42 UNL     1       9.762   1.061  22.220  1.00  0.00     0.158 HD
ATOM     14  H41 UNL     1       9.285  -0.603  22.695  1.00  0.00     0.158 HD
ATOM     15  H3  UNL     1      10.398   2.537  24.275  1.00  0.00     0.162 HD
ENDBRANCH   4   9
BRANCH   2  16
HETATM   16  C4  UNL     1       8.235   4.843  28.211  1.00  0.00     0.183 C 
HETATM   17  N2  UNL     1       7.127   4.961  29.074  1.00  0.00    -0.070 NA
HETATM   18  S1  UNL     1       9.688   5.337  28.829  1.00  0.00    -0.044 SA
ENDBRANCH   2  16
BRANCH   1  19
HETATM   19  C2  UNL     1       7.576   6.444  25.798  1.00  0.00    -0.011 C 
HETATM   20  C1  UNL     1       6.420   7.078  25.732  1.00  0.00     0.009 C 
ENDBRANCH   1  19
TORSDOF 3
ENDMDL
