MODEL 1
REMARK VINA RESULT: -7.127427307      0.000      0.000
REMARK  5 active torsions:
REMARK  status: ('A' for Active; 'I' for Inactive)
REMARK    1  A    between atoms: C10_10  and  C11_11 
REMARK    2  A    between atoms: C11_11  and  N1_12 
REMARK    3  A    between atoms: N1_12  and  C12_14 
REMARK    4  A    between atoms: C12_14  and  N2_16 
REMARK       I    between atoms: N2_16  and  C13_18 
REMARK       I    between atoms: C13_18  and  N4_22 
REMARK    5  A    between atoms: N4_22  and  C14_24 
ROOT
HETATM    1  C12 UNL     1      41.955  -2.039  29.963  1.00  0.00     0.190 C 
HETATM    2  S1  UNL     1      42.819  -2.808  31.107  1.00  0.00    -0.040 SA
ENDROOT
BRANCH   1   3
HETATM    3  N1  UNL     1      41.345  -0.786  30.161  1.00  0.00    -0.345 N 
ATOM      4  H1  UNL     1      41.998  -0.006  30.247  1.00  0.00     0.167 HD
BRANCH   3   5
HETATM    5  C11 UNL     1      39.982  -0.427  30.260  1.00  0.00     0.074 C 
BRANCH   5   6
HETATM    6  C10 UNL     1      39.391  -0.435  31.574  1.00  0.00     0.004 C 
HETATM    7  C2  UNL     1      38.225  -1.406  31.736  1.00  0.00    -0.027 C 
HETATM    8  C1  UNL     1      37.341  -1.604  30.613  1.00  0.00     0.016 C 
HETATM    9  C3  UNL     1      39.062  -2.633  32.142  1.00  0.00     0.015 C 
HETATM   10  C6  UNL     1      37.606  -0.897  33.013  1.00  0.00    -0.001 C 
HETATM   11  C4  UNL     1      39.605  -1.969  33.426  1.00  0.00    -0.008 C 
HETATM   12  C5  UNL     1      38.266  -1.765  34.095  1.00  0.00     0.011 C 
HETATM   13  C9  UNL     1      40.120  -0.659  32.834  1.00  0.00     0.004 C 
HETATM   14  C8  UNL     1      39.545   0.428  33.796  1.00  0.00     0.011 C 
HETATM   15  C7  UNL     1      38.149   0.490  33.228  1.00  0.00    -0.008 C 
HETATM   16  C19 UNL     1      38.531   0.858  31.812  1.00  0.00     0.021 C 
ENDBRANCH   5   6
ENDBRANCH   3   5
ENDBRANCH   1   3
BRANCH   1  17
HETATM   17  N2  UNL     1      41.757  -2.785  28.749  1.00  0.00    -0.167 N 
HETATM   18  C13 UNL     1      42.621  -3.827  28.328  1.00  0.00     0.674 C 
HETATM   19  N3  UNL     1      42.216  -5.054  28.223  1.00  0.00    -0.235 N 
HETATM   20  N4  UNL     1      43.954  -3.510  28.017  1.00  0.00    -0.219 N 
ATOM     21  H32 UNL     1      41.248  -5.285  28.448  1.00  0.00     0.174 HD
ATOM     22  H31 UNL     1      42.837  -5.804  27.920  1.00  0.00     0.174 HD
ATOM     23  H4  UNL     1      44.693  -3.771  28.670  1.00  0.00     0.178 HD
ATOM     24  H2  UNL     1      40.956  -2.553  28.162  1.00  0.00     0.186 HD
BRANCH  20  25
HETATM   25  C14 UNL     1      44.299  -2.830  26.804  1.00  0.00     0.133 C 
HETATM   26  C15 UNL     1      43.776  -3.495  25.563  1.00  0.00     0.029 C 
HETATM   27  C16 UNL     1      43.923  -2.406  24.522  1.00  0.00     0.005 C 
HETATM   28  C17 UNL     1      43.958  -1.088  25.272  1.00  0.00     0.039 C 
HETATM   29  C18 UNL     1      43.676  -1.468  26.705  1.00  0.00     0.193 C 
HETATM   30  F1  UNL     1      44.131  -0.557  27.612  1.00  0.00    -0.247 F 
ENDBRANCH  20  25
ENDBRANCH   1  17
TORSDOF 5
ENDMDL
MODEL 2
REMARK VINA RESULT: -7.048294714      1.517      2.868
REMARK  5 active torsions:
REMARK  status: ('A' for Active; 'I' for Inactive)
REMARK    1  A    between atoms: C10_10  and  C11_11 
REMARK    2  A    between atoms: C11_11  and  N1_12 
REMARK    3  A    between atoms: N1_12  and  C12_14 
REMARK    4  A    between atoms: C12_14  and  N2_16 
REMARK       I    between atoms: N2_16  and  C13_18 
REMARK       I    between atoms: C13_18  and  N4_22 
REMARK    5  A    between atoms: N4_22  and  C14_24 
ROOT
HETATM    1  C12 UNL     1      41.426  -2.328  29.725  1.00  0.00     0.190 C 
HETATM    2  S1  UNL     1      42.378  -2.723  30.983  1.00  0.00    -0.040 SA
ENDROOT
BRANCH   1   3
HETATM    3  N1  UNL     1      40.492  -1.276  29.758  1.00  0.00    -0.345 N 
ATOM      4  H1  UNL     1      40.742  -0.468  29.187  1.00  0.00     0.167 HD
BRANCH   3   5
HETATM    5  C11 UNL     1      39.265  -1.152  30.449  1.00  0.00     0.074 C 
BRANCH   5   6
HETATM    6  C10 UNL     1      38.397  -2.300  30.465  1.00  0.00     0.004 C 
HETATM    7  C2  UNL     1      36.936  -1.984  30.778  1.00  0.00    -0.027 C 
HETATM    8  C1  UNL     1      36.654  -0.929  31.720  1.00  0.00     0.016 C 
HETATM    9  C3  UNL     1      36.494  -1.711  29.329  1.00  0.00     0.015 C 
HETATM   10  C6  UNL     1      36.412  -3.358  31.110  1.00  0.00    -0.001 C 
HETATM   11  C4  UNL     1      36.813  -3.144  28.849  1.00  0.00    -0.008 C 
HETATM   12  C5  UNL     1      35.848  -3.854  29.771  1.00  0.00     0.011 C 
HETATM   13  C9  UNL     1      38.245  -3.269  29.366  1.00  0.00     0.004 C 
HETATM   14  C8  UNL     1      38.254  -4.655  30.085  1.00  0.00     0.011 C 
HETATM   15  C7  UNL     1      37.615  -4.221  31.380  1.00  0.00    -0.008 C 
HETATM   16  C19 UNL     1      38.632  -3.166  31.755  1.00  0.00     0.021 C 
ENDBRANCH   5   6
ENDBRANCH   3   5
ENDBRANCH   1   3
BRANCH   1  17
HETATM   17  N2  UNL     1      41.524  -3.207  28.590  1.00  0.00    -0.167 N 
HETATM   18  C13 UNL     1      42.610  -4.095  28.387  1.00  0.00     0.674 C 
HETATM   19  N3  UNL     1      42.453  -5.382  28.381  1.00  0.00    -0.235 N 
HETATM   20  N4  UNL     1      43.891  -3.554  28.186  1.00  0.00    -0.219 N 
ATOM     21  H32 UNL     1      41.523  -5.775  28.527  1.00  0.00     0.174 HD
ATOM     22  H31 UNL     1      43.234  -6.021  28.235  1.00  0.00     0.174 HD
ATOM     23  H4  UNL     1      44.577  -3.604  28.940  1.00  0.00     0.178 HD
ATOM     24  H2  UNL     1      40.775  -3.191  27.898  1.00  0.00     0.186 HD
BRANCH  20  25
HETATM   25  C14 UNL     1      44.256  -2.935  26.947  1.00  0.00     0.133 C 
HETATM   26  C15 UNL     1      43.705  -3.629  25.733  1.00  0.00     0.029 C 
HETATM   27  C16 UNL     1      43.889  -2.588  24.650  1.00  0.00     0.005 C 
HETATM   28  C17 UNL     1      43.974  -1.244  25.347  1.00  0.00     0.039 C 
HETATM   29  C18 UNL     1      43.684  -1.556  26.795  1.00  0.00     0.193 C 
HETATM   30  F1  UNL     1      44.175  -0.628  27.665  1.00  0.00    -0.247 F 
ENDBRANCH  20  25
ENDBRANCH   1  17
TORSDOF 5
ENDMDL
MODEL 3
REMARK VINA RESULT: -7.027636339      1.467      2.020
REMARK  5 active torsions:
REMARK  status: ('A' for Active; 'I' for Inactive)
REMARK    1  A    between atoms: C10_10  and  C11_11 
REMARK    2  A    between atoms: C11_11  and  N1_12 
REMARK    3  A    between atoms: N1_12  and  C12_14 
REMARK    4  A    between atoms: C12_14  and  N2_16 
REMARK       I    between atoms: N2_16  and  C13_18 
REMARK       I    between atoms: C13_18  and  N4_22 
REMARK    5  A    between atoms: N4_22  and  C14_24 
ROOT
HETATM    1  C12 UNL     1      42.538  -2.635  30.011  1.00  0.00     0.190 C 
HETATM    2  S1  UNL     1      42.794  -3.793  31.125  1.00  0.00    -0.040 SA
ENDROOT
BRANCH   1   3
HETATM    3  N1  UNL     1      41.264  -2.306  29.512  1.00  0.00    -0.345 N 
ATOM      4  H1  UNL     1      41.274  -1.776  28.640  1.00  0.00     0.167 HD
BRANCH   3   5
HETATM    5  C11 UNL     1      39.974  -2.587  30.016  1.00  0.00     0.074 C 
BRANCH   5   6
HETATM    6  C10 UNL     1      39.443  -1.690  31.009  1.00  0.00     0.004 C 
HETATM    7  C2  UNL     1      37.919  -1.683  31.104  1.00  0.00    -0.027 C 
HETATM    8  C1  UNL     1      37.159  -1.848  29.890  1.00  0.00     0.016 C 
HETATM    9  C3  UNL     1      37.794  -2.831  32.123  1.00  0.00     0.015 C 
HETATM   10  C6  UNL     1      37.689  -0.417  31.890  1.00  0.00    -0.001 C 
HETATM   11  C4  UNL     1      38.569  -2.078  33.226  1.00  0.00    -0.008 C 
HETATM   12  C5  UNL     1      37.614  -0.912  33.342  1.00  0.00     0.011 C 
HETATM   13  C9  UNL     1      39.813  -1.682  32.435  1.00  0.00     0.004 C 
HETATM   14  C8  UNL     1      39.990  -0.166  32.766  1.00  0.00     0.011 C 
HETATM   15  C7  UNL     1      38.964   0.378  31.804  1.00  0.00    -0.008 C 
HETATM   16  C19 UNL     1      39.560  -0.195  30.538  1.00  0.00     0.021 C 
ENDBRANCH   5   6
ENDBRANCH   3   5
ENDBRANCH   1   3
BRANCH   1  17
HETATM   17  N2  UNL     1      43.730  -2.033  29.477  1.00  0.00    -0.167 N 
HETATM   18  C13 UNL     1      43.713  -1.045  28.461  1.00  0.00     0.674 C 
HETATM   19  N3  UNL     1      44.140   0.161  28.670  1.00  0.00    -0.235 N 
HETATM   20  N4  UNL     1      43.218  -1.394  27.193  1.00  0.00    -0.219 N 
ATOM     21  H32 UNL     1      44.500   0.415  29.590  1.00  0.00     0.174 HD
ATOM     22  H31 UNL     1      44.128   0.872  27.939  1.00  0.00     0.174 HD
ATOM     23  H4  UNL     1      42.298  -1.059  26.908  1.00  0.00     0.178 HD
ATOM     24  H2  UNL     1      44.633  -2.332  29.847  1.00  0.00     0.186 HD
BRANCH  20  25
HETATM   25  C14 UNL     1      43.978  -2.208  26.291  1.00  0.00     0.133 C 
HETATM   26  C15 UNL     1      43.609  -3.664  26.328  1.00  0.00     0.029 C 
HETATM   27  C16 UNL     1      44.238  -4.193  25.057  1.00  0.00     0.005 C 
HETATM   28  C17 UNL     1      44.409  -3.006  24.129  1.00  0.00     0.039 C 
HETATM   29  C18 UNL     1      43.730  -1.868  24.851  1.00  0.00     0.193 C 
HETATM   30  F1  UNL     1      44.167  -0.636  24.465  1.00  0.00    -0.247 F 
ENDBRANCH  20  25
ENDBRANCH   1  17
TORSDOF 5
ENDMDL
MODEL 4
REMARK VINA RESULT: -6.925241138      1.557      2.785
REMARK  5 active torsions:
REMARK  status: ('A' for Active; 'I' for Inactive)
REMARK    1  A    between atoms: C10_10  and  C11_11 
REMARK    2  A    between atoms: C11_11  and  N1_12 
REMARK    3  A    between atoms: N1_12  and  C12_14 
REMARK    4  A    between atoms: C12_14  and  N2_16 
REMARK       I    between atoms: N2_16  and  C13_18 
REMARK       I    between atoms: C13_18  and  N4_22 
REMARK    5  A    between atoms: N4_22  and  C14_24 
ROOT
HETATM    1  C12 UNL     1      42.202  -2.157  29.367  1.00  0.00     0.190 C 
HETATM    2  S1  UNL     1      41.445  -3.558  29.037  1.00  0.00    -0.040 SA
ENDROOT
BRANCH   1   3
HETATM    3  N1  UNL     1      41.535  -1.003  29.820  1.00  0.00    -0.345 N 
ATOM      4  H1  UNL     1      41.268  -0.351  29.082  1.00  0.00     0.167 HD
BRANCH   3   5
HETATM    5  C11 UNL     1      41.174  -0.596  31.124  1.00  0.00     0.074 C 
BRANCH   5   6
HETATM    6  C10 UNL     1      39.965  -1.149  31.677  1.00  0.00     0.004 C 
HETATM    7  C2  UNL     1      39.450  -0.426  32.919  1.00  0.00    -0.027 C 
HETATM    8  C1  UNL     1      40.416   0.110  33.846  1.00  0.00     0.016 C 
HETATM    9  C3  UNL     1      38.594   0.619  32.181  1.00  0.00     0.015 C 
HETATM   10  C6  UNL     1      38.474  -1.442  33.456  1.00  0.00    -0.001 C 
HETATM   11  C4  UNL     1      37.662  -0.437  31.547  1.00  0.00    -0.008 C 
HETATM   12  C5  UNL     1      37.136  -1.004  32.846  1.00  0.00     0.011 C 
HETATM   13  C9  UNL     1      38.710  -1.364  30.937  1.00  0.00     0.004 C 
HETATM   14  C8  UNL     1      38.248  -2.785  31.390  1.00  0.00     0.011 C 
HETATM   15  C7  UNL     1      38.809  -2.749  32.789  1.00  0.00    -0.008 C 
HETATM   16  C19 UNL     1      40.253  -2.506  32.415  1.00  0.00     0.021 C 
ENDBRANCH   5   6
ENDBRANCH   3   5
ENDBRANCH   1   3
BRANCH   1  17
HETATM   17  N2  UNL     1      43.606  -2.138  29.056  1.00  0.00    -0.167 N 
HETATM   18  C13 UNL     1      44.198  -1.180  28.196  1.00  0.00     0.674 C 
HETATM   19  N3  UNL     1      45.081  -0.329  28.620  1.00  0.00    -0.235 N 
HETATM   20  N4  UNL     1      43.812  -1.160  26.845  1.00  0.00    -0.219 N 
ATOM     21  H32 UNL     1      45.362  -0.344  29.600  1.00  0.00     0.174 HD
ATOM     22  H31 UNL     1      45.507   0.360  28.000  1.00  0.00     0.174 HD
ATOM     23  H4  UNL     1      43.199  -0.415  26.514  1.00  0.00     0.178 HD
ATOM     24  H2  UNL     1      44.205  -2.849  29.475  1.00  0.00     0.186 HD
BRANCH  20  25
HETATM   25  C14 UNL     1      44.259  -2.161  25.924  1.00  0.00     0.133 C 
HETATM   26  C15 UNL     1      43.762  -3.544  26.237  1.00  0.00     0.029 C 
HETATM   27  C16 UNL     1      44.029  -4.288  24.947  1.00  0.00     0.005 C 
HETATM   28  C17 UNL     1      44.106  -3.244  23.849  1.00  0.00     0.039 C 
HETATM   29  C18 UNL     1      43.728  -1.954  24.536  1.00  0.00     0.193 C 
HETATM   30  F1  UNL     1      44.191  -0.840  23.901  1.00  0.00    -0.247 F 
ENDBRANCH  20  25
ENDBRANCH   1  17
TORSDOF 5
ENDMDL
MODEL 5
REMARK VINA RESULT: -6.922354863      5.098      7.456
REMARK  5 active torsions:
REMARK  status: ('A' for Active; 'I' for Inactive)
REMARK    1  A    between atoms: C10_10  and  C11_11 
REMARK    2  A    between atoms: C11_11  and  N1_12 
REMARK    3  A    between atoms: N1_12  and  C12_14 
REMARK    4  A    between atoms: C12_14  and  N2_16 
REMARK       I    between atoms: N2_16  and  C13_18 
REMARK       I    between atoms: C13_18  and  N4_22 
REMARK    5  A    between atoms: N4_22  and  C14_24 
ROOT
HETATM    1  C12 UNL     1      42.728  -4.564  31.794  1.00  0.00     0.190 C 
HETATM    2  S1  UNL     1      42.588  -3.314  32.826  1.00  0.00    -0.040 SA
ENDROOT
BRANCH   1   3
HETATM    3  N1  UNL     1      43.609  -5.642  31.995  1.00  0.00    -0.345 N 
ATOM      4  H1  UNL     1      44.558  -5.371  32.257  1.00  0.00     0.167 HD
BRANCH   3   5
HETATM    5  C11 UNL     1      43.402  -7.037  31.895  1.00  0.00     0.074 C 
BRANCH   5   6
HETATM    6  C10 UNL     1      44.493  -7.895  32.277  1.00  0.00     0.004 C 
HETATM    7  C2  UNL     1      44.318  -9.357  31.873  1.00  0.00    -0.027 C 
HETATM    8  C1  UNL     1      42.991  -9.920  31.910  1.00  0.00     0.016 C 
HETATM    9  C3  UNL     1      44.946  -9.237  30.473  1.00  0.00     0.015 C 
HETATM   10  C6  UNL     1      45.367 -10.018  32.732  1.00  0.00    -0.001 C 
HETATM   11  C4  UNL     1      46.332  -8.821  31.014  1.00  0.00    -0.008 C 
HETATM   12  C5  UNL     1      46.592 -10.079  31.809  1.00  0.00     0.011 C 
HETATM   13  C9  UNL     1      45.909  -7.677  31.933  1.00  0.00     0.004 C 
HETATM   14  C8  UNL     1      46.667  -7.980  33.264  1.00  0.00     0.011 C 
HETATM   15  C7  UNL     1      45.725  -9.026  33.806  1.00  0.00    -0.008 C 
HETATM   16  C19 UNL     1      44.476  -8.174  33.823  1.00  0.00     0.021 C 
ENDBRANCH   5   6
ENDBRANCH   3   5
ENDBRANCH   1   3
BRANCH   1  17
HETATM   17  N2  UNL     1      41.958  -4.441  30.585  1.00  0.00    -0.167 N 
HETATM   18  C13 UNL     1      42.466  -4.771  29.303  1.00  0.00     0.674 C 
HETATM   19  N3  UNL     1      41.966  -5.735  28.594  1.00  0.00    -0.235 N 
HETATM   20  N4  UNL     1      43.542  -4.025  28.795  1.00  0.00    -0.219 N 
ATOM     21  H32 UNL     1      41.185  -6.277  28.963  1.00  0.00     0.174 HD
ATOM     22  H31 UNL     1      42.332  -5.972  27.672  1.00  0.00     0.174 HD
ATOM     23  H4  UNL     1      44.473  -4.442  28.776  1.00  0.00     0.178 HD
ATOM     24  H2  UNL     1      40.999  -4.100  30.653  1.00  0.00     0.186 HD
BRANCH  20  25
HETATM   25  C14 UNL     1      43.362  -2.691  28.304  1.00  0.00     0.133 C 
HETATM   26  C15 UNL     1      44.072  -1.642  29.113  1.00  0.00     0.029 C 
HETATM   27  C16 UNL     1      44.054  -0.446  28.187  1.00  0.00     0.005 C 
HETATM   28  C17 UNL     1      43.885  -0.987  26.779  1.00  0.00     0.039 C 
HETATM   29  C18 UNL     1      43.965  -2.485  26.945  1.00  0.00     0.193 C 
HETATM   30  F1  UNL     1      43.365  -3.180  25.936  1.00  0.00    -0.247 F 
ENDBRANCH  20  25
ENDBRANCH   1  17
TORSDOF 5
ENDMDL
