MODEL 1
REMARK VINA RESULT: -6.968455978      0.000      0.000
REMARK  3 active torsions:
REMARK  status: ('A' for Active; 'I' for Inactive)
REMARK       I    between atoms: C1_4  and  N2_5 
REMARK       I    between atoms: C1_4  and  N5_20 
REMARK       I    between atoms: N3_7  and  C2_9 
REMARK       I    between atoms: C2_9  and  N4_11 
REMARK    1  A    between atoms: N4_11  and  C3_13 
REMARK    2  A    between atoms: N5_20  and  C10_22 
REMARK    3  A    between atoms: C10_22  and  C11_23 
ROOT
HETATM    1  N1  UNL     1      40.357  -0.279  30.539  1.00  0.00    -0.234 N 
ATOM      2  H11 UNL     1      39.936  -0.247  29.610  1.00  0.00     0.174 HD
ATOM      3  H12 UNL     1      39.779  -0.107  31.362  1.00  0.00     0.174 HD
HETATM    4  C1  UNL     1      41.599  -0.532  30.666  1.00  0.00     0.686 C 
HETATM    5  N2  UNL     1      42.180  -0.576  31.947  1.00  0.00    -0.129 N 
ATOM      6  H2  UNL     1      42.967   0.023  32.195  1.00  0.00     0.205 HD
HETATM    7  N3  UNL     1      41.681  -1.397  32.783  1.00  0.00    -0.237 N 
ATOM      8  H3  UNL     1      40.895  -2.005  32.551  1.00  0.00     0.192 HD
HETATM    9  C2  UNL     1      42.308  -1.406  34.079  1.00  0.00     0.335 C 
HETATM   10  O1  UNL     1      42.610  -2.465  34.661  1.00  0.00    -0.246 OA
HETATM   11  N4  UNL     1      42.563  -0.139  34.662  1.00  0.00    -0.337 N 
ATOM     12  H4  UNL     1      42.310   0.720  34.175  1.00  0.00     0.164 HD
HETATM   13  N5  UNL     1      42.396  -0.770  29.531  1.00  0.00    -0.220 N 
ATOM     14  H5  UNL     1      42.337  -0.146  28.727  1.00  0.00     0.178 HD
ENDROOT
BRANCH  13  15
HETATM   15  C10 UNL     1      43.296  -1.898  29.506  1.00  0.00     0.195 C 
BRANCH  15  16
HETATM   16  C11 UNL     1      43.789  -2.073  28.118  1.00  0.00     0.028 A 
HETATM   17  C12 UNL     1      43.346  -3.043  27.247  1.00  0.00     0.047 A 
HETATM   18  C13 UNL     1      44.051  -2.855  26.084  1.00  0.00     0.028 A 
HETATM   19 BR1  UNL     1      43.903  -3.879  24.484  1.00  0.00    -0.050 Br
HETATM   20  C14 UNL     1      44.908  -1.791  26.238  1.00  0.00     0.107 A 
HETATM   21  N6  UNL     1      44.723  -1.334  27.495  1.00  0.00    -0.366 N 
ATOM     22  H6  UNL     1      45.218  -0.546  27.910  1.00  0.00     0.165 HD
ENDBRANCH  15  16
ENDBRANCH  13  15
BRANCH  11  23
HETATM   23  C3  UNL     1      43.184  -0.095  35.952  1.00  0.00     0.086 C 
HETATM   24  C4  UNL     1      42.413   0.804  36.859  1.00  0.00     0.025 C 
HETATM   25  C5  UNL     1      42.688   2.256  36.694  1.00  0.00     0.002 C 
HETATM   26  C6  UNL     1      44.001   2.609  37.358  1.00  0.00     0.000 C 
HETATM   27  C7  UNL     1      45.054   2.684  36.302  1.00  0.00     0.000 C 
HETATM   28  C8  UNL     1      44.862   1.632  35.218  1.00  0.00     0.002 C 
HETATM   29  C9  UNL     1      44.633   0.280  35.797  1.00  0.00     0.025 C 
ENDBRANCH  11  23
TORSDOF 3
ENDMDL
MODEL 2
REMARK VINA RESULT: -6.679928272      3.425      8.404
REMARK  3 active torsions:
REMARK  status: ('A' for Active; 'I' for Inactive)
REMARK       I    between atoms: C1_4  and  N2_5 
REMARK       I    between atoms: C1_4  and  N5_20 
REMARK       I    between atoms: N3_7  and  C2_9 
REMARK       I    between atoms: C2_9  and  N4_11 
REMARK    1  A    between atoms: N4_11  and  C3_13 
REMARK    2  A    between atoms: N5_20  and  C10_22 
REMARK    3  A    between atoms: C10_22  and  C11_23 
ROOT
HETATM    1  N1  UNL     1      39.765   0.171  30.193  1.00  0.00    -0.234 N 
ATOM      2  H11 UNL     1      38.923   0.419  30.712  1.00  0.00     0.174 HD
ATOM      3  H12 UNL     1      40.163   0.835  29.528  1.00  0.00     0.174 HD
HETATM    4  C1  UNL     1      40.314  -0.964  30.375  1.00  0.00     0.686 C 
HETATM    5  N2  UNL     1      41.476  -1.306  29.659  1.00  0.00    -0.129 N 
ATOM      6  H2  UNL     1      41.512  -2.139  29.070  1.00  0.00     0.205 HD
HETATM    7  N3  UNL     1      42.480  -0.533  29.777  1.00  0.00    -0.237 N 
ATOM      8  H3  UNL     1      42.461   0.303  30.362  1.00  0.00     0.192 HD
HETATM    9  C2  UNL     1      43.644  -0.923  29.025  1.00  0.00     0.335 C 
HETATM   10  O1  UNL     1      44.785  -0.924  29.525  1.00  0.00    -0.246 OA
HETATM   11  N4  UNL     1      43.423  -1.308  27.679  1.00  0.00    -0.337 N 
ATOM     12  H4  UNL     1      42.484  -1.303  27.282  1.00  0.00     0.164 HD
HETATM   13  N5  UNL     1      39.766  -1.880  31.292  1.00  0.00    -0.220 N 
ATOM     14  H5  UNL     1      38.764  -2.072  31.284  1.00  0.00     0.178 HD
ENDROOT
BRANCH  13  15
HETATM   15  C10 UNL     1      40.621  -2.546  32.243  1.00  0.00     0.195 C 
BRANCH  15  16
HETATM   16  C11 UNL     1      41.248  -1.519  33.111  1.00  0.00     0.028 A 
HETATM   17  C12 UNL     1      42.605  -1.345  33.261  1.00  0.00     0.047 A 
HETATM   18  C13 UNL     1      42.754  -0.301  34.141  1.00  0.00     0.028 A 
HETATM   19 BR1  UNL     1      44.397   0.434  34.766  1.00  0.00    -0.050 Br
HETATM   20  C14 UNL     1      41.515   0.156  34.522  1.00  0.00     0.107 A 
HETATM   21  N6  UNL     1      40.614  -0.612  33.873  1.00  0.00    -0.366 N 
ATOM     22  H6  UNL     1      39.601  -0.517  33.950  1.00  0.00     0.165 HD
ENDBRANCH  15  16
ENDBRANCH  13  15
BRANCH  11  23
HETATM   23  C3  UNL     1      44.550  -1.705  26.889  1.00  0.00     0.086 C 
HETATM   24  C4  UNL     1      44.514  -1.016  25.567  1.00  0.00     0.025 C 
HETATM   25  C5  UNL     1      43.611  -1.629  24.558  1.00  0.00     0.002 C 
HETATM   26  C6  UNL     1      44.261  -2.861  23.967  1.00  0.00     0.000 C 
HETATM   27  C7  UNL     1      43.688  -4.062  24.645  1.00  0.00     0.000 C 
HETATM   28  C8  UNL     1      43.422  -3.821  26.124  1.00  0.00     0.002 C 
HETATM   29  C9  UNL     1      44.596  -3.206  26.801  1.00  0.00     0.025 C 
ENDBRANCH  11  23
TORSDOF 3
ENDMDL
MODEL 3
REMARK VINA RESULT: -6.676649677      1.581      2.327
REMARK  3 active torsions:
REMARK  status: ('A' for Active; 'I' for Inactive)
REMARK       I    between atoms: C1_4  and  N2_5 
REMARK       I    between atoms: C1_4  and  N5_20 
REMARK       I    between atoms: N3_7  and  C2_9 
REMARK       I    between atoms: C2_9  and  N4_11 
REMARK    1  A    between atoms: N4_11  and  C3_13 
REMARK    2  A    between atoms: N5_20  and  C10_22 
REMARK    3  A    between atoms: C10_22  and  C11_23 
ROOT
HETATM    1  N1  UNL     1      40.429  -0.663  33.130  1.00  0.00    -0.234 N 
ATOM      2  H11 UNL     1      39.782  -1.005  32.419  1.00  0.00     0.174 HD
ATOM      3  H12 UNL     1      40.096  -0.504  34.081  1.00  0.00     0.174 HD
HETATM    4  C1  UNL     1      41.645  -0.436  32.827  1.00  0.00     0.686 C 
HETATM    5  N2  UNL     1      42.538   0.035  33.807  1.00  0.00    -0.129 N 
ATOM      6  H2  UNL     1      43.049   0.910  33.685  1.00  0.00     0.205 HD
HETATM    7  N3  UNL     1      42.680  -0.676  34.853  1.00  0.00    -0.237 N 
ATOM      8  H3  UNL     1      42.177  -1.553  34.991  1.00  0.00     0.192 HD
HETATM    9  C2  UNL     1      43.602  -0.154  35.827  1.00  0.00     0.335 C 
HETATM   10  O1  UNL     1      44.462  -0.868  36.375  1.00  0.00    -0.246 OA
HETATM   11  N4  UNL     1      43.479   1.225  36.133  1.00  0.00    -0.337 N 
ATOM     12  H4  UNL     1      42.770   1.800  35.677  1.00  0.00     0.164 HD
HETATM   13  N5  UNL     1      42.105  -0.656  31.515  1.00  0.00    -0.220 N 
ATOM     14  H5  UNL     1      41.568  -0.306  30.722  1.00  0.00     0.178 HD
ENDROOT
BRANCH  13  15
HETATM   15  C10 UNL     1      43.334  -1.376  31.293  1.00  0.00     0.195 C 
BRANCH  15  16
HETATM   16  C11 UNL     1      43.600  -1.412  29.834  1.00  0.00     0.028 A 
HETATM   17  C12 UNL     1      43.625  -2.558  29.071  1.00  0.00     0.047 A 
HETATM   18  C13 UNL     1      43.902  -2.149  27.790  1.00  0.00     0.028 A 
HETATM   19 BR1  UNL     1      44.074  -3.263  26.253  1.00  0.00    -0.050 Br
HETATM   20  C14 UNL     1      44.044  -0.783  27.766  1.00  0.00     0.107 A 
HETATM   21  N6  UNL     1      43.852  -0.361  29.034  1.00  0.00    -0.366 N 
ATOM     22  H6  UNL     1      43.893   0.610  29.341  1.00  0.00     0.165 HD
ENDBRANCH  15  16
ENDBRANCH  13  15
BRANCH  11  23
HETATM   23  C3  UNL     1      44.373   1.793  37.097  1.00  0.00     0.086 C 
HETATM   24  C4  UNL     1      43.713   1.850  38.433  1.00  0.00     0.025 C 
HETATM   25  C5  UNL     1      42.791   2.998  38.635  1.00  0.00     0.002 C 
HETATM   26  C6  UNL     1      43.588   4.256  38.907  1.00  0.00     0.000 C 
HETATM   27  C7  UNL     1      43.668   5.041  37.639  1.00  0.00     0.000 C 
HETATM   28  C8  UNL     1      43.807   4.149  36.413  1.00  0.00     0.002 C 
HETATM   29  C9  UNL     1      44.869   3.122  36.597  1.00  0.00     0.025 C 
ENDBRANCH  11  23
TORSDOF 3
ENDMDL
MODEL 4
REMARK VINA RESULT: -6.668352406      1.887      2.632
REMARK  3 active torsions:
REMARK  status: ('A' for Active; 'I' for Inactive)
REMARK       I    between atoms: C1_4  and  N2_5 
REMARK       I    between atoms: C1_4  and  N5_20 
REMARK       I    between atoms: N3_7  and  C2_9 
REMARK       I    between atoms: C2_9  and  N4_11 
REMARK    1  A    between atoms: N4_11  and  C3_13 
REMARK    2  A    between atoms: N5_20  and  C10_22 
REMARK    3  A    between atoms: C10_22  and  C11_23 
ROOT
HETATM    1  N1  UNL     1      42.378  -2.291  32.746  1.00  0.00    -0.234 N 
ATOM      2  H11 UNL     1      41.891  -3.042  32.255  1.00  0.00     0.174 HD
ATOM      3  H12 UNL     1      42.670  -2.428  33.713  1.00  0.00     0.174 HD
HETATM    4  C1  UNL     1      42.617  -1.191  32.150  1.00  0.00     0.686 C 
HETATM    5  N2  UNL     1      43.288  -0.156  32.827  1.00  0.00    -0.129 N 
ATOM      6  H2  UNL     1      42.871   0.769  32.930  1.00  0.00     0.205 HD
HETATM    7  N3  UNL     1      44.437  -0.424  33.305  1.00  0.00    -0.237 N 
ATOM      8  H3  UNL     1      44.868  -1.344  33.210  1.00  0.00     0.192 HD
HETATM    9  C2  UNL     1      45.084   0.664  33.989  1.00  0.00     0.335 C 
HETATM   10  O1  UNL     1      46.280   0.952  33.794  1.00  0.00    -0.246 OA
HETATM   11  N4  UNL     1      44.284   1.397  34.902  1.00  0.00    -0.337 N 
ATOM     12  H4  UNL     1      43.306   1.151  35.053  1.00  0.00     0.164 HD
HETATM   13  N5  UNL     1      42.215  -1.004  30.814  1.00  0.00    -0.220 N 
ATOM     14  H5  UNL     1      41.270  -1.258  30.526  1.00  0.00     0.178 HD
ENDROOT
BRANCH  13  15
HETATM   15  C10 UNL     1      43.139  -0.452  29.854  1.00  0.00     0.195 C 
BRANCH  15  16
HETATM   16  C11 UNL     1      43.449  -1.498  28.848  1.00  0.00     0.028 A 
HETATM   17  C12 UNL     1      43.557  -1.273  27.494  1.00  0.00     0.047 A 
HETATM   18  C13 UNL     1      43.850  -2.492  26.933  1.00  0.00     0.028 A 
HETATM   19 BR1  UNL     1      44.123  -2.857  25.083  1.00  0.00    -0.050 Br
HETATM   20  C14 UNL     1      43.920  -3.444  27.921  1.00  0.00     0.107 A 
HETATM   21  N6  UNL     1      43.670  -2.803  29.083  1.00  0.00    -0.366 N 
ATOM     22  H6  UNL     1      43.651  -3.243  30.002  1.00  0.00     0.165 HD
ENDBRANCH  15  16
ENDBRANCH  13  15
BRANCH  11  23
HETATM   23  C3  UNL     1      44.882   2.490  35.609  1.00  0.00     0.086 C 
HETATM   24  C4  UNL     1      45.635   1.981  36.792  1.00  0.00     0.025 C 
HETATM   25  C5  UNL     1      44.807   1.681  37.989  1.00  0.00     0.002 C 
HETATM   26  C6  UNL     1      44.441   2.968  38.697  1.00  0.00     0.000 C 
HETATM   27  C7  UNL     1      43.050   3.339  38.303  1.00  0.00     0.000 C 
HETATM   28  C8  UNL     1      42.753   3.012  36.846  1.00  0.00     0.002 C 
HETATM   29  C9  UNL     1      43.826   3.508  35.942  1.00  0.00     0.025 C 
ENDBRANCH  11  23
TORSDOF 3
ENDMDL
MODEL 5
REMARK VINA RESULT: -6.623699120      3.678      4.748
REMARK  3 active torsions:
REMARK  status: ('A' for Active; 'I' for Inactive)
REMARK       I    between atoms: C1_4  and  N2_5 
REMARK       I    between atoms: C1_4  and  N5_20 
REMARK       I    between atoms: N3_7  and  C2_9 
REMARK       I    between atoms: C2_9  and  N4_11 
REMARK    1  A    between atoms: N4_11  and  C3_13 
REMARK    2  A    between atoms: N5_20  and  C10_22 
REMARK    3  A    between atoms: C10_22  and  C11_23 
ROOT
HETATM    1  N1  UNL     1      41.416  -6.004  29.887  1.00  0.00    -0.234 N 
ATOM      2  H11 UNL     1      41.568  -6.867  29.364  1.00  0.00     0.174 HD
ATOM      3  H12 UNL     1      40.904  -6.032  30.769  1.00  0.00     0.174 HD
HETATM    4  C1  UNL     1      41.864  -4.900  29.436  1.00  0.00     0.686 C 
HETATM    5  N2  UNL     1      41.654  -3.710  30.158  1.00  0.00    -0.129 N 
ATOM      6  H2  UNL     1      41.177  -2.911  29.739  1.00  0.00     0.205 HD
HETATM    7  N3  UNL     1      42.084  -3.672  31.355  1.00  0.00    -0.237 N 
ATOM      8  H3  UNL     1      42.564  -4.462  31.789  1.00  0.00     0.192 HD
HETATM    9  C2  UNL     1      41.846  -2.436  32.053  1.00  0.00     0.335 C 
HETATM   10  O1  UNL     1      42.732  -1.872  32.722  1.00  0.00    -0.246 OA
HETATM   11  N4  UNL     1      40.542  -1.891  31.937  1.00  0.00    -0.337 N 
ATOM     12  H4  UNL     1      39.826  -2.362  31.386  1.00  0.00     0.164 HD
HETATM   13  N5  UNL     1      42.570  -4.862  28.221  1.00  0.00    -0.220 N 
ATOM     14  H5  UNL     1      42.204  -5.348  27.403  1.00  0.00     0.178 HD
ENDROOT
BRANCH  13  15
HETATM   15  C10 UNL     1      43.813  -4.134  28.131  1.00  0.00     0.195 C 
BRANCH  15  16
HETATM   16  C11 UNL     1      43.917  -3.548  26.772  1.00  0.00     0.028 A 
HETATM   17  C12 UNL     1      43.742  -2.214  26.481  1.00  0.00     0.047 A 
HETATM   18  C13 UNL     1      43.922  -2.100  25.125  1.00  0.00     0.028 A 
HETATM   19 BR1  UNL     1      43.811  -0.502  24.093  1.00  0.00    -0.050 Br
HETATM   20  C14 UNL     1      44.202  -3.337  24.595  1.00  0.00     0.107 A 
HETATM   21  N6  UNL     1      44.192  -4.202  25.631  1.00  0.00    -0.366 N 
ATOM     22  H6  UNL     1      44.366  -5.204  25.559  1.00  0.00     0.165 HD
ENDBRANCH  15  16
ENDBRANCH  13  15
BRANCH  11  23
HETATM   23  C3  UNL     1      40.255  -0.661  32.614  1.00  0.00     0.086 C 
HETATM   24  C4  UNL     1      39.765  -0.942  33.995  1.00  0.00     0.025 C 
HETATM   25  C5  UNL     1      38.330  -1.314  34.094  1.00  0.00     0.002 C 
HETATM   26  C6  UNL     1      37.468  -0.075  33.973  1.00  0.00     0.000 C 
HETATM   27  C7  UNL     1      36.954   0.001  32.573  1.00  0.00     0.000 C 
HETATM   28  C8  UNL     1      37.980  -0.469  31.552  1.00  0.00     0.002 C 
HETATM   29  C9  UNL     1      39.310   0.160  31.779  1.00  0.00     0.025 C 
ENDBRANCH  11  23
TORSDOF 3
ENDMDL
