MODEL 1
REMARK VINA RESULT: -8.881976848      0.000      0.000
REMARK  20 active torsions:
REMARK  status: ('A' for Active; 'I' for Inactive)
REMARK    1  A    between atoms: C2_2  and  C3_3 
REMARK    2  A    between atoms: C3_3  and  C4_4 
REMARK    3  A    between atoms: C4_4  and  N1_5 
REMARK       I    between atoms: C5_7  and  N3_9 
REMARK    4  A    between atoms: N3_9  and  N4_11 
REMARK    5  A    between atoms: C6_12  and  C7_13 
REMARK       I    between atoms: C7_13  and  N5_15 
REMARK    6  A    between atoms: N5_15  and  C8_17 
REMARK    7  A    between atoms: C8_17  and  C9_18 
REMARK       I    between atoms: C9_18  and  N6_20 
REMARK    8  A    between atoms: N6_20  and  C10_22 
REMARK    9  A    between atoms: C10_22  and  C11_23 
REMARK   10  A    between atoms: C11_23  and  N7_24 
REMARK   11  A    between atoms: N7_24  and  C14_27 
REMARK   12  A    between atoms: C14_27  and  C15_28 
REMARK   13  A    between atoms: C15_28  and  C16_29 
REMARK   14  A    between atoms: C16_29  and  N8_30 
REMARK       I    between atoms: N8_30  and  C17_32 
REMARK   15  A    between atoms: C17_32  and  C18_34 
REMARK   16  A    between atoms: C18_34  and  N9_35 
REMARK       I    between atoms: N9_35  and  C19_37 
REMARK   17  A    between atoms: C19_37  and  C20_39 
REMARK   18  A    between atoms: C20_39  and  C21_40 
REMARK   19  A    between atoms: C21_40  and  C22_41 
REMARK   20  A    between atoms: C28_49  and  N11_50 
ROOT
HETATM    1  C9  UNL     1      -9.320  15.736  25.930  1.00  0.00     0.235 C 
HETATM    2  O2  UNL     1      -9.414  16.916  26.287  1.00  0.00    -0.272 OA
HETATM    3  N6  UNL     1     -10.347  14.805  26.200  1.00  0.00    -0.358 N 
ATOM      4  H6  UNL     1     -10.243  13.835  25.900  1.00  0.00     0.162 HD
ENDROOT
BRANCH   3   5
HETATM    5  C10 UNL     1     -11.536  15.213  26.894  1.00  0.00     0.150 C 
BRANCH   5   6
HETATM    6  C11 UNL     1     -12.194  14.094  27.597  1.00  0.00     0.256 C 
BRANCH   6   7
HETATM    7  N7  UNL     1     -13.538  14.267  28.056  1.00  0.00    -0.073 N 
HETATM    8  C12 UNL     1     -14.441  13.377  27.420  1.00  0.00     0.272 C 
HETATM    9  C13 UNL     1     -13.927  15.664  27.794  1.00  0.00     0.272 C 
BRANCH   7  10
HETATM   10  C14 UNL     1     -13.501  14.122  29.499  1.00  0.00     0.238 C 
BRANCH  10  11
HETATM   11  C15 UNL     1     -12.748  12.948  30.007  1.00  0.00     0.047 C 
BRANCH  11  12
HETATM   12  C16 UNL     1     -13.607  12.285  31.090  1.00  0.00     0.124 C 
BRANCH  12  13
HETATM   13  N8  UNL     1     -12.936  12.358  32.402  1.00  0.00    -0.360 N 
HETATM   14  C17 UNL     1     -13.390  13.278  33.354  1.00  0.00     0.235 C 
HETATM   15  O3  UNL     1     -14.387  14.020  33.041  1.00  0.00    -0.272 OA
ATOM     16  H8  UNL     1     -12.150  11.744  32.613  1.00  0.00     0.162 HD
BRANCH  14  17
HETATM   17  C18 UNL     1     -12.775  13.417  34.681  1.00  0.00     0.225 C 
BRANCH  17  18
HETATM   18  N9  UNL     1     -11.379  13.684  34.607  1.00  0.00    -0.352 N 
HETATM   19  C19 UNL     1     -10.900  15.014  34.946  1.00  0.00     0.218 C 
HETATM   20  O4  UNL     1     -11.728  15.867  35.301  1.00  0.00    -0.274 OA
ATOM     21  H9  UNL     1     -10.726  12.955  34.321  1.00  0.00     0.162 HD
BRANCH  19  22
HETATM   22  C20 UNL     1      -9.469  15.302  34.859  1.00  0.00     0.107 C 
BRANCH  22  23
HETATM   23  C21 UNL     1      -8.785  14.763  33.663  1.00  0.00     0.047 C 
BRANCH  23  24
HETATM   24  C22 UNL     1      -9.112  15.456  32.429  1.00  0.00    -0.058 A 
HETATM   25  C23 UNL     1      -8.484  16.680  32.200  1.00  0.00     0.007 A 
HETATM   26  C24 UNL     1      -8.674  17.390  31.050  1.00  0.00     0.001 A 
HETATM   27  C25 UNL     1      -9.520  16.866  30.085  1.00  0.00     0.000 A 
HETATM   28  C26 UNL     1     -10.152  15.665  30.279  1.00  0.00     0.001 A 
HETATM   29  C27 UNL     1      -9.934  14.959  31.475  1.00  0.00     0.007 A 
ENDBRANCH  23  24
ENDBRANCH  22  23
ENDBRANCH  19  22
ENDBRANCH  17  18
ENDBRANCH  14  17
ENDBRANCH  12  13
ENDBRANCH  11  12
ENDBRANCH  10  11
ENDBRANCH   7  10
ENDBRANCH   6   7
ENDBRANCH   5   6
ENDBRANCH   3   5
BRANCH   1  30
HETATM   30  C8  UNL     1      -8.103  15.266  25.199  1.00  0.00     0.225 C 
BRANCH  30  31
HETATM   31  N5  UNL     1      -7.737  16.088  24.093  1.00  0.00    -0.346 N 
HETATM   32  C7  UNL     1      -8.275  15.925  22.813  1.00  0.00     0.287 C 
HETATM   33  O1  UNL     1      -9.115  15.020  22.602  1.00  0.00    -0.264 OA
ATOM     34  H5  UNL     1      -7.051  16.828  24.242  1.00  0.00     0.163 HD
BRANCH  32  35
HETATM   35  C6  UNL     1      -7.867  16.813  21.690  1.00  0.00     0.194 A 
HETATM   36  N4  UNL     1      -7.408  17.980  21.593  1.00  0.00    -0.220 N 
HETATM   37  C28 UNL     1      -7.355  17.930  20.181  1.00  0.00     0.411 A 
HETATM   38  N10 UNL     1      -7.855  16.631  20.306  1.00  0.00    -0.326 N 
ATOM     39  H10 UNL     1      -8.103  15.877  19.665  1.00  0.00     0.165 HD
BRANCH  36  40
HETATM   40  N3  UNL     1      -7.073  18.979  22.550  1.00  0.00    -0.266 N 
HETATM   41  C5  UNL     1      -5.857  18.891  23.267  1.00  0.00     0.203 C 
HETATM   42  N1  UNL     1      -5.829  19.192  24.507  1.00  0.00    -0.363 N 
HETATM   43  N2  UNL     1      -4.678  18.469  22.617  1.00  0.00    -0.062 NA
ATOM     44  H1  UNL     1      -6.678  19.497  24.982  1.00  0.00     0.162 HD
ATOM     45  H3  UNL     1      -7.709  19.758  22.717  1.00  0.00     0.190 HD
BRANCH  42  46
HETATM   46  C4  UNL     1      -4.584  19.096  25.230  1.00  0.00     0.122 C 
BRANCH  46  47
HETATM   47  C3  UNL     1      -4.811  18.959  26.699  1.00  0.00     0.019 C 
BRANCH  47  48
HETATM   48  C2  UNL     1      -6.145  18.382  27.032  1.00  0.00    -0.003 C 
HETATM   49  C1  UNL     1      -6.127  17.045  27.687  1.00  0.00     0.005 C 
ENDBRANCH  47  48
ENDBRANCH  46  47
ENDBRANCH  42  46
ENDBRANCH  36  40
BRANCH  37  50
HETATM   50  N11 UNL     1      -5.998  18.058  19.643  1.00  0.00    -0.039 N 
ATOM     51 3H11 UNL     1      -5.855  18.985  19.242  1.00  0.00     0.279 HD
ATOM     52 2H11 UNL     1      -5.313  18.093  20.397  1.00  0.00     0.279 HD
ATOM     53 1H11 UNL     1      -5.757  17.331  18.969  1.00  0.00     0.279 HD
ENDBRANCH  37  50
ENDBRANCH  32  35
ENDBRANCH  30  31
ENDBRANCH   1  30
TORSDOF 20
ENDMDL
MODEL 2
REMARK VINA RESULT: -8.696796591      1.387      1.699
REMARK  20 active torsions:
REMARK  status: ('A' for Active; 'I' for Inactive)
REMARK    1  A    between atoms: C2_2  and  C3_3 
REMARK    2  A    between atoms: C3_3  and  C4_4 
REMARK    3  A    between atoms: C4_4  and  N1_5 
REMARK       I    between atoms: C5_7  and  N3_9 
REMARK    4  A    between atoms: N3_9  and  N4_11 
REMARK    5  A    between atoms: C6_12  and  C7_13 
REMARK       I    between atoms: C7_13  and  N5_15 
REMARK    6  A    between atoms: N5_15  and  C8_17 
REMARK    7  A    between atoms: C8_17  and  C9_18 
REMARK       I    between atoms: C9_18  and  N6_20 
REMARK    8  A    between atoms: N6_20  and  C10_22 
REMARK    9  A    between atoms: C10_22  and  C11_23 
REMARK   10  A    between atoms: C11_23  and  N7_24 
REMARK   11  A    between atoms: N7_24  and  C14_27 
REMARK   12  A    between atoms: C14_27  and  C15_28 
REMARK   13  A    between atoms: C15_28  and  C16_29 
REMARK   14  A    between atoms: C16_29  and  N8_30 
REMARK       I    between atoms: N8_30  and  C17_32 
REMARK   15  A    between atoms: C17_32  and  C18_34 
REMARK   16  A    between atoms: C18_34  and  N9_35 
REMARK       I    between atoms: N9_35  and  C19_37 
REMARK   17  A    between atoms: C19_37  and  C20_39 
REMARK   18  A    between atoms: C20_39  and  C21_40 
REMARK   19  A    between atoms: C21_40  and  C22_41 
REMARK   20  A    between atoms: C28_49  and  N11_50 
ROOT
HETATM    1  C9  UNL     1     -10.658  14.799  27.114  1.00  0.00     0.235 C 
HETATM    2  O2  UNL     1     -10.857  13.609  27.384  1.00  0.00    -0.272 OA
HETATM    3  N6  UNL     1     -11.731  15.697  26.925  1.00  0.00    -0.358 N 
ATOM      4  H6  UNL     1     -11.540  16.674  26.697  1.00  0.00     0.162 HD
ENDROOT
BRANCH   3   5
HETATM    5  C10 UNL     1     -13.089  15.246  27.050  1.00  0.00     0.150 C 
BRANCH   5   6
HETATM    6  C11 UNL     1     -13.565  15.268  28.447  1.00  0.00     0.256 C 
BRANCH   6   7
HETATM    7  N7  UNL     1     -14.126  14.073  29.000  1.00  0.00    -0.073 N 
HETATM    8  C12 UNL     1     -14.403  13.100  28.007  1.00  0.00     0.272 C 
HETATM    9  C13 UNL     1     -15.362  14.444  29.712  1.00  0.00     0.272 C 
BRANCH   7  10
HETATM   10  C14 UNL     1     -13.197  13.616  30.017  1.00  0.00     0.238 C 
BRANCH  10  11
HETATM   11  C15 UNL     1     -12.796  12.189  29.923  1.00  0.00     0.047 C 
BRANCH  11  12
HETATM   12  C16 UNL     1     -13.490  11.441  31.066  1.00  0.00     0.124 C 
BRANCH  12  13
HETATM   13  N8  UNL     1     -13.080  11.990  32.372  1.00  0.00    -0.360 N 
HETATM   14  C17 UNL     1     -13.994  11.998  33.431  1.00  0.00     0.235 C 
HETATM   15  O3  UNL     1     -15.162  11.513  33.217  1.00  0.00    -0.272 OA
ATOM     16  H8  UNL     1     -12.138  12.360  32.502  1.00  0.00     0.162 HD
BRANCH  14  17
HETATM   17  C18 UNL     1     -13.667  12.530  34.760  1.00  0.00     0.225 C 
BRANCH  17  18
HETATM   18  N9  UNL     1     -12.877  13.713  34.692  1.00  0.00    -0.352 N 
HETATM   19  C19 UNL     1     -11.493  13.657  35.132  1.00  0.00     0.218 C 
HETATM   20  O4  UNL     1     -11.046  12.574  35.540  1.00  0.00    -0.274 OA
ATOM     21  H9  UNL     1     -13.275  14.583  34.341  1.00  0.00     0.162 HD
BRANCH  19  22
HETATM   22  C20 UNL     1     -10.677  14.870  35.080  1.00  0.00     0.107 C 
BRANCH  22  23
HETATM   23  C21 UNL     1      -9.452  14.776  34.255  1.00  0.00     0.047 C 
BRANCH  23  24
HETATM   24  C22 UNL     1      -9.549  15.445  32.970  1.00  0.00    -0.058 A 
HETATM   25  C23 UNL     1      -8.452  16.203  32.561  1.00  0.00     0.007 A 
HETATM   26  C24 UNL     1      -8.413  16.828  31.349  1.00  0.00     0.001 A 
HETATM   27  C25 UNL     1      -9.503  16.696  30.504  1.00  0.00     0.000 A 
HETATM   28  C26 UNL     1     -10.597  15.957  30.875  1.00  0.00     0.001 A 
HETATM   29  C27 UNL     1     -10.605  15.326  32.131  1.00  0.00     0.007 A 
ENDBRANCH  23  24
ENDBRANCH  22  23
ENDBRANCH  19  22
ENDBRANCH  17  18
ENDBRANCH  14  17
ENDBRANCH  12  13
ENDBRANCH  11  12
ENDBRANCH  10  11
ENDBRANCH   7  10
ENDBRANCH   6   7
ENDBRANCH   5   6
ENDBRANCH   3   5
BRANCH   1  30
HETATM   30  C8  UNL     1      -9.261  15.315  26.981  1.00  0.00     0.225 C 
BRANCH  30  31
HETATM   31  N5  UNL     1      -8.815  15.442  25.632  1.00  0.00    -0.346 N 
HETATM   32  C7  UNL     1      -8.910  16.633  24.907  1.00  0.00     0.287 C 
HETATM   33  O1  UNL     1      -9.411  17.648  25.442  1.00  0.00    -0.264 OA
ATOM     34  H5  UNL     1      -8.407  14.625  25.176  1.00  0.00     0.163 HD
BRANCH  32  35
HETATM   35  C6  UNL     1      -8.423  16.718  23.503  1.00  0.00     0.194 A 
HETATM   36  N4  UNL     1      -7.738  17.539  22.840  1.00  0.00    -0.220 N 
HETATM   37  C28 UNL     1      -7.820  16.776  21.653  1.00  0.00     0.411 A 
HETATM   38  N10 UNL     1      -8.571  15.868  22.405  1.00  0.00    -0.326 N 
ATOM     39  H10 UNL     1      -9.028  14.973  22.228  1.00  0.00     0.165 HD
BRANCH  36  40
HETATM   40  N3  UNL     1      -7.117  18.778  23.167  1.00  0.00    -0.266 N 
HETATM   41  C5  UNL     1      -5.938  18.793  23.948  1.00  0.00     0.203 C 
HETATM   42  N1  UNL     1      -5.782  19.687  24.845  1.00  0.00    -0.363 N 
HETATM   43  N2  UNL     1      -4.935  17.822  23.739  1.00  0.00    -0.062 NA
ATOM     44  H1  UNL     1      -6.503  20.391  25.000  1.00  0.00     0.162 HD
ATOM     45  H3  UNL     1      -7.522  19.654  22.837  1.00  0.00     0.190 HD
BRANCH  42  46
HETATM   46  C4  UNL     1      -4.576  19.691  25.637  1.00  0.00     0.122 C 
BRANCH  46  47
HETATM   47  C3  UNL     1      -4.853  19.342  27.062  1.00  0.00     0.019 C 
BRANCH  47  48
HETATM   48  C2  UNL     1      -6.192  18.715  27.259  1.00  0.00    -0.003 C 
HETATM   49  C1  UNL     1      -6.184  17.272  27.624  1.00  0.00     0.005 C 
ENDBRANCH  47  48
ENDBRANCH  46  47
ENDBRANCH  42  46
ENDBRANCH  36  40
BRANCH  37  50
HETATM   50  N11 UNL     1      -6.520  16.306  21.170  1.00  0.00    -0.039 N 
ATOM     51 3H11 UNL     1      -6.004  17.065  20.724  1.00  0.00     0.279 HD
ATOM     52 2H11 UNL     1      -5.893  16.113  21.952  1.00  0.00     0.279 HD
ATOM     53 1H11 UNL     1      -6.584  15.498  20.550  1.00  0.00     0.279 HD
ENDBRANCH  37  50
ENDBRANCH  32  35
ENDBRANCH  30  31
ENDBRANCH   1  30
TORSDOF 20
ENDMDL
MODEL 3
REMARK VINA RESULT: -8.695267132      1.270      3.660
REMARK  20 active torsions:
REMARK  status: ('A' for Active; 'I' for Inactive)
REMARK    1  A    between atoms: C2_2  and  C3_3 
REMARK    2  A    between atoms: C3_3  and  C4_4 
REMARK    3  A    between atoms: C4_4  and  N1_5 
REMARK       I    between atoms: C5_7  and  N3_9 
REMARK    4  A    between atoms: N3_9  and  N4_11 
REMARK    5  A    between atoms: C6_12  and  C7_13 
REMARK       I    between atoms: C7_13  and  N5_15 
REMARK    6  A    between atoms: N5_15  and  C8_17 
REMARK    7  A    between atoms: C8_17  and  C9_18 
REMARK       I    between atoms: C9_18  and  N6_20 
REMARK    8  A    between atoms: N6_20  and  C10_22 
REMARK    9  A    between atoms: C10_22  and  C11_23 
REMARK   10  A    between atoms: C11_23  and  N7_24 
REMARK   11  A    between atoms: N7_24  and  C14_27 
REMARK   12  A    between atoms: C14_27  and  C15_28 
REMARK   13  A    between atoms: C15_28  and  C16_29 
REMARK   14  A    between atoms: C16_29  and  N8_30 
REMARK       I    between atoms: N8_30  and  C17_32 
REMARK   15  A    between atoms: C17_32  and  C18_34 
REMARK   16  A    between atoms: C18_34  and  N9_35 
REMARK       I    between atoms: N9_35  and  C19_37 
REMARK   17  A    between atoms: C19_37  and  C20_39 
REMARK   18  A    between atoms: C20_39  and  C21_40 
REMARK   19  A    between atoms: C21_40  and  C22_41 
REMARK   20  A    between atoms: C28_49  and  N11_50 
ROOT
HETATM    1  C9  UNL     1      -8.559  16.419  26.161  1.00  0.00     0.235 C 
HETATM    2  O2  UNL     1      -9.304  17.386  25.965  1.00  0.00    -0.272 OA
HETATM    3  N6  UNL     1      -8.007  16.166  27.437  1.00  0.00    -0.358 N 
ATOM      4  H6  UNL     1      -7.390  15.365  27.572  1.00  0.00     0.162 HD
ENDROOT
BRANCH   3   5
HETATM    5  C10 UNL     1      -8.308  17.029  28.545  1.00  0.00     0.150 C 
BRANCH   5   6
HETATM    6  C11 UNL     1      -8.403  16.297  29.823  1.00  0.00     0.256 C 
BRANCH   6   7
HETATM    7  N7  UNL     1      -9.677  16.205  30.469  1.00  0.00    -0.073 N 
HETATM    8  C12 UNL     1     -10.239  14.908  30.367  1.00  0.00     0.272 C 
HETATM    9  C13 UNL     1     -10.569  17.200  29.847  1.00  0.00     0.272 C 
BRANCH   7  10
HETATM   10  C14 UNL     1      -9.476  16.645  31.837  1.00  0.00     0.238 C 
BRANCH  10  11
HETATM   11  C15 UNL     1      -8.379  15.967  32.573  1.00  0.00     0.047 C 
BRANCH  11  12
HETATM   12  C16 UNL     1      -8.924  15.577  33.952  1.00  0.00     0.124 C 
BRANCH  12  13
HETATM   13  N8  UNL     1     -10.088  14.681  33.817  1.00  0.00    -0.360 N 
HETATM   14  C17 UNL     1     -11.287  15.013  34.457  1.00  0.00     0.235 C 
HETATM   15  O3  UNL     1     -11.323  16.101  35.134  1.00  0.00    -0.272 OA
ATOM     16  H8  UNL     1     -10.019  13.827  33.264  1.00  0.00     0.162 HD
BRANCH  14  17
HETATM   17  C18 UNL     1     -12.489  14.172  34.378  1.00  0.00     0.225 C 
BRANCH  17  18
HETATM   18  N9  UNL     1     -12.590  13.485  33.135  1.00  0.00    -0.352 N 
HETATM   19  C19 UNL     1     -13.807  13.627  32.352  1.00  0.00     0.218 C 
HETATM   20  O4  UNL     1     -14.711  14.355  32.792  1.00  0.00    -0.274 OA
ATOM     21  H9  UNL     1     -11.822  12.904  32.800  1.00  0.00     0.162 HD
BRANCH  19  22
HETATM   22  C20 UNL     1     -13.926  12.913  31.081  1.00  0.00     0.107 C 
BRANCH  22  23
HETATM   23  C21 UNL     1     -14.475  13.705  29.958  1.00  0.00     0.047 C 
BRANCH  23  24
HETATM   24  C22 UNL     1     -13.552  13.885  28.851  1.00  0.00    -0.058 A 
HETATM   25  C23 UNL     1     -13.511  15.144  28.254  1.00  0.00     0.007 A 
HETATM   26  C24 UNL     1     -12.642  15.441  27.244  1.00  0.00     0.001 A 
HETATM   27  C25 UNL     1     -11.776  14.451  26.808  1.00  0.00     0.000 A 
HETATM   28  C26 UNL     1     -11.791  13.202  27.375  1.00  0.00     0.001 A 
HETATM   29  C27 UNL     1     -12.698  12.930  28.414  1.00  0.00     0.007 A 
ENDBRANCH  23  24
ENDBRANCH  22  23
ENDBRANCH  19  22
ENDBRANCH  17  18
ENDBRANCH  14  17
ENDBRANCH  12  13
ENDBRANCH  11  12
ENDBRANCH  10  11
ENDBRANCH   7  10
ENDBRANCH   6   7
ENDBRANCH   5   6
ENDBRANCH   3   5
BRANCH   1  30
HETATM   30  C8  UNL     1      -8.222  15.489  25.040  1.00  0.00     0.225 C 
BRANCH  30  31
HETATM   31  N5  UNL     1      -7.616  16.127  23.918  1.00  0.00    -0.346 N 
HETATM   32  C7  UNL     1      -8.318  16.442  22.750  1.00  0.00     0.287 C 
HETATM   33  O1  UNL     1      -9.533  16.155  22.659  1.00  0.00    -0.264 OA
ATOM     34  H5  UNL     1      -6.625  16.365  23.970  1.00  0.00     0.163 HD
BRANCH  32  35
HETATM   35  C6  UNL     1      -7.643  17.115  21.608  1.00  0.00     0.194 A 
HETATM   36  N4  UNL     1      -7.066  18.220  21.432  1.00  0.00    -0.220 N 
HETATM   37  C28 UNL     1      -6.778  17.948  20.076  1.00  0.00     0.411 A 
HETATM   38  N10 UNL     1      -7.412  16.721  20.288  1.00  0.00    -0.326 N 
ATOM     39  H10 UNL     1      -7.618  15.896  19.725  1.00  0.00     0.165 HD
BRANCH  36  40
HETATM   40  N3  UNL     1      -6.806  19.330  22.285  1.00  0.00    -0.266 N 
HETATM   41  C5  UNL     1      -5.610  19.377  23.038  1.00  0.00     0.203 C 
HETATM   42  N1  UNL     1      -5.633  19.809  24.239  1.00  0.00    -0.363 N 
HETATM   43  N2  UNL     1      -4.393  18.947  22.467  1.00  0.00    -0.062 NA
ATOM     44  H1  UNL     1      -6.509  20.121  24.657  1.00  0.00     0.162 HD
ATOM     45  H3  UNL     1      -7.482  20.090  22.352  1.00  0.00     0.190 HD
BRANCH  42  46
HETATM   46  C4  UNL     1      -4.407  19.851  24.999  1.00  0.00     0.122 C 
BRANCH  46  47
HETATM   47  C3  UNL     1      -4.667  20.104  26.447  1.00  0.00     0.019 C 
BRANCH  47  48
HETATM   48  C2  UNL     1      -5.533  19.065  27.075  1.00  0.00    -0.003 C 
HETATM   49  C1  UNL     1      -4.838  17.829  27.526  1.00  0.00     0.005 C 
ENDBRANCH  47  48
ENDBRANCH  46  47
ENDBRANCH  42  46
ENDBRANCH  36  40
BRANCH  37  50
HETATM   50  N11 UNL     1      -5.344  17.899  19.781  1.00  0.00    -0.039 N 
ATOM     51 3H11 UNL     1      -5.141  18.367  18.897  1.00  0.00     0.279 HD
ATOM     52 2H11 UNL     1      -4.825  18.505  20.416  1.00  0.00     0.279 HD
ATOM     53 1H11 UNL     1      -4.960  16.954  19.787  1.00  0.00     0.279 HD
ENDBRANCH  37  50
ENDBRANCH  32  35
ENDBRANCH  30  31
ENDBRANCH   1  30
TORSDOF 20
ENDMDL
MODEL 4
REMARK VINA RESULT: -8.631081444      1.485      3.476
REMARK  20 active torsions:
REMARK  status: ('A' for Active; 'I' for Inactive)
REMARK    1  A    between atoms: C2_2  and  C3_3 
REMARK    2  A    between atoms: C3_3  and  C4_4 
REMARK    3  A    between atoms: C4_4  and  N1_5 
REMARK       I    between atoms: C5_7  and  N3_9 
REMARK    4  A    between atoms: N3_9  and  N4_11 
REMARK    5  A    between atoms: C6_12  and  C7_13 
REMARK       I    between atoms: C7_13  and  N5_15 
REMARK    6  A    between atoms: N5_15  and  C8_17 
REMARK    7  A    between atoms: C8_17  and  C9_18 
REMARK       I    between atoms: C9_18  and  N6_20 
REMARK    8  A    between atoms: N6_20  and  C10_22 
REMARK    9  A    between atoms: C10_22  and  C11_23 
REMARK   10  A    between atoms: C11_23  and  N7_24 
REMARK   11  A    between atoms: N7_24  and  C14_27 
REMARK   12  A    between atoms: C14_27  and  C15_28 
REMARK   13  A    between atoms: C15_28  and  C16_29 
REMARK   14  A    between atoms: C16_29  and  N8_30 
REMARK       I    between atoms: N8_30  and  C17_32 
REMARK   15  A    between atoms: C17_32  and  C18_34 
REMARK   16  A    between atoms: C18_34  and  N9_35 
REMARK       I    between atoms: N9_35  and  C19_37 
REMARK   17  A    between atoms: C19_37  and  C20_39 
REMARK   18  A    between atoms: C20_39  and  C21_40 
REMARK   19  A    between atoms: C21_40  and  C22_41 
REMARK   20  A    between atoms: C28_49  and  N11_50 
ROOT
HETATM    1  C9  UNL     1     -10.002  15.952  25.773  1.00  0.00     0.235 C 
HETATM    2  O2  UNL     1      -9.274  15.122  25.215  1.00  0.00    -0.272 OA
HETATM    3  N6  UNL     1     -11.051  15.549  26.628  1.00  0.00    -0.358 N 
ATOM      4  H6  UNL     1     -11.642  16.253  27.072  1.00  0.00     0.162 HD
ENDROOT
BRANCH   3   5
HETATM    5  C10 UNL     1     -11.294  14.155  26.876  1.00  0.00     0.150 C 
BRANCH   5   6
HETATM    6  C11 UNL     1     -12.098  13.928  28.092  1.00  0.00     0.256 C 
BRANCH   6   7
HETATM    7  N7  UNL     1     -13.511  13.743  27.958  1.00  0.00    -0.073 N 
HETATM    8  C12 UNL     1     -13.865  13.214  26.691  1.00  0.00     0.272 C 
HETATM    9  C13 UNL     1     -14.158  15.050  28.167  1.00  0.00     0.272 C 
BRANCH   7  10
HETATM   10  C14 UNL     1     -13.923  12.907  29.071  1.00  0.00     0.238 C 
BRANCH  10  11
HETATM   11  C15 UNL     1     -12.820  12.326  29.878  1.00  0.00     0.047 C 
BRANCH  11  12
HETATM   12  C16 UNL     1     -13.458  11.463  30.972  1.00  0.00     0.124 C 
BRANCH  12  13
HETATM   13  N8  UNL     1     -13.092  11.965  32.311  1.00  0.00    -0.360 N 
HETATM   14  C17 UNL     1     -14.038  11.924  33.341  1.00  0.00     0.235 C 
HETATM   15  O3  UNL     1     -15.193  11.438  33.074  1.00  0.00    -0.272 OA
ATOM     16  H8  UNL     1     -12.158  12.337  32.483  1.00  0.00     0.162 HD
BRANCH  14  17
HETATM   17  C18 UNL     1     -13.755  12.408  34.699  1.00  0.00     0.225 C 
BRANCH  17  18
HETATM   18  N9  UNL     1     -12.949  13.581  34.701  1.00  0.00    -0.352 N 
HETATM   19  C19 UNL     1     -11.574  13.488  35.163  1.00  0.00     0.218 C 
HETATM   20  O4  UNL     1     -11.148  12.381  35.529  1.00  0.00    -0.274 OA
ATOM     21  H9  UNL     1     -13.330  14.472  34.383  1.00  0.00     0.162 HD
BRANCH  19  22
HETATM   22  C20 UNL     1     -10.743  14.692  35.183  1.00  0.00     0.107 C 
BRANCH  22  23
HETATM   23  C21 UNL     1      -9.453  14.583  34.467  1.00  0.00     0.047 C 
BRANCH  23  24
HETATM   24  C22 UNL     1      -9.406  15.317  33.214  1.00  0.00    -0.058 A 
HETATM   25  C23 UNL     1     -10.554  15.303  32.424  1.00  0.00     0.007 A 
HETATM   26  C24 UNL     1     -10.640  16.004  31.256  1.00  0.00     0.001 A 
HETATM   27  C25 UNL     1      -9.544  16.751  30.854  1.00  0.00     0.000 A 
HETATM   28  C26 UNL     1      -8.400  16.787  31.609  1.00  0.00     0.001 A 
HETATM   29  C27 UNL     1      -8.345  16.054  32.807  1.00  0.00     0.007 A 
ENDBRANCH  23  24
ENDBRANCH  22  23
ENDBRANCH  19  22
ENDBRANCH  17  18
ENDBRANCH  14  17
ENDBRANCH  12  13
ENDBRANCH  11  12
ENDBRANCH  10  11
ENDBRANCH   7  10
ENDBRANCH   6   7
ENDBRANCH   5   6
ENDBRANCH   3   5
BRANCH   1  30
HETATM   30  C8  UNL     1      -9.782  17.414  25.551  1.00  0.00     0.225 C 
BRANCH  30  31
HETATM   31  N5  UNL     1      -8.411  17.782  25.420  1.00  0.00    -0.346 N 
HETATM   32  C7  UNL     1      -7.567  17.981  26.517  1.00  0.00     0.287 C 
HETATM   33  O1  UNL     1      -8.014  17.839  27.678  1.00  0.00    -0.264 OA
ATOM     34  H5  UNL     1      -8.028  17.907  24.482  1.00  0.00     0.163 HD
BRANCH  32  35
HETATM   35  C6  UNL     1      -6.140  18.357  26.329  1.00  0.00     0.194 A 
HETATM   36  N4  UNL     1      -5.267  18.148  25.448  1.00  0.00    -0.220 N 
HETATM   37  C28 UNL     1      -4.273  18.876  26.142  1.00  0.00     0.411 A 
HETATM   38  N10 UNL     1      -5.257  19.109  27.107  1.00  0.00    -0.326 N 
ATOM     39  H10 UNL     1      -5.308  19.610  27.994  1.00  0.00     0.165 HD
BRANCH  36  40
HETATM   40  N3  UNL     1      -5.277  17.438  24.214  1.00  0.00    -0.266 N 
HETATM   41  C5  UNL     1      -5.813  18.044  23.055  1.00  0.00     0.203 C 
HETATM   42  N1  UNL     1      -6.517  17.353  22.245  1.00  0.00    -0.363 N 
HETATM   43  N2  UNL     1      -5.573  19.410  22.791  1.00  0.00    -0.062 NA
ATOM     44  H1  UNL     1      -6.693  16.366  22.429  1.00  0.00     0.162 HD
ATOM     45  H3  UNL     1      -4.898  16.492  24.167  1.00  0.00     0.190 HD
BRANCH  42  46
HETATM   46  C4  UNL     1      -7.061  17.982  21.066  1.00  0.00     0.122 C 
BRANCH  46  47
HETATM   47  C3  UNL     1      -8.451  17.516  20.786  1.00  0.00     0.019 C 
BRANCH  47  48
HETATM   48  C2  UNL     1      -8.979  16.593  21.831  1.00  0.00    -0.003 C 
HETATM   49  C1  UNL     1      -9.920  15.543  21.353  1.00  0.00     0.005 C 
ENDBRANCH  47  48
ENDBRANCH  46  47
ENDBRANCH  42  46
ENDBRANCH  36  40
BRANCH  37  50
HETATM   50  N11 UNL     1      -3.788  20.047  25.408  1.00  0.00    -0.039 N 
ATOM     51 3H11 UNL     1      -2.940  20.416  25.837  1.00  0.00     0.279 HD
ATOM     52 2H11 UNL     1      -3.414  19.774  24.500  1.00  0.00     0.279 HD
ATOM     53 1H11 UNL     1      -4.490  20.781  25.305  1.00  0.00     0.279 HD
ENDBRANCH  37  50
ENDBRANCH  32  35
ENDBRANCH  30  31
ENDBRANCH   1  30
TORSDOF 20
ENDMDL
MODEL 5
REMARK VINA RESULT: -8.596814143      2.410     11.001
REMARK  20 active torsions:
REMARK  status: ('A' for Active; 'I' for Inactive)
REMARK    1  A    between atoms: C2_2  and  C3_3 
REMARK    2  A    between atoms: C3_3  and  C4_4 
REMARK    3  A    between atoms: C4_4  and  N1_5 
REMARK       I    between atoms: C5_7  and  N3_9 
REMARK    4  A    between atoms: N3_9  and  N4_11 
REMARK    5  A    between atoms: C6_12  and  C7_13 
REMARK       I    between atoms: C7_13  and  N5_15 
REMARK    6  A    between atoms: N5_15  and  C8_17 
REMARK    7  A    between atoms: C8_17  and  C9_18 
REMARK       I    between atoms: C9_18  and  N6_20 
REMARK    8  A    between atoms: N6_20  and  C10_22 
REMARK    9  A    between atoms: C10_22  and  C11_23 
REMARK   10  A    between atoms: C11_23  and  N7_24 
REMARK   11  A    between atoms: N7_24  and  C14_27 
REMARK   12  A    between atoms: C14_27  and  C15_28 
REMARK   13  A    between atoms: C15_28  and  C16_29 
REMARK   14  A    between atoms: C16_29  and  N8_30 
REMARK       I    between atoms: N8_30  and  C17_32 
REMARK   15  A    between atoms: C17_32  and  C18_34 
REMARK   16  A    between atoms: C18_34  and  N9_35 
REMARK       I    between atoms: N9_35  and  C19_37 
REMARK   17  A    between atoms: C19_37  and  C20_39 
REMARK   18  A    between atoms: C20_39  and  C21_40 
REMARK   19  A    between atoms: C21_40  and  C22_41 
REMARK   20  A    between atoms: C28_49  and  N11_50 
ROOT
HETATM    1  C9  UNL     1     -10.493  15.077  26.987  1.00  0.00     0.235 C 
HETATM    2  O2  UNL     1     -10.499  15.495  25.823  1.00  0.00    -0.272 OA
HETATM    3  N6  UNL     1      -9.802  15.765  28.009  1.00  0.00    -0.358 N 
ATOM      4  H6  UNL     1      -9.808  15.397  28.961  1.00  0.00     0.162 HD
ENDROOT
BRANCH   3   5
HETATM    5  C10 UNL     1      -9.092  16.979  27.718  1.00  0.00     0.150 C 
BRANCH   5   6
HETATM    6  C11 UNL     1      -7.641  16.761  27.558  1.00  0.00     0.256 C 
BRANCH   6   7
HETATM    7  N7  UNL     1      -6.882  17.713  26.806  1.00  0.00    -0.073 N 
HETATM    8  C12 UNL     1      -7.168  19.048  27.184  1.00  0.00     0.272 C 
HETATM    9  C13 UNL     1      -7.191  17.507  25.379  1.00  0.00     0.272 C 
BRANCH   7  10
HETATM   10  C14 UNL     1      -5.487  17.349  26.972  1.00  0.00     0.238 C 
BRANCH  10  11
HETATM   11  C15 UNL     1      -4.624  18.386  27.591  1.00  0.00     0.047 C 
BRANCH  11  12
HETATM   12  C16 UNL     1      -3.848  19.072  26.461  1.00  0.00     0.124 C 
BRANCH  12  13
HETATM   13  N8  UNL     1      -3.579  18.124  25.364  1.00  0.00    -0.360 N 
HETATM   14  C17 UNL     1      -3.416  18.609  24.062  1.00  0.00     0.235 C 
HETATM   15  O3  UNL     1      -3.499  19.876  23.881  1.00  0.00    -0.272 OA
ATOM     16  H8  UNL     1      -3.513  17.124  25.553  1.00  0.00     0.162 HD
BRANCH  14  17
HETATM   17  C18 UNL     1      -3.150  17.732  22.914  1.00  0.00     0.225 C 
BRANCH  17  18
HETATM   18  N9  UNL     1      -4.342  17.354  22.233  1.00  0.00    -0.352 N 
HETATM   19  C19 UNL     1      -4.547  17.814  20.869  1.00  0.00     0.218 C 
HETATM   20  O4  UNL     1      -3.666  18.511  20.343  1.00  0.00    -0.274 OA
ATOM     21  H9  UNL     1      -5.039  16.770  22.694  1.00  0.00     0.162 HD
BRANCH  19  22
HETATM   22  C20 UNL     1      -5.775  17.443  20.167  1.00  0.00     0.107 C 
BRANCH  22  23
HETATM   23  C21 UNL     1      -7.022  18.011  20.726  1.00  0.00     0.047 C 
BRANCH  23  24
HETATM   24  C22 UNL     1      -7.981  17.015  21.171  1.00  0.00    -0.058 A 
HETATM   25  C23 UNL     1      -9.293  17.148  20.718  1.00  0.00     0.007 A 
HETATM   26  C24 UNL     1     -10.263  16.239  21.027  1.00  0.00     0.001 A 
HETATM   27  C25 UNL     1      -9.920  15.152  21.816  1.00  0.00     0.000 A 
HETATM   28  C26 UNL     1      -8.639  14.992  22.277  1.00  0.00     0.001 A 
HETATM   29  C27 UNL     1      -7.664  15.947  21.939  1.00  0.00     0.007 A 
ENDBRANCH  23  24
ENDBRANCH  22  23
ENDBRANCH  19  22
ENDBRANCH  17  18
ENDBRANCH  14  17
ENDBRANCH  12  13
ENDBRANCH  11  12
ENDBRANCH  10  11
ENDBRANCH   7  10
ENDBRANCH   6   7
ENDBRANCH   5   6
ENDBRANCH   3   5
BRANCH   1  30
HETATM   30  C8  UNL     1     -11.225  13.822  27.339  1.00  0.00     0.225 C 
BRANCH  30  31
HETATM   31  N5  UNL     1     -12.259  14.003  28.303  1.00  0.00    -0.346 N 
HETATM   32  C7  UNL     1     -12.025  13.998  29.682  1.00  0.00     0.287 C 
HETATM   33  O1  UNL     1     -10.862  13.823  30.114  1.00  0.00    -0.264 OA
ATOM     34  H5  UNL     1     -13.214  14.142  27.972  1.00  0.00     0.163 HD
BRANCH  32  35
HETATM   35  C6  UNL     1     -13.136  14.199  30.650  1.00  0.00     0.194 A 
HETATM   36  N4  UNL     1     -13.284  14.042  31.890  1.00  0.00    -0.220 N 
HETATM   37  C28 UNL     1     -14.629  14.475  31.868  1.00  0.00     0.411 A 
HETATM   38  N10 UNL     1     -14.447  14.654  30.494  1.00  0.00    -0.326 N 
ATOM     39  H10 UNL     1     -15.022  14.977  29.715  1.00  0.00     0.165 HD
BRANCH  36  40
HETATM   40  N3  UNL     1     -12.417  13.592  32.926  1.00  0.00    -0.266 N 
HETATM   41  C5  UNL     1     -11.542  14.503  33.561  1.00  0.00     0.203 C 
HETATM   42  N1  UNL     1     -10.354  14.142  33.855  1.00  0.00    -0.363 N 
HETATM   43  N2  UNL     1     -11.978  15.810  33.868  1.00  0.00    -0.062 NA
ATOM     44  H1  UNL     1     -10.034  13.199  33.636  1.00  0.00     0.162 HD
ATOM     45  H3  UNL     1     -12.428  12.613  33.209  1.00  0.00     0.190 HD
BRANCH  42  46
HETATM   46  C4  UNL     1      -9.469  15.081  34.501  1.00  0.00     0.122 C 
BRANCH  46  47
HETATM   47  C3  UNL     1      -8.315  15.441  33.624  1.00  0.00     0.019 C 
BRANCH  47  48
HETATM   48  C2  UNL     1      -8.549  16.683  32.833  1.00  0.00    -0.003 C 
HETATM   49  C1  UNL     1      -8.562  16.517  31.354  1.00  0.00     0.005 C 
ENDBRANCH  47  48
ENDBRANCH  46  47
ENDBRANCH  42  46
ENDBRANCH  36  40
BRANCH  37  50
HETATM   50  N11 UNL     1     -14.866  15.686  32.658  1.00  0.00    -0.039 N 
ATOM     51 3H11 UNL     1     -14.242  16.438  32.362  1.00  0.00     0.279 HD
ATOM     52 2H11 UNL     1     -15.763  16.106  32.415  1.00  0.00     0.279 HD
ATOM     53 1H11 UNL     1     -14.798  15.535  33.665  1.00  0.00     0.279 HD
ENDBRANCH  37  50
ENDBRANCH  32  35
ENDBRANCH  30  31
ENDBRANCH   1  30
TORSDOF 20
ENDMDL
