MODEL 1
REMARK VINA RESULT: -7.637130677      0.000      0.000
REMARK  19 active torsions:
REMARK  status: ('A' for Active; 'I' for Inactive)
REMARK    1  A    between atoms: C2_2  and  C3_3 
REMARK    2  A    between atoms: C3_3  and  C4_4 
REMARK    3  A    between atoms: C4_4  and  C5_5 
REMARK    4  A    between atoms: C4_4  and  C9_14 
REMARK    5  A    between atoms: C4_4  and  N8_27 
REMARK       I    between atoms: C5_5  and  N1_7 
REMARK       I    between atoms: C6_9  and  N3_11 
REMARK       I    between atoms: C9_14  and  N4_16 
REMARK    6  A    between atoms: N4_16  and  C10_18 
REMARK    7  A    between atoms: C10_18  and  C11_19 
REMARK    8  A    between atoms: C11_19  and  N5_20 
REMARK       I    between atoms: N5_20  and  C12_22 
REMARK    9  A    between atoms: N8_27  and  C13_28 
REMARK   10  A    between atoms: N8_27  and  C23_47 
REMARK   11  A    between atoms: C13_28  and  C14_29 
REMARK   12  A    between atoms: C14_29  and  N9_30 
REMARK       I    between atoms: N9_30  and  C15_32 
REMARK       I    between atoms: C15_32  and  N10_34 
REMARK   13  A    between atoms: N10_34  and  C16_36 
REMARK   14  A    between atoms: C16_36  and  C17_37 
REMARK   15  A    between atoms: C17_37  and  C18_38 
REMARK   16  A    between atoms: C18_38  and  N11_39 
REMARK   17  A    between atoms: N11_39  and  C19_42 
REMARK   18  A    between atoms: C19_42  and  N12_43 
REMARK   19  A    between atoms: C23_47  and  C24_48 
ROOT
HETATM    1  N8  UNL     1      -6.049  17.658  24.717  1.00  0.00    -0.361 N 
ENDROOT
BRANCH   1   2
HETATM    2  C4  UNL     1      -5.359  18.470  23.836  1.00  0.00     0.195 C 
BRANCH   2   3
HETATM    3  C3  UNL     1      -5.579  19.953  24.125  1.00  0.00     0.051 C 
BRANCH   3   4
HETATM    4  C2  UNL     1      -4.489  20.668  24.836  1.00  0.00    -0.001 C 
HETATM    5  C1  UNL     1      -4.760  20.547  26.369  1.00  0.00     0.005 C 
ENDBRANCH   3   4
ENDBRANCH   2   3
BRANCH   2   6
HETATM    6  C5  UNL     1      -3.979  18.165  23.612  1.00  0.00     0.262 C 
HETATM    7  O1  UNL     1      -3.248  18.952  22.907  1.00  0.00    -0.270 OA
HETATM    8  N1  UNL     1      -3.231  17.052  24.078  1.00  0.00    -0.299 N 
HETATM    9  C6  UNL     1      -2.279  16.448  23.532  1.00  0.00     0.192 C 
ATOM     10  H1  UNL     1      -3.509  16.691  24.991  1.00  0.00     0.171 HD
HETATM   11  N2  UNL     1      -1.722  15.339  24.276  1.00  0.00    -0.063 NA
HETATM   12  N3  UNL     1      -1.687  16.716  22.293  1.00  0.00    -0.364 N 
HETATM   13  C7  UNL     1      -0.585  17.631  22.132  1.00  0.00     0.151 C 
HETATM   14  C8  UNL     1      -2.196  16.043  21.110  1.00  0.00     0.151 C 
ENDBRANCH   2   6
BRANCH   2  15
HETATM   15  C9  UNL     1      -5.997  18.382  22.410  1.00  0.00     0.256 C 
HETATM   16  O2  UNL     1      -6.919  19.150  22.078  1.00  0.00    -0.270 OA
HETATM   17  N4  UNL     1      -5.533  17.420  21.492  1.00  0.00    -0.357 N 
ATOM     18  H4  UNL     1      -4.787  16.784  21.770  1.00  0.00     0.162 HD
BRANCH  17  19
HETATM   19  C10 UNL     1      -6.090  17.316  20.172  1.00  0.00     0.142 C 
BRANCH  19  20
HETATM   20  C11 UNL     1      -7.139  16.255  20.120  1.00  0.00     0.142 C 
BRANCH  20  21
HETATM   21  N5  UNL     1      -8.426  16.899  20.309  1.00  0.00    -0.363 N 
HETATM   22  C12 UNL     1      -9.473  16.202  20.960  1.00  0.00     0.181 C 
HETATM   23  N6  UNL     1     -10.696  16.611  20.851  1.00  0.00    -0.374 N 
HETATM   24  N7  UNL     1      -9.193  15.044  21.743  1.00  0.00    -0.064 NA
ATOM     25  H62 UNL     1     -10.895  17.440  20.290  1.00  0.00     0.158 HD
ATOM     26  H61 UNL     1     -11.450  16.109  21.320  1.00  0.00     0.158 HD
ATOM     27  H5  UNL     1      -8.576  17.850  19.973  1.00  0.00     0.162 HD
ENDBRANCH  20  21
ENDBRANCH  19  20
ENDBRANCH  17  19
ENDBRANCH   2  15
ENDBRANCH   1   2
BRANCH   1  28
HETATM   28  C13 UNL     1      -7.348  17.178  24.369  1.00  0.00     0.143 C 
BRANCH  28  29
HETATM   29  C14 UNL     1      -7.697  15.761  24.512  1.00  0.00     0.144 C 
BRANCH  29  30
HETATM   30  N9  UNL     1      -9.111  15.598  24.857  1.00  0.00    -0.342 N 
HETATM   31  C15 UNL     1      -9.483  14.851  25.992  1.00  0.00     0.316 C 
HETATM   32  O3  UNL     1      -8.584  14.311  26.691  1.00  0.00    -0.247 OA
HETATM   33  N10 UNL     1     -10.860  14.742  26.298  1.00  0.00    -0.343 N 
ATOM     34  H10 UNL     1     -11.543  15.188  25.686  1.00  0.00     0.164 HD
ATOM     35  H9  UNL     1      -9.829  16.028  24.273  1.00  0.00     0.164 HD
BRANCH  33  36
HETATM   36  C16 UNL     1     -11.315  14.023  27.444  1.00  0.00     0.126 C 
BRANCH  36  37
HETATM   37  C17 UNL     1     -12.752  13.600  27.250  1.00  0.00     0.047 C 
BRANCH  37  38
HETATM   38  C18 UNL     1     -13.672  14.738  27.635  1.00  0.00     0.236 C 
BRANCH  38  39
HETATM   39  N11 UNL     1     -13.482  15.073  29.014  1.00  0.00    -0.051 N 
ATOM     40 2H11 UNL     1     -12.508  14.974  29.298  1.00  0.00     0.279 HD
ATOM     41 1H11 UNL     1     -13.587  16.075  29.180  1.00  0.00     0.279 HD
BRANCH  39  42
HETATM   42  C19 UNL     1     -14.363  14.299  29.844  1.00  0.00     0.466 C 
BRANCH  42  43
HETATM   43  N12 UNL     1     -13.630  13.845  31.018  1.00  0.00    -0.055 N 
HETATM   44  C20 UNL     1     -12.319  14.462  31.066  1.00  0.00     0.273 C 
HETATM   45  C21 UNL     1     -14.369  14.225  32.198  1.00  0.00     0.273 C 
HETATM   46  C22 UNL     1     -13.454  12.408  30.933  1.00  0.00     0.273 C 
ENDBRANCH  42  43
ENDBRANCH  39  42
ENDBRANCH  38  39
ENDBRANCH  37  38
ENDBRANCH  36  37
ENDBRANCH  33  36
ENDBRANCH  29  30
ENDBRANCH  28  29
ENDBRANCH   1  28
BRANCH   1  47
HETATM   47  C23 UNL     1      -5.719  17.375  26.034  1.00  0.00     0.118 C 
BRANCH  47  48
HETATM   48  C24 UNL     1      -6.749  17.394  27.102  1.00  0.00     0.064 A 
HETATM   49  C25 UNL     1      -7.637  18.384  27.389  1.00  0.00     0.119 A 
HETATM   50  N13 UNL     1      -8.375  18.039  28.439  1.00  0.00    -0.360 N 
HETATM   51  C26 UNL     1      -7.940  16.825  28.808  1.00  0.00     0.180 A 
ATOM     52  H13 UNL     1      -9.119  18.585  28.874  1.00  0.00     0.166 HD
HETATM   53  N14 UNL     1      -6.953  16.415  28.008  1.00  0.00    -0.350 N 
ATOM     54  H14 UNL     1      -6.448  15.531  28.070  1.00  0.00     0.166 HD
ENDBRANCH  47  48
ENDBRANCH   1  47
TORSDOF 19
ENDMDL
MODEL 2
REMARK VINA RESULT: -7.608360166      3.651     11.618
REMARK  19 active torsions:
REMARK  status: ('A' for Active; 'I' for Inactive)
REMARK    1  A    between atoms: C2_2  and  C3_3 
REMARK    2  A    between atoms: C3_3  and  C4_4 
REMARK    3  A    between atoms: C4_4  and  C5_5 
REMARK    4  A    between atoms: C4_4  and  C9_14 
REMARK    5  A    between atoms: C4_4  and  N8_27 
REMARK       I    between atoms: C5_5  and  N1_7 
REMARK       I    between atoms: C6_9  and  N3_11 
REMARK       I    between atoms: C9_14  and  N4_16 
REMARK    6  A    between atoms: N4_16  and  C10_18 
REMARK    7  A    between atoms: C10_18  and  C11_19 
REMARK    8  A    between atoms: C11_19  and  N5_20 
REMARK       I    between atoms: N5_20  and  C12_22 
REMARK    9  A    between atoms: N8_27  and  C13_28 
REMARK   10  A    between atoms: N8_27  and  C23_47 
REMARK   11  A    between atoms: C13_28  and  C14_29 
REMARK   12  A    between atoms: C14_29  and  N9_30 
REMARK       I    between atoms: N9_30  and  C15_32 
REMARK       I    between atoms: C15_32  and  N10_34 
REMARK   13  A    between atoms: N10_34  and  C16_36 
REMARK   14  A    between atoms: C16_36  and  C17_37 
REMARK   15  A    between atoms: C17_37  and  C18_38 
REMARK   16  A    between atoms: C18_38  and  N11_39 
REMARK   17  A    between atoms: N11_39  and  C19_42 
REMARK   18  A    between atoms: C19_42  and  N12_43 
REMARK   19  A    between atoms: C23_47  and  C24_48 
ROOT
HETATM    1  N8  UNL     1     -13.123  14.128  30.530  1.00  0.00    -0.361 N 
ENDROOT
BRANCH   1   2
HETATM    2  C4  UNL     1     -14.016  13.789  31.530  1.00  0.00     0.195 C 
BRANCH   2   3
HETATM    3  C3  UNL     1     -15.301  14.609  31.457  1.00  0.00     0.051 C 
BRANCH   3   4
HETATM    4  C2  UNL     1     -16.151  14.421  30.254  1.00  0.00    -0.001 C 
HETATM    5  C1  UNL     1     -17.640  14.386  30.724  1.00  0.00     0.005 C 
ENDBRANCH   3   4
ENDBRANCH   2   3
BRANCH   2   6
HETATM    6  C5  UNL     1     -14.277  12.396  31.727  1.00  0.00     0.262 C 
HETATM    7  O1  UNL     1     -15.301  12.019  32.405  1.00  0.00    -0.270 OA
HETATM    8  N1  UNL     1     -13.533  11.281  31.260  1.00  0.00    -0.299 N 
HETATM    9  C6  UNL     1     -13.360  10.160  31.793  1.00  0.00     0.192 C 
ATOM     10  H1  UNL     1     -13.073  11.410  30.358  1.00  0.00     0.171 HD
HETATM   11  N2  UNL     1     -12.539   9.226  31.052  1.00  0.00    -0.063 NA
HETATM   12  N3  UNL     1     -13.863   9.701  33.015  1.00  0.00    -0.364 N 
HETATM   13  C7  UNL     1     -15.138   9.040  33.138  1.00  0.00     0.151 C 
HETATM   14  C8  UNL     1     -13.071   9.889  34.217  1.00  0.00     0.151 C 
ENDBRANCH   2   6
BRANCH   2  15
HETATM   15  C9  UNL     1     -13.475  14.268  32.918  1.00  0.00     0.256 C 
HETATM   16  O2  UNL     1     -13.407  15.481  33.189  1.00  0.00    -0.270 OA
HETATM   17  N4  UNL     1     -13.053  13.321  33.872  1.00  0.00    -0.357 N 
ATOM     18  H4  UNL     1     -13.099  12.328  33.644  1.00  0.00     0.162 HD
BRANCH  17  19
HETATM   19  C10 UNL     1     -12.560  13.724  35.159  1.00  0.00     0.142 C 
BRANCH  19  20
HETATM   20  C11 UNL     1     -11.102  14.039  35.095  1.00  0.00     0.142 C 
BRANCH  20  21
HETATM   21  N5  UNL     1     -10.962  15.483  35.111  1.00  0.00    -0.363 N 
HETATM   22  C12 UNL     1      -9.849  16.089  34.479  1.00  0.00     0.181 C 
HETATM   23  N6  UNL     1      -9.529  17.313  34.754  1.00  0.00    -0.374 N 
HETATM   24  N7  UNL     1      -9.069  15.361  33.533  1.00  0.00    -0.064 NA
ATOM     25  H62 UNL     1     -10.088  17.833  35.430  1.00  0.00     0.158 HD
ATOM     26  H61 UNL     1      -8.727  17.749  34.298  1.00  0.00     0.158 HD
ATOM     27  H5  UNL     1     -11.662  16.060  35.576  1.00  0.00     0.162 HD
ENDBRANCH  20  21
ENDBRANCH  19  20
ENDBRANCH  17  19
ENDBRANCH   2  15
ENDBRANCH   1   2
BRANCH   1  28
HETATM   28  C13 UNL     1     -13.609  14.549  29.257  1.00  0.00     0.143 C 
BRANCH  28  29
HETATM   29  C14 UNL     1     -13.104  13.955  28.015  1.00  0.00     0.144 C 
BRANCH  29  30
HETATM   30  N9  UNL     1     -12.492  14.971  27.155  1.00  0.00    -0.342 N 
HETATM   31  C15 UNL     1     -11.160  14.822  26.719  1.00  0.00     0.316 C 
HETATM   32  O3  UNL     1     -10.502  13.814  27.094  1.00  0.00    -0.247 OA
HETATM   33  N10 UNL     1     -10.620  15.817  25.871  1.00  0.00    -0.343 N 
ATOM     34  H10 UNL     1     -11.196  16.618  25.613  1.00  0.00     0.164 HD
ATOM     35  H9  UNL     1     -13.031  15.788  26.872  1.00  0.00     0.164 HD
BRANCH  33  36
HETATM   36  C16 UNL     1      -9.288  15.725  25.367  1.00  0.00     0.126 C 
BRANCH  36  37
HETATM   37  C17 UNL     1      -9.210  16.352  23.995  1.00  0.00     0.047 C 
BRANCH  37  38
HETATM   38  C18 UNL     1      -7.943  17.170  23.882  1.00  0.00     0.236 C 
BRANCH  38  39
HETATM   39  N11 UNL     1      -7.738  17.922  25.084  1.00  0.00    -0.051 N 
ATOM     40 2H11 UNL     1      -8.245  18.807  25.068  1.00  0.00     0.279 HD
ATOM     41 1H11 UNL     1      -8.206  17.494  25.883  1.00  0.00     0.279 HD
BRANCH  39  42
HETATM   42  C19 UNL     1      -6.336  18.113  25.323  1.00  0.00     0.466 C 
BRANCH  42  43
HETATM   43  N12 UNL     1      -6.124  18.334  26.747  1.00  0.00    -0.055 N 
HETATM   44  C20 UNL     1      -5.213  19.441  26.957  1.00  0.00     0.273 C 
HETATM   45  C21 UNL     1      -7.392  18.650  27.358  1.00  0.00     0.273 C 
HETATM   46  C22 UNL     1      -5.531  17.141  27.323  1.00  0.00     0.273 C 
ENDBRANCH  42  43
ENDBRANCH  39  42
ENDBRANCH  38  39
ENDBRANCH  37  38
ENDBRANCH  36  37
ENDBRANCH  33  36
ENDBRANCH  29  30
ENDBRANCH  28  29
ENDBRANCH   1  28
BRANCH   1  47
HETATM   47  C23 UNL     1     -11.749  13.935  30.530  1.00  0.00     0.118 C 
BRANCH  47  48
HETATM   48  C24 UNL     1     -10.814  15.087  30.499  1.00  0.00     0.064 A 
HETATM   49  C25 UNL     1      -9.552  15.125  29.992  1.00  0.00     0.119 A 
HETATM   50  N13 UNL     1      -9.026  16.330  30.181  1.00  0.00    -0.360 N 
HETATM   51  C26 UNL     1      -9.968  17.046  30.812  1.00  0.00     0.180 A 
ATOM     52  H13 UNL     1      -8.096  16.646  29.904  1.00  0.00     0.166 HD
HETATM   53  N14 UNL     1     -11.063  16.309  31.014  1.00  0.00    -0.350 N 
ATOM     54  H14 UNL     1     -11.923  16.612  31.471  1.00  0.00     0.166 HD
ENDBRANCH  47  48
ENDBRANCH   1  47
TORSDOF 19
ENDMDL
MODEL 3
REMARK VINA RESULT: -7.480673791      3.605     11.863
REMARK  19 active torsions:
REMARK  status: ('A' for Active; 'I' for Inactive)
REMARK    1  A    between atoms: C2_2  and  C3_3 
REMARK    2  A    between atoms: C3_3  and  C4_4 
REMARK    3  A    between atoms: C4_4  and  C5_5 
REMARK    4  A    between atoms: C4_4  and  C9_14 
REMARK    5  A    between atoms: C4_4  and  N8_27 
REMARK       I    between atoms: C5_5  and  N1_7 
REMARK       I    between atoms: C6_9  and  N3_11 
REMARK       I    between atoms: C9_14  and  N4_16 
REMARK    6  A    between atoms: N4_16  and  C10_18 
REMARK    7  A    between atoms: C10_18  and  C11_19 
REMARK    8  A    between atoms: C11_19  and  N5_20 
REMARK       I    between atoms: N5_20  and  C12_22 
REMARK    9  A    between atoms: N8_27  and  C13_28 
REMARK   10  A    between atoms: N8_27  and  C23_47 
REMARK   11  A    between atoms: C13_28  and  C14_29 
REMARK   12  A    between atoms: C14_29  and  N9_30 
REMARK       I    between atoms: N9_30  and  C15_32 
REMARK       I    between atoms: C15_32  and  N10_34 
REMARK   13  A    between atoms: N10_34  and  C16_36 
REMARK   14  A    between atoms: C16_36  and  C17_37 
REMARK   15  A    between atoms: C17_37  and  C18_38 
REMARK   16  A    between atoms: C18_38  and  N11_39 
REMARK   17  A    between atoms: N11_39  and  C19_42 
REMARK   18  A    between atoms: C19_42  and  N12_43 
REMARK   19  A    between atoms: C23_47  and  C24_48 
ROOT
HETATM    1  N8  UNL     1     -12.239  13.636  30.802  1.00  0.00    -0.361 N 
ENDROOT
BRANCH   1   2
HETATM    2  C4  UNL     1     -13.344  13.586  31.631  1.00  0.00     0.195 C 
BRANCH   2   3
HETATM    3  C3  UNL     1     -14.438  14.556  31.193  1.00  0.00     0.051 C 
BRANCH   3   4
HETATM    4  C2  UNL     1     -15.381  14.079  30.150  1.00  0.00    -0.001 C 
HETATM    5  C1  UNL     1     -16.826  14.459  30.604  1.00  0.00     0.005 C 
ENDBRANCH   3   4
ENDBRANCH   2   3
BRANCH   2   6
HETATM    6  C5  UNL     1     -13.867  12.292  31.945  1.00  0.00     0.262 C 
HETATM    7  O1  UNL     1     -14.912  12.177  32.683  1.00  0.00    -0.270 OA
HETATM    8  N1  UNL     1     -13.383  11.020  31.542  1.00  0.00    -0.299 N 
HETATM    9  C6  UNL     1     -13.410   9.927  32.155  1.00  0.00     0.192 C 
ATOM     10  H1  UNL     1     -12.950  10.990  30.618  1.00  0.00     0.171 HD
HETATM   11  N2  UNL     1     -12.828   8.797  31.462  1.00  0.00    -0.063 NA
HETATM   12  N3  UNL     1     -13.936   9.665  33.424  1.00  0.00    -0.364 N 
HETATM   13  C7  UNL     1     -15.309   9.285  33.641  1.00  0.00     0.151 C 
HETATM   14  C8  UNL     1     -13.065   9.773  34.582  1.00  0.00     0.151 C 
ENDBRANCH   2   6
BRANCH   2  15
HETATM   15  C9  UNL     1     -12.995  14.197  33.029  1.00  0.00     0.256 C 
HETATM   16  O2  UNL     1     -13.227  15.395  33.274  1.00  0.00    -0.270 OA
HETATM   17  N4  UNL     1     -12.405  13.389  34.021  1.00  0.00    -0.357 N 
ATOM     18  H4  UNL     1     -12.204  12.411  33.814  1.00  0.00     0.162 HD
BRANCH  17  19
HETATM   19  C10 UNL     1     -12.079  13.913  35.318  1.00  0.00     0.142 C 
BRANCH  19  20
HETATM   20  C11 UNL     1     -10.663  14.383  35.360  1.00  0.00     0.142 C 
BRANCH  20  21
HETATM   21  N5  UNL     1     -10.669  15.820  35.157  1.00  0.00    -0.363 N 
HETATM   22  C12 UNL     1      -9.628  16.430  34.416  1.00  0.00     0.181 C 
HETATM   23  N6  UNL     1      -9.430  17.707  34.498  1.00  0.00    -0.374 N 
HETATM   24  N7  UNL     1      -8.785  15.648  33.572  1.00  0.00    -0.064 NA
ATOM     25  H62 UNL     1     -10.033  18.266  35.102  1.00  0.00     0.158 HD
ATOM     26  H61 UNL     1      -8.680  18.146  33.964  1.00  0.00     0.158 HD
ATOM     27  H5  UNL     1     -11.420  16.389  35.547  1.00  0.00     0.162 HD
ENDBRANCH  20  21
ENDBRANCH  19  20
ENDBRANCH  17  19
ENDBRANCH   2  15
ENDBRANCH   1   2
BRANCH   1  28
HETATM   28  C13 UNL     1     -11.127  14.460  31.151  1.00  0.00     0.143 C 
BRANCH  28  29
HETATM   29  C14 UNL     1     -11.065  15.867  30.741  1.00  0.00     0.144 C 
BRANCH  29  30
HETATM   30  N9  UNL     1      -9.733  16.210  30.236  1.00  0.00    -0.342 N 
HETATM   31  C15 UNL     1      -9.595  17.034  29.101  1.00  0.00     0.316 C 
HETATM   32  O3  UNL     1     -10.632  17.453  28.519  1.00  0.00    -0.247 OA
HETATM   33  N10 UNL     1      -8.289  17.358  28.665  1.00  0.00    -0.343 N 
ATOM     34  H10 UNL     1      -7.488  16.976  29.168  1.00  0.00     0.164 HD
ATOM     35  H9  UNL     1      -8.904  15.852  30.708  1.00  0.00     0.164 HD
BRANCH  33  36
HETATM   36  C16 UNL     1      -8.067  18.206  27.539  1.00  0.00     0.126 C 
BRANCH  36  37
HETATM   37  C17 UNL     1      -7.727  17.373  26.325  1.00  0.00     0.047 C 
BRANCH  37  38
HETATM   38  C18 UNL     1      -8.858  17.454  25.323  1.00  0.00     0.236 C 
BRANCH  38  39
HETATM   39  N11 UNL     1      -8.327  17.598  24.001  1.00  0.00    -0.051 N 
ATOM     40 2H11 UNL     1      -8.459  18.542  23.640  1.00  0.00     0.279 HD
ATOM     41 1H11 UNL     1      -7.307  17.575  23.996  1.00  0.00     0.279 HD
BRANCH  39  42
HETATM   42  C19 UNL     1      -8.888  16.608  23.125  1.00  0.00     0.466 C 
BRANCH  42  43
HETATM   43  N12 UNL     1      -8.405  16.844  21.772  1.00  0.00    -0.055 N 
HETATM   44  C20 UNL     1      -7.688  15.684  21.281  1.00  0.00     0.273 C 
HETATM   45  C21 UNL     1      -9.539  17.089  20.914  1.00  0.00     0.273 C 
HETATM   46  C22 UNL     1      -7.490  17.970  21.791  1.00  0.00     0.273 C 
ENDBRANCH  42  43
ENDBRANCH  39  42
ENDBRANCH  38  39
ENDBRANCH  37  38
ENDBRANCH  36  37
ENDBRANCH  33  36
ENDBRANCH  29  30
ENDBRANCH  28  29
ENDBRANCH   1  28
BRANCH   1  47
HETATM   47  C23 UNL     1     -12.123  13.112  29.524  1.00  0.00     0.118 C 
BRANCH  47  48
HETATM   48  C24 UNL     1     -11.967  13.998  28.343  1.00  0.00     0.064 A 
HETATM   49  C25 UNL     1     -12.834  14.942  27.887  1.00  0.00     0.119 A 
HETATM   50  N13 UNL     1     -12.351  15.504  26.785  1.00  0.00    -0.360 N 
HETATM   51  C26 UNL     1     -11.174  14.904  26.554  1.00  0.00     0.180 A 
ATOM     52  H13 UNL     1     -12.785  16.241  26.229  1.00  0.00     0.166 HD
HETATM   53  N14 UNL     1     -10.922  13.986  27.490  1.00  0.00    -0.350 N 
ATOM     54  H14 UNL     1     -10.097  13.388  27.549  1.00  0.00     0.166 HD
ENDBRANCH  47  48
ENDBRANCH   1  47
TORSDOF 19
ENDMDL
MODEL 4
REMARK VINA RESULT: -7.459023798      2.458     10.142
REMARK  19 active torsions:
REMARK  status: ('A' for Active; 'I' for Inactive)
REMARK    1  A    between atoms: C2_2  and  C3_3 
REMARK    2  A    between atoms: C3_3  and  C4_4 
REMARK    3  A    between atoms: C4_4  and  C5_5 
REMARK    4  A    between atoms: C4_4  and  C9_14 
REMARK    5  A    between atoms: C4_4  and  N8_27 
REMARK       I    between atoms: C5_5  and  N1_7 
REMARK       I    between atoms: C6_9  and  N3_11 
REMARK       I    between atoms: C9_14  and  N4_16 
REMARK    6  A    between atoms: N4_16  and  C10_18 
REMARK    7  A    between atoms: C10_18  and  C11_19 
REMARK    8  A    between atoms: C11_19  and  N5_20 
REMARK       I    between atoms: N5_20  and  C12_22 
REMARK    9  A    between atoms: N8_27  and  C13_28 
REMARK   10  A    between atoms: N8_27  and  C23_47 
REMARK   11  A    between atoms: C13_28  and  C14_29 
REMARK   12  A    between atoms: C14_29  and  N9_30 
REMARK       I    between atoms: N9_30  and  C15_32 
REMARK       I    between atoms: C15_32  and  N10_34 
REMARK   13  A    between atoms: N10_34  and  C16_36 
REMARK   14  A    between atoms: C16_36  and  C17_37 
REMARK   15  A    between atoms: C17_37  and  C18_38 
REMARK   16  A    between atoms: C18_38  and  N11_39 
REMARK   17  A    between atoms: N11_39  and  C19_42 
REMARK   18  A    between atoms: C19_42  and  N12_43 
REMARK   19  A    between atoms: C23_47  and  C24_48 
ROOT
HETATM    1  N8  UNL     1      -9.782  15.314  27.935  1.00  0.00    -0.361 N 
ENDROOT
BRANCH   1   2
HETATM    2  C4  UNL     1     -10.799  15.505  28.852  1.00  0.00     0.195 C 
BRANCH   2   3
HETATM    3  C3  UNL     1     -11.937  16.349  28.284  1.00  0.00     0.051 C 
BRANCH   3   4
HETATM    4  C2  UNL     1     -13.310  15.794  28.403  1.00  0.00    -0.001 C 
HETATM    5  C1  UNL     1     -13.683  15.145  27.033  1.00  0.00     0.005 C 
ENDBRANCH   3   4
ENDBRANCH   2   3
BRANCH   2   6
HETATM    6  C5  UNL     1     -11.281  14.349  29.543  1.00  0.00     0.262 C 
HETATM    7  O1  UNL     1     -11.213  13.190  28.993  1.00  0.00    -0.270 OA
HETATM    8  N1  UNL     1     -11.864  14.268  30.835  1.00  0.00    -0.299 N 
HETATM    9  C6  UNL     1     -12.748  13.490  31.262  1.00  0.00     0.192 C 
ATOM     10  H1  UNL     1     -11.511  14.941  31.515  1.00  0.00     0.171 HD
HETATM   11  N2  UNL     1     -13.131  13.665  32.647  1.00  0.00    -0.063 NA
HETATM   12  N3  UNL     1     -13.409  12.473  30.565  1.00  0.00    -0.364 N 
HETATM   13  C7  UNL     1     -12.915  11.121  30.497  1.00  0.00     0.151 C 
HETATM   14  C8  UNL     1     -14.653  12.782  29.882  1.00  0.00     0.151 C 
ENDBRANCH   2   6
BRANCH   2  15
HETATM   15  C9  UNL     1     -10.317  16.452  30.000  1.00  0.00     0.256 C 
HETATM   16  O2  UNL     1     -10.642  17.654  30.011  1.00  0.00    -0.270 OA
HETATM   17  N4  UNL     1      -9.499  15.947  31.030  1.00  0.00    -0.357 N 
ATOM     18  H4  UNL     1      -9.224  14.966  31.013  1.00  0.00     0.162 HD
BRANCH  17  19
HETATM   19  C10 UNL     1      -9.045  16.786  32.104  1.00  0.00     0.142 C 
BRANCH  19  20
HETATM   20  C11 UNL     1      -8.560  15.962  33.251  1.00  0.00     0.142 C 
BRANCH  20  21
HETATM   21  N5  UNL     1      -9.470  14.843  33.406  1.00  0.00    -0.363 N 
HETATM   22  C12 UNL     1     -10.446  14.866  34.432  1.00  0.00     0.181 C 
HETATM   23  N6  UNL     1     -11.034  13.773  34.798  1.00  0.00    -0.374 N 
HETATM   24  N7  UNL     1     -10.792  16.092  35.074  1.00  0.00    -0.064 NA
ATOM     25  H62 UNL     1     -10.787  12.897  34.339  1.00  0.00     0.158 HD
ATOM     26  H61 UNL     1     -11.737  13.790  35.537  1.00  0.00     0.158 HD
ATOM     27  H5  UNL     1      -9.407  14.042  32.779  1.00  0.00     0.162 HD
ENDBRANCH  20  21
ENDBRANCH  19  20
ENDBRANCH  17  19
ENDBRANCH   2  15
ENDBRANCH   1   2
BRANCH   1  28
HETATM   28  C13 UNL     1     -10.075  14.747  26.658  1.00  0.00     0.143 C 
BRANCH  28  29
HETATM   29  C14 UNL     1      -9.124  14.846  25.546  1.00  0.00     0.144 C 
BRANCH  29  30
HETATM   30  N9  UNL     1      -9.610  15.769  24.518  1.00  0.00    -0.342 N 
HETATM   31  C15 UNL     1      -9.178  15.635  23.183  1.00  0.00     0.316 C 
HETATM   32  O3  UNL     1      -8.357  14.723  22.894  1.00  0.00    -0.247 OA
HETATM   33  N10 UNL     1      -9.693  16.534  22.221  1.00  0.00    -0.343 N 
ATOM     34  H10 UNL     1     -10.344  17.262  22.517  1.00  0.00     0.164 HD
ATOM     35  H9  UNL     1     -10.263  16.511  24.769  1.00  0.00     0.164 HD
BRANCH  33  36
HETATM   36  C16 UNL     1      -9.324  16.448  20.845  1.00  0.00     0.126 C 
BRANCH  36  37
HETATM   37  C17 UNL     1      -8.241  17.455  20.537  1.00  0.00     0.047 C 
BRANCH  37  38
HETATM   38  C18 UNL     1      -6.912  16.744  20.398  1.00  0.00     0.236 C 
BRANCH  38  39
HETATM   39  N11 UNL     1      -6.188  16.819  21.632  1.00  0.00    -0.051 N 
ATOM     40 2H11 UNL     1      -6.797  16.683  22.438  1.00  0.00     0.279 HD
ATOM     41 1H11 UNL     1      -5.579  16.011  21.764  1.00  0.00     0.279 HD
BRANCH  39  42
HETATM   42  C19 UNL     1      -5.462  18.055  21.712  1.00  0.00     0.466 C 
BRANCH  42  43
HETATM   43  N12 UNL     1      -5.372  18.461  23.108  1.00  0.00    -0.055 N 
HETATM   44  C20 UNL     1      -4.123  18.006  23.687  1.00  0.00     0.273 C 
HETATM   45  C21 UNL     1      -5.420  19.901  23.174  1.00  0.00     0.273 C 
HETATM   46  C22 UNL     1      -6.463  17.852  23.845  1.00  0.00     0.273 C 
ENDBRANCH  42  43
ENDBRANCH  39  42
ENDBRANCH  38  39
ENDBRANCH  37  38
ENDBRANCH  36  37
ENDBRANCH  33  36
ENDBRANCH  29  30
ENDBRANCH  28  29
ENDBRANCH   1  28
BRANCH   1  47
HETATM   47  C23 UNL     1      -8.418  15.434  28.156  1.00  0.00     0.118 C 
BRANCH  47  48
HETATM   48  C24 UNL     1      -7.697  16.690  27.830  1.00  0.00     0.064 A 
HETATM   49  C25 UNL     1      -6.369  16.851  27.587  1.00  0.00     0.119 A 
HETATM   50  N13 UNL     1      -6.103  18.134  27.363  1.00  0.00    -0.360 N 
HETATM   51  C26 UNL     1      -7.277  18.774  27.470  1.00  0.00     0.180 A 
ATOM     52  H13 UNL     1      -5.194  18.546  27.153  1.00  0.00     0.166 HD
HETATM   53  N14 UNL     1      -8.258  17.915  27.753  1.00  0.00    -0.350 N 
ATOM     54  H14 UNL     1      -9.244  18.141  27.885  1.00  0.00     0.166 HD
ENDBRANCH  47  48
ENDBRANCH   1  47
TORSDOF 19
ENDMDL
MODEL 5
REMARK VINA RESULT: -7.442584419      2.494     10.540
REMARK  19 active torsions:
REMARK  status: ('A' for Active; 'I' for Inactive)
REMARK    1  A    between atoms: C2_2  and  C3_3 
REMARK    2  A    between atoms: C3_3  and  C4_4 
REMARK    3  A    between atoms: C4_4  and  C5_5 
REMARK    4  A    between atoms: C4_4  and  C9_14 
REMARK    5  A    between atoms: C4_4  and  N8_27 
REMARK       I    between atoms: C5_5  and  N1_7 
REMARK       I    between atoms: C6_9  and  N3_11 
REMARK       I    between atoms: C9_14  and  N4_16 
REMARK    6  A    between atoms: N4_16  and  C10_18 
REMARK    7  A    between atoms: C10_18  and  C11_19 
REMARK    8  A    between atoms: C11_19  and  N5_20 
REMARK       I    between atoms: N5_20  and  C12_22 
REMARK    9  A    between atoms: N8_27  and  C13_28 
REMARK   10  A    between atoms: N8_27  and  C23_47 
REMARK   11  A    between atoms: C13_28  and  C14_29 
REMARK   12  A    between atoms: C14_29  and  N9_30 
REMARK       I    between atoms: N9_30  and  C15_32 
REMARK       I    between atoms: C15_32  and  N10_34 
REMARK   13  A    between atoms: N10_34  and  C16_36 
REMARK   14  A    between atoms: C16_36  and  C17_37 
REMARK   15  A    between atoms: C17_37  and  C18_38 
REMARK   16  A    between atoms: C18_38  and  N11_39 
REMARK   17  A    between atoms: N11_39  and  C19_42 
REMARK   18  A    between atoms: C19_42  and  N12_43 
REMARK   19  A    between atoms: C23_47  and  C24_48 
ROOT
HETATM    1  N8  UNL     1     -10.540  14.700  27.856  1.00  0.00    -0.361 N 
ENDROOT
BRANCH   1   2
HETATM    2  C4  UNL     1     -11.419  15.245  28.773  1.00  0.00     0.195 C 
BRANCH   2   3
HETATM    3  C3  UNL     1     -12.564  15.996  28.098  1.00  0.00     0.051 C 
BRANCH   3   4
HETATM    4  C2  UNL     1     -13.937  15.482  28.335  1.00  0.00    -0.001 C 
HETATM    5  C1  UNL     1     -14.316  14.561  27.132  1.00  0.00     0.005 C 
ENDBRANCH   3   4
ENDBRANCH   2   3
BRANCH   2   6
HETATM    6  C5  UNL     1     -11.881  14.390  29.822  1.00  0.00     0.262 C 
HETATM    7  O1  UNL     1     -11.959  13.121  29.637  1.00  0.00    -0.270 OA
HETATM    8  N1  UNL     1     -12.297  14.741  31.133  1.00  0.00    -0.299 N 
HETATM    9  C6  UNL     1     -13.168  14.211  31.861  1.00  0.00     0.192 C 
ATOM     10  H1  UNL     1     -11.817  15.543  31.542  1.00  0.00     0.171 HD
HETATM   11  N2  UNL     1     -13.357  14.813  33.164  1.00  0.00    -0.063 NA
HETATM   12  N3  UNL     1     -13.977  13.108  31.570  1.00  0.00    -0.364 N 
HETATM   13  C7  UNL     1     -13.584  11.750  31.855  1.00  0.00     0.151 C 
HETATM   14  C8  UNL     1     -15.276  13.330  30.959  1.00  0.00     0.151 C 
ENDBRANCH   2   6
BRANCH   2  15
HETATM   15  C9  UNL     1     -10.736  16.431  29.532  1.00  0.00     0.256 C 
HETATM   16  O2  UNL     1     -10.847  17.599  29.115  1.00  0.00    -0.270 OA
HETATM   17  N4  UNL     1      -9.982  16.180  30.694  1.00  0.00    -0.357 N 
ATOM     18  H4  UNL     1      -9.882  15.222  31.027  1.00  0.00     0.162 HD
BRANCH  17  19
HETATM   19  C10 UNL     1      -9.349  17.245  31.420  1.00  0.00     0.142 C 
BRANCH  19  20
HETATM   20  C11 UNL     1      -8.724  16.733  32.676  1.00  0.00     0.142 C 
BRANCH  20  21
HETATM   21  N5  UNL     1      -9.355  15.467  32.998  1.00  0.00    -0.363 N 
HETATM   22  C12 UNL     1     -10.147  15.352  34.166  1.00  0.00     0.181 C 
HETATM   23  N6  UNL     1     -10.440  14.185  34.643  1.00  0.00    -0.374 N 
HETATM   24  N7  UNL     1     -10.632  16.517  34.829  1.00  0.00    -0.064 NA
ATOM     25  H62 UNL     1     -10.094  13.351  34.168  1.00  0.00     0.158 HD
ATOM     26  H61 UNL     1     -11.011  14.102  35.485  1.00  0.00     0.158 HD
ATOM     27  H5  UNL     1      -9.227  14.662  32.385  1.00  0.00     0.162 HD
ENDBRANCH  20  21
ENDBRANCH  19  20
ENDBRANCH  17  19
ENDBRANCH   2  15
ENDBRANCH   1   2
BRANCH   1  28
HETATM   28  C13 UNL     1      -9.189  14.440  28.236  1.00  0.00     0.143 C 
BRANCH  28  29
HETATM   29  C14 UNL     1      -8.072  15.154  27.609  1.00  0.00     0.144 C 
BRANCH  29  30
HETATM   30  N9  UNL     1      -7.913  16.492  28.183  1.00  0.00    -0.342 N 
HETATM   31  C15 UNL     1      -7.388  17.542  27.402  1.00  0.00     0.316 C 
HETATM   32  O3  UNL     1      -7.043  17.306  26.213  1.00  0.00    -0.247 OA
HETATM   33  N10 UNL     1      -7.275  18.822  27.993  1.00  0.00    -0.343 N 
ATOM     34  H10 UNL     1      -7.557  18.948  28.965  1.00  0.00     0.164 HD
ATOM     35  H9  UNL     1      -8.183  16.665  29.151  1.00  0.00     0.164 HD
BRANCH  33  36
HETATM   36  C16 UNL     1      -6.777  19.941  27.260  1.00  0.00     0.126 C 
BRANCH  36  37
HETATM   37  C17 UNL     1      -5.269  19.982  27.343  1.00  0.00     0.047 C 
BRANCH  37  38
HETATM   38  C18 UNL     1      -4.697  20.369  25.997  1.00  0.00     0.236 C 
BRANCH  38  39
HETATM   39  N11 UNL     1      -5.449  19.745  24.950  1.00  0.00    -0.051 N 
ATOM     40 2H11 UNL     1      -5.782  18.820  25.222  1.00  0.00     0.279 HD
ATOM     41 1H11 UNL     1      -6.354  20.196  24.811  1.00  0.00     0.279 HD
BRANCH  39  42
HETATM   42  C19 UNL     1      -4.681  19.702  23.739  1.00  0.00     0.466 C 
BRANCH  42  43
HETATM   43  N12 UNL     1      -4.691  18.341  23.219  1.00  0.00    -0.055 N 
HETATM   44  C20 UNL     1      -3.918  18.260  21.996  1.00  0.00     0.273 C 
HETATM   45  C21 UNL     1      -4.101  17.467  24.203  1.00  0.00     0.273 C 
HETATM   46  C22 UNL     1      -6.060  17.966  22.917  1.00  0.00     0.273 C 
ENDBRANCH  42  43
ENDBRANCH  39  42
ENDBRANCH  38  39
ENDBRANCH  37  38
ENDBRANCH  36  37
ENDBRANCH  33  36
ENDBRANCH  29  30
ENDBRANCH  28  29
ENDBRANCH   1  28
BRANCH   1  47
HETATM   47  C23 UNL     1     -10.745  14.527  26.495  1.00  0.00     0.118 C 
BRANCH  47  48
HETATM   48  C24 UNL     1     -10.154  15.462  25.506  1.00  0.00     0.064 A 
HETATM   49  C25 UNL     1      -9.355  15.163  24.447  1.00  0.00     0.119 A 
HETATM   50  N13 UNL     1      -9.004  16.278  23.816  1.00  0.00    -0.360 N 
HETATM   51  C26 UNL     1      -9.589  17.279  24.490  1.00  0.00     0.180 A 
ATOM     52  H13 UNL     1      -8.412  16.357  22.989  1.00  0.00     0.166 HD
HETATM   53  N14 UNL     1     -10.293  16.805  25.520  1.00  0.00    -0.350 N 
ATOM     54  H14 UNL     1     -10.832  17.352  26.191  1.00  0.00     0.166 HD
ENDBRANCH  47  48
ENDBRANCH   1  47
TORSDOF 19
ENDMDL
