MODEL 1
REMARK VINA RESULT: -7.908531391      0.000      0.000
REMARK  21 active torsions:
REMARK  status: ('A' for Active; 'I' for Inactive)
REMARK    1  A    between atoms: N1_2  and  C3_4 
REMARK    2  A    between atoms: N1_2  and  C23_44 
REMARK    3  A    between atoms: C4_5  and  C5_6 
REMARK    4  A    between atoms: C5_6  and  N2_7 
REMARK    5  A    between atoms: C8_10  and  S1_11 
REMARK    6  A    between atoms: S1_11  and  C9_12 
REMARK    7  A    between atoms: C9_12  and  C10_13 
REMARK    8  A    between atoms: C10_13  and  C11_14 
REMARK    9  A    between atoms: C11_14  and  N3_15 
REMARK       I    between atoms: C12_17  and  N4_18 
REMARK       I    between atoms: C12_17  and  N8_33 
REMARK       I    between atoms: C13_20  and  N6_22 
REMARK   10  A    between atoms: N6_22  and  C14_24 
REMARK   11  A    between atoms: C14_24  and  C15_25 
REMARK   12  A    between atoms: C15_25  and  C16_26 
REMARK   13  A    between atoms: C16_26  and  C17_27 
REMARK   14  A    between atoms: C17_27  and  C18_28 
REMARK   15  A    between atoms: C18_28  and  N7_29 
REMARK   16  A    between atoms: N8_33  and  C19_35 
REMARK   17  A    between atoms: C20_39  and  O1_40 
REMARK   18  A    between atoms: C23_44  and  C24_45 
REMARK   19  A    between atoms: C24_45  and  C25_46 
REMARK       I    between atoms: C25_46  and  N10_48 
REMARK   20  A    between atoms: N10_48  and  C26_49 
REMARK   21  A    between atoms: C26_49  and  C27_50 
ROOT
HETATM    1  N3  UNL     1      -6.120  18.786  24.674  1.00  0.00    -0.226 N 
ATOM      2  H3  UNL     1      -7.044  18.845  25.102  1.00  0.00     0.177 HD
HETATM    3  C12 UNL     1      -5.911  17.744  24.017  1.00  0.00     0.678 C 
HETATM    4  N4  UNL     1      -6.872  16.784  23.907  1.00  0.00    -0.164 N 
ATOM      5  H4  UNL     1      -6.379  15.930  23.646  1.00  0.00     0.187 HD
HETATM    6  C13 UNL     1      -8.042  16.476  23.977  1.00  0.00     0.202 C 
HETATM    7  N5  UNL     1      -9.079  17.395  24.312  1.00  0.00    -0.063 NA
HETATM    8  N6  UNL     1      -8.368  15.089  23.710  1.00  0.00    -0.364 N 
ATOM      9  H6  UNL     1      -8.511  14.444  24.487  1.00  0.00     0.162 HD
HETATM   10  N8  UNL     1      -4.667  17.474  23.375  1.00  0.00    -0.192 N 
ATOM     11  H8  UNL     1      -4.043  16.805  23.826  1.00  0.00     0.180 HD
ENDROOT
BRANCH   1  12
HETATM   12  C11 UNL     1      -5.273  19.902  24.922  1.00  0.00     0.139 C 
BRANCH  12  13
HETATM   13  C10 UNL     1      -4.548  19.658  26.185  1.00  0.00     0.031 C 
BRANCH  13  14
HETATM   14  C9  UNL     1      -5.307  19.533  27.468  1.00  0.00     0.081 C 
BRANCH  14  15
HETATM   15  S1  UNL     1      -5.816  17.932  27.837  1.00  0.00    -0.130 SA
BRANCH  15  16
HETATM   16  C8  UNL     1      -7.436  17.346  27.700  1.00  0.00     0.003 A 
HETATM   17  C7  UNL     1      -8.635  18.016  27.717  1.00  0.00     0.035 A 
HETATM   18  C6  UNL     1      -9.876  17.394  27.625  1.00  0.00     0.092 A 
HETATM   19  N2  UNL     1      -9.991  16.086  27.513  1.00  0.00    -0.363 N 
HETATM   20  C22 UNL     1      -8.823  15.390  27.485  1.00  0.00     0.092 A 
HETATM   21  C21 UNL     1      -7.594  15.926  27.570  1.00  0.00     0.035 A 
BRANCH  19  22
HETATM   22  C5  UNL     1     -11.182  15.285  27.402  1.00  0.00     0.156 C 
BRANCH  22  23
HETATM   23  C4  UNL     1     -11.179  13.988  28.097  1.00  0.00     0.018 C 
HETATM   24  C3  UNL     1     -12.261  13.304  28.731  1.00  0.00     0.199 C 
BRANCH  24  25
HETATM   25  N1  UNL     1     -13.079  13.535  29.811  1.00  0.00    -0.054 N 
HETATM   26  C1  UNL     1     -14.334  14.224  29.688  1.00  0.00     0.277 C 
HETATM   27  C2  UNL     1     -13.562  12.121  30.151  1.00  0.00     0.277 C 
BRANCH  25  28
HETATM   28  C23 UNL     1     -12.468  13.969  31.070  1.00  0.00     0.252 C 
BRANCH  28  29
HETATM   29  C24 UNL     1     -13.533  14.547  31.927  1.00  0.00     0.147 C 
BRANCH  29  30
HETATM   30  C25 UNL     1     -13.509  13.931  33.356  1.00  0.00     0.292 C 
HETATM   31  O2  UNL     1     -14.452  13.163  33.598  1.00  0.00    -0.257 OA
HETATM   32  N10 UNL     1     -12.461  14.317  34.146  1.00  0.00    -0.378 NA
BRANCH  32  33
HETATM   33  C26 UNL     1     -11.417  14.702  34.933  1.00  0.00     0.257 C 
BRANCH  33  34
HETATM   34  C27 UNL     1     -10.664  15.879  34.392  1.00  0.00     0.283 C 
HETATM   35  N11 UNL     1     -10.032  15.864  33.121  1.00  0.00    -0.056 NA
HETATM   36  O3  UNL     1     -10.585  16.956  35.088  1.00  0.00    -0.269 OA
ENDBRANCH  33  34
ENDBRANCH  32  33
ENDBRANCH  29  30
ENDBRANCH  28  29
ENDBRANCH  25  28
ENDBRANCH  24  25
ENDBRANCH  22  23
ENDBRANCH  19  22
ENDBRANCH  15  16
ENDBRANCH  14  15
ENDBRANCH  13  14
ENDBRANCH  12  13
ENDBRANCH   1  12
BRANCH  10  37
HETATM   37  C19 UNL     1      -4.223  18.068  22.146  1.00  0.00     0.358 A 
HETATM   38  N9  UNL     1      -2.873  18.589  22.111  1.00  0.00    -0.019 N 
HETATM   39  C20 UNL     1      -3.108  17.349  21.441  1.00  0.00     0.372 A 
ATOM     40  H92 UNL     1      -2.473  19.480  21.814  1.00  0.00     0.283 HD
ATOM     41  H91 UNL     1      -2.216  18.879  22.835  1.00  0.00     0.283 HD
BRANCH  39  42
HETATM   42  O1  UNL     1      -2.752  16.138  22.057  1.00  0.00    -0.367 OA
ATOM     43  H1  UNL     1      -2.443  15.481  21.444  1.00  0.00     0.212 HD
ENDBRANCH  39  42
ENDBRANCH  10  37
BRANCH   8  44
HETATM   44  C14 UNL     1      -8.492  14.620  22.367  1.00  0.00     0.122 C 
BRANCH  44  45
HETATM   45  C15 UNL     1      -9.657  15.191  21.637  1.00  0.00     0.020 C 
BRANCH  45  46
HETATM   46  C16 UNL     1      -9.278  15.996  20.443  1.00  0.00     0.003 C 
BRANCH  46  47
HETATM   47  C17 UNL     1      -9.138  17.478  20.692  1.00  0.00     0.027 C 
BRANCH  47  48
HETATM   48  C18 UNL     1      -7.670  17.829  20.561  1.00  0.00     0.229 C 
BRANCH  48  49
HETATM   49  N7  UNL     1      -6.890  16.835  19.884  1.00  0.00    -0.079 N 
ATOM     50  H73 UNL     1      -6.868  15.970  20.423  1.00  0.00     0.274 HD
ATOM     51  H72 UNL     1      -7.375  16.507  19.049  1.00  0.00     0.274 HD
ATOM     52  H71 UNL     1      -5.943  17.137  19.652  1.00  0.00     0.274 HD
ENDBRANCH  48  49
ENDBRANCH  47  48
ENDBRANCH  46  47
ENDBRANCH  45  46
ENDBRANCH  44  45
ENDBRANCH   8  44
TORSDOF 21
ENDMDL
MODEL 2
REMARK VINA RESULT: -7.888926248      1.263      1.675
REMARK  21 active torsions:
REMARK  status: ('A' for Active; 'I' for Inactive)
REMARK    1  A    between atoms: N1_2  and  C3_4 
REMARK    2  A    between atoms: N1_2  and  C23_44 
REMARK    3  A    between atoms: C4_5  and  C5_6 
REMARK    4  A    between atoms: C5_6  and  N2_7 
REMARK    5  A    between atoms: C8_10  and  S1_11 
REMARK    6  A    between atoms: S1_11  and  C9_12 
REMARK    7  A    between atoms: C9_12  and  C10_13 
REMARK    8  A    between atoms: C10_13  and  C11_14 
REMARK    9  A    between atoms: C11_14  and  N3_15 
REMARK       I    between atoms: C12_17  and  N4_18 
REMARK       I    between atoms: C12_17  and  N8_33 
REMARK       I    between atoms: C13_20  and  N6_22 
REMARK   10  A    between atoms: N6_22  and  C14_24 
REMARK   11  A    between atoms: C14_24  and  C15_25 
REMARK   12  A    between atoms: C15_25  and  C16_26 
REMARK   13  A    between atoms: C16_26  and  C17_27 
REMARK   14  A    between atoms: C17_27  and  C18_28 
REMARK   15  A    between atoms: C18_28  and  N7_29 
REMARK   16  A    between atoms: N8_33  and  C19_35 
REMARK   17  A    between atoms: C20_39  and  O1_40 
REMARK   18  A    between atoms: C23_44  and  C24_45 
REMARK   19  A    between atoms: C24_45  and  C25_46 
REMARK       I    between atoms: C25_46  and  N10_48 
REMARK   20  A    between atoms: N10_48  and  C26_49 
REMARK   21  A    between atoms: C26_49  and  C27_50 
ROOT
HETATM    1  N3  UNL     1      -6.106  18.735  24.680  1.00  0.00    -0.226 N 
ATOM      2  H3  UNL     1      -7.023  18.794  25.124  1.00  0.00     0.177 HD
HETATM    3  C12 UNL     1      -5.910  17.696  24.015  1.00  0.00     0.678 C 
HETATM    4  N4  UNL     1      -6.874  16.736  23.920  1.00  0.00    -0.164 N 
ATOM      5  H4  UNL     1      -6.387  15.883  23.648  1.00  0.00     0.187 HD
HETATM    6  C13 UNL     1      -8.043  16.430  24.009  1.00  0.00     0.202 C 
HETATM    7  N5  UNL     1      -9.073  17.349  24.366  1.00  0.00    -0.063 NA
HETATM    8  N6  UNL     1      -8.376  15.044  23.744  1.00  0.00    -0.364 N 
ATOM      9  H6  UNL     1      -8.505  14.397  24.521  1.00  0.00     0.162 HD
HETATM   10  N8  UNL     1      -4.678  17.426  23.352  1.00  0.00    -0.192 N 
ATOM     11  H8  UNL     1      -4.047  16.755  23.789  1.00  0.00     0.180 HD
ENDROOT
BRANCH   1  12
HETATM   12  C11 UNL     1      -5.254  19.850  24.916  1.00  0.00     0.139 C 
BRANCH  12  13
HETATM   13  C10 UNL     1      -4.588  19.652  26.220  1.00  0.00     0.031 C 
BRANCH  13  14
HETATM   14  C9  UNL     1      -5.188  20.235  27.459  1.00  0.00     0.081 C 
BRANCH  14  15
HETATM   15  S1  UNL     1      -6.866  19.911  27.655  1.00  0.00    -0.130 SA
BRANCH  15  16
HETATM   16  C8  UNL     1      -7.577  18.337  27.700  1.00  0.00     0.003 A 
HETATM   17  C7  UNL     1      -6.997  17.092  27.712  1.00  0.00     0.035 A 
HETATM   18  C6  UNL     1      -7.713  15.899  27.717  1.00  0.00     0.092 A 
HETATM   19  N2  UNL     1      -9.030  15.879  27.710  1.00  0.00    -0.363 N 
HETATM   20  C22 UNL     1      -9.640  17.095  27.706  1.00  0.00     0.092 A 
HETATM   21  C21 UNL     1      -9.011  18.282  27.699  1.00  0.00     0.035 A 
BRANCH  19  22
HETATM   22  C5  UNL     1      -9.922  14.749  27.720  1.00  0.00     0.156 C 
BRANCH  22  23
HETATM   23  C4  UNL     1     -11.028  14.765  26.750  1.00  0.00     0.018 C 
HETATM   24  C3  UNL     1     -12.418  15.009  26.973  1.00  0.00     0.199 C 
BRANCH  24  25
HETATM   25  N1  UNL     1     -13.434  14.386  27.658  1.00  0.00    -0.054 N 
HETATM   26  C1  UNL     1     -14.739  14.196  27.085  1.00  0.00     0.277 C 
HETATM   27  C2  UNL     1     -12.936  12.938  27.717  1.00  0.00     0.277 C 
BRANCH  25  28
HETATM   28  C23 UNL     1     -13.625  14.711  29.073  1.00  0.00     0.252 C 
BRANCH  28  29
HETATM   29  C24 UNL     1     -12.842  13.744  29.881  1.00  0.00     0.147 C 
BRANCH  29  30
HETATM   30  C25 UNL     1     -12.432  14.352  31.254  1.00  0.00     0.292 C 
HETATM   31  O2  UNL     1     -13.238  14.132  32.171  1.00  0.00    -0.257 OA
HETATM   32  N10 UNL     1     -11.251  15.041  31.264  1.00  0.00    -0.378 NA
BRANCH  32  33
HETATM   33  C26 UNL     1     -10.073  15.727  31.273  1.00  0.00     0.257 C 
BRANCH  33  34
HETATM   34  C27 UNL     1      -9.640  16.152  32.644  1.00  0.00     0.283 C 
HETATM   35  N11 UNL     1      -8.374  16.742  32.897  1.00  0.00    -0.056 NA
HETATM   36  O3  UNL     1     -10.436  15.992  33.639  1.00  0.00    -0.269 OA
ENDBRANCH  33  34
ENDBRANCH  32  33
ENDBRANCH  29  30
ENDBRANCH  28  29
ENDBRANCH  25  28
ENDBRANCH  24  25
ENDBRANCH  22  23
ENDBRANCH  19  22
ENDBRANCH  15  16
ENDBRANCH  14  15
ENDBRANCH  13  14
ENDBRANCH  12  13
ENDBRANCH   1  12
BRANCH  10  37
HETATM   37  C19 UNL     1      -4.255  18.024  22.116  1.00  0.00     0.358 A 
HETATM   38  N9  UNL     1      -2.923  18.588  22.075  1.00  0.00    -0.019 N 
HETATM   39  C20 UNL     1      -3.118  17.335  21.417  1.00  0.00     0.372 A 
ATOM     40  H92 UNL     1      -2.553  19.489  21.770  1.00  0.00     0.283 HD
ATOM     41  H91 UNL     1      -2.275  18.907  22.796  1.00  0.00     0.283 HD
BRANCH  39  42
HETATM   42  O1  UNL     1      -2.721  16.142  22.043  1.00  0.00    -0.367 OA
ATOM     43  H1  UNL     1      -3.312  15.417  21.877  1.00  0.00     0.212 HD
ENDBRANCH  39  42
ENDBRANCH  10  37
BRANCH   8  44
HETATM   44  C14 UNL     1      -8.523  14.579  22.402  1.00  0.00     0.122 C 
BRANCH  44  45
HETATM   45  C15 UNL     1      -9.680  15.181  21.682  1.00  0.00     0.020 C 
BRANCH  45  46
HETATM   46  C16 UNL     1      -9.290  15.976  20.485  1.00  0.00     0.003 C 
BRANCH  46  47
HETATM   47  C17 UNL     1      -9.110  17.454  20.732  1.00  0.00     0.027 C 
BRANCH  47  48
HETATM   48  C18 UNL     1      -7.636  17.768  20.580  1.00  0.00     0.229 C 
BRANCH  48  49
HETATM   49  N7  UNL     1      -6.891  16.759  19.887  1.00  0.00    -0.079 N 
ATOM     50  H73 UNL     1      -7.515  16.032  19.537  1.00  0.00     0.274 HD
ATOM     51  H72 UNL     1      -6.535  17.122  19.003  1.00  0.00     0.274 HD
ATOM     52  H71 UNL     1      -6.135  16.349  20.436  1.00  0.00     0.274 HD
ENDBRANCH  48  49
ENDBRANCH  47  48
ENDBRANCH  46  47
ENDBRANCH  45  46
ENDBRANCH  44  45
ENDBRANCH   8  44
TORSDOF 21
ENDMDL
MODEL 3
REMARK VINA RESULT: -7.687973955      2.280     11.325
REMARK  21 active torsions:
REMARK  status: ('A' for Active; 'I' for Inactive)
REMARK    1  A    between atoms: N1_2  and  C3_4 
REMARK    2  A    between atoms: N1_2  and  C23_44 
REMARK    3  A    between atoms: C4_5  and  C5_6 
REMARK    4  A    between atoms: C5_6  and  N2_7 
REMARK    5  A    between atoms: C8_10  and  S1_11 
REMARK    6  A    between atoms: S1_11  and  C9_12 
REMARK    7  A    between atoms: C9_12  and  C10_13 
REMARK    8  A    between atoms: C10_13  and  C11_14 
REMARK    9  A    between atoms: C11_14  and  N3_15 
REMARK       I    between atoms: C12_17  and  N4_18 
REMARK       I    between atoms: C12_17  and  N8_33 
REMARK       I    between atoms: C13_20  and  N6_22 
REMARK   10  A    between atoms: N6_22  and  C14_24 
REMARK   11  A    between atoms: C14_24  and  C15_25 
REMARK   12  A    between atoms: C15_25  and  C16_26 
REMARK   13  A    between atoms: C16_26  and  C17_27 
REMARK   14  A    between atoms: C17_27  and  C18_28 
REMARK   15  A    between atoms: C18_28  and  N7_29 
REMARK   16  A    between atoms: N8_33  and  C19_35 
REMARK   17  A    between atoms: C20_39  and  O1_40 
REMARK   18  A    between atoms: C23_44  and  C24_45 
REMARK   19  A    between atoms: C24_45  and  C25_46 
REMARK       I    between atoms: C25_46  and  N10_48 
REMARK   20  A    between atoms: N10_48  and  C26_49 
REMARK   21  A    between atoms: C26_49  and  C27_50 
ROOT
HETATM    1  N3  UNL     1     -12.164  15.188  29.452  1.00  0.00    -0.226 N 
ATOM      2  H3  UNL     1     -11.603  15.863  28.932  1.00  0.00     0.177 HD
HETATM    3  C12 UNL     1     -11.724  14.903  30.586  1.00  0.00     0.678 C 
HETATM    4  N4  UNL     1     -10.576  15.471  31.052  1.00  0.00    -0.164 N 
ATOM      5  H4  UNL     1     -10.247  14.856  31.796  1.00  0.00     0.187 HD
HETATM    6  C13 UNL     1      -9.766  16.370  30.991  1.00  0.00     0.202 C 
HETATM    7  N5  UNL     1      -9.863  17.457  30.072  1.00  0.00    -0.063 NA
HETATM    8  N6  UNL     1      -8.645  16.301  31.907  1.00  0.00    -0.364 N 
ATOM      9  H6  UNL     1      -7.748  15.938  31.584  1.00  0.00     0.162 HD
HETATM   10  N8  UNL     1     -12.357  13.956  31.442  1.00  0.00    -0.192 N 
ATOM     11  H8  UNL     1     -11.934  13.031  31.513  1.00  0.00     0.180 HD
ENDROOT
BRANCH   1  12
HETATM   12  C11 UNL     1     -13.322  14.721  28.770  1.00  0.00     0.139 C 
BRANCH  12  13
HETATM   13  C10 UNL     1     -12.904  14.208  27.450  1.00  0.00     0.031 C 
BRANCH  13  14
HETATM   14  C9  UNL     1     -11.456  13.952  27.175  1.00  0.00     0.081 C 
BRANCH  14  15
HETATM   15  S1  UNL     1     -10.716  15.108  26.138  1.00  0.00    -0.130 SA
BRANCH  15  16
HETATM   16  C8  UNL     1      -9.461  16.201  26.600  1.00  0.00     0.003 A 
HETATM   17  C7  UNL     1      -9.357  17.562  26.445  1.00  0.00     0.035 A 
HETATM   18  C6  UNL     1      -8.255  18.310  26.848  1.00  0.00     0.092 A 
HETATM   19  N2  UNL     1      -7.207  17.751  27.419  1.00  0.00    -0.363 N 
HETATM   20  C22 UNL     1      -7.278  16.404  27.595  1.00  0.00     0.092 A 
HETATM   21  C21 UNL     1      -8.308  15.624  27.230  1.00  0.00     0.035 A 
BRANCH  19  22
HETATM   22  C5  UNL     1      -5.997  18.367  27.898  1.00  0.00     0.156 C 
BRANCH  22  23
HETATM   23  C4  UNL     1      -4.764  18.085  27.147  1.00  0.00     0.018 C 
HETATM   24  C3  UNL     1      -4.204  18.789  26.038  1.00  0.00     0.199 C 
BRANCH  24  25
HETATM   25  N1  UNL     1      -4.573  19.042  24.738  1.00  0.00    -0.054 N 
HETATM   26  C1  UNL     1      -4.947  20.355  24.289  1.00  0.00     0.277 C 
HETATM   27  C2  UNL     1      -3.250  18.851  23.989  1.00  0.00     0.277 C 
BRANCH  25  28
HETATM   28  C23 UNL     1      -5.456  18.086  24.064  1.00  0.00     0.252 C 
BRANCH  28  29
HETATM   29  C24 UNL     1      -6.161  18.798  22.970  1.00  0.00     0.147 C 
BRANCH  29  30
HETATM   30  C25 UNL     1      -6.184  17.951  21.664  1.00  0.00     0.292 C 
HETATM   31  O2  UNL     1      -5.069  17.563  21.287  1.00  0.00    -0.257 OA
HETATM   32  N10 UNL     1      -7.420  17.751  21.114  1.00  0.00    -0.378 NA
BRANCH  32  33
HETATM   33  C26 UNL     1      -8.652  17.552  20.565  1.00  0.00     0.257 C 
BRANCH  33  34
HETATM   34  C27 UNL     1      -9.477  16.540  21.301  1.00  0.00     0.283 C 
HETATM   35  N11 UNL     1     -10.507  15.791  20.673  1.00  0.00    -0.056 NA
HETATM   36  O3  UNL     1      -9.251  16.320  22.546  1.00  0.00    -0.269 OA
ENDBRANCH  33  34
ENDBRANCH  32  33
ENDBRANCH  29  30
ENDBRANCH  28  29
ENDBRANCH  25  28
ENDBRANCH  24  25
ENDBRANCH  22  23
ENDBRANCH  19  22
ENDBRANCH  15  16
ENDBRANCH  14  15
ENDBRANCH  13  14
ENDBRANCH  12  13
ENDBRANCH   1  12
BRANCH  10  37
HETATM   37  C19 UNL     1     -13.544  14.201  32.213  1.00  0.00     0.358 A 
HETATM   38  N9  UNL     1     -14.734  13.461  31.852  1.00  0.00    -0.019 N 
HETATM   39  C20 UNL     1     -14.041  13.042  33.029  1.00  0.00     0.372 A 
ATOM     40  H92 UNL     1     -15.700  13.734  31.668  1.00  0.00     0.283 HD
ATOM     41  H91 UNL     1     -15.027  12.977  31.003  1.00  0.00     0.283 HD
BRANCH  39  42
HETATM   42  O1  UNL     1     -13.189  11.926  32.984  1.00  0.00    -0.367 OA
ATOM     43  H1  UNL     1     -13.486  11.250  32.386  1.00  0.00     0.212 HD
ENDBRANCH  39  42
ENDBRANCH  10  37
BRANCH   8  44
HETATM   44  C14 UNL     1      -8.787  16.739  33.259  1.00  0.00     0.122 C 
BRANCH  44  45
HETATM   45  C15 UNL     1      -8.595  15.656  34.263  1.00  0.00     0.020 C 
BRANCH  45  46
HETATM   46  C16 UNL     1      -9.636  15.637  35.327  1.00  0.00     0.003 C 
BRANCH  46  47
HETATM   47  C17 UNL     1     -11.060  15.647  34.828  1.00  0.00     0.027 C 
BRANCH  47  48
HETATM   48  C18 UNL     1     -11.781  14.481  35.471  1.00  0.00     0.229 C 
BRANCH  48  49
HETATM   49  N7  UNL     1     -11.240  13.199  35.130  1.00  0.00    -0.079 N 
ATOM     50  H73 UNL     1     -11.941  12.469  35.260  1.00  0.00     0.274 HD
ATOM     51  H72 UNL     1     -11.100  13.127  34.122  1.00  0.00     0.274 HD
ATOM     52  H71 UNL     1     -10.381  12.963  35.629  1.00  0.00     0.274 HD
ENDBRANCH  48  49
ENDBRANCH  47  48
ENDBRANCH  46  47
ENDBRANCH  45  46
ENDBRANCH  44  45
ENDBRANCH   8  44
TORSDOF 21
ENDMDL
MODEL 4
REMARK VINA RESULT: -7.639516215      2.650     10.527
REMARK  21 active torsions:
REMARK  status: ('A' for Active; 'I' for Inactive)
REMARK    1  A    between atoms: N1_2  and  C3_4 
REMARK    2  A    between atoms: N1_2  and  C23_44 
REMARK    3  A    between atoms: C4_5  and  C5_6 
REMARK    4  A    between atoms: C5_6  and  N2_7 
REMARK    5  A    between atoms: C8_10  and  S1_11 
REMARK    6  A    between atoms: S1_11  and  C9_12 
REMARK    7  A    between atoms: C9_12  and  C10_13 
REMARK    8  A    between atoms: C10_13  and  C11_14 
REMARK    9  A    between atoms: C11_14  and  N3_15 
REMARK       I    between atoms: C12_17  and  N4_18 
REMARK       I    between atoms: C12_17  and  N8_33 
REMARK       I    between atoms: C13_20  and  N6_22 
REMARK   10  A    between atoms: N6_22  and  C14_24 
REMARK   11  A    between atoms: C14_24  and  C15_25 
REMARK   12  A    between atoms: C15_25  and  C16_26 
REMARK   13  A    between atoms: C16_26  and  C17_27 
REMARK   14  A    between atoms: C17_27  and  C18_28 
REMARK   15  A    between atoms: C18_28  and  N7_29 
REMARK   16  A    between atoms: N8_33  and  C19_35 
REMARK   17  A    between atoms: C20_39  and  O1_40 
REMARK   18  A    between atoms: C23_44  and  C24_45 
REMARK   19  A    between atoms: C24_45  and  C25_46 
REMARK       I    between atoms: C25_46  and  N10_48 
REMARK   20  A    between atoms: N10_48  and  C26_49 
REMARK   21  A    between atoms: C26_49  and  C27_50 
ROOT
HETATM    1  N3  UNL     1     -13.077  14.363  30.277  1.00  0.00    -0.226 N 
ATOM      2  H3  UNL     1     -13.937  13.813  30.279  1.00  0.00     0.177 HD
HETATM    3  C12 UNL     1     -12.506  14.450  31.384  1.00  0.00     0.678 C 
HETATM    4  N4  UNL     1     -13.029  13.844  32.488  1.00  0.00    -0.164 N 
ATOM      5  H4  UNL     1     -12.614  14.324  33.287  1.00  0.00     0.187 HD
HETATM    6  C13 UNL     1     -13.758  12.999  32.959  1.00  0.00     0.202 C 
HETATM    7  N5  UNL     1     -14.529  12.096  32.169  1.00  0.00    -0.063 NA
HETATM    8  N6  UNL     1     -13.836  12.936  34.404  1.00  0.00    -0.364 N 
ATOM      9  H6  UNL     1     -14.615  13.382  34.889  1.00  0.00     0.162 HD
HETATM   10  N8  UNL     1     -11.312  15.203  31.578  1.00  0.00    -0.192 N 
ATOM     11  H8  UNL     1     -11.399  16.113  32.030  1.00  0.00     0.180 HD
ENDROOT
BRANCH   1  12
HETATM   12  C11 UNL     1     -12.720  14.908  29.012  1.00  0.00     0.139 C 
BRANCH  12  13
HETATM   13  C10 UNL     1     -12.214  13.809  28.164  1.00  0.00     0.031 C 
BRANCH  13  14
HETATM   14  C9  UNL     1     -10.991  14.016  27.328  1.00  0.00     0.081 C 
BRANCH  14  15
HETATM   15  S1  UNL     1     -10.977  15.490  26.443  1.00  0.00    -0.130 SA
BRANCH  15  16
HETATM   16  C8  UNL     1      -9.896  15.864  25.148  1.00  0.00     0.003 A 
HETATM   17  C7  UNL     1      -9.408  15.077  24.134  1.00  0.00     0.035 A 
HETATM   18  C6  UNL     1      -8.508  15.519  23.170  1.00  0.00     0.092 A 
HETATM   19  N2  UNL     1      -8.048  16.754  23.162  1.00  0.00    -0.363 N 
HETATM   20  C22 UNL     1      -8.516  17.565  24.149  1.00  0.00     0.092 A 
HETATM   21  C21 UNL     1      -9.382  17.204  25.109  1.00  0.00     0.035 A 
BRANCH  19  22
HETATM   22  C5  UNL     1      -7.127  17.375  22.246  1.00  0.00     0.156 C 
BRANCH  22  23
HETATM   23  C4  UNL     1      -6.805  18.790  22.483  1.00  0.00     0.018 C 
HETATM   24  C3  UNL     1      -5.589  19.371  22.955  1.00  0.00     0.199 C 
BRANCH  24  25
HETATM   25  N1  UNL     1      -4.859  19.328  24.119  1.00  0.00    -0.054 N 
HETATM   26  C1  UNL     1      -3.527  18.789  24.167  1.00  0.00     0.277 C 
HETATM   27  C2  UNL     1      -4.574  20.812  24.371  1.00  0.00     0.277 C 
BRANCH  25  28
HETATM   28  C23 UNL     1      -5.535  18.924  25.353  1.00  0.00     0.252 C 
BRANCH  28  29
HETATM   29  C24 UNL     1      -5.213  19.918  26.406  1.00  0.00     0.147 C 
BRANCH  29  30
HETATM   30  C25 UNL     1      -6.407  20.117  27.384  1.00  0.00     0.292 C 
HETATM   31  O2  UNL     1      -6.596  21.293  27.729  1.00  0.00    -0.257 OA
HETATM   32  N10 UNL     1      -7.080  18.977  27.730  1.00  0.00    -0.378 NA
BRANCH  32  33
HETATM   33  C26 UNL     1      -7.751  17.841  28.075  1.00  0.00     0.257 C 
BRANCH  33  34
HETATM   34  C27 UNL     1      -6.943  16.593  27.890  1.00  0.00     0.283 C 
HETATM   35  N11 UNL     1      -7.539  15.327  27.645  1.00  0.00    -0.056 NA
HETATM   36  O3  UNL     1      -5.661  16.651  27.942  1.00  0.00    -0.269 OA
ENDBRANCH  33  34
ENDBRANCH  32  33
ENDBRANCH  29  30
ENDBRANCH  28  29
ENDBRANCH  25  28
ENDBRANCH  24  25
ENDBRANCH  22  23
ENDBRANCH  19  22
ENDBRANCH  15  16
ENDBRANCH  14  15
ENDBRANCH  13  14
ENDBRANCH  12  13
ENDBRANCH   1  12
BRANCH  10  37
HETATM   37  C19 UNL     1      -9.995  14.782  31.188  1.00  0.00     0.358 A 
HETATM   38  N9  UNL     1      -9.422  15.403  30.013  1.00  0.00    -0.019 N 
HETATM   39  C20 UNL     1      -8.923  15.830  31.282  1.00  0.00     0.372 A 
ATOM     40  H92 UNL     1      -8.975  15.033  29.173  1.00  0.00     0.283 HD
ATOM     41  H91 UNL     1      -9.824  15.897  29.216  1.00  0.00     0.283 HD
BRANCH  39  42
HETATM   42  O1  UNL     1      -9.372  17.036  31.845  1.00  0.00    -0.367 OA
ATOM     43  H1  UNL     1      -9.068  17.805  31.378  1.00  0.00     0.212 HD
ENDBRANCH  39  42
ENDBRANCH  10  37
BRANCH   8  44
HETATM   44  C14 UNL     1     -12.831  12.255  35.155  1.00  0.00     0.122 C 
BRANCH  44  45
HETATM   45  C15 UNL     1     -12.176  13.103  36.189  1.00  0.00     0.020 C 
BRANCH  45  46
HETATM   46  C16 UNL     1     -11.974  14.515  35.762  1.00  0.00     0.003 C 
BRANCH  46  47
HETATM   47  C17 UNL     1     -10.638  14.803  35.122  1.00  0.00     0.027 C 
BRANCH  47  48
HETATM   48  C18 UNL     1     -10.536  16.302  34.925  1.00  0.00     0.229 C 
BRANCH  48  49
HETATM   49  N7  UNL     1      -9.191  16.794  34.869  1.00  0.00    -0.079 N 
ATOM     50  H73 UNL     1      -8.714  16.633  35.756  1.00  0.00     0.274 HD
ATOM     51  H72 UNL     1      -8.622  16.209  34.257  1.00  0.00     0.274 HD
ATOM     52  H71 UNL     1      -9.119  17.775  34.596  1.00  0.00     0.274 HD
ENDBRANCH  48  49
ENDBRANCH  47  48
ENDBRANCH  46  47
ENDBRANCH  45  46
ENDBRANCH  44  45
ENDBRANCH   8  44
TORSDOF 21
ENDMDL
MODEL 5
REMARK VINA RESULT: -7.638855056      2.610     11.347
REMARK  21 active torsions:
REMARK  status: ('A' for Active; 'I' for Inactive)
REMARK    1  A    between atoms: N1_2  and  C3_4 
REMARK    2  A    between atoms: N1_2  and  C23_44 
REMARK    3  A    between atoms: C4_5  and  C5_6 
REMARK    4  A    between atoms: C5_6  and  N2_7 
REMARK    5  A    between atoms: C8_10  and  S1_11 
REMARK    6  A    between atoms: S1_11  and  C9_12 
REMARK    7  A    between atoms: C9_12  and  C10_13 
REMARK    8  A    between atoms: C10_13  and  C11_14 
REMARK    9  A    between atoms: C11_14  and  N3_15 
REMARK       I    between atoms: C12_17  and  N4_18 
REMARK       I    between atoms: C12_17  and  N8_33 
REMARK       I    between atoms: C13_20  and  N6_22 
REMARK   10  A    between atoms: N6_22  and  C14_24 
REMARK   11  A    between atoms: C14_24  and  C15_25 
REMARK   12  A    between atoms: C15_25  and  C16_26 
REMARK   13  A    between atoms: C16_26  and  C17_27 
REMARK   14  A    between atoms: C17_27  and  C18_28 
REMARK   15  A    between atoms: C18_28  and  N7_29 
REMARK   16  A    between atoms: N8_33  and  C19_35 
REMARK   17  A    between atoms: C20_39  and  O1_40 
REMARK   18  A    between atoms: C23_44  and  C24_45 
REMARK   19  A    between atoms: C24_45  and  C25_46 
REMARK       I    between atoms: C25_46  and  N10_48 
REMARK   20  A    between atoms: N10_48  and  C26_49 
REMARK   21  A    between atoms: C26_49  and  C27_50 
ROOT
HETATM    1  N3  UNL     1     -12.824  14.818  29.985  1.00  0.00    -0.226 N 
ATOM      2  H3  UNL     1     -12.473  15.489  29.302  1.00  0.00     0.177 HD
HETATM    3  C12 UNL     1     -12.065  14.610  30.955  1.00  0.00     0.678 C 
HETATM    4  N4  UNL     1     -10.864  15.249  31.051  1.00  0.00    -0.164 N 
ATOM      5  H4  UNL     1     -10.304  14.687  31.691  1.00  0.00     0.187 HD
HETATM    6  C13 UNL     1     -10.156  16.177  30.727  1.00  0.00     0.202 C 
HETATM    7  N5  UNL     1     -10.570  17.210  29.835  1.00  0.00    -0.063 NA
HETATM    8  N6  UNL     1      -8.818  16.202  31.284  1.00  0.00    -0.364 N 
ATOM      9  H6  UNL     1      -8.033  15.861  30.731  1.00  0.00     0.162 HD
HETATM   10  N8  UNL     1     -12.375  13.683  31.992  1.00  0.00    -0.192 N 
ATOM     11  H8  UNL     1     -11.899  12.781  31.972  1.00  0.00     0.180 HD
ENDROOT
BRANCH   1  12
HETATM   12  C11 UNL     1     -14.101  14.269  29.683  1.00  0.00     0.139 C 
BRANCH  12  13
HETATM   13  C10 UNL     1     -13.896  12.966  29.018  1.00  0.00     0.031 C 
BRANCH  13  14
HETATM   14  C9  UNL     1     -13.762  12.902  27.530  1.00  0.00     0.081 C 
BRANCH  14  15
HETATM   15  S1  UNL     1     -13.283  14.383  26.797  1.00  0.00    -0.130 SA
BRANCH  15  16
HETATM   16  C8  UNL     1     -11.687  15.043  26.835  1.00  0.00     0.003 A 
HETATM   17  C7  UNL     1     -11.192  16.220  26.328  1.00  0.00     0.035 A 
HETATM   18  C6  UNL     1      -9.858  16.604  26.413  1.00  0.00     0.092 A 
HETATM   19  N2  UNL     1      -8.952  15.848  26.999  1.00  0.00    -0.363 N 
HETATM   20  C22 UNL     1      -9.408  14.677  27.521  1.00  0.00     0.092 A 
HETATM   21  C21 UNL     1     -10.679  14.245  27.473  1.00  0.00     0.035 A 
BRANCH  19  22
HETATM   22  C5  UNL     1      -7.545  16.090  27.181  1.00  0.00     0.156 C 
BRANCH  22  23
HETATM   23  C4  UNL     1      -6.850  16.815  26.106  1.00  0.00     0.018 C 
HETATM   24  C3  UNL     1      -5.785  17.762  26.200  1.00  0.00     0.199 C 
BRANCH  24  25
HETATM   25  N1  UNL     1      -5.621  19.017  26.734  1.00  0.00    -0.054 N 
HETATM   26  C1  UNL     1      -6.629  19.640  27.549  1.00  0.00     0.277 C 
HETATM   27  C2  UNL     1      -4.521  18.781  27.773  1.00  0.00     0.277 C 
BRANCH  25  28
HETATM   28  C23 UNL     1      -5.038  20.064  25.892  1.00  0.00     0.252 C 
BRANCH  28  29
HETATM   29  C24 UNL     1      -4.578  19.440  24.627  1.00  0.00     0.147 C 
BRANCH  29  30
HETATM   30  C25 UNL     1      -5.482  19.853  23.429  1.00  0.00     0.292 C 
HETATM   31  O2  UNL     1      -5.321  21.021  23.046  1.00  0.00    -0.257 OA
HETATM   32  N10 UNL     1      -6.325  18.881  22.964  1.00  0.00    -0.378 NA
BRANCH  32  33
HETATM   33  C26 UNL     1      -7.165  17.912  22.502  1.00  0.00     0.257 C 
BRANCH  33  34
HETATM   34  C27 UNL     1      -7.336  17.931  21.013  1.00  0.00     0.283 C 
HETATM   35  N11 UNL     1      -8.600  18.105  20.391  1.00  0.00    -0.056 NA
HETATM   36  O3  UNL     1      -6.308  17.796  20.254  1.00  0.00    -0.269 OA
ENDBRANCH  33  34
ENDBRANCH  32  33
ENDBRANCH  29  30
ENDBRANCH  28  29
ENDBRANCH  25  28
ENDBRANCH  24  25
ENDBRANCH  22  23
ENDBRANCH  19  22
ENDBRANCH  15  16
ENDBRANCH  14  15
ENDBRANCH  13  14
ENDBRANCH  12  13
ENDBRANCH   1  12
BRANCH  10  37
HETATM   37  C19 UNL     1     -13.304  13.916  33.061  1.00  0.00     0.358 A 
HETATM   38  N9  UNL     1     -14.547  13.175  33.033  1.00  0.00    -0.019 N 
HETATM   39  C20 UNL     1     -13.557  12.747  33.971  1.00  0.00     0.372 A 
ATOM     40  H92 UNL     1     -15.526  13.447  33.125  1.00  0.00     0.283 HD
ATOM     41  H91 UNL     1     -15.061  12.699  32.292  1.00  0.00     0.283 HD
BRANCH  39  42
HETATM   42  O1  UNL     1     -12.749  11.635  33.682  1.00  0.00    -0.367 OA
ATOM     43  H1  UNL     1     -11.864  11.868  33.429  1.00  0.00     0.212 HD
ENDBRANCH  39  42
ENDBRANCH  10  37
BRANCH   8  44
HETATM   44  C14 UNL     1      -8.593  16.701  32.603  1.00  0.00     0.122 C 
BRANCH  44  45
HETATM   45  C15 UNL     1      -8.100  15.671  33.558  1.00  0.00     0.020 C 
BRANCH  45  46
HETATM   46  C16 UNL     1      -8.921  15.563  34.796  1.00  0.00     0.003 C 
BRANCH  46  47
HETATM   47  C17 UNL     1     -10.034  16.575  34.914  1.00  0.00     0.027 C 
BRANCH  47  48
HETATM   48  C18 UNL     1     -11.330  15.814  35.099  1.00  0.00     0.229 C 
BRANCH  48  49
HETATM   49  N7  UNL     1     -11.214  14.658  35.938  1.00  0.00    -0.079 N 
ATOM     50  H73 UNL     1     -10.521  14.011  35.561  1.00  0.00     0.274 HD
ATOM     51  H72 UNL     1     -10.763  14.900  36.820  1.00  0.00     0.274 HD
ATOM     52  H71 UNL     1     -12.098  14.177  36.107  1.00  0.00     0.274 HD
ENDBRANCH  48  49
ENDBRANCH  47  48
ENDBRANCH  46  47
ENDBRANCH  45  46
ENDBRANCH  44  45
ENDBRANCH   8  44
TORSDOF 21
ENDMDL
