MODEL 1
REMARK VINA RESULT: -8.472303000      0.000      0.000
REMARK  20 active torsions:
REMARK  status: ('A' for Active; 'I' for Inactive)
REMARK    1  A    between atoms: C2_2  and  C3_3 
REMARK    2  A    between atoms: C3_3  and  C4_4 
REMARK    3  A    between atoms: C4_4  and  N1_5 
REMARK    4  A    between atoms: C7_10  and  C8_11 
REMARK    5  A    between atoms: C8_11  and  C9_12 
REMARK    6  A    between atoms: C9_12  and  N3_13 
REMARK       I    between atoms: N3_13  and  C10_14 
REMARK    7  A    between atoms: C10_14  and  C11_16 
REMARK    8  A    between atoms: C14_19  and  C15_20 
REMARK    9  A    between atoms: C15_20  and  C16_21 
REMARK   10  A    between atoms: C16_21  and  C17_22 
REMARK   11  A    between atoms: C17_22  and  N4_23 
REMARK       I    between atoms: N4_23  and  C18_25 
REMARK   12  A    between atoms: C18_25  and  C19_27 
REMARK   13  A    between atoms: C19_27  and  N5_28 
REMARK       I    between atoms: N5_28  and  C20_30 
REMARK   14  A    between atoms: C20_30  and  C21_32 
REMARK   15  A    between atoms: C21_32  and  N6_33 
REMARK       I    between atoms: N6_33  and  C22_35 
REMARK   16  A    between atoms: C22_35  and  C23_37 
REMARK   17  A    between atoms: C23_37  and  N7_38 
REMARK       I    between atoms: N7_38  and  C24_40 
REMARK   18  A    between atoms: C24_40  and  C25_42 
REMARK   19  A    between atoms: C25_42  and  C26_43 
REMARK   20  A    between atoms: C26_43  and  N8_44 
ROOT
HETATM    1  N4  UNL     1     -10.801  15.206  27.487  1.00  0.00    -0.360 N 
ATOM      2  H4  UNL     1     -11.013  16.201  27.567  1.00  0.00     0.162 HD
HETATM    3  C18 UNL     1     -11.845  14.267  27.605  1.00  0.00     0.235 C 
HETATM    4  O2  UNL     1     -11.605  13.040  27.500  1.00  0.00    -0.272 OA
ENDROOT
BRANCH   1   5
HETATM    5  C17 UNL     1      -9.444  14.791  27.255  1.00  0.00     0.123 C 
BRANCH   5   6
HETATM    6  C16 UNL     1      -8.843  15.287  25.990  1.00  0.00     0.026 C 
BRANCH   6   7
HETATM    7  C15 UNL     1      -9.572  16.469  25.403  1.00  0.00     0.058 C 
BRANCH   7   8
HETATM    8  C14 UNL     1      -9.257  16.557  23.936  1.00  0.00     0.009 A 
HETATM    9  C13 UNL     1      -9.956  15.946  22.921  1.00  0.00     0.027 A 
HETATM   10  C12 UNL     1      -9.344  16.300  21.744  1.00  0.00     0.038 A 
HETATM   11  C11 UNL     1      -8.275  17.122  22.017  1.00  0.00     0.116 A 
HETATM   12  N11 UNL     1      -8.265  17.246  23.354  1.00  0.00    -0.354 N 
ATOM     13  H11 UNL     1      -7.580  17.801  23.869  1.00  0.00     0.166 HD
BRANCH  11  14
HETATM   14  C10 UNL     1      -7.349  17.734  21.036  1.00  0.00     0.342 C 
HETATM   15  N3  UNL     1      -6.066  17.877  21.270  1.00  0.00    -0.382 NA
HETATM   16  O1  UNL     1      -7.899  18.112  19.944  1.00  0.00    -0.249 OA
BRANCH  15  17
HETATM   17  C9  UNL     1      -4.909  17.952  21.414  1.00  0.00     0.165 C 
BRANCH  17  18
HETATM   18  C8  UNL     1      -4.189  17.840  22.732  1.00  0.00     0.118 C 
BRANCH  18  19
HETATM   19  C7  UNL     1      -4.710  18.866  23.695  1.00  0.00     0.033 A 
HETATM   20  N1  UNL     1      -5.043  18.673  24.988  1.00  0.00    -0.345 N 
HETATM   21  C5  UNL     1      -5.478  19.824  25.525  1.00  0.00     0.183 A 
HETATM   22  N2  UNL     1      -5.421  20.764  24.564  1.00  0.00    -0.360 N 
HETATM   23  C6  UNL     1      -4.955  20.199  23.439  1.00  0.00     0.114 A 
ATOM     24  H2  UNL     1      -5.688  21.742  24.673  1.00  0.00     0.166 HD
BRANCH  20  25
HETATM   25  C4  UNL     1      -4.940  17.406  25.682  1.00  0.00     0.130 C 
BRANCH  25  26
HETATM   26  C3  UNL     1      -4.791  17.561  27.160  1.00  0.00     0.020 C 
BRANCH  26  27
HETATM   27  C2  UNL     1      -5.886  16.970  27.983  1.00  0.00    -0.003 C 
HETATM   28  C1  UNL     1      -7.120  17.801  28.091  1.00  0.00     0.005 C 
ENDBRANCH  26  27
ENDBRANCH  25  26
ENDBRANCH  20  25
ENDBRANCH  18  19
ENDBRANCH  17  18
ENDBRANCH  15  17
ENDBRANCH  11  14
ENDBRANCH   7   8
ENDBRANCH   6   7
ENDBRANCH   5   6
ENDBRANCH   1   5
BRANCH   3  29
HETATM   29  C19 UNL     1     -13.222  14.779  27.857  1.00  0.00     0.225 C 
BRANCH  29  30
HETATM   30  N5  UNL     1     -13.440  14.883  29.280  1.00  0.00    -0.351 N 
HETATM   31  C20 UNL     1     -14.122  13.858  29.961  1.00  0.00     0.235 C 
HETATM   32  O3  UNL     1     -14.537  12.851  29.290  1.00  0.00    -0.272 OA
ATOM     33  H5  UNL     1     -13.099  15.698  29.792  1.00  0.00     0.163 HD
BRANCH  31  34
HETATM   34  C21 UNL     1     -14.408  13.830  31.408  1.00  0.00     0.225 C 
BRANCH  34  35
HETATM   35  N6  UNL     1     -13.456  14.603  32.147  1.00  0.00    -0.351 N 
HETATM   36  C22 UNL     1     -13.115  14.247  33.461  1.00  0.00     0.235 C 
HETATM   37  O4  UNL     1     -13.630  13.222  34.031  1.00  0.00    -0.272 OA
ATOM     38  H6  UNL     1     -13.022  15.420  31.716  1.00  0.00     0.163 HD
BRANCH  36  39
HETATM   39  C23 UNL     1     -12.157  14.992  34.291  1.00  0.00     0.225 C 
BRANCH  39  40
HETATM   40  N7  UNL     1     -10.835  15.123  33.763  1.00  0.00    -0.352 N 
HETATM   41  C24 UNL     1     -10.024  16.220  34.155  1.00  0.00     0.219 C 
HETATM   42  O5  UNL     1     -10.511  17.055  34.967  1.00  0.00    -0.274 OA
ATOM     43  H7  UNL     1     -10.476  14.430  33.106  1.00  0.00     0.162 HD
BRANCH  41  44
HETATM   44  C25 UNL     1      -8.658  16.364  33.622  1.00  0.00     0.122 C 
BRANCH  44  45
HETATM   45  C26 UNL     1      -8.521  15.722  32.255  1.00  0.00     0.131 C 
BRANCH  45  46
HETATM   46  N8  UNL     1      -9.013  16.664  31.268  1.00  0.00    -0.366 N 
HETATM   47  C27 UNL     1     -10.064  16.435  30.559  1.00  0.00     0.196 C 
HETATM   48  N9  UNL     1     -10.466  17.418  29.621  1.00  0.00    -0.067 NA
HETATM   49  N10 UNL     1     -10.783  15.241  30.722  1.00  0.00    -0.067 NA
ATOM     50  H8  UNL     1      -8.509  17.540  31.130  1.00  0.00     0.161 HD
ENDBRANCH  45  46
ENDBRANCH  44  45
ENDBRANCH  41  44
ENDBRANCH  39  40
ENDBRANCH  36  39
ENDBRANCH  34  35
ENDBRANCH  31  34
ENDBRANCH  29  30
ENDBRANCH   3  29
TORSDOF 20
ENDMDL
MODEL 2
REMARK VINA RESULT: -8.290747460      2.248     11.224
REMARK  20 active torsions:
REMARK  status: ('A' for Active; 'I' for Inactive)
REMARK    1  A    between atoms: C2_2  and  C3_3 
REMARK    2  A    between atoms: C3_3  and  C4_4 
REMARK    3  A    between atoms: C4_4  and  N1_5 
REMARK    4  A    between atoms: C7_10  and  C8_11 
REMARK    5  A    between atoms: C8_11  and  C9_12 
REMARK    6  A    between atoms: C9_12  and  N3_13 
REMARK       I    between atoms: N3_13  and  C10_14 
REMARK    7  A    between atoms: C10_14  and  C11_16 
REMARK    8  A    between atoms: C14_19  and  C15_20 
REMARK    9  A    between atoms: C15_20  and  C16_21 
REMARK   10  A    between atoms: C16_21  and  C17_22 
REMARK   11  A    between atoms: C17_22  and  N4_23 
REMARK       I    between atoms: N4_23  and  C18_25 
REMARK   12  A    between atoms: C18_25  and  C19_27 
REMARK   13  A    between atoms: C19_27  and  N5_28 
REMARK       I    between atoms: N5_28  and  C20_30 
REMARK   14  A    between atoms: C20_30  and  C21_32 
REMARK   15  A    between atoms: C21_32  and  N6_33 
REMARK       I    between atoms: N6_33  and  C22_35 
REMARK   16  A    between atoms: C22_35  and  C23_37 
REMARK   17  A    between atoms: C23_37  and  N7_38 
REMARK       I    between atoms: N7_38  and  C24_40 
REMARK   18  A    between atoms: C24_40  and  C25_42 
REMARK   19  A    between atoms: C25_42  and  C26_43 
REMARK   20  A    between atoms: C26_43  and  N8_44 
ROOT
HETATM    1  N4  UNL     1      -7.069  17.331  27.505  1.00  0.00    -0.360 N 
ATOM      2  H4  UNL     1      -7.773  18.051  27.663  1.00  0.00     0.162 HD
HETATM    3  C18 UNL     1      -5.754  17.713  27.171  1.00  0.00     0.235 C 
HETATM    4  O2  UNL     1      -4.872  16.843  26.981  1.00  0.00    -0.272 OA
ENDROOT
BRANCH   1   5
HETATM    5  C17 UNL     1      -7.437  15.946  27.627  1.00  0.00     0.123 C 
BRANCH   5   6
HETATM    6  C16 UNL     1      -8.507  15.666  28.619  1.00  0.00     0.026 C 
BRANCH   6   7
HETATM    7  C15 UNL     1      -8.993  16.898  29.340  1.00  0.00     0.058 C 
BRANCH   7   8
HETATM    8  C14 UNL     1      -9.130  16.584  30.803  1.00  0.00     0.009 A 
HETATM    9  C13 UNL     1      -8.095  16.360  31.682  1.00  0.00     0.027 A 
HETATM   10  C12 UNL     1      -8.658  16.127  32.912  1.00  0.00     0.038 A 
HETATM   11  C11 UNL     1     -10.028  16.204  32.807  1.00  0.00     0.116 A 
HETATM   12  N11 UNL     1     -10.262  16.481  31.514  1.00  0.00    -0.354 N 
ATOM     13  H11 UNL     1     -11.195  16.599  31.117  1.00  0.00     0.166 HD
BRANCH  11  14
HETATM   14  C10 UNL     1     -11.016  16.022  33.895  1.00  0.00     0.342 C 
HETATM   15  N3  UNL     1     -12.087  15.278  33.759  1.00  0.00    -0.382 NA
HETATM   16  O1  UNL     1     -10.742  16.648  34.977  1.00  0.00    -0.249 OA
BRANCH  15  17
HETATM   17  C9  UNL     1     -13.011  14.565  33.699  1.00  0.00     0.165 C 
BRANCH  17  18
HETATM   18  C8  UNL     1     -14.091  14.632  32.651  1.00  0.00     0.118 C 
BRANCH  18  19
HETATM   19  C7  UNL     1     -14.011  13.435  31.749  1.00  0.00     0.033 A 
HETATM   20  N1  UNL     1     -14.317  13.385  30.436  1.00  0.00    -0.345 N 
HETATM   21  C5  UNL     1     -14.128  12.140  29.969  1.00  0.00     0.183 A 
HETATM   22  N2  UNL     1     -13.695  11.387  30.996  1.00  0.00    -0.360 N 
HETATM   23  C6  UNL     1     -13.617  12.159  32.091  1.00  0.00     0.114 A 
ATOM     24  H2  UNL     1     -13.464  10.394  30.950  1.00  0.00     0.166 HD
BRANCH  20  25
HETATM   25  C4  UNL     1     -14.778  14.515  29.656  1.00  0.00     0.130 C 
BRANCH  25  26
HETATM   26  C3  UNL     1     -14.226  14.532  28.269  1.00  0.00     0.020 C 
BRANCH  26  27
HETATM   27  C2  UNL     1     -13.029  15.398  28.063  1.00  0.00    -0.003 C 
HETATM   28  C1  UNL     1     -11.878  14.742  27.379  1.00  0.00     0.005 C 
ENDBRANCH  26  27
ENDBRANCH  25  26
ENDBRANCH  20  25
ENDBRANCH  18  19
ENDBRANCH  17  18
ENDBRANCH  15  17
ENDBRANCH  11  14
ENDBRANCH   7   8
ENDBRANCH   6   7
ENDBRANCH   5   6
ENDBRANCH   1   5
BRANCH   3  29
HETATM   29  C19 UNL     1      -5.458  19.170  27.052  1.00  0.00     0.225 C 
BRANCH  29  30
HETATM   30  N5  UNL     1      -5.979  19.663  25.799  1.00  0.00    -0.351 N 
HETATM   31  C20 UNL     1      -5.129  19.776  24.683  1.00  0.00     0.235 C 
HETATM   32  O3  UNL     1      -3.902  19.435  24.814  1.00  0.00    -0.272 OA
ATOM     33  H5  UNL     1      -6.961  19.928  25.722  1.00  0.00     0.163 HD
BRANCH  31  34
HETATM   34  C21 UNL     1      -5.525  20.255  23.346  1.00  0.00     0.225 C 
BRANCH  34  35
HETATM   35  N6  UNL     1      -6.088  19.201  22.556  1.00  0.00    -0.351 N 
HETATM   36  C22 UNL     1      -5.288  18.480  21.655  1.00  0.00     0.235 C 
HETATM   37  O4  UNL     1      -4.040  18.731  21.521  1.00  0.00    -0.272 OA
ATOM     38  H6  UNL     1      -7.078  18.972  22.648  1.00  0.00     0.163 HD
BRANCH  36  39
HETATM   39  C23 UNL     1      -5.790  17.394  20.801  1.00  0.00     0.225 C 
BRANCH  39  40
HETATM   40  N7  UNL     1      -6.933  16.687  21.288  1.00  0.00    -0.352 N 
HETATM   41  C24 UNL     1      -8.230  17.043  20.831  1.00  0.00     0.219 C 
HETATM   42  O5  UNL     1      -8.326  17.988  20.000  1.00  0.00    -0.274 OA
ATOM     43  H7  UNL     1      -6.818  15.930  21.961  1.00  0.00     0.162 HD
BRANCH  41  44
HETATM   44  C25 UNL     1      -9.415  16.319  21.321  1.00  0.00     0.122 C 
BRANCH  44  45
HETATM   45  C26 UNL     1      -9.108  15.526  22.577  1.00  0.00     0.131 C 
BRANCH  45  46
HETATM   46  N8  UNL     1      -9.699  16.225  23.702  1.00  0.00    -0.366 N 
HETATM   47  C27 UNL     1      -9.008  16.968  24.494  1.00  0.00     0.196 C 
HETATM   48  N9  UNL     1      -9.677  17.610  25.565  1.00  0.00    -0.067 NA
HETATM   49  N10 UNL     1      -7.628  17.131  24.291  1.00  0.00    -0.067 NA
ATOM     50  H8  UNL     1     -10.700  16.123  23.872  1.00  0.00     0.161 HD
ENDBRANCH  45  46
ENDBRANCH  44  45
ENDBRANCH  41  44
ENDBRANCH  39  40
ENDBRANCH  36  39
ENDBRANCH  34  35
ENDBRANCH  31  34
ENDBRANCH  29  30
ENDBRANCH   3  29
TORSDOF 20
ENDMDL
MODEL 3
REMARK VINA RESULT: -8.158186321      2.290     11.587
REMARK  20 active torsions:
REMARK  status: ('A' for Active; 'I' for Inactive)
REMARK    1  A    between atoms: C2_2  and  C3_3 
REMARK    2  A    between atoms: C3_3  and  C4_4 
REMARK    3  A    between atoms: C4_4  and  N1_5 
REMARK    4  A    between atoms: C7_10  and  C8_11 
REMARK    5  A    between atoms: C8_11  and  C9_12 
REMARK    6  A    between atoms: C9_12  and  N3_13 
REMARK       I    between atoms: N3_13  and  C10_14 
REMARK    7  A    between atoms: C10_14  and  C11_16 
REMARK    8  A    between atoms: C14_19  and  C15_20 
REMARK    9  A    between atoms: C15_20  and  C16_21 
REMARK   10  A    between atoms: C16_21  and  C17_22 
REMARK   11  A    between atoms: C17_22  and  N4_23 
REMARK       I    between atoms: N4_23  and  C18_25 
REMARK   12  A    between atoms: C18_25  and  C19_27 
REMARK   13  A    between atoms: C19_27  and  N5_28 
REMARK       I    between atoms: N5_28  and  C20_30 
REMARK   14  A    between atoms: C20_30  and  C21_32 
REMARK   15  A    between atoms: C21_32  and  N6_33 
REMARK       I    between atoms: N6_33  and  C22_35 
REMARK   16  A    between atoms: C22_35  and  C23_37 
REMARK   17  A    between atoms: C23_37  and  N7_38 
REMARK       I    between atoms: N7_38  and  C24_40 
REMARK   18  A    between atoms: C24_40  and  C25_42 
REMARK   19  A    between atoms: C25_42  and  C26_43 
REMARK   20  A    between atoms: C26_43  and  N8_44 
ROOT
HETATM    1  N4  UNL     1      -6.592  17.842  27.183  1.00  0.00    -0.360 N 
ATOM      2  H4  UNL     1      -7.215  17.687  26.390  1.00  0.00     0.162 HD
HETATM    3  C18 UNL     1      -5.561  18.796  27.073  1.00  0.00     0.235 C 
HETATM    4  O2  UNL     1      -4.791  19.008  28.040  1.00  0.00    -0.272 OA
ENDROOT
BRANCH   1   5
HETATM    5  C17 UNL     1      -6.784  17.083  28.389  1.00  0.00     0.123 C 
BRANCH   5   6
HETATM    6  C16 UNL     1      -8.160  17.131  28.949  1.00  0.00     0.026 C 
BRANCH   6   7
HETATM    7  C15 UNL     1      -8.639  15.802  29.475  1.00  0.00     0.058 C 
BRANCH   7   8
HETATM    8  C14 UNL     1      -8.951  15.942  30.939  1.00  0.00     0.009 A 
HETATM    9  C13 UNL     1      -8.093  16.406  31.908  1.00  0.00     0.027 A 
HETATM   10  C12 UNL     1      -8.780  16.386  33.095  1.00  0.00     0.038 A 
HETATM   11  C11 UNL     1     -10.055  15.915  32.875  1.00  0.00     0.116 A 
HETATM   12  N11 UNL     1     -10.107  15.660  31.557  1.00  0.00    -0.354 N 
ATOM     13  H11 UNL     1     -10.932  15.294  31.081  1.00  0.00     0.166 HD
BRANCH  11  14
HETATM   14  C10 UNL     1     -11.125  15.738  33.883  1.00  0.00     0.342 C 
HETATM   15  N3  UNL     1     -12.091  14.862  33.741  1.00  0.00    -0.382 NA
HETATM   16  O1  UNL     1     -11.034  16.507  34.902  1.00  0.00    -0.249 OA
BRANCH  15  17
HETATM   17  C9  UNL     1     -12.922  14.043  33.683  1.00  0.00     0.165 C 
BRANCH  17  18
HETATM   18  C8  UNL     1     -13.285  13.260  32.448  1.00  0.00     0.118 C 
BRANCH  18  19
HETATM   19  C7  UNL     1     -14.470  13.883  31.771  1.00  0.00     0.033 A 
HETATM   20  N1  UNL     1     -14.876  13.688  30.499  1.00  0.00    -0.345 N 
HETATM   21  C5  UNL     1     -15.972  14.423  30.250  1.00  0.00     0.183 A 
HETATM   22  N2  UNL     1     -16.270  15.096  31.377  1.00  0.00    -0.360 N 
HETATM   23  C6  UNL     1     -15.365  14.780  32.317  1.00  0.00     0.114 A 
ATOM     24  H2  UNL     1     -17.053  15.739  31.496  1.00  0.00     0.166 HD
BRANCH  20  25
HETATM   25  C4  UNL     1     -14.219  12.810  29.553  1.00  0.00     0.130 C 
BRANCH  25  26
HETATM   26  C3  UNL     1     -13.656  13.536  28.375  1.00  0.00     0.020 C 
BRANCH  26  27
HETATM   27  C2  UNL     1     -12.367  13.004  27.847  1.00  0.00    -0.003 C 
HETATM   28  C1  UNL     1     -11.362  14.036  27.462  1.00  0.00     0.005 C 
ENDBRANCH  26  27
ENDBRANCH  25  26
ENDBRANCH  20  25
ENDBRANCH  18  19
ENDBRANCH  17  18
ENDBRANCH  15  17
ENDBRANCH  11  14
ENDBRANCH   7   8
ENDBRANCH   6   7
ENDBRANCH   5   6
ENDBRANCH   1   5
BRANCH   3  29
HETATM   29  C19 UNL     1      -5.422  19.532  25.783  1.00  0.00     0.225 C 
BRANCH  29  30
HETATM   30  N5  UNL     1      -5.026  18.608  24.747  1.00  0.00    -0.351 N 
HETATM   31  C20 UNL     1      -4.739  19.085  23.455  1.00  0.00     0.235 C 
HETATM   32  O3  UNL     1      -4.840  20.341  23.232  1.00  0.00    -0.272 OA
ATOM     33  H5  UNL     1      -4.953  17.611  24.952  1.00  0.00     0.163 HD
BRANCH  31  34
HETATM   34  C21 UNL     1      -4.318  18.260  22.308  1.00  0.00     0.225 C 
BRANCH  34  35
HETATM   35  N6  UNL     1      -5.324  18.226  21.288  1.00  0.00    -0.351 N 
HETATM   36  C22 UNL     1      -5.320  17.212  20.317  1.00  0.00     0.235 C 
HETATM   37  O4  UNL     1      -4.432  16.288  20.319  1.00  0.00    -0.272 OA
ATOM     38  H6  UNL     1      -6.049  18.943  21.268  1.00  0.00     0.163 HD
BRANCH  36  39
HETATM   39  C23 UNL     1      -6.307  17.112  19.233  1.00  0.00     0.225 C 
BRANCH  39  40
HETATM   40  N7  UNL     1      -7.473  16.334  19.513  1.00  0.00    -0.352 N 
HETATM   41  C24 UNL     1      -8.571  16.928  20.189  1.00  0.00     0.219 C 
HETATM   42  O5  UNL     1      -8.473  18.141  20.525  1.00  0.00    -0.274 OA
ATOM     43  H7  UNL     1      -7.516  15.355  19.229  1.00  0.00     0.162 HD
BRANCH  41  44
HETATM   44  C25 UNL     1      -9.781  16.138  20.479  1.00  0.00     0.122 C 
BRANCH  44  45
HETATM   45  C26 UNL     1     -10.016  16.003  21.971  1.00  0.00     0.131 C 
BRANCH  45  46
HETATM   46  N8  UNL     1      -8.759  16.260  22.647  1.00  0.00    -0.366 N 
HETATM   47  C27 UNL     1      -8.691  16.494  23.912  1.00  0.00     0.196 C 
HETATM   48  N9  UNL     1      -7.415  16.732  24.481  1.00  0.00    -0.067 NA
HETATM   49  N10 UNL     1      -9.856  16.510  24.695  1.00  0.00    -0.067 NA
ATOM     50  H8  UNL     1      -7.897  16.254  22.101  1.00  0.00     0.161 HD
ENDBRANCH  45  46
ENDBRANCH  44  45
ENDBRANCH  41  44
ENDBRANCH  39  40
ENDBRANCH  36  39
ENDBRANCH  34  35
ENDBRANCH  31  34
ENDBRANCH  29  30
ENDBRANCH   3  29
TORSDOF 20
ENDMDL
MODEL 4
REMARK VINA RESULT: -8.146771503      2.100     11.341
REMARK  20 active torsions:
REMARK  status: ('A' for Active; 'I' for Inactive)
REMARK    1  A    between atoms: C2_2  and  C3_3 
REMARK    2  A    between atoms: C3_3  and  C4_4 
REMARK    3  A    between atoms: C4_4  and  N1_5 
REMARK    4  A    between atoms: C7_10  and  C8_11 
REMARK    5  A    between atoms: C8_11  and  C9_12 
REMARK    6  A    between atoms: C9_12  and  N3_13 
REMARK       I    between atoms: N3_13  and  C10_14 
REMARK    7  A    between atoms: C10_14  and  C11_16 
REMARK    8  A    between atoms: C14_19  and  C15_20 
REMARK    9  A    between atoms: C15_20  and  C16_21 
REMARK   10  A    between atoms: C16_21  and  C17_22 
REMARK   11  A    between atoms: C17_22  and  N4_23 
REMARK       I    between atoms: N4_23  and  C18_25 
REMARK   12  A    between atoms: C18_25  and  C19_27 
REMARK   13  A    between atoms: C19_27  and  N5_28 
REMARK       I    between atoms: N5_28  and  C20_30 
REMARK   14  A    between atoms: C20_30  and  C21_32 
REMARK   15  A    between atoms: C21_32  and  N6_33 
REMARK       I    between atoms: N6_33  and  C22_35 
REMARK   16  A    between atoms: C22_35  and  C23_37 
REMARK   17  A    between atoms: C23_37  and  N7_38 
REMARK       I    between atoms: N7_38  and  C24_40 
REMARK   18  A    between atoms: C24_40  and  C25_42 
REMARK   19  A    between atoms: C25_42  and  C26_43 
REMARK   20  A    between atoms: C26_43  and  N8_44 
ROOT
HETATM    1  N4  UNL     1      -8.370  17.858  28.369  1.00  0.00    -0.360 N 
ATOM      2  H4  UNL     1      -8.898  18.653  28.008  1.00  0.00     0.162 HD
HETATM    3  C18 UNL     1      -7.006  17.732  28.044  1.00  0.00     0.235 C 
HETATM    4  O2  UNL     1      -6.338  16.766  28.485  1.00  0.00    -0.272 OA
ENDROOT
BRANCH   1   5
HETATM    5  C17 UNL     1      -9.034  16.891  29.201  1.00  0.00     0.123 C 
BRANCH   5   6
HETATM    6  C16 UNL     1      -9.045  17.212  30.652  1.00  0.00     0.026 C 
BRANCH   6   7
HETATM    7  C15 UNL     1      -8.189  16.284  31.477  1.00  0.00     0.058 C 
BRANCH   7   8
HETATM    8  C14 UNL     1      -9.030  15.690  32.572  1.00  0.00     0.009 A 
HETATM    9  C13 UNL     1      -8.560  15.072  33.707  1.00  0.00     0.027 A 
HETATM   10  C12 UNL     1      -9.657  14.694  34.441  1.00  0.00     0.038 A 
HETATM   11  C11 UNL     1     -10.801  15.070  33.774  1.00  0.00     0.116 A 
HETATM   12  N11 UNL     1     -10.369  15.667  32.651  1.00  0.00    -0.354 N 
ATOM     13  H11 UNL     1     -10.987  16.057  31.940  1.00  0.00     0.166 HD
BRANCH  11  14
HETATM   14  C10 UNL     1     -12.199  14.858  34.216  1.00  0.00     0.342 C 
HETATM   15  N3  UNL     1     -13.227  15.073  33.431  1.00  0.00    -0.382 NA
HETATM   16  O1  UNL     1     -12.323  14.451  35.423  1.00  0.00    -0.249 OA
BRANCH  15  17
HETATM   17  C9  UNL     1     -14.162  15.182  32.737  1.00  0.00     0.165 C 
BRANCH  17  18
HETATM   18  C8  UNL     1     -14.970  14.038  32.184  1.00  0.00     0.118 C 
BRANCH  18  19
HETATM   19  C7  UNL     1     -14.086  13.110  31.403  1.00  0.00     0.033 A 
HETATM   20  N1  UNL     1     -13.662  13.268  30.133  1.00  0.00    -0.345 N 
HETATM   21  C5  UNL     1     -12.893  12.227  29.774  1.00  0.00     0.183 A 
HETATM   22  N2  UNL     1     -12.826  11.394  30.829  1.00  0.00    -0.360 N 
HETATM   23  C6  UNL     1     -13.548  11.915  31.833  1.00  0.00     0.114 A 
ATOM     24  H2  UNL     1     -12.312  10.513  30.859  1.00  0.00     0.166 HD
BRANCH  20  25
HETATM   25  C4  UNL     1     -13.991  14.400  29.291  1.00  0.00     0.130 C 
BRANCH  25  26
HETATM   26  C3  UNL     1     -13.438  14.281  27.909  1.00  0.00     0.020 C 
BRANCH  26  27
HETATM   27  C2  UNL     1     -12.235  15.116  27.624  1.00  0.00    -0.003 C 
HETATM   28  C1  UNL     1     -10.997  14.355  27.289  1.00  0.00     0.005 C 
ENDBRANCH  26  27
ENDBRANCH  25  26
ENDBRANCH  20  25
ENDBRANCH  18  19
ENDBRANCH  17  18
ENDBRANCH  15  17
ENDBRANCH  11  14
ENDBRANCH   7   8
ENDBRANCH   6   7
ENDBRANCH   5   6
ENDBRANCH   1   5
BRANCH   3  29
HETATM   29  C19 UNL     1      -6.396  18.772  27.166  1.00  0.00     0.225 C 
BRANCH  29  30
HETATM   30  N5  UNL     1      -5.665  18.128  26.100  1.00  0.00    -0.351 N 
HETATM   31  C20 UNL     1      -5.003  18.908  25.134  1.00  0.00     0.235 C 
HETATM   32  O3  UNL     1      -5.069  20.183  25.229  1.00  0.00    -0.272 OA
ATOM     33  H5  UNL     1      -5.628  17.110  26.047  1.00  0.00     0.163 HD
BRANCH  31  34
HETATM   34  C21 UNL     1      -4.217  18.387  24.000  1.00  0.00     0.225 C 
BRANCH  34  35
HETATM   35  N6  UNL     1      -5.047  17.690  23.062  1.00  0.00    -0.351 N 
HETATM   36  C22 UNL     1      -4.875  17.878  21.682  1.00  0.00     0.235 C 
HETATM   37  O4  UNL     1      -3.972  18.662  21.221  1.00  0.00    -0.272 OA
ATOM     38  H6  UNL     1      -5.767  17.052  23.400  1.00  0.00     0.163 HD
BRANCH  36  39
HETATM   39  C23 UNL     1      -5.689  17.211  20.656  1.00  0.00     0.225 C 
BRANCH  39  40
HETATM   40  N7  UNL     1      -6.907  16.614  21.109  1.00  0.00    -0.352 N 
HETATM   41  C24 UNL     1      -8.153  17.148  20.688  1.00  0.00     0.219 C 
HETATM   42  O5  UNL     1      -8.139  18.149  19.919  1.00  0.00    -0.274 OA
ATOM     43  H7  UNL     1      -6.880  15.808  21.732  1.00  0.00     0.162 HD
BRANCH  41  44
HETATM   44  C25 UNL     1      -9.415  16.539  21.143  1.00  0.00     0.122 C 
BRANCH  44  45
HETATM   45  C26 UNL     1      -9.191  15.591  22.306  1.00  0.00     0.131 C 
BRANCH  45  46
HETATM   46  N8  UNL     1      -9.711  16.223  23.504  1.00  0.00    -0.366 N 
HETATM   47  C27 UNL     1      -8.943  16.703  24.419  1.00  0.00     0.196 C 
HETATM   48  N9  UNL     1      -9.546  17.303  25.553  1.00  0.00    -0.067 NA
HETATM   49  N10 UNL     1      -7.547  16.629  24.287  1.00  0.00    -0.067 NA
ATOM     50  H8  UNL     1     -10.721  16.290  23.626  1.00  0.00     0.161 HD
ENDBRANCH  45  46
ENDBRANCH  44  45
ENDBRANCH  41  44
ENDBRANCH  39  40
ENDBRANCH  36  39
ENDBRANCH  34  35
ENDBRANCH  31  34
ENDBRANCH  29  30
ENDBRANCH   3  29
TORSDOF 20
ENDMDL
MODEL 5
REMARK VINA RESULT: -8.105802891      2.100     10.792
REMARK  20 active torsions:
REMARK  status: ('A' for Active; 'I' for Inactive)
REMARK    1  A    between atoms: C2_2  and  C3_3 
REMARK    2  A    between atoms: C3_3  and  C4_4 
REMARK    3  A    between atoms: C4_4  and  N1_5 
REMARK    4  A    between atoms: C7_10  and  C8_11 
REMARK    5  A    between atoms: C8_11  and  C9_12 
REMARK    6  A    between atoms: C9_12  and  N3_13 
REMARK       I    between atoms: N3_13  and  C10_14 
REMARK    7  A    between atoms: C10_14  and  C11_16 
REMARK    8  A    between atoms: C14_19  and  C15_20 
REMARK    9  A    between atoms: C15_20  and  C16_21 
REMARK   10  A    between atoms: C16_21  and  C17_22 
REMARK   11  A    between atoms: C17_22  and  N4_23 
REMARK       I    between atoms: N4_23  and  C18_25 
REMARK   12  A    between atoms: C18_25  and  C19_27 
REMARK   13  A    between atoms: C19_27  and  N5_28 
REMARK       I    between atoms: N5_28  and  C20_30 
REMARK   14  A    between atoms: C20_30  and  C21_32 
REMARK   15  A    between atoms: C21_32  and  N6_33 
REMARK       I    between atoms: N6_33  and  C22_35 
REMARK   16  A    between atoms: C22_35  and  C23_37 
REMARK   17  A    between atoms: C23_37  and  N7_38 
REMARK       I    between atoms: N7_38  and  C24_40 
REMARK   18  A    between atoms: C24_40  and  C25_42 
REMARK   19  A    between atoms: C25_42  and  C26_43 
REMARK   20  A    between atoms: C26_43  and  N8_44 
ROOT
HETATM    1  N4  UNL     1      -7.999  17.940  29.072  1.00  0.00    -0.360 N 
ATOM      2  H4  UNL     1      -8.251  18.924  29.164  1.00  0.00     0.162 HD
HETATM    3  C18 UNL     1      -7.029  17.563  28.122  1.00  0.00     0.235 C 
HETATM    4  O2  UNL     1      -6.699  16.359  28.001  1.00  0.00    -0.272 OA
ENDROOT
BRANCH   1   5
HETATM    5  C17 UNL     1      -8.640  16.967  29.914  1.00  0.00     0.123 C 
BRANCH   5   6
HETATM    6  C16 UNL     1     -10.110  17.132  30.058  1.00  0.00     0.026 C 
BRANCH   6   7
HETATM    7  C15 UNL     1     -10.834  17.223  28.739  1.00  0.00     0.058 C 
BRANCH   7   8
HETATM    8  C14 UNL     1     -11.631  15.965  28.533  1.00  0.00     0.009 A 
HETATM    9  C13 UNL     1     -11.712  15.242  27.366  1.00  0.00     0.027 A 
HETATM   10  C12 UNL     1     -12.526  14.166  27.617  1.00  0.00     0.038 A 
HETATM   11  C11 UNL     1     -12.951  14.212  28.926  1.00  0.00     0.116 A 
HETATM   12  N11 UNL     1     -12.383  15.318  29.435  1.00  0.00    -0.354 N 
ATOM     13  H11 UNL     1     -12.509  15.630  30.399  1.00  0.00     0.166 HD
BRANCH  11  14
HETATM   14  C10 UNL     1     -13.838  13.244  29.610  1.00  0.00     0.342 C 
HETATM   15  N3  UNL     1     -13.966  13.203  30.914  1.00  0.00    -0.382 NA
HETATM   16  O1  UNL     1     -14.467  12.450  28.827  1.00  0.00    -0.249 OA
BRANCH  15  17
HETATM   17  C9  UNL     1     -14.162  13.186  32.066  1.00  0.00     0.165 C 
BRANCH  17  18
HETATM   18  C8  UNL     1     -13.810  14.296  33.021  1.00  0.00     0.118 C 
BRANCH  18  19
HETATM   19  C7  UNL     1     -12.710  13.855  33.943  1.00  0.00     0.033 A 
HETATM   20  N1  UNL     1     -11.544  14.491  34.180  1.00  0.00    -0.345 N 
HETATM   21  C5  UNL     1     -10.810  13.788  35.058  1.00  0.00     0.183 A 
HETATM   22  N2  UNL     1     -11.515  12.691  35.385  1.00  0.00    -0.360 N 
HETATM   23  C6  UNL     1     -12.678  12.713  34.715  1.00  0.00     0.114 A 
ATOM     24  H2  UNL     1     -11.216  11.963  36.035  1.00  0.00     0.166 HD
BRANCH  20  25
HETATM   25  C4  UNL     1     -11.155  15.747  33.573  1.00  0.00     0.130 C 
BRANCH  25  26
HETATM   26  C3  UNL     1     -10.115  16.478  34.357  1.00  0.00     0.020 C 
BRANCH  26  27
HETATM   27  C2  UNL     1      -8.835  16.742  33.639  1.00  0.00    -0.003 C 
HETATM   28  C1  UNL     1      -8.039  15.530  33.289  1.00  0.00     0.005 C 
ENDBRANCH  26  27
ENDBRANCH  25  26
ENDBRANCH  20  25
ENDBRANCH  18  19
ENDBRANCH  17  18
ENDBRANCH  15  17
ENDBRANCH  11  14
ENDBRANCH   7   8
ENDBRANCH   6   7
ENDBRANCH   5   6
ENDBRANCH   1   5
BRANCH   3  29
HETATM   29  C19 UNL     1      -6.421  18.632  27.279  1.00  0.00     0.225 C 
BRANCH  29  30
HETATM   30  N5  UNL     1      -5.685  18.025  26.196  1.00  0.00    -0.351 N 
HETATM   31  C20 UNL     1      -5.024  18.838  25.256  1.00  0.00     0.235 C 
HETATM   32  O3  UNL     1      -5.097  20.109  25.390  1.00  0.00    -0.272 OA
ATOM     33  H5  UNL     1      -5.644  17.010  26.111  1.00  0.00     0.163 HD
BRANCH  31  34
HETATM   34  C21 UNL     1      -4.234  18.356  24.108  1.00  0.00     0.225 C 
BRANCH  34  35
HETATM   35  N6  UNL     1      -5.060  17.697  23.141  1.00  0.00    -0.351 N 
HETATM   36  C22 UNL     1      -4.868  17.923  21.769  1.00  0.00     0.235 C 
HETATM   37  O4  UNL     1      -3.951  18.708  21.342  1.00  0.00    -0.272 OA
ATOM     38  H6  UNL     1      -5.793  17.060  23.451  1.00  0.00     0.163 HD
BRANCH  36  39
HETATM   39  C23 UNL     1      -5.678  17.297  20.714  1.00  0.00     0.225 C 
BRANCH  39  40
HETATM   40  N7  UNL     1      -6.874  16.641  21.144  1.00  0.00    -0.352 N 
HETATM   41  C24 UNL     1      -8.136  17.108  20.692  1.00  0.00     0.219 C 
HETATM   42  O5  UNL     1      -8.156  18.105  19.917  1.00  0.00    -0.274 OA
ATOM     43  H7  UNL     1      -6.819  15.841  21.773  1.00  0.00     0.162 HD
BRANCH  41  44
HETATM   44  C25 UNL     1      -9.375  16.438  21.124  1.00  0.00     0.122 C 
BRANCH  44  45
HETATM   45  C26 UNL     1      -9.144  15.568  22.344  1.00  0.00     0.131 C 
BRANCH  45  46
HETATM   46  N8  UNL     1      -9.661  16.273  23.501  1.00  0.00    -0.366 N 
HETATM   47  C27 UNL     1      -8.896  16.726  24.432  1.00  0.00     0.196 C 
HETATM   48  N9  UNL     1      -9.496  17.403  25.523  1.00  0.00    -0.067 NA
HETATM   49  N10 UNL     1      -7.505  16.546  24.358  1.00  0.00    -0.067 NA
ATOM     50  H8  UNL     1     -10.668  16.417  23.580  1.00  0.00     0.161 HD
ENDBRANCH  45  46
ENDBRANCH  44  45
ENDBRANCH  41  44
ENDBRANCH  39  40
ENDBRANCH  36  39
ENDBRANCH  34  35
ENDBRANCH  31  34
ENDBRANCH  29  30
ENDBRANCH   3  29
TORSDOF 20
ENDMDL
