MODEL 1
REMARK VINA RESULT: -6.992859130      0.000      0.000
REMARK  15 active torsions:
REMARK  status: ('A' for Active; 'I' for Inactive)
REMARK    1  A    between atoms: N5_13  and  C5_14 
REMARK    2  A    between atoms: N6_17  and  N7_18 
REMARK    3  A    between atoms: C8_22  and  N8_23 
REMARK    4  A    between atoms: C9_27  and  O3_28 
REMARK    5  A    between atoms: C10_30  and  N9_31 
REMARK    6  A    between atoms: C11_32  and  C12_33 
REMARK    7  A    between atoms: C12_33  and  C13_34 
REMARK    8  A    between atoms: C13_34  and  N10_35 
REMARK    9  A    between atoms: N10_35  and  C14_38 
REMARK   10  A    between atoms: C15_40  and  C16_41 
REMARK   11  A    between atoms: C17_44  and  O7_45 
REMARK   12  A    between atoms: C18_47  and  O8_48 
REMARK   13  A    between atoms: C19_50  and  O9_51 
REMARK   14  A    between atoms: C21_56  and  O10_57 
REMARK   15  A    between atoms: C22_61  and  N13_62 
ROOT
HETATM    1  N9  UNL     1      26.071   3.629   2.955  1.00  0.00    -0.287 N 
HETATM    2  C11 UNL     1      27.025   4.003   3.847  1.00  0.00     0.091 A 
HETATM    3  N11 UNL     1      26.409   4.215   5.047  1.00  0.00    -0.339 N 
ATOM      4  H11 UNL     1      26.866   4.506   5.911  1.00  0.00     0.167 HD
HETATM    5  C20 UNL     1      25.096   3.975   4.892  1.00  0.00     0.131 A 
HETATM    6  C21 UNL     1      23.983   4.012   5.711  1.00  0.00     0.186 A 
HETATM    7  N12 UNL     1      22.761   3.704   5.245  1.00  0.00    -0.168 N 
ATOM      8  H12 UNL     1      21.953   3.738   5.867  1.00  0.00     0.186 HD
HETATM    9  C22 UNL     1      22.607   3.352   3.956  1.00  0.00     0.679 A 
HETATM   10  N14 UNL     1      23.678   3.312   3.150  1.00  0.00    -0.174 N 
ATOM     11  H14 UNL     1      23.549   3.043   2.174  1.00  0.00     0.186 HD
HETATM   12  C23 UNL     1      24.901   3.610   3.577  1.00  0.00     0.160 A 
ENDROOT
BRANCH   1  13
HETATM   13  C10 UNL     1      26.385   3.314   1.573  1.00  0.00     0.062 C 
HETATM   14  C5  UNL     1      26.948   1.912   1.568  1.00  0.00     0.254 C 
HETATM   15  C6  UNL     1      25.937   0.863   1.552  1.00  0.00     0.268 C 
HETATM   16  O2  UNL     1      25.926  -0.048   2.419  1.00  0.00    -0.269 OA
HETATM   17  N6  UNL     1      24.882   0.727   0.612  1.00  0.00    -0.264 N 
HETATM   18  C7  UNL     1      24.617   1.581  -0.490  1.00  0.00     0.187 C 
HETATM   19  C8  UNL     1      24.541   3.026  -0.238  1.00  0.00     0.237 C 
HETATM   20  C9  UNL     1      25.499   3.763   0.547  1.00  0.00     0.199 C 
BRANCH  14  21
HETATM   21  N5  UNL     1      28.032   1.745   0.620  1.00  0.00    -0.240 N 
HETATM   22  C3  UNL     1      29.279   1.384   0.991  1.00  0.00     0.163 A 
HETATM   23  N2  UNL     1      29.827   1.108   2.213  1.00  0.00    -0.291 N 
HETATM   24  C4  UNL     1      30.045   1.317  -0.139  1.00  0.00     0.164 A 
HETATM   25  C2  UNL     1      31.104   0.778   2.275  1.00  0.00     0.330 A 
ATOM     26  H2  UNL     1      29.261   1.156   3.059  1.00  0.00     0.172 HD
HETATM   27  N1  UNL     1      31.874   0.706   1.175  1.00  0.00    -0.269 N 
HETATM   28  O1  UNL     1      31.601   0.523   3.412  1.00  0.00    -0.246 OA
HETATM   29  C1  UNL     1      33.265   0.336   1.312  1.00  0.00     0.164 C 
HETATM   30  C24 UNL     1      31.384   0.967  -0.050  1.00  0.00     0.283 A 
HETATM   31  O11 UNL     1      32.086   0.907  -1.101  1.00  0.00    -0.265 OA
HETATM   32  N3  UNL     1      29.227   1.641  -1.153  1.00  0.00    -0.278 N 
HETATM   33  N4  UNL     1      28.040   1.891  -0.684  1.00  0.00    -0.237 N 
ATOM     34  H3  UNL     1      29.494   1.684  -2.136  1.00  0.00     0.189 HD
ATOM     35  H4  UNL     1      27.234   2.161  -1.246  1.00  0.00     0.208 HD
ENDBRANCH  14  21
BRANCH  17  36
HETATM   36  N7  UNL     1      23.999  -0.343   0.762  1.00  0.00    -0.340 N 
ATOM     37  H72 UNL     1      24.428  -1.225   1.044  1.00  0.00     0.177 HD
ATOM     38  H71 UNL     1      23.008  -0.179   0.584  1.00  0.00     0.177 HD
ENDBRANCH  17  36
BRANCH  19  39
HETATM   39  N8  UNL     1      24.252   3.650  -1.561  1.00  0.00    -0.071 N 
ATOM     40  H83 UNL     1      23.642   3.088  -2.154  1.00  0.00     0.274 HD
ATOM     41  H82 UNL     1      23.645   4.468  -1.504  1.00  0.00     0.274 HD
ATOM     42  H81 UNL     1      25.163   3.845  -1.977  1.00  0.00     0.274 HD
ENDBRANCH  19  39
BRANCH  20  43
HETATM   43  O3  UNL     1      26.220   4.518  -0.457  1.00  0.00    -0.388 OA
ATOM     44  H3  UNL     1      26.812   5.046   0.064  1.00  0.00     0.210 HD
ENDBRANCH  20  43
ENDBRANCH   1  13
BRANCH   2  45
HETATM   45  C12 UNL     1      28.486   4.185   3.671  1.00  0.00     0.104 C 
BRANCH  45  46
HETATM   46  C13 UNL     1      29.212   4.022   4.981  1.00  0.00     0.243 C 
BRANCH  46  47
HETATM   47  N10 UNL     1      30.158   2.953   4.975  1.00  0.00    -0.046 N 
ATOM     48 2H10 UNL     1      29.801   2.112   5.430  1.00  0.00     0.280 HD
ATOM     49 1H10 UNL     1      30.300   2.560   4.045  1.00  0.00     0.280 HD
BRANCH  47  50
HETATM   50  C14 UNL     1      31.396   3.429   5.575  1.00  0.00     0.353 C 
HETATM   51  O4  UNL     1      32.382   3.442   4.602  1.00  0.00    -0.338 OA
HETATM   52  C15 UNL     1      33.548   4.058   4.968  1.00  0.00     0.256 C 
HETATM   53  C17 UNL     1      33.783   4.025   6.460  1.00  0.00     0.189 C 
HETATM   54  C18 UNL     1      33.255   2.759   7.103  1.00  0.00     0.182 C 
HETATM   55  C19 UNL     1      31.797   2.536   6.742  1.00  0.00     0.205 C 
BRANCH  52  56
HETATM   56  C16 UNL     1      33.700   5.428   4.435  1.00  0.00     0.206 C 
HETATM   57  O5  UNL     1      34.734   6.073   4.709  1.00  0.00    -0.646 OA
HETATM   58  O6  UNL     1      32.720   5.992   3.647  1.00  0.00    -0.646 OA
ENDBRANCH  52  56
BRANCH  53  59
HETATM   59  O7  UNL     1      35.151   4.062   6.719  1.00  0.00    -0.390 OA
ATOM     60  H7  UNL     1      35.579   4.634   6.092  1.00  0.00     0.210 HD
ENDBRANCH  53  59
BRANCH  54  61
HETATM   61  O8  UNL     1      33.398   2.871   8.471  1.00  0.00    -0.390 OA
ATOM     62  H8  UNL     1      33.689   2.033   8.812  1.00  0.00     0.210 HD
ENDBRANCH  54  61
BRANCH  55  63
HETATM   63  O9  UNL     1      31.623   1.221   6.336  1.00  0.00    -0.388 OA
ATOM     64  H9  UNL     1      31.751   0.669   7.099  1.00  0.00     0.210 HD
ENDBRANCH  55  63
ENDBRANCH  47  50
ENDBRANCH  46  47
ENDBRANCH  45  46
ENDBRANCH   2  45
BRANCH   6  65
HETATM   65  O10 UNL     1      24.191   4.380   7.031  1.00  0.00    -0.344 OA
ATOM     66  H10 UNL     1      23.567   4.990   7.408  1.00  0.00     0.219 HD
ENDBRANCH   6  65
BRANCH   9  67
HETATM   67  N13 UNL     1      21.451   3.050   3.473  1.00  0.00    -0.234 N 
ATOM     68 2H13 UNL     1      20.619   3.477   3.880  1.00  0.00     0.174 HD
ATOM     69 1H13 UNL     1      21.351   2.397   2.697  1.00  0.00     0.174 HD
ENDBRANCH   9  67
TORSDOF 15
ENDMDL
MODEL 2
REMARK VINA RESULT: -6.821313276      1.649      2.143
REMARK  15 active torsions:
REMARK  status: ('A' for Active; 'I' for Inactive)
REMARK    1  A    between atoms: N5_13  and  C5_14 
REMARK    2  A    between atoms: N6_17  and  N7_18 
REMARK    3  A    between atoms: C8_22  and  N8_23 
REMARK    4  A    between atoms: C9_27  and  O3_28 
REMARK    5  A    between atoms: C10_30  and  N9_31 
REMARK    6  A    between atoms: C11_32  and  C12_33 
REMARK    7  A    between atoms: C12_33  and  C13_34 
REMARK    8  A    between atoms: C13_34  and  N10_35 
REMARK    9  A    between atoms: N10_35  and  C14_38 
REMARK   10  A    between atoms: C15_40  and  C16_41 
REMARK   11  A    between atoms: C17_44  and  O7_45 
REMARK   12  A    between atoms: C18_47  and  O8_48 
REMARK   13  A    between atoms: C19_50  and  O9_51 
REMARK   14  A    between atoms: C21_56  and  O10_57 
REMARK   15  A    between atoms: C22_61  and  N13_62 
ROOT
HETATM    1  N9  UNL     1      27.315   3.903   3.679  1.00  0.00    -0.287 N 
HETATM    2  C11 UNL     1      27.928   4.202   4.853  1.00  0.00     0.091 A 
HETATM    3  N11 UNL     1      26.966   4.248   5.822  1.00  0.00    -0.339 N 
ATOM      4  H11 UNL     1      27.121   4.450   6.810  1.00  0.00     0.167 HD
HETATM    5  C20 UNL     1      25.781   3.980   5.249  1.00  0.00     0.131 A 
HETATM    6  C21 UNL     1      24.474   3.879   5.687  1.00  0.00     0.186 A 
HETATM    7  N12 UNL     1      23.473   3.584   4.840  1.00  0.00    -0.168 N 
ATOM      8  H12 UNL     1      22.516   3.514   5.185  1.00  0.00     0.186 HD
HETATM    9  C22 UNL     1      23.739   3.381   3.537  1.00  0.00     0.679 A 
HETATM   10  N14 UNL     1      25.002   3.476   3.099  1.00  0.00    -0.174 N 
ATOM     11  H14 UNL     1      25.192   3.321   2.108  1.00  0.00     0.186 HD
HETATM   12  C23 UNL     1      26.017   3.767   3.907  1.00  0.00     0.160 A 
ENDROOT
BRANCH   1  13
HETATM   13  C10 UNL     1      28.051   3.765   2.435  1.00  0.00     0.062 C 
HETATM   14  C5  UNL     1      28.514   2.328   2.365  1.00  0.00     0.254 C 
HETATM   15  C6  UNL     1      27.514   1.404   1.847  1.00  0.00     0.268 C 
HETATM   16  O2  UNL     1      27.173   0.380   2.494  1.00  0.00    -0.269 OA
HETATM   17  N6  UNL     1      26.823   1.519   0.612  1.00  0.00    -0.264 N 
HETATM   18  C7  UNL     1      26.979   2.550  -0.350  1.00  0.00     0.187 C 
HETATM   19  C8  UNL     1      26.895   3.941   0.112  1.00  0.00     0.237 C 
HETATM   20  C9  UNL     1      27.576   4.451   1.276  1.00  0.00     0.199 C 
BRANCH  14  21
HETATM   21  N5  UNL     1      29.841   2.193   1.795  1.00  0.00    -0.240 N 
HETATM   22  C3  UNL     1      30.541   1.039   1.840  1.00  0.00     0.163 A 
HETATM   23  N2  UNL     1      30.252  -0.187   2.369  1.00  0.00    -0.291 N 
HETATM   24  C4  UNL     1      31.738   1.256   1.215  1.00  0.00     0.164 A 
HETATM   25  C2  UNL     1      31.149  -1.150   2.264  1.00  0.00     0.330 A 
ATOM     26  H2  UNL     1      29.361  -0.356   2.836  1.00  0.00     0.172 HD
HETATM   27  N1  UNL     1      32.332  -0.957   1.653  1.00  0.00    -0.269 N 
HETATM   28  O1  UNL     1      30.871  -2.284   2.758  1.00  0.00    -0.246 OA
HETATM   29  C1  UNL     1      33.269  -2.055   1.571  1.00  0.00     0.164 C 
HETATM   30  C24 UNL     1      32.665   0.230   1.116  1.00  0.00     0.283 A 
HETATM   31  O11 UNL     1      33.769   0.439   0.536  1.00  0.00    -0.265 OA
HETATM   32  N3  UNL     1      31.712   2.538   0.817  1.00  0.00    -0.278 N 
HETATM   33  N4  UNL     1      30.581   3.075   1.169  1.00  0.00    -0.237 N 
ATOM     34  H3  UNL     1      32.462   3.015   0.316  1.00  0.00     0.189 HD
ATOM     35  H4  UNL     1      30.311   4.041   0.986  1.00  0.00     0.208 HD
ENDBRANCH  14  21
BRANCH  17  36
HETATM   36  N7  UNL     1      25.889   0.535   0.286  1.00  0.00    -0.340 N 
ATOM     37  H72 UNL     1      26.197  -0.425   0.436  1.00  0.00     0.177 HD
ATOM     38  H71 UNL     1      24.980   0.833  -0.071  1.00  0.00     0.177 HD
ENDBRANCH  17  36
BRANCH  19  39
HETATM   39  N8  UNL     1      27.090   4.782  -1.104  1.00  0.00    -0.071 N 
ATOM     40  H83 UNL     1      28.057   4.811  -1.430  1.00  0.00     0.274 HD
ATOM     41  H82 UNL     1      26.689   4.377  -1.950  1.00  0.00     0.274 HD
ATOM     42  H81 UNL     1      26.709   5.699  -0.869  1.00  0.00     0.274 HD
ENDBRANCH  19  39
BRANCH  20  43
HETATM   43  O3  UNL     1      28.624   5.267   0.699  1.00  0.00    -0.388 OA
ATOM     44  H3  UNL     1      29.395   4.983   1.174  1.00  0.00     0.210 HD
ENDBRANCH  20  43
ENDBRANCH   1  13
BRANCH   2  45
HETATM   45  C12 UNL     1      29.358   4.458   5.153  1.00  0.00     0.104 C 
BRANCH  45  46
HETATM   46  C13 UNL     1      30.009   3.239   5.753  1.00  0.00     0.243 C 
BRANCH  46  47
HETATM   47  N10 UNL     1      31.137   2.776   5.010  1.00  0.00    -0.046 N 
ATOM     48 2H10 UNL     1      31.581   1.963   5.438  1.00  0.00     0.280 HD
ATOM     49 1H10 UNL     1      30.873   2.342   4.126  1.00  0.00     0.280 HD
BRANCH  47  50
HETATM   50  C14 UNL     1      32.061   3.886   4.833  1.00  0.00     0.353 C 
HETATM   51  O4  UNL     1      32.447   3.932   3.503  1.00  0.00    -0.338 OA
HETATM   52  C15 UNL     1      33.155   5.047   3.144  1.00  0.00     0.256 C 
HETATM   53  C17 UNL     1      33.909   5.658   4.302  1.00  0.00     0.189 C 
HETATM   54  C18 UNL     1      34.407   4.618   5.284  1.00  0.00     0.182 C 
HETATM   55  C19 UNL     1      33.271   3.720   5.743  1.00  0.00     0.205 C 
BRANCH  52  56
HETATM   56  C16 UNL     1      32.356   6.066   2.432  1.00  0.00     0.206 C 
HETATM   57  O5  UNL     1      32.456   7.264   2.776  1.00  0.00    -0.646 OA
HETATM   58  O6  UNL     1      31.513   5.710   1.402  1.00  0.00    -0.646 OA
ENDBRANCH  52  56
BRANCH  53  59
HETATM   59  O7  UNL     1      35.035   6.326   3.826  1.00  0.00    -0.390 OA
ATOM     60  H7  UNL     1      35.147   6.143   2.900  1.00  0.00     0.210 HD
ENDBRANCH  53  59
BRANCH  54  61
HETATM   61  O8  UNL     1      34.968   5.269   6.363  1.00  0.00    -0.390 OA
ATOM     62  H8  UNL     1      35.914   5.245   6.269  1.00  0.00     0.210 HD
ENDBRANCH  54  61
BRANCH  55  63
HETATM   63  O9  UNL     1      33.673   2.395   5.659  1.00  0.00    -0.388 OA
ATOM     64  H9  UNL     1      33.456   1.979   6.485  1.00  0.00     0.210 HD
ENDBRANCH  55  63
ENDBRANCH  47  50
ENDBRANCH  46  47
ENDBRANCH  45  46
ENDBRANCH   2  45
BRANCH   6  65
HETATM   65  O10 UNL     1      24.249   4.095   7.037  1.00  0.00    -0.344 OA
ATOM     66  H10 UNL     1      23.555   4.702   7.263  1.00  0.00     0.219 HD
ENDBRANCH   6  65
BRANCH   9  67
HETATM   67  N13 UNL     1      22.806   3.097   2.696  1.00  0.00    -0.234 N 
ATOM     68 2H13 UNL     1      21.979   2.599   3.024  1.00  0.00     0.174 HD
ATOM     69 1H13 UNL     1      22.876   3.359   1.712  1.00  0.00     0.174 HD
ENDBRANCH   9  67
TORSDOF 15
ENDMDL
MODEL 3
REMARK VINA RESULT: -6.697388791      5.697     10.485
REMARK  15 active torsions:
REMARK  status: ('A' for Active; 'I' for Inactive)
REMARK    1  A    between atoms: N5_13  and  C5_14 
REMARK    2  A    between atoms: N6_17  and  N7_18 
REMARK    3  A    between atoms: C8_22  and  N8_23 
REMARK    4  A    between atoms: C9_27  and  O3_28 
REMARK    5  A    between atoms: C10_30  and  N9_31 
REMARK    6  A    between atoms: C11_32  and  C12_33 
REMARK    7  A    between atoms: C12_33  and  C13_34 
REMARK    8  A    between atoms: C13_34  and  N10_35 
REMARK    9  A    between atoms: N10_35  and  C14_38 
REMARK   10  A    between atoms: C15_40  and  C16_41 
REMARK   11  A    between atoms: C17_44  and  O7_45 
REMARK   12  A    between atoms: C18_47  and  O8_48 
REMARK   13  A    between atoms: C19_50  and  O9_51 
REMARK   14  A    between atoms: C21_56  and  O10_57 
REMARK   15  A    between atoms: C22_61  and  N13_62 
ROOT
HETATM    1  N9  UNL     1      34.905   5.974   4.026  1.00  0.00    -0.287 N 
HETATM    2  C11 UNL     1      33.667   5.550   4.389  1.00  0.00     0.091 A 
HETATM    3  N11 UNL     1      33.755   5.054   5.657  1.00  0.00    -0.339 N 
ATOM      4  H11 UNL     1      32.987   4.661   6.201  1.00  0.00     0.167 HD
HETATM    5  C20 UNL     1      35.030   5.172   6.066  1.00  0.00     0.131 A 
HETATM    6  C21 UNL     1      35.730   4.861   7.217  1.00  0.00     0.186 A 
HETATM    7  N12 UNL     1      37.045   5.113   7.326  1.00  0.00    -0.168 N 
ATOM      8  H12 UNL     1      37.542   4.876   8.184  1.00  0.00     0.186 HD
HETATM    9  C22 UNL     1      37.704   5.678   6.298  1.00  0.00     0.679 A 
HETATM   10  N14 UNL     1      37.037   5.984   5.175  1.00  0.00    -0.174 N 
ATOM     11  H14 UNL     1      37.547   6.413   4.402  1.00  0.00     0.186 HD
HETATM   12  C23 UNL     1      35.736   5.749   5.033  1.00  0.00     0.160 A 
ENDROOT
BRANCH   1  13
HETATM   13  C10 UNL     1      35.170   6.572   2.730  1.00  0.00     0.062 C 
HETATM   14  C5  UNL     1      35.360   8.052   2.968  1.00  0.00     0.254 C 
HETATM   15  C6  UNL     1      36.707   8.421   3.385  1.00  0.00     0.268 C 
HETATM   16  O2  UNL     1      36.908   9.081   4.436  1.00  0.00    -0.269 OA
HETATM   17  N6  UNL     1      37.913   8.105   2.705  1.00  0.00    -0.264 N 
HETATM   18  C7  UNL     1      38.033   7.379   1.492  1.00  0.00     0.187 C 
HETATM   19  C8  UNL     1      37.347   6.084   1.394  1.00  0.00     0.237 C 
HETATM   20  C9  UNL     1      35.981   5.859   1.795  1.00  0.00     0.199 C 
BRANCH  14  21
HETATM   21  N5  UNL     1      34.790   8.869   1.915  1.00  0.00    -0.240 N 
HETATM   22  C3  UNL     1      35.053  10.187   1.789  1.00  0.00     0.163 A 
HETATM   23  N2  UNL     1      35.831  11.040   2.521  1.00  0.00    -0.291 N 
HETATM   24  C4  UNL     1      34.362  10.646   0.702  1.00  0.00     0.164 A 
HETATM   25  C2  UNL     1      35.899  12.307   2.157  1.00  0.00     0.330 A 
ATOM     26  H2  UNL     1      36.349  10.704   3.333  1.00  0.00     0.172 HD
HETATM   27  N1  UNL     1      35.228  12.778   1.091  1.00  0.00    -0.269 N 
HETATM   28  O1  UNL     1      36.624  13.089   2.842  1.00  0.00    -0.246 OA
HETATM   29  C1  UNL     1      35.347  14.177   0.745  1.00  0.00     0.164 C 
HETATM   30  C24 UNL     1      34.449  11.981   0.337  1.00  0.00     0.283 A 
HETATM   31  O11 UNL     1      33.807  12.397  -0.671  1.00  0.00    -0.265 OA
HETATM   32  N3  UNL     1      33.706   9.582   0.212  1.00  0.00    -0.278 N 
HETATM   33  N4  UNL     1      33.972   8.540   0.944  1.00  0.00    -0.237 N 
ATOM     34  H3  UNL     1      33.096   9.589  -0.604  1.00  0.00     0.189 HD
ATOM     35  H4  UNL     1      33.599   7.604   0.787  1.00  0.00     0.208 HD
ENDBRANCH  14  21
BRANCH  17  36
HETATM   36  N7  UNL     1      39.116   8.538   3.263  1.00  0.00    -0.340 N 
ATOM     37  H72 UNL     1      39.132   9.513   3.562  1.00  0.00     0.177 HD
ATOM     38  H71 UNL     1      39.882   7.868   3.334  1.00  0.00     0.177 HD
ENDBRANCH  17  36
BRANCH  19  39
HETATM   39  N8  UNL     1      37.656   5.567   0.030  1.00  0.00    -0.071 N 
ATOM     40  H83 UNL     1      37.526   6.259  -0.709  1.00  0.00     0.274 HD
ATOM     41  H82 UNL     1      38.650   5.404  -0.130  1.00  0.00     0.274 HD
ATOM     42  H81 UNL     1      37.081   4.733  -0.085  1.00  0.00     0.274 HD
ENDBRANCH  19  39
BRANCH  20  43
HETATM   43  O3  UNL     1      35.296   5.714   0.528  1.00  0.00    -0.388 OA
ATOM     44  H3  UNL     1      35.902   6.115  -0.084  1.00  0.00     0.210 HD
ENDBRANCH  20  43
ENDBRANCH   1  13
BRANCH   2  45
HETATM   45  C12 UNL     1      32.388   5.566   3.638  1.00  0.00     0.104 C 
BRANCH  45  46
HETATM   46  C13 UNL     1      31.503   4.421   4.056  1.00  0.00     0.243 C 
BRANCH  46  47
HETATM   47  N10 UNL     1      31.700   3.239   3.279  1.00  0.00    -0.046 N 
ATOM     48 2H10 UNL     1      30.978   3.113   2.569  1.00  0.00     0.280 HD
ATOM     49 1H10 UNL     1      32.502   3.312   2.653  1.00  0.00     0.280 HD
BRANCH  47  50
HETATM   50  C14 UNL     1      31.799   2.103   4.182  1.00  0.00     0.353 C 
HETATM   51  O4  UNL     1      32.847   2.324   5.059  1.00  0.00    -0.338 OA
HETATM   52  C15 UNL     1      32.932   1.435   6.096  1.00  0.00     0.256 C 
HETATM   53  C17 UNL     1      32.332   0.089   5.763  1.00  0.00     0.189 C 
HETATM   54  C18 UNL     1      32.520  -0.285   4.307  1.00  0.00     0.182 C 
HETATM   55  C19 UNL     1      32.012   0.817   3.395  1.00  0.00     0.205 C 
BRANCH  52  56
HETATM   56  C16 UNL     1      32.406   1.950   7.378  1.00  0.00     0.206 C 
HETATM   57  O5  UNL     1      31.990   1.139   8.232  1.00  0.00    -0.646 OA
HETATM   58  O6  UNL     1      32.371   3.304   7.635  1.00  0.00    -0.646 OA
ENDBRANCH  52  56
BRANCH  53  59
HETATM   59  O7  UNL     1      32.960  -0.901   6.514  1.00  0.00    -0.390 OA
ATOM     60  H7  UNL     1      32.731  -1.757   6.170  1.00  0.00     0.210 HD
ENDBRANCH  53  59
BRANCH  54  61
HETATM   61  O8  UNL     1      31.837  -1.459   4.067  1.00  0.00    -0.390 OA
ATOM     62  H8  UNL     1      32.341  -2.179   4.429  1.00  0.00     0.210 HD
ENDBRANCH  54  61
BRANCH  55  63
HETATM   63  O9  UNL     1      32.966   1.081   2.422  1.00  0.00    -0.388 OA
ATOM     64  H9  UNL     1      33.764   1.335   2.870  1.00  0.00     0.210 HD
ENDBRANCH  55  63
ENDBRANCH  47  50
ENDBRANCH  46  47
ENDBRANCH  45  46
ENDBRANCH   2  45
BRANCH   6  65
HETATM   65  O10 UNL     1      35.009   4.281   8.249  1.00  0.00    -0.344 OA
ATOM     66  H10 UNL     1      35.296   3.425   8.543  1.00  0.00     0.219 HD
ENDBRANCH   6  65
BRANCH   9  67
HETATM   67  N13 UNL     1      38.964   5.934   6.365  1.00  0.00    -0.234 N 
ATOM     68 2H13 UNL     1      39.619   5.164   6.499  1.00  0.00     0.174 HD
ATOM     69 1H13 UNL     1      39.320   6.887   6.286  1.00  0.00     0.174 HD
ENDBRANCH   9  67
TORSDOF 15
ENDMDL
MODEL 4
REMARK VINA RESULT: -6.675193357      5.520      8.767
REMARK  15 active torsions:
REMARK  status: ('A' for Active; 'I' for Inactive)
REMARK    1  A    between atoms: N5_13  and  C5_14 
REMARK    2  A    between atoms: N6_17  and  N7_18 
REMARK    3  A    between atoms: C8_22  and  N8_23 
REMARK    4  A    between atoms: C9_27  and  O3_28 
REMARK    5  A    between atoms: C10_30  and  N9_31 
REMARK    6  A    between atoms: C11_32  and  C12_33 
REMARK    7  A    between atoms: C12_33  and  C13_34 
REMARK    8  A    between atoms: C13_34  and  N10_35 
REMARK    9  A    between atoms: N10_35  and  C14_38 
REMARK   10  A    between atoms: C15_40  and  C16_41 
REMARK   11  A    between atoms: C17_44  and  O7_45 
REMARK   12  A    between atoms: C18_47  and  O8_48 
REMARK   13  A    between atoms: C19_50  and  O9_51 
REMARK   14  A    between atoms: C21_56  and  O10_57 
REMARK   15  A    between atoms: C22_61  and  N13_62 
ROOT
HETATM    1  N9  UNL     1      34.724   5.464   4.796  1.00  0.00    -0.287 N 
HETATM    2  C11 UNL     1      35.949   5.963   5.097  1.00  0.00     0.091 A 
HETATM    3  N11 UNL     1      36.297   5.492   6.331  1.00  0.00    -0.339 N 
ATOM      4  H11 UNL     1      37.165   5.696   6.827  1.00  0.00     0.167 HD
HETATM    5  C20 UNL     1      35.297   4.715   6.779  1.00  0.00     0.131 A 
HETATM    6  C21 UNL     1      35.060   3.975   7.923  1.00  0.00     0.186 A 
HETATM    7  N12 UNL     1      33.923   3.276   8.080  1.00  0.00    -0.168 N 
ATOM      8  H12 UNL     1      33.768   2.737   8.932  1.00  0.00     0.186 HD
HETATM    9  C22 UNL     1      32.990   3.291   7.111  1.00  0.00     0.679 A 
HETATM   10  N14 UNL     1      33.208   4.004   5.997  1.00  0.00    -0.174 N 
ATOM     11  H14 UNL     1      32.494   4.008   5.268  1.00  0.00     0.186 HD
HETATM   12  C23 UNL     1      34.320   4.708   5.807  1.00  0.00     0.160 A 
ENDROOT
BRANCH   1  13
HETATM   13  C10 UNL     1      34.054   5.758   3.543  1.00  0.00     0.062 C 
HETATM   14  C5  UNL     1      34.605   4.791   2.522  1.00  0.00     0.254 C 
HETATM   15  C6  UNL     1      33.961   3.484   2.529  1.00  0.00     0.268 C 
HETATM   16  O2  UNL     1      34.630   2.426   2.652  1.00  0.00    -0.269 OA
HETATM   17  N6  UNL     1      32.569   3.233   2.407  1.00  0.00    -0.264 N 
HETATM   18  C7  UNL     1      31.546   4.203   2.248  1.00  0.00     0.187 C 
HETATM   19  C8  UNL     1      31.513   5.329   3.191  1.00  0.00     0.237 C 
HETATM   20  C9  UNL     1      32.668   6.105   3.568  1.00  0.00     0.199 C 
BRANCH  14  21
HETATM   21  N5  UNL     1      34.776   5.392   1.213  1.00  0.00    -0.240 N 
HETATM   22  C3  UNL     1      35.623   4.896   0.286  1.00  0.00     0.163 A 
HETATM   23  N2  UNL     1      36.468   3.822   0.299  1.00  0.00    -0.291 N 
HETATM   24  C4  UNL     1      35.538   5.693  -0.822  1.00  0.00     0.164 A 
HETATM   25  C2  UNL     1      37.195   3.574  -0.775  1.00  0.00     0.330 A 
ATOM     26  H2  UNL     1      36.535   3.223   1.122  1.00  0.00     0.172 HD
HETATM   27  N1  UNL     1      37.126   4.345  -1.875  1.00  0.00    -0.269 N 
HETATM   28  O1  UNL     1      37.974   2.575  -0.753  1.00  0.00    -0.246 OA
HETATM   29  C1  UNL     1      37.948   4.017  -3.018  1.00  0.00     0.164 C 
HETATM   30  C24 UNL     1      36.311   5.413  -1.939  1.00  0.00     0.283 A 
HETATM   31  O11 UNL     1      36.226   6.155  -2.960  1.00  0.00    -0.265 OA
HETATM   32  N3  UNL     1      34.639   6.643  -0.519  1.00  0.00    -0.278 N 
HETATM   33  N4  UNL     1      34.200   6.448   0.690  1.00  0.00    -0.237 N 
ATOM     34  H3  UNL     1      34.347   7.398  -1.138  1.00  0.00     0.189 HD
ATOM     35  H4  UNL     1      33.509   7.031   1.162  1.00  0.00     0.208 HD
ENDBRANCH  14  21
BRANCH  17  36
HETATM   36  N7  UNL     1      32.133   1.908   2.444  1.00  0.00    -0.340 N 
ATOM     37  H72 UNL     1      32.756   1.258   2.923  1.00  0.00     0.177 HD
ATOM     38  H71 UNL     1      31.242   1.682   2.002  1.00  0.00     0.177 HD
ENDBRANCH  17  36
BRANCH  19  39
HETATM   39  N8  UNL     1      30.347   6.163   2.782  1.00  0.00    -0.071 N 
ATOM     40  H83 UNL     1      29.666   5.662   2.212  1.00  0.00     0.274 HD
ATOM     41  H82 UNL     1      29.717   6.392   3.551  1.00  0.00     0.274 HD
ATOM     42  H81 UNL     1      30.743   6.982   2.321  1.00  0.00     0.274 HD
ENDBRANCH  19  39
BRANCH  20  43
HETATM   43  O3  UNL     1      32.442   7.363   2.887  1.00  0.00    -0.388 OA
ATOM     44  H3  UNL     1      33.316   7.729   2.830  1.00  0.00     0.210 HD
ENDBRANCH  20  43
ENDBRANCH   1  13
BRANCH   2  45
HETATM   45  C12 UNL     1      36.838   6.862   4.320  1.00  0.00     0.104 C 
BRANCH  45  46
HETATM   46  C13 UNL     1      37.875   7.495   5.210  1.00  0.00     0.243 C 
BRANCH  46  47
HETATM   47  N10 UNL     1      38.390   8.724   4.694  1.00  0.00    -0.046 N 
ATOM     48 2H10 UNL     1      39.172   9.081   5.243  1.00  0.00     0.280 HD
ATOM     49 1H10 UNL     1      38.884   8.601   3.810  1.00  0.00     0.280 HD
BRANCH  47  50
HETATM   50  C14 UNL     1      37.296   9.678   4.595  1.00  0.00     0.353 C 
HETATM   51  O4  UNL     1      37.320  10.248   3.333  1.00  0.00    -0.338 OA
HETATM   52  C15 UNL     1      36.229  11.014   3.023  1.00  0.00     0.256 C 
HETATM   53  C17 UNL     1      35.564  11.606   4.244  1.00  0.00     0.189 C 
HETATM   54  C18 UNL     1      36.557  11.945   5.338  1.00  0.00     0.182 C 
HETATM   55  C19 UNL     1      37.423  10.744   5.675  1.00  0.00     0.205 C 
BRANCH  52  56
HETATM   56  C16 UNL     1      35.243  10.338   2.155  1.00  0.00     0.206 C 
HETATM   57  O5  UNL     1      34.644  11.004   1.284  1.00  0.00    -0.646 OA
HETATM   58  O6  UNL     1      34.982   8.992   2.297  1.00  0.00    -0.646 OA
ENDBRANCH  52  56
BRANCH  53  59
HETATM   59  O7  UNL     1      34.928  12.796   3.900  1.00  0.00    -0.390 OA
ATOM     60  H7  UNL     1      34.322  13.045   4.587  1.00  0.00     0.210 HD
ENDBRANCH  53  59
BRANCH  54  61
HETATM   61  O8  UNL     1      35.855  12.357   6.451  1.00  0.00    -0.390 OA
ATOM     62  H8  UNL     1      36.211  13.190   6.739  1.00  0.00     0.210 HD
ENDBRANCH  54  61
BRANCH  55  63
HETATM   63  O9  UNL     1      38.753  11.137   5.714  1.00  0.00    -0.388 OA
ATOM     64  H9  UNL     1      38.974  11.300   6.624  1.00  0.00     0.210 HD
ENDBRANCH  55  63
ENDBRANCH  47  50
ENDBRANCH  46  47
ENDBRANCH  45  46
ENDBRANCH   2  45
BRANCH   6  65
HETATM   65  O10 UNL     1      36.049   3.990   8.893  1.00  0.00    -0.344 OA
ATOM     66  H10 UNL     1      35.935   4.600   9.611  1.00  0.00     0.219 HD
ENDBRANCH   6  65
BRANCH   9  67
HETATM   67  N13 UNL     1      31.888   2.634   7.226  1.00  0.00    -0.234 N 
ATOM     68 2H13 UNL     1      31.917   1.681   7.589  1.00  0.00     0.174 HD
ATOM     69 1H13 UNL     1      30.992   3.044   6.965  1.00  0.00     0.174 HD
ENDBRANCH   9  67
TORSDOF 15
ENDMDL
MODEL 5
REMARK VINA RESULT: -6.641683607      2.370      6.217
REMARK  15 active torsions:
REMARK  status: ('A' for Active; 'I' for Inactive)
REMARK    1  A    between atoms: N5_13  and  C5_14 
REMARK    2  A    between atoms: N6_17  and  N7_18 
REMARK    3  A    between atoms: C8_22  and  N8_23 
REMARK    4  A    between atoms: C9_27  and  O3_28 
REMARK    5  A    between atoms: C10_30  and  N9_31 
REMARK    6  A    between atoms: C11_32  and  C12_33 
REMARK    7  A    between atoms: C12_33  and  C13_34 
REMARK    8  A    between atoms: C13_34  and  N10_35 
REMARK    9  A    between atoms: N10_35  and  C14_38 
REMARK   10  A    between atoms: C15_40  and  C16_41 
REMARK   11  A    between atoms: C17_44  and  O7_45 
REMARK   12  A    between atoms: C18_47  and  O8_48 
REMARK   13  A    between atoms: C19_50  and  O9_51 
REMARK   14  A    between atoms: C21_56  and  O10_57 
REMARK   15  A    between atoms: C22_61  and  N13_62 
ROOT
HETATM    1  N9  UNL     1      29.177   0.935   1.324  1.00  0.00    -0.287 N 
HETATM    2  C11 UNL     1      30.491   1.252   1.454  1.00  0.00     0.091 A 
HETATM    3  N11 UNL     1      31.155   0.119   1.828  1.00  0.00    -0.339 N 
ATOM      4  H11 UNL     1      32.156   0.042   2.004  1.00  0.00     0.167 HD
HETATM    5  C20 UNL     1      30.259  -0.878   1.926  1.00  0.00     0.131 A 
HETATM    6  C21 UNL     1      30.309  -2.221   2.252  1.00  0.00     0.186 A 
HETATM    7  N12 UNL     1      29.201  -2.981   2.258  1.00  0.00    -0.168 N 
ATOM      8  H12 UNL     1      29.261  -3.970   2.502  1.00  0.00     0.186 HD
HETATM    9  C22 UNL     1      28.014  -2.433   1.942  1.00  0.00     0.679 A 
HETATM   10  N14 UNL     1      27.951  -1.133   1.624  1.00  0.00    -0.174 N 
ATOM     11  H14 UNL     1      27.045  -0.728   1.385  1.00  0.00     0.186 HD
HETATM   12  C23 UNL     1      29.026  -0.350   1.608  1.00  0.00     0.160 A 
ENDROOT
BRANCH   1  13
HETATM   13  C10 UNL     1      28.181   1.913   0.924  1.00  0.00     0.062 C 
HETATM   14  C5  UNL     1      27.504   2.381   2.191  1.00  0.00     0.254 C 
HETATM   15  C6  UNL     1      28.219   3.436   2.895  1.00  0.00     0.268 C 
HETATM   16  O2  UNL     1      28.534   3.317   4.107  1.00  0.00    -0.269 OA
HETATM   17  N6  UNL     1      28.641   4.676   2.347  1.00  0.00    -0.264 N 
HETATM   18  C7  UNL     1      28.439   5.124   1.016  1.00  0.00     0.187 C 
HETATM   19  C8  UNL     1      28.828   4.224  -0.079  1.00  0.00     0.237 C 
HETATM   20  C9  UNL     1      28.494   2.822  -0.132  1.00  0.00     0.199 C 
BRANCH  14  21
HETATM   21  N5  UNL     1      26.081   2.603   2.018  1.00  0.00    -0.240 N 
HETATM   22  C3  UNL     1      25.248   2.842   3.053  1.00  0.00     0.163 A 
HETATM   23  N2  UNL     1      25.462   2.931   4.400  1.00  0.00    -0.291 N 
HETATM   24  C4  UNL     1      23.989   3.006   2.543  1.00  0.00     0.164 A 
HETATM   25  C2  UNL     1      24.434   3.177   5.191  1.00  0.00     0.330 A 
ATOM     26  H2  UNL     1      26.398   2.810   4.787  1.00  0.00     0.172 HD
HETATM   27  N1  UNL     1      23.189   3.342   4.709  1.00  0.00    -0.269 N 
HETATM   28  O1  UNL     1      24.645   3.259   6.438  1.00  0.00    -0.246 OA
HETATM   29  C1  UNL     1      22.108   3.611   5.630  1.00  0.00     0.164 C 
HETATM   30  C24 UNL     1      22.924   3.265   3.393  1.00  0.00     0.283 A 
HETATM   31  O11 UNL     1      21.764   3.416   2.913  1.00  0.00    -0.265 OA
HETATM   32  N3  UNL     1      24.114   2.860   1.215  1.00  0.00    -0.278 N 
HETATM   33  N4  UNL     1      25.359   2.621   0.923  1.00  0.00    -0.237 N 
ATOM     34  H3  UNL     1      23.352   2.924   0.540  1.00  0.00     0.189 HD
ATOM     35  H4  UNL     1      25.721   2.470  -0.018  1.00  0.00     0.208 HD
ENDBRANCH  14  21
BRANCH  17  36
HETATM   36  N7  UNL     1      29.326   5.565   3.177  1.00  0.00    -0.340 N 
ATOM     37  H72 UNL     1      29.103   6.550   3.038  1.00  0.00     0.177 HD
ATOM     38  H71 UNL     1      29.987   5.181   3.852  1.00  0.00     0.177 HD
ENDBRANCH  17  36
BRANCH  19  39
HETATM   39  N8  UNL     1      28.506   4.957  -1.336  1.00  0.00    -0.071 N 
ATOM     40  H83 UNL     1      28.644   5.966  -1.268  1.00  0.00     0.274 HD
ATOM     41  H82 UNL     1      29.175   4.794  -2.088  1.00  0.00     0.274 HD
ATOM     42  H81 UNL     1      27.550   4.690  -1.574  1.00  0.00     0.274 HD
ENDBRANCH  19  39
BRANCH  20  43
HETATM   43  O3  UNL     1      27.483   2.774  -1.166  1.00  0.00    -0.388 OA
ATOM     44  H3  UNL     1      26.696   3.030  -0.700  1.00  0.00     0.210 HD
ENDBRANCH  20  43
ENDBRANCH   1  13
BRANCH   2  45
HETATM   45  C12 UNL     1      31.192   2.545   1.259  1.00  0.00     0.104 C 
BRANCH  45  46
HETATM   46  C13 UNL     1      32.461   2.597   2.068  1.00  0.00     0.243 C 
BRANCH  46  47
HETATM   47  N10 UNL     1      32.417   3.549   3.131  1.00  0.00    -0.046 N 
ATOM     48 2H10 UNL     1      33.107   4.293   3.020  1.00  0.00     0.280 HD
ATOM     49 1H10 UNL     1      31.579   4.130   3.102  1.00  0.00     0.280 HD
BRANCH  47  50
HETATM   50  C14 UNL     1      32.560   2.840   4.394  1.00  0.00     0.353 C 
HETATM   51  O4  UNL     1      31.856   1.651   4.315  1.00  0.00    -0.338 OA
HETATM   52  C15 UNL     1      32.065   0.784   5.354  1.00  0.00     0.256 C 
HETATM   53  C17 UNL     1      32.469   1.486   6.629  1.00  0.00     0.189 C 
HETATM   54  C18 UNL     1      31.811   2.843   6.777  1.00  0.00     0.182 C 
HETATM   55  C19 UNL     1      32.052   3.698   5.545  1.00  0.00     0.205 C 
BRANCH  52  56
HETATM   56  C16 UNL     1      32.993  -0.322   5.039  1.00  0.00     0.206 C 
HETATM   57  O5  UNL     1      33.200  -0.618   3.842  1.00  0.00    -0.646 OA
HETATM   58  O6  UNL     1      33.626  -1.022   6.043  1.00  0.00    -0.646 OA
ENDBRANCH  52  56
BRANCH  53  59
HETATM   59  O7  UNL     1      32.068   0.728   7.727  1.00  0.00    -0.390 OA
ATOM     60  H7  UNL     1      31.863   1.303   8.454  1.00  0.00     0.210 HD
ENDBRANCH  53  59
BRANCH  54  61
HETATM   61  O8  UNL     1      32.330   3.460   7.896  1.00  0.00    -0.390 OA
ATOM     62  H8  UNL     1      32.688   2.791   8.469  1.00  0.00     0.210 HD
ENDBRANCH  54  61
BRANCH  55  63
HETATM   63  O9  UNL     1      30.850   4.263   5.140  1.00  0.00    -0.388 OA
ATOM     64  H9  UNL     1      30.742   4.068   4.216  1.00  0.00     0.210 HD
ENDBRANCH  55  63
ENDBRANCH  47  50
ENDBRANCH  46  47
ENDBRANCH  45  46
ENDBRANCH   2  45
BRANCH   6  65
HETATM   65  O10 UNL     1      31.554  -2.740   2.570  1.00  0.00    -0.344 OA
ATOM     66  H10 UNL     1      31.954  -2.430   3.374  1.00  0.00     0.219 HD
ENDBRANCH   6  65
BRANCH   9  67
HETATM   67  N13 UNL     1      26.931  -3.131   1.937  1.00  0.00    -0.234 N 
ATOM     68 2H13 UNL     1      26.345  -3.140   2.772  1.00  0.00     0.174 HD
ATOM     69 1H13 UNL     1      26.647  -3.670   1.119  1.00  0.00     0.174 HD
ENDBRANCH   9  67
TORSDOF 15
ENDMDL
