MODEL 1
REMARK VINA RESULT: -8.559996318      0.000      0.000
REMARK  0 active torsions:
REMARK  status: ('A' for Active; 'I' for Inactive)
REMARK       I    between atoms: N1_9  and  C9_10 
REMARK       I    between atoms: N3_12  and  C10_14 
ROOT
HETATM    1  C1  UNL     1       5.182  66.995  65.124  1.00  0.00     0.015 C 
HETATM    2  C2  UNL     1       4.317  68.155  64.614  1.00  0.00    -0.037 C 
HETATM    3  C3  UNL     1       5.276  69.235  64.181  1.00  0.00     0.010 C 
HETATM    4  C4  UNL     1       5.592  69.219  62.728  1.00  0.00     0.001 C 
HETATM    5  C5  UNL     1       5.565  67.897  62.066  1.00  0.00     0.000 C 
HETATM    6  C6  UNL     1       4.450  66.994  62.493  1.00  0.00     0.007 C 
HETATM    7  C7  UNL     1       3.515  67.752  63.417  1.00  0.00     0.012 C 
HETATM    8  C8  UNL     1       2.293  66.941  63.752  1.00  0.00     0.130 C 
HETATM    9  N1  UNL     1       1.683  67.340  64.996  1.00  0.00    -0.355 N 
HETATM   10  C9  UNL     1       0.278  67.444  65.082  1.00  0.00     0.194 C 
HETATM   11  N2  UNL     1      -0.388  66.719  66.092  1.00  0.00    -0.063 NA
HETATM   12  N3  UNL     1      -0.366  68.172  64.267  1.00  0.00    -0.285 N 
ATOM     13  H3  UNL     1       0.159  68.678  63.552  1.00  0.00     0.172 HD
HETATM   14  C10 UNL     1      -1.778  68.321  64.295  1.00  0.00     0.335 C 
HETATM   15  N4  UNL     1      -2.485  68.276  65.510  1.00  0.00    -0.040 NA
HETATM   16  O1  UNL     1      -2.385  68.498  63.186  1.00  0.00    -0.251 OA
HETATM   17  C11 UNL     1       2.486  67.642  66.176  1.00  0.00     0.126 C 
HETATM   18  C12 UNL     1       3.487  68.691  65.748  1.00  0.00     0.029 C 
ENDROOT
TORSDOF 0
ENDMDL
MODEL 2
REMARK VINA RESULT: -8.151144986      1.963      2.976
REMARK  0 active torsions:
REMARK  status: ('A' for Active; 'I' for Inactive)
REMARK       I    between atoms: N1_9  and  C9_10 
REMARK       I    between atoms: N3_12  and  C10_14 
ROOT
HETATM    1  C1  UNL     1       4.101  68.772  63.058  1.00  0.00     0.015 C 
HETATM    2  C2  UNL     1       3.897  67.588  64.013  1.00  0.00    -0.037 C 
HETATM    3  C3  UNL     1       5.161  66.769  63.942  1.00  0.00     0.010 C 
HETATM    4  C4  UNL     1       6.148  67.081  65.010  1.00  0.00     0.001 C 
HETATM    5  C5  UNL     1       6.154  68.473  65.510  1.00  0.00     0.000 C 
HETATM    6  C6  UNL     1       4.803  69.095  65.677  1.00  0.00     0.007 C 
HETATM    7  C7  UNL     1       3.733  68.049  65.426  1.00  0.00     0.012 C 
HETATM    8  C8  UNL     1       2.359  68.580  65.734  1.00  0.00     0.130 C 
HETATM    9  N1  UNL     1       1.319  67.883  65.021  1.00  0.00    -0.355 N 
HETATM   10  C9  UNL     1       0.126  67.537  65.689  1.00  0.00     0.194 C 
HETATM   11  N2  UNL     1      -1.101  67.962  65.137  1.00  0.00    -0.063 NA
HETATM   12  N3  UNL     1       0.161  66.860  66.762  1.00  0.00    -0.285 N 
ATOM     13  H3  UNL     1       1.071  66.575  67.124  1.00  0.00     0.172 HD
HETATM   14  C10 UNL     1      -1.000  66.479  67.486  1.00  0.00     0.335 C 
HETATM   15  N4  UNL     1      -2.208  66.202  66.821  1.00  0.00    -0.040 NA
HETATM   16  O1  UNL     1      -0.913  66.393  68.757  1.00  0.00    -0.251 OA
HETATM   17  C11 UNL     1       1.470  67.523  63.614  1.00  0.00     0.126 C 
HETATM   18  C12 UNL     1       2.760  66.739  63.515  1.00  0.00     0.029 C 
ENDROOT
TORSDOF 0
ENDMDL
MODEL 3
REMARK VINA RESULT: -7.677109868      2.524      3.519
REMARK  0 active torsions:
REMARK  status: ('A' for Active; 'I' for Inactive)
REMARK       I    between atoms: N1_9  and  C9_10 
REMARK       I    between atoms: N3_12  and  C10_14 
ROOT
HETATM    1  C1  UNL     1       3.657  68.711  63.342  1.00  0.00     0.015 C 
HETATM    2  C2  UNL     1       3.894  67.630  64.404  1.00  0.00    -0.037 C 
HETATM    3  C3  UNL     1       5.267  67.069  64.135  1.00  0.00     0.010 C 
HETATM    4  C4  UNL     1       6.347  67.690  64.948  1.00  0.00     0.001 C 
HETATM    5  C5  UNL     1       6.149  69.105  65.329  1.00  0.00     0.000 C 
HETATM    6  C6  UNL     1       4.753  69.468  65.726  1.00  0.00     0.007 C 
HETATM    7  C7  UNL     1       3.903  68.212  65.783  1.00  0.00     0.012 C 
HETATM    8  C8  UNL     1       2.530  68.499  66.328  1.00  0.00     0.130 C 
HETATM    9  N1  UNL     1       1.548  67.534  65.901  1.00  0.00    -0.355 N 
HETATM   10  C9  UNL     1       0.603  67.043  66.826  1.00  0.00     0.194 C 
HETATM   11  N2  UNL     1      -0.767  67.154  66.510  1.00  0.00    -0.063 NA
HETATM   12  N3  UNL     1       0.982  66.516  67.917  1.00  0.00    -0.285 N 
ATOM     13  H3  UNL     1       1.984  66.458  68.102  1.00  0.00     0.172 HD
HETATM   14  C10 UNL     1       0.087  66.004  68.892  1.00  0.00     0.335 C 
HETATM   15  N4  UNL     1      -1.137  65.422  68.516  1.00  0.00    -0.040 NA
HETATM   16  O1  UNL     1       0.427  66.086  70.121  1.00  0.00    -0.251 OA
HETATM   17  C11 UNL     1       1.506  67.049  64.525  1.00  0.00     0.126 C 
HETATM   18  C12 UNL     1       2.891  66.524  64.219  1.00  0.00     0.029 C 
ENDROOT
TORSDOF 0
ENDMDL
MODEL 4
REMARK VINA RESULT: -7.463672149      2.035      2.766
REMARK  0 active torsions:
REMARK  status: ('A' for Active; 'I' for Inactive)
REMARK       I    between atoms: N1_9  and  C9_10 
REMARK       I    between atoms: N3_12  and  C10_14 
ROOT
HETATM    1  C1  UNL     1       5.715  66.550  64.982  1.00  0.00     0.015 C 
HETATM    2  C2  UNL     1       4.388  66.617  64.214  1.00  0.00    -0.037 C 
HETATM    3  C3  UNL     1       4.690  66.154  62.811  1.00  0.00     0.010 C 
HETATM    4  C4  UNL     1       4.416  64.712  62.575  1.00  0.00     0.001 C 
HETATM    5  C5  UNL     1       4.582  63.814  63.739  1.00  0.00     0.000 C 
HETATM    6  C6  UNL     1       4.084  64.361  65.040  1.00  0.00     0.007 C 
HETATM    7  C7  UNL     1       3.376  65.680  64.794  1.00  0.00     0.012 C 
HETATM    8  C8  UNL     1       2.719  66.196  66.045  1.00  0.00     0.130 C 
HETATM    9  N1  UNL     1       2.533  67.626  66.028  1.00  0.00    -0.355 N 
HETATM   10  C9  UNL     1       1.320  68.176  66.492  1.00  0.00     0.194 C 
HETATM   11  N2  UNL     1       1.371  69.157  67.505  1.00  0.00    -0.063 NA
HETATM   12  N3  UNL     1       0.211  67.795  66.007  1.00  0.00    -0.285 N 
ATOM     13  H3  UNL     1       0.223  67.083  65.275  1.00  0.00     0.172 HD
HETATM   14  C10 UNL     1      -1.046  68.305  66.427  1.00  0.00     0.335 C 
HETATM   15  N4  UNL     1      -1.179  69.639  66.852  1.00  0.00    -0.040 NA
HETATM   16  O1  UNL     1      -2.050  67.517  66.406  1.00  0.00    -0.251 OA
HETATM   17  C11 UNL     1       3.574  68.524  65.539  1.00  0.00     0.126 C 
HETATM   18  C12 UNL     1       3.925  68.046  64.148  1.00  0.00     0.029 C 
ENDROOT
TORSDOF 0
ENDMDL
MODEL 5
REMARK VINA RESULT: -6.671501885      2.822      5.829
REMARK  0 active torsions:
REMARK  status: ('A' for Active; 'I' for Inactive)
REMARK       I    between atoms: N1_9  and  C9_10 
REMARK       I    between atoms: N3_12  and  C10_14 
ROOT
HETATM    1  C1  UNL     1      -0.126  69.361  67.357  1.00  0.00     0.015 C 
HETATM    2  C2  UNL     1       0.378  67.970  66.950  1.00  0.00    -0.037 C 
HETATM    3  C3  UNL     1      -0.391  66.981  67.790  1.00  0.00     0.010 C 
HETATM    4  C4  UNL     1      -1.592  66.419  67.118  1.00  0.00     0.001 C 
HETATM    5  C5  UNL     1      -2.271  67.301  66.144  1.00  0.00     0.000 C 
HETATM    6  C6  UNL     1      -1.360  68.104  65.270  1.00  0.00     0.007 C 
HETATM    7  C7  UNL     1       0.076  67.678  65.514  1.00  0.00     0.012 C 
HETATM    8  C8  UNL     1       1.020  68.343  64.549  1.00  0.00     0.130 C 
HETATM    9  N1  UNL     1       2.367  68.427  65.056  1.00  0.00    -0.355 N 
HETATM   10  C9  UNL     1       3.453  68.142  64.202  1.00  0.00     0.194 C 
HETATM   11  N2  UNL     1       4.467  69.113  64.058  1.00  0.00    -0.063 NA
HETATM   12  N3  UNL     1       3.511  67.038  63.578  1.00  0.00    -0.285 N 
ATOM     13  H3  UNL     1       2.755  66.367  63.713  1.00  0.00     0.172 HD
HETATM   14  C10 UNL     1       4.573  66.688  62.703  1.00  0.00     0.335 C 
HETATM   15  N4  UNL     1       5.885  67.137  62.940  1.00  0.00    -0.040 NA
HETATM   16  O1  UNL     1       4.301  65.952  61.695  1.00  0.00    -0.251 OA
HETATM   17  C11 UNL     1       2.638  68.801  66.441  1.00  0.00     0.126 C 
HETATM   18  C12 UNL     1       1.836  67.849  67.300  1.00  0.00     0.029 C 
ENDROOT
TORSDOF 0
ENDMDL
