MODEL 1
REMARK VINA RESULT: -6.721289666      0.000      0.000
REMARK  12 active torsions:
REMARK  status: ('A' for Active; 'I' for Inactive)
REMARK    1  A    between atoms: N1_1  and  C1_4 
REMARK    2  A    between atoms: C2_7  and  N3_8 
REMARK    3  A    between atoms: N5_15  and  C5_16 
REMARK    4  A    between atoms: C6_17  and  O1_18 
REMARK    5  A    between atoms: O1_18  and  C7_19 
REMARK    6  A    between atoms: C7_19  and  C8_20 
REMARK    7  A    between atoms: C7_19  and  C10_29 
REMARK    8  A    between atoms: C10_29  and  N10_30 
REMARK    9  A    between atoms: C10_29  and  N11_34 
REMARK   10  A    between atoms: C11_42  and  C12_43 
REMARK   11  A    between atoms: C12_43  and  O2_44 
REMARK   12  A    between atoms: C13_46  and  O3_47 
ROOT
HETATM    1  C5  UNL     1      21.921  36.123   2.968  1.00  0.00     0.199 C 
HETATM    2  C6  UNL     1      21.063  34.919   3.015  1.00  0.00     0.159 C 
HETATM    3  N12 UNL     1      20.097  34.860   2.165  1.00  0.00    -0.285 N 
ATOM      4  H12 UNL     1      19.459  34.063   2.131  1.00  0.00     0.188 HD
HETATM    5  N13 UNL     1      19.968  35.938   1.295  1.00  0.00    -0.325 N 
ATOM      6  H13 UNL     1      19.835  35.805   0.293  1.00  0.00     0.180 HD
HETATM    7  C11 UNL     1      20.032  37.262   1.885  1.00  0.00     0.154 C 
HETATM    8  C13 UNL     1      21.057  37.353   2.995  1.00  0.00     0.175 C 
ENDROOT
BRANCH   2   9
HETATM    9  O1  UNL     1      21.180  33.860   3.860  1.00  0.00    -0.319 OA
BRANCH   9  10
HETATM   10  C7  UNL     1      21.166  32.518   3.562  1.00  0.00     0.256 C 
BRANCH  10  11
HETATM   11  C8  UNL     1      20.415  31.597   4.406  1.00  0.00     0.132 A 
HETATM   12  N6  UNL     1      20.520  30.244   4.530  1.00  0.00    -0.284 N 
HETATM   13  N7  UNL     1      19.674  29.756   5.383  1.00  0.00    -0.272 N 
ATOM     14  H6  UNL     1      21.191  29.679   4.010  1.00  0.00     0.188 HD
HETATM   15  C9  UNL     1      18.966  30.775   5.863  1.00  0.00     0.208 A 
ATOM     16  H7  UNL     1      19.570  28.774   5.639  1.00  0.00     0.189 HD
HETATM   17  N8  UNL     1      17.928  30.661   6.829  1.00  0.00    -0.062 NA
HETATM   18  N9  UNL     1      19.422  31.909   5.261  1.00  0.00    -0.316 N 
ATOM     19  H9  UNL     1      19.068  32.850   5.432  1.00  0.00     0.170 HD
ENDBRANCH  10  11
BRANCH  10  20
HETATM   20  C10 UNL     1      22.647  32.111   3.600  1.00  0.00     0.414 C 
BRANCH  20  21
HETATM   21  N10 UNL     1      23.333  32.682   4.700  1.00  0.00    -0.047 N 
ATOM     22 3H10 UNL     1      23.995  33.396   4.392  1.00  0.00     0.276 HD
ATOM     23 2H10 UNL     1      22.712  33.266   5.259  1.00  0.00     0.276 HD
ATOM     24 1H10 UNL     1      23.793  31.977   5.277  1.00  0.00     0.276 HD
ENDBRANCH  20  21
BRANCH  20  25
HETATM   25  N11 UNL     1      23.212  32.352   2.300  1.00  0.00    -0.047 N 
ATOM     26 3H11 UNL     1      22.603  32.040   1.543  1.00  0.00     0.276 HD
ATOM     27 2H11 UNL     1      23.234  33.343   2.058  1.00  0.00     0.276 HD
ATOM     28 1H11 UNL     1      24.134  31.918   2.269  1.00  0.00     0.276 HD
ENDBRANCH  20  25
ENDBRANCH  10  20
ENDBRANCH   9  10
ENDBRANCH   2   9
BRANCH   1  29
HETATM   29  N5  UNL     1      22.931  36.129   4.002  1.00  0.00    -0.311 N 
HETATM   30  C4  UNL     1      24.254  36.183   3.797  1.00  0.00     0.186 A 
HETATM   31  N4  UNL     1      24.830  36.168   5.009  1.00  0.00    -0.346 N 
HETATM   32  C3  UNL     1      23.914  36.107   5.981  1.00  0.00     0.123 A 
ATOM     33  H4  UNL     1      25.836  36.200   5.168  1.00  0.00     0.167 HD
HETATM   34  C2  UNL     1      24.012  36.070   7.366  1.00  0.00     0.145 A 
HETATM   35  C14 UNL     1      22.703  36.082   5.327  1.00  0.00     0.155 A 
HETATM   36  N2  UNL     1      22.863  36.008   8.054  1.00  0.00    -0.175 N 
HETATM   37  C1  UNL     1      21.686  35.985   7.411  1.00  0.00     0.679 A 
ATOM     38  H2  UNL     1      22.885  35.979   9.074  1.00  0.00     0.186 HD
HETATM   39  N14 UNL     1      21.573  36.020   6.078  1.00  0.00    -0.174 N 
ATOM     40  H14 UNL     1      20.656  35.999   5.634  1.00  0.00     0.186 HD
BRANCH  34  41
HETATM   41  N3  UNL     1      25.150  36.092   7.963  1.00  0.00    -0.383 N 
ATOM     42  H32 UNL     1      25.307  35.587   8.835  1.00  0.00     0.157 HD
ATOM     43  H31 UNL     1      25.938  36.618   7.584  1.00  0.00     0.157 HD
ENDBRANCH  34  41
BRANCH  37  44
HETATM   44  N1  UNL     1      20.600  35.925   8.114  1.00  0.00    -0.234 N 
ATOM     45  H12 UNL     1      20.647  35.489   9.035  1.00  0.00     0.174 HD
ATOM     46  H11 UNL     1      19.744  36.315   7.719  1.00  0.00     0.174 HD
ENDBRANCH  37  44
ENDBRANCH   1  29
BRANCH   8  47
HETATM   47  O3  UNL     1      20.505  37.467   4.247  1.00  0.00    -0.391 OA
ATOM     48  H3  UNL     1      20.477  38.388   4.479  1.00  0.00     0.210 HD
ENDBRANCH   8  47
BRANCH   7  49
HETATM   49  C12 UNL     1      20.258  38.306   0.836  1.00  0.00     0.193 C 
BRANCH  49  50
HETATM   50  O2  UNL     1      19.474  39.414   1.128  1.00  0.00    -0.399 OA
ATOM     51  H2  UNL     1      19.887  40.187   0.762  1.00  0.00     0.209 HD
ENDBRANCH  49  50
ENDBRANCH   7  49
TORSDOF 12
ENDMDL
MODEL 2
REMARK VINA RESULT: -6.648257578      2.356      6.063
REMARK  12 active torsions:
REMARK  status: ('A' for Active; 'I' for Inactive)
REMARK    1  A    between atoms: N1_1  and  C1_4 
REMARK    2  A    between atoms: C2_7  and  N3_8 
REMARK    3  A    between atoms: N5_15  and  C5_16 
REMARK    4  A    between atoms: C6_17  and  O1_18 
REMARK    5  A    between atoms: O1_18  and  C7_19 
REMARK    6  A    between atoms: C7_19  and  C8_20 
REMARK    7  A    between atoms: C7_19  and  C10_29 
REMARK    8  A    between atoms: C10_29  and  N10_30 
REMARK    9  A    between atoms: C10_29  and  N11_34 
REMARK   10  A    between atoms: C11_42  and  C12_43 
REMARK   11  A    between atoms: C12_43  and  O2_44 
REMARK   12  A    between atoms: C13_46  and  O3_47 
ROOT
HETATM    1  C5  UNL     1      21.857  34.482   3.120  1.00  0.00     0.199 C 
HETATM    2  C6  UNL     1      23.036  34.549   4.011  1.00  0.00     0.159 C 
HETATM    3  N12 UNL     1      23.511  33.428   4.432  1.00  0.00    -0.285 N 
ATOM      4  H12 UNL     1      24.322  33.387   5.050  1.00  0.00     0.188 HD
HETATM    5  N13 UNL     1      22.859  32.276   4.000  1.00  0.00    -0.325 N 
ATOM      6  H13 UNL     1      23.374  31.475   3.635  1.00  0.00     0.180 HD
HETATM    7  C11 UNL     1      21.412  32.271   4.096  1.00  0.00     0.154 C 
HETATM    8  C13 UNL     1      20.804  33.613   3.749  1.00  0.00     0.175 C 
ENDROOT
BRANCH   2   9
HETATM    9  O1  UNL     1      23.679  35.667   4.439  1.00  0.00    -0.319 OA
BRANCH   9  10
HETATM   10  C7  UNL     1      24.097  35.983   5.710  1.00  0.00     0.256 C 
BRANCH  10  11
HETATM   11  C8  UNL     1      23.169  35.859   6.829  1.00  0.00     0.132 A 
HETATM   12  N6  UNL     1      23.413  35.550   8.133  1.00  0.00    -0.284 N 
HETATM   13  N7  UNL     1      22.330  35.525   8.848  1.00  0.00    -0.272 N 
ATOM     14  H6  UNL     1      24.342  35.360   8.506  1.00  0.00     0.188 HD
HETATM   15  C9  UNL     1      21.316  35.819   8.038  1.00  0.00     0.208 A 
ATOM     16  H7  UNL     1      22.267  35.319   9.845  1.00  0.00     0.189 HD
HETATM   17  N8  UNL     1      19.953  35.895   8.435  1.00  0.00    -0.062 NA
HETATM   18  N9  UNL     1      21.834  36.025   6.794  1.00  0.00    -0.316 N 
ATOM     19  H9  UNL     1      21.293  36.267   5.964  1.00  0.00     0.170 HD
ENDBRANCH  10  11
BRANCH  10  20
HETATM   20  C10 UNL     1      24.535  37.452   5.607  1.00  0.00     0.414 C 
BRANCH  20  21
HETATM   21  N10 UNL     1      23.476  38.350   5.891  1.00  0.00    -0.047 N 
ATOM     22 3H10 UNL     1      22.952  38.582   5.046  1.00  0.00     0.276 HD
ATOM     23 2H10 UNL     1      22.735  37.891   6.420  1.00  0.00     0.276 HD
ATOM     24 1H10 UNL     1      23.800  39.193   6.366  1.00  0.00     0.276 HD
ENDBRANCH  20  21
BRANCH  20  25
HETATM   25  N11 UNL     1      25.205  37.633   4.348  1.00  0.00    -0.047 N 
ATOM     26 3H11 UNL     1      24.837  37.025   3.616  1.00  0.00     0.276 HD
ATOM     27 2H11 UNL     1      24.983  38.527   3.909  1.00  0.00     0.276 HD
ATOM     28 1H11 UNL     1      26.206  37.506   4.499  1.00  0.00     0.276 HD
ENDBRANCH  20  25
ENDBRANCH  10  20
ENDBRANCH   9  10
ENDBRANCH   2   9
BRANCH   1  29
HETATM   29  N5  UNL     1      21.357  35.789   2.757  1.00  0.00    -0.311 N 
HETATM   30  C4  UNL     1      21.790  36.954   3.258  1.00  0.00     0.186 A 
HETATM   31  N4  UNL     1      21.070  37.917   2.662  1.00  0.00    -0.346 N 
HETATM   32  C3  UNL     1      20.192  37.402   1.796  1.00  0.00     0.123 A 
ATOM     33  H4  UNL     1      21.180  38.914   2.846  1.00  0.00     0.167 HD
HETATM   34  C2  UNL     1      19.247  37.978   0.958  1.00  0.00     0.145 A 
HETATM   35  C14 UNL     1      20.383  36.040   1.865  1.00  0.00     0.155 A 
HETATM   36  N2  UNL     1      18.515  37.146   0.204  1.00  0.00    -0.175 N 
HETATM   37  C1  UNL     1      18.706  35.820   0.275  1.00  0.00     0.679 A 
ATOM     38  H2  UNL     1      17.808  37.524  -0.427  1.00  0.00     0.186 HD
HETATM   39  N14 UNL     1      19.611  35.247   1.077  1.00  0.00    -0.174 N 
ATOM     40  H14 UNL     1      19.720  34.234   1.096  1.00  0.00     0.186 HD
BRANCH  34  41
HETATM   41  N3  UNL     1      19.078  39.252   0.906  1.00  0.00    -0.383 N 
ATOM     42  H32 UNL     1      18.441  39.680   0.235  1.00  0.00     0.157 HD
ATOM     43  H31 UNL     1      19.579  39.880   1.535  1.00  0.00     0.157 HD
ENDBRANCH  34  41
BRANCH  37  44
HETATM   44  N1  UNL     1      17.978  35.051  -0.470  1.00  0.00    -0.234 N 
ATOM     45  H12 UNL     1      16.992  34.943  -0.232  1.00  0.00     0.174 HD
ATOM     46  H11 UNL     1      18.418  34.586  -1.265  1.00  0.00     0.174 HD
ENDBRANCH  37  44
ENDBRANCH   1  29
BRANCH   8  47
HETATM   47  O3  UNL     1      20.283  34.279   4.832  1.00  0.00    -0.391 OA
ATOM     48  H3  UNL     1      19.338  34.310   4.738  1.00  0.00     0.210 HD
ENDBRANCH   8  47
BRANCH   7  49
HETATM   49  C12 UNL     1      20.824  31.168   3.274  1.00  0.00     0.193 C 
BRANCH  49  50
HETATM   50  O2  UNL     1      21.207  29.949   3.817  1.00  0.00    -0.399 OA
ATOM     51  H2  UNL     1      20.456  29.551   4.240  1.00  0.00     0.209 HD
ENDBRANCH  49  50
ENDBRANCH   7  49
TORSDOF 12
ENDMDL
MODEL 3
REMARK VINA RESULT: -6.585747571      1.445      3.470
REMARK  12 active torsions:
REMARK  status: ('A' for Active; 'I' for Inactive)
REMARK    1  A    between atoms: N1_1  and  C1_4 
REMARK    2  A    between atoms: C2_7  and  N3_8 
REMARK    3  A    between atoms: N5_15  and  C5_16 
REMARK    4  A    between atoms: C6_17  and  O1_18 
REMARK    5  A    between atoms: O1_18  and  C7_19 
REMARK    6  A    between atoms: C7_19  and  C8_20 
REMARK    7  A    between atoms: C7_19  and  C10_29 
REMARK    8  A    between atoms: C10_29  and  N10_30 
REMARK    9  A    between atoms: C10_29  and  N11_34 
REMARK   10  A    between atoms: C11_42  and  C12_43 
REMARK   11  A    between atoms: C12_43  and  O2_44 
REMARK   12  A    between atoms: C13_46  and  O3_47 
ROOT
HETATM    1  C5  UNL     1      21.897  36.860   2.821  1.00  0.00     0.199 C 
HETATM    2  C6  UNL     1      21.357  35.486   2.731  1.00  0.00     0.159 C 
HETATM    3  N12 UNL     1      20.504  35.257   1.791  1.00  0.00    -0.285 N 
ATOM      4  H12 UNL     1      20.084  34.337   1.661  1.00  0.00     0.188 HD
HETATM    5  N13 UNL     1      20.188  36.332   0.965  1.00  0.00    -0.325 N 
ATOM      6  H13 UNL     1      20.171  36.239  -0.051  1.00  0.00     0.180 HD
HETATM    7  C11 UNL     1      19.881  37.589   1.620  1.00  0.00     0.154 C 
HETATM    8  C13 UNL     1      20.762  37.845   2.824  1.00  0.00     0.175 C 
ENDROOT
BRANCH   2   9
HETATM    9  O1  UNL     1      21.659  34.431   3.532  1.00  0.00    -0.319 OA
BRANCH   9  10
HETATM   10  C7  UNL     1      21.023  34.014   4.678  1.00  0.00     0.256 C 
BRANCH  10  11
HETATM   11  C8  UNL     1      21.205  34.760   5.918  1.00  0.00     0.132 A 
HETATM   12  N6  UNL     1      20.397  35.686   6.505  1.00  0.00    -0.284 N 
HETATM   13  N7  UNL     1      20.891  36.147   7.613  1.00  0.00    -0.272 N 
ATOM     14  H6  UNL     1      19.502  35.985   6.117  1.00  0.00     0.188 HD
HETATM   15  C9  UNL     1      22.059  35.538   7.805  1.00  0.00     0.208 A 
ATOM     16  H7  UNL     1      20.465  36.845   8.222  1.00  0.00     0.189 HD
HETATM   17  N8  UNL     1      22.922  35.765   8.913  1.00  0.00    -0.062 NA
HETATM   18  N9  UNL     1      22.251  34.683   6.761  1.00  0.00    -0.316 N 
ATOM     19  H9  UNL     1      23.063  34.079   6.638  1.00  0.00     0.170 HD
ENDBRANCH  10  11
BRANCH  10  20
HETATM   20  C10 UNL     1      21.539  32.583   4.894  1.00  0.00     0.414 C 
BRANCH  20  21
HETATM   21  N10 UNL     1      22.708  32.314   4.139  1.00  0.00    -0.047 N 
ATOM     22 3H10 UNL     1      23.076  33.166   3.712  1.00  0.00     0.276 HD
ATOM     23 2H10 UNL     1      23.495  32.084   4.746  1.00  0.00     0.276 HD
ATOM     24 1H10 UNL     1      22.558  31.587   3.439  1.00  0.00     0.276 HD
ENDBRANCH  20  21
BRANCH  20  25
HETATM   25  N11 UNL     1      20.439  31.677   4.712  1.00  0.00    -0.047 N 
ATOM     26 3H11 UNL     1      20.033  31.369   5.595  1.00  0.00     0.276 HD
ATOM     27 2H11 UNL     1      19.610  32.136   4.333  1.00  0.00     0.276 HD
ATOM     28 1H11 UNL     1      20.759  30.900   4.133  1.00  0.00     0.276 HD
ENDBRANCH  20  25
ENDBRANCH  10  20
ENDBRANCH   9  10
ENDBRANCH   2   9
BRANCH   1  29
HETATM   29  N5  UNL     1      22.790  37.036   3.944  1.00  0.00    -0.311 N 
HETATM   30  C4  UNL     1      22.649  37.950   4.915  1.00  0.00     0.186 A 
HETATM   31  N4  UNL     1      23.680  37.777   5.755  1.00  0.00    -0.346 N 
HETATM   32  C3  UNL     1      24.475  36.781   5.350  1.00  0.00     0.123 A 
ATOM     33  H4  UNL     1      23.837  38.334   6.594  1.00  0.00     0.167 HD
HETATM   34  C2  UNL     1      25.641  36.236   5.872  1.00  0.00     0.145 A 
HETATM   35  C14 UNL     1      23.898  36.314   4.192  1.00  0.00     0.155 A 
HETATM   36  N2  UNL     1      26.192  35.219   5.194  1.00  0.00    -0.175 N 
HETATM   37  C1  UNL     1      25.624  34.767   4.065  1.00  0.00     0.679 A 
ATOM     38  H2  UNL     1      27.049  34.786   5.539  1.00  0.00     0.186 HD
HETATM   39  N14 UNL     1      24.502  35.281   3.549  1.00  0.00    -0.174 N 
ATOM     40  H14 UNL     1      24.107  34.905   2.687  1.00  0.00     0.186 HD
BRANCH  34  41
HETATM   41  N3  UNL     1      26.170  36.683   6.955  1.00  0.00    -0.383 N 
ATOM     42  H32 UNL     1      25.917  37.594   7.337  1.00  0.00     0.157 HD
ATOM     43  H31 UNL     1      26.864  36.141   7.470  1.00  0.00     0.157 HD
ENDBRANCH  34  41
BRANCH  37  44
HETATM   44  N1  UNL     1      26.189  33.784   3.441  1.00  0.00    -0.234 N 
ATOM     45  H12 UNL     1      25.926  32.833   3.703  1.00  0.00     0.174 HD
ATOM     46  H11 UNL     1      26.872  33.998   2.714  1.00  0.00     0.174 HD
ENDBRANCH  37  44
ENDBRANCH   1  29
BRANCH   8  47
HETATM   47  O3  UNL     1      20.100  37.739   4.023  1.00  0.00    -0.391 OA
ATOM     48  H3  UNL     1      20.468  37.007   4.505  1.00  0.00     0.210 HD
ENDBRANCH   8  47
BRANCH   7  49
HETATM   49  C12 UNL     1      19.930  38.726   0.647  1.00  0.00     0.193 C 
BRANCH  49  50
HETATM   50  O2  UNL     1      18.984  39.673   1.014  1.00  0.00    -0.399 OA
ATOM     51  H2  UNL     1      18.117  39.294   0.922  1.00  0.00     0.209 HD
ENDBRANCH  49  50
ENDBRANCH   7  49
TORSDOF 12
ENDMDL
MODEL 4
REMARK VINA RESULT: -6.553771038      1.058      2.259
REMARK  12 active torsions:
REMARK  status: ('A' for Active; 'I' for Inactive)
REMARK    1  A    between atoms: N1_1  and  C1_4 
REMARK    2  A    between atoms: C2_7  and  N3_8 
REMARK    3  A    between atoms: N5_15  and  C5_16 
REMARK    4  A    between atoms: C6_17  and  O1_18 
REMARK    5  A    between atoms: O1_18  and  C7_19 
REMARK    6  A    between atoms: C7_19  and  C8_20 
REMARK    7  A    between atoms: C7_19  and  C10_29 
REMARK    8  A    between atoms: C10_29  and  N10_30 
REMARK    9  A    between atoms: C10_29  and  N11_34 
REMARK   10  A    between atoms: C11_42  and  C12_43 
REMARK   11  A    between atoms: C12_43  and  O2_44 
REMARK   12  A    between atoms: C13_46  and  O3_47 
ROOT
HETATM    1  C5  UNL     1      21.908  36.276   3.778  1.00  0.00     0.199 C 
HETATM    2  C6  UNL     1      21.328  34.943   3.503  1.00  0.00     0.159 C 
HETATM    3  N12 UNL     1      20.612  34.829   2.437  1.00  0.00    -0.285 N 
ATOM      4  H12 UNL     1      20.176  33.945   2.176  1.00  0.00     0.188 HD
HETATM    5  N13 UNL     1      20.465  35.976   1.662  1.00  0.00    -0.325 N 
ATOM      6  H13 UNL     1      20.593  35.958   0.650  1.00  0.00     0.180 HD
HETATM    7  C11 UNL     1      20.121  37.198   2.365  1.00  0.00     0.154 C 
HETATM    8  C13 UNL     1      20.827  37.318   3.698  1.00  0.00     0.175 C 
ENDROOT
BRANCH   2   9
HETATM    9  O1  UNL     1      21.464  33.818   4.253  1.00  0.00    -0.319 OA
BRANCH   9  10
HETATM   10  C7  UNL     1      21.328  32.506   3.864  1.00  0.00     0.256 C 
BRANCH  10  11
HETATM   11  C8  UNL     1      20.456  31.614   4.618  1.00  0.00     0.132 A 
HETATM   12  N6  UNL     1      20.468  30.255   4.711  1.00  0.00    -0.284 N 
HETATM   13  N7  UNL     1      19.526  29.801   5.480  1.00  0.00    -0.272 N 
ATOM     14  H6  UNL     1      21.143  29.661   4.231  1.00  0.00     0.188 HD
HETATM   15  C9  UNL     1      18.845  30.851   5.930  1.00  0.00     0.208 A 
ATOM     16  H7  UNL     1      19.343  28.822   5.698  1.00  0.00     0.189 HD
HETATM   17  N8  UNL     1      17.726  30.781   6.806  1.00  0.00    -0.062 NA
HETATM   18  N9  UNL     1      19.418  31.968   5.399  1.00  0.00    -0.316 N 
ATOM     19  H9  UNL     1      19.109  32.925   5.568  1.00  0.00     0.170 HD
ENDBRANCH  10  11
BRANCH  10  20
HETATM   20  C10 UNL     1      22.759  31.948   3.923  1.00  0.00     0.414 C 
BRANCH  20  21
HETATM   21  N10 UNL     1      23.636  32.794   4.647  1.00  0.00    -0.047 N 
ATOM     22 3H10 UNL     1      24.605  32.653   4.359  1.00  0.00     0.276 HD
ATOM     23 2H10 UNL     1      23.523  33.768   4.367  1.00  0.00     0.276 HD
ATOM     24 1H10 UNL     1      23.532  32.686   5.656  1.00  0.00     0.276 HD
ENDBRANCH  20  21
BRANCH  20  25
HETATM   25  N11 UNL     1      23.161  31.603   2.587  1.00  0.00    -0.047 N 
ATOM     26 3H11 UNL     1      22.384  31.616   1.927  1.00  0.00     0.276 HD
ATOM     27 2H11 UNL     1      23.727  32.329   2.148  1.00  0.00     0.276 HD
ATOM     28 1H11 UNL     1      23.635  30.700   2.621  1.00  0.00     0.276 HD
ENDBRANCH  20  25
ENDBRANCH  10  20
ENDBRANCH   9  10
ENDBRANCH   2   9
BRANCH   1  29
HETATM   29  N5  UNL     1      22.634  36.321   5.027  1.00  0.00    -0.311 N 
HETATM   30  C4  UNL     1      22.083  36.289   6.249  1.00  0.00     0.186 A 
HETATM   31  N4  UNL     1      23.096  36.352   7.126  1.00  0.00    -0.346 N 
HETATM   32  C3  UNL     1      24.276  36.423   6.502  1.00  0.00     0.123 A 
ATOM     33  H4  UNL     1      22.980  36.346   8.139  1.00  0.00     0.167 HD
HETATM   34  C2  UNL     1      25.583  36.504   6.965  1.00  0.00     0.145 A 
HETATM   35  C14 UNL     1      23.970  36.404   5.160  1.00  0.00     0.155 A 
HETATM   36  N2  UNL     1      26.552  36.563   6.041  1.00  0.00    -0.175 N 
HETATM   37  C1  UNL     1      26.247  36.542   4.734  1.00  0.00     0.679 A 
ATOM     38  H2  UNL     1      27.528  36.623   6.333  1.00  0.00     0.186 HD
HETATM   39  N14 UNL     1      24.994  36.465   4.271  1.00  0.00    -0.174 N 
ATOM     40  H14 UNL     1      24.811  36.453   3.267  1.00  0.00     0.186 HD
BRANCH  34  41
HETATM   41  N3  UNL     1      25.854  36.523   8.221  1.00  0.00    -0.383 N 
ATOM     42  H32 UNL     1      26.590  35.940   8.619  1.00  0.00     0.157 HD
ATOM     43  H31 UNL     1      25.340  37.124   8.866  1.00  0.00     0.157 HD
ENDBRANCH  34  41
BRANCH  37  44
HETATM   44  N1  UNL     1      27.213  36.601   3.874  1.00  0.00    -0.234 N 
ATOM     45  H12 UNL     1      27.042  36.247   2.933  1.00  0.00     0.174 HD
ATOM     46  H11 UNL     1      28.105  36.998   4.172  1.00  0.00     0.174 HD
ENDBRANCH  37  44
ENDBRANCH   1  29
BRANCH   8  47
HETATM   47  O3  UNL     1      19.994  37.161   4.779  1.00  0.00    -0.391 OA
ATOM     48  H3  UNL     1      19.179  37.615   4.598  1.00  0.00     0.210 HD
ENDBRANCH   8  47
BRANCH   7  49
HETATM   49  C12 UNL     1      20.359  38.398   1.502  1.00  0.00     0.193 C 
BRANCH  49  50
HETATM   50  O2  UNL     1      20.655  37.974   0.214  1.00  0.00    -0.399 OA
ATOM     51  H2  UNL     1      21.437  38.424  -0.085  1.00  0.00     0.209 HD
ENDBRANCH  49  50
ENDBRANCH   7  49
TORSDOF 12
ENDMDL
MODEL 5
REMARK VINA RESULT: -6.520685875      2.771      6.429
REMARK  12 active torsions:
REMARK  status: ('A' for Active; 'I' for Inactive)
REMARK    1  A    between atoms: N1_1  and  C1_4 
REMARK    2  A    between atoms: C2_7  and  N3_8 
REMARK    3  A    between atoms: N5_15  and  C5_16 
REMARK    4  A    between atoms: C6_17  and  O1_18 
REMARK    5  A    between atoms: O1_18  and  C7_19 
REMARK    6  A    between atoms: C7_19  and  C8_20 
REMARK    7  A    between atoms: C7_19  and  C10_29 
REMARK    8  A    between atoms: C10_29  and  N10_30 
REMARK    9  A    between atoms: C10_29  and  N11_34 
REMARK   10  A    between atoms: C11_42  and  C12_43 
REMARK   11  A    between atoms: C12_43  and  O2_44 
REMARK   12  A    between atoms: C13_46  and  O3_47 
ROOT
HETATM    1  C5  UNL     1      25.093  35.291   4.228  1.00  0.00     0.199 C 
HETATM    2  C6  UNL     1      24.313  36.548   4.204  1.00  0.00     0.159 C 
HETATM    3  N12 UNL     1      24.942  37.629   4.514  1.00  0.00    -0.285 N 
ATOM      4  H12 UNL     1      24.477  38.537   4.521  1.00  0.00     0.188 HD
HETATM    5  N13 UNL     1      26.289  37.493   4.837  1.00  0.00    -0.325 N 
ATOM      6  H13 UNL     1      27.000  38.108   4.440  1.00  0.00     0.180 HD
HETATM    7  C11 UNL     1      26.633  36.433   5.767  1.00  0.00     0.154 C 
HETATM    8  C13 UNL     1      25.818  35.178   5.540  1.00  0.00     0.175 C 
ENDROOT
BRANCH   2   9
HETATM    9  O1  UNL     1      22.998  36.692   3.891  1.00  0.00    -0.319 OA
BRANCH   9  10
HETATM   10  C7  UNL     1      21.985  37.214   4.660  1.00  0.00     0.256 C 
BRANCH  10  11
HETATM   11  C8  UNL     1      21.839  36.792   6.048  1.00  0.00     0.132 A 
HETATM   12  N6  UNL     1      22.791  36.568   6.996  1.00  0.00    -0.284 N 
HETATM   13  N7  UNL     1      22.284  36.193   8.130  1.00  0.00    -0.272 N 
ATOM     14  H6  UNL     1      23.791  36.683   6.833  1.00  0.00     0.188 HD
HETATM   15  C9  UNL     1      20.963  36.152   7.977  1.00  0.00     0.208 A 
ATOM     16  H7  UNL     1      22.802  35.971   8.981  1.00  0.00     0.189 HD
HETATM   17  N8  UNL     1      20.037  35.784   8.992  1.00  0.00    -0.062 NA
HETATM   18  N9  UNL     1      20.689  36.521   6.694  1.00  0.00    -0.316 N 
ATOM     19  H9  UNL     1      19.757  36.583   6.286  1.00  0.00     0.170 HD
ENDBRANCH  10  11
BRANCH  10  20
HETATM   20  C10 UNL     1      20.704  36.834   3.901  1.00  0.00     0.414 C 
BRANCH  20  21
HETATM   21  N10 UNL     1      20.764  35.520   3.372  1.00  0.00    -0.047 N 
ATOM     22 3H10 UNL     1      20.407  34.836   4.041  1.00  0.00     0.276 HD
ATOM     23 2H10 UNL     1      20.079  35.391   2.627  1.00  0.00     0.276 HD
ATOM     24 1H10 UNL     1      21.702  35.272   3.057  1.00  0.00     0.276 HD
ENDBRANCH  20  21
BRANCH  20  25
HETATM   25  N11 UNL     1      20.407  37.885   2.968  1.00  0.00    -0.047 N 
ATOM     26 3H11 UNL     1      19.927  38.673   3.403  1.00  0.00     0.276 HD
ATOM     27 2H11 UNL     1      21.241  38.386   2.660  1.00  0.00     0.276 HD
ATOM     28 1H11 UNL     1      19.880  37.483   2.193  1.00  0.00     0.276 HD
ENDBRANCH  20  25
ENDBRANCH  10  20
ENDBRANCH   9  10
ENDBRANCH   2   9
BRANCH   1  29
HETATM   29  N5  UNL     1      24.287  34.128   3.935  1.00  0.00    -0.311 N 
HETATM   30  C4  UNL     1      23.537  33.458   4.821  1.00  0.00     0.186 A 
HETATM   31  N4  UNL     1      22.955  32.454   4.147  1.00  0.00    -0.346 N 
HETATM   32  C3  UNL     1      23.311  32.463   2.858  1.00  0.00     0.123 A 
ATOM     33  H4  UNL     1      22.323  31.772   4.564  1.00  0.00     0.167 HD
HETATM   34  C2  UNL     1      22.982  31.647   1.784  1.00  0.00     0.145 A 
HETATM   35  C14 UNL     1      24.163  33.537   2.733  1.00  0.00     0.155 A 
HETATM   36  N2  UNL     1      23.532  31.949   0.600  1.00  0.00    -0.175 N 
HETATM   37  C1  UNL     1      24.362  32.997   0.484  1.00  0.00     0.679 A 
ATOM     38  H2  UNL     1      23.319  31.377  -0.218  1.00  0.00     0.186 HD
HETATM   39  N14 UNL     1      24.691  33.794   1.508  1.00  0.00    -0.174 N 
ATOM     40  H14 UNL     1      25.326  34.579   1.371  1.00  0.00     0.186 HD
BRANCH  34  41
HETATM   41  N3  UNL     1      22.185  30.646   1.917  1.00  0.00    -0.383 N 
ATOM     42  H32 UNL     1      22.429  29.719   1.569  1.00  0.00     0.157 HD
ATOM     43  H31 UNL     1      21.279  30.746   2.375  1.00  0.00     0.157 HD
ENDBRANCH  34  41
BRANCH  37  44
HETATM   44  N1  UNL     1      24.873  33.254  -0.677  1.00  0.00    -0.234 N 
ATOM     45  H12 UNL     1      25.164  32.468  -1.260  1.00  0.00     0.174 HD
ATOM     46  H11 UNL     1      24.963  34.229  -0.964  1.00  0.00     0.174 HD
ENDBRANCH  37  44
ENDBRANCH   1  29
BRANCH   8  47
HETATM   47  O3  UNL     1      24.892  34.937   6.527  1.00  0.00    -0.391 OA
ATOM     48  H3  UNL     1      25.180  34.183   7.029  1.00  0.00     0.210 HD
ENDBRANCH   8  47
BRANCH   7  49
HETATM   49  C12 UNL     1      28.102  36.152   5.740  1.00  0.00     0.193 C 
BRANCH  49  50
HETATM   50  O2  UNL     1      28.302  34.789   5.910  1.00  0.00    -0.399 OA
ATOM     51  H2  UNL     1      29.215  34.637   6.128  1.00  0.00     0.209 HD
ENDBRANCH  49  50
ENDBRANCH   7  49
TORSDOF 12
ENDMDL
