MODEL 1
REMARK VINA RESULT: -7.216927045      0.000      0.000
REMARK  8 active torsions:
REMARK  status: ('A' for Active; 'I' for Inactive)
REMARK    1  A    between atoms: C4_10  and  C5_11 
REMARK    2  A    between atoms: N4_16  and  C7_17 
REMARK    3  A    between atoms: C7_17  and  C8_18 
REMARK    4  A    between atoms: C8_18  and  C9_19 
REMARK    5  A    between atoms: C9_19  and  C10_20 
REMARK       I    between atoms: C10_20  and  N5_22 
REMARK    6  A    between atoms: N5_22  and  N6_24 
REMARK    7  A    between atoms: C11_27  and  O4_28 
REMARK    8  A    between atoms: C13_33  and  N8_34 
ROOT
HETATM    1  C5  UNL     1      13.800  47.611  -2.555  1.00  0.00     0.088 A 
HETATM    2  N3  UNL     1      13.500  48.578  -1.692  1.00  0.00    -0.305 N 
ATOM      3  H3  UNL     1      14.023  48.781  -0.841  1.00  0.00     0.171 HD
HETATM    4  C6  UNL     1      12.400  49.255  -2.106  1.00  0.00     0.329 A 
HETATM    5  O2  UNL     1      11.944  50.221  -1.427  1.00  0.00    -0.246 OA
HETATM    6  N4  UNL     1      11.972  48.730  -3.248  1.00  0.00    -0.278 N 
HETATM    7  C11 UNL     1      12.816  47.717  -3.548  1.00  0.00     0.173 A 
ENDROOT
BRANCH   1   8
HETATM    8  C4  UNL     1      14.893  46.679  -2.503  1.00  0.00     0.053 C 
HETATM    9  C3  UNL     1      16.185  46.879  -2.613  1.00  0.00     0.062 A 
HETATM   10  C2  UNL     1      16.760  48.183  -2.833  1.00  0.00     0.259 A 
HETATM   11  C12 UNL     1      17.136  45.725  -2.471  1.00  0.00     0.071 A 
HETATM   12  N2  UNL     1      18.169  48.463  -2.924  1.00  0.00    -0.308 N 
HETATM   13  O1  UNL     1      16.052  49.232  -2.974  1.00  0.00    -0.267 OA
HETATM   14  C1  UNL     1      19.033  47.347  -2.784  1.00  0.00     0.121 A 
ATOM     15  H2  UNL     1      18.523  49.406  -3.080  1.00  0.00     0.170 HD
HETATM   16  N1  UNL     1      20.311  47.434  -2.842  1.00  0.00    -0.384 N 
HETATM   17  C14 UNL     1      18.476  46.001  -2.561  1.00  0.00     0.080 A 
ATOM     18  H12 UNL     1      20.697  48.365  -2.996  1.00  0.00     0.157 HD
ATOM     19  H11 UNL     1      20.933  46.631  -2.741  1.00  0.00     0.157 HD
HETATM   20  S1  UNL     1      19.159  44.431  -2.346  1.00  0.00    -0.042 SA
HETATM   21  C13 UNL     1      17.712  43.543  -2.160  1.00  0.00     0.217 A 
HETATM   22  N7  UNL     1      16.805  44.481  -2.271  1.00  0.00    -0.330 N 
ATOM     23  H7  UNL     1      15.818  44.233  -2.201  1.00  0.00     0.168 HD
BRANCH  21  24
HETATM   24  N8  UNL     1      17.467  42.163  -1.943  1.00  0.00    -0.090 N 
HETATM   25  O5  UNL     1      17.728  41.364  -2.849  1.00  0.00    -0.530 OA
HETATM   26  O6  UNL     1      16.954  41.710  -0.766  1.00  0.00    -0.530 OA
ENDBRANCH  21  24
ENDBRANCH   1   8
BRANCH   7  27
HETATM   27  O4  UNL     1      12.786  46.863  -4.645  1.00  0.00    -0.344 OA
ATOM     28  H4  UNL     1      12.622  45.932  -4.551  1.00  0.00     0.219 HD
ENDBRANCH   7  27
BRANCH   6  29
HETATM   29  C7  UNL     1      10.849  49.107  -4.031  1.00  0.00     0.136 C 
BRANCH  29  30
HETATM   30  C8  UNL     1      11.072  50.074  -5.129  1.00  0.00     0.030 C 
BRANCH  30  31
HETATM   31  C9  UNL     1      10.561  49.766  -6.475  1.00  0.00     0.106 C 
BRANCH  31  32
HETATM   32  C10 UNL     1      11.531  49.407  -7.505  1.00  0.00     0.235 C 
HETATM   33  O3  UNL     1      11.346  49.746  -8.694  1.00  0.00    -0.272 OA
HETATM   34  N5  UNL     1      12.693  48.671  -7.164  1.00  0.00    -0.277 N 
ATOM     35  H5  UNL     1      12.834  48.401  -6.191  1.00  0.00     0.189 HD
BRANCH  34  36
HETATM   36  N6  UNL     1      13.657  48.300  -8.115  1.00  0.00    -0.343 N 
ATOM     37  H62 UNL     1      14.058  49.036  -8.697  1.00  0.00     0.176 HD
ATOM     38  H61 UNL     1      13.961  47.334  -8.238  1.00  0.00     0.176 HD
ENDBRANCH  34  36
ENDBRANCH  31  32
ENDBRANCH  30  31
ENDBRANCH  29  30
ENDBRANCH   6  29
TORSDOF 8
ENDMDL
MODEL 2
REMARK VINA RESULT: -7.004186463      3.072      5.275
REMARK  8 active torsions:
REMARK  status: ('A' for Active; 'I' for Inactive)
REMARK    1  A    between atoms: C4_10  and  C5_11 
REMARK    2  A    between atoms: N4_16  and  C7_17 
REMARK    3  A    between atoms: C7_17  and  C8_18 
REMARK    4  A    between atoms: C8_18  and  C9_19 
REMARK    5  A    between atoms: C9_19  and  C10_20 
REMARK       I    between atoms: C10_20  and  N5_22 
REMARK    6  A    between atoms: N5_22  and  N6_24 
REMARK    7  A    between atoms: C11_27  and  O4_28 
REMARK    8  A    between atoms: C13_33  and  N8_34 
ROOT
HETATM    1  C5  UNL     1      17.604  45.237  -3.171  1.00  0.00     0.088 A 
HETATM    2  N3  UNL     1      17.421  45.797  -4.363  1.00  0.00    -0.305 N 
ATOM      3  H3  UNL     1      17.992  45.612  -5.187  1.00  0.00     0.171 HD
HETATM    4  C6  UNL     1      16.366  46.648  -4.327  1.00  0.00     0.329 A 
HETATM    5  O2  UNL     1      16.017  47.287  -5.363  1.00  0.00    -0.246 OA
HETATM    6  N4  UNL     1      15.853  46.651  -3.103  1.00  0.00    -0.278 N 
HETATM    7  C11 UNL     1      16.596  45.791  -2.370  1.00  0.00     0.173 A 
ENDROOT
BRANCH   1   8
HETATM    8  C4  UNL     1      18.595  44.270  -2.784  1.00  0.00     0.053 C 
HETATM    9  C3  UNL     1      18.454  43.043  -2.340  1.00  0.00     0.062 A 
HETATM   10  C2  UNL     1      17.168  42.423  -2.145  1.00  0.00     0.259 A 
HETATM   11  C12 UNL     1      19.669  42.208  -2.049  1.00  0.00     0.071 A 
HETATM   12  N2  UNL     1      16.958  41.071  -1.696  1.00  0.00    -0.308 N 
HETATM   13  O1  UNL     1      16.070  43.034  -2.354  1.00  0.00    -0.267 OA
HETATM   14  C1  UNL     1      18.130  40.316  -1.433  1.00  0.00     0.121 A 
ATOM     15  H2  UNL     1      16.024  40.680  -1.576  1.00  0.00     0.170 HD
HETATM   16  N1  UNL     1      18.109  39.100  -1.028  1.00  0.00    -0.384 N 
HETATM   17  C14 UNL     1      19.460  40.923  -1.621  1.00  0.00     0.080 A 
ATOM     18  H12 UNL     1      17.189  38.681  -0.897  1.00  0.00     0.157 HD
ATOM     19  H11 UNL     1      18.952  38.557  -0.838  1.00  0.00     0.157 HD
HETATM   20  S1  UNL     1      21.081  40.367  -1.418  1.00  0.00    -0.042 SA
HETATM   21  C13 UNL     1      21.902  41.790  -1.885  1.00  0.00     0.217 A 
HETATM   22  N7  UNL     1      20.908  42.595  -2.164  1.00  0.00    -0.330 N 
ATOM     23  H7  UNL     1      21.107  43.545  -2.477  1.00  0.00     0.168 HD
BRANCH  21  24
HETATM   24  N8  UNL     1      23.283  42.103  -1.974  1.00  0.00    -0.090 N 
HETATM   25  O5  UNL     1      24.107  41.189  -1.858  1.00  0.00    -0.530 OA
HETATM   26  O6  UNL     1      23.709  43.378  -2.184  1.00  0.00    -0.530 OA
ENDBRANCH  21  24
ENDBRANCH   1   8
BRANCH   7  27
HETATM   27  O4  UNL     1      16.452  45.450  -1.030  1.00  0.00    -0.344 OA
ATOM     28  H4  UNL     1      17.041  45.782  -0.363  1.00  0.00     0.219 HD
ENDBRANCH   7  27
BRANCH   6  29
HETATM   29  C7  UNL     1      14.755  47.401  -2.604  1.00  0.00     0.136 C 
BRANCH  29  30
HETATM   30  C8  UNL     1      13.393  46.895  -2.888  1.00  0.00     0.030 C 
BRANCH  30  31
HETATM   31  C9  UNL     1      12.463  47.728  -3.669  1.00  0.00     0.106 C 
BRANCH  31  32
HETATM   32  C10 UNL     1      12.935  48.264  -4.941  1.00  0.00     0.235 C 
HETATM   33  O3  UNL     1      13.141  49.490  -5.074  1.00  0.00    -0.272 OA
HETATM   34  N5  UNL     1      13.164  47.398  -6.038  1.00  0.00    -0.277 N 
ATOM     35  H5  UNL     1      12.993  46.399  -5.919  1.00  0.00     0.189 HD
BRANCH  34  36
HETATM   36  N6  UNL     1      13.617  47.861  -7.285  1.00  0.00    -0.343 N 
ATOM     37  H62 UNL     1      14.615  48.047  -7.388  1.00  0.00     0.176 HD
ATOM     38  H61 UNL     1      12.989  48.014  -8.073  1.00  0.00     0.176 HD
ENDBRANCH  34  36
ENDBRANCH  31  32
ENDBRANCH  30  31
ENDBRANCH  29  30
ENDBRANCH   6  29
TORSDOF 8
ENDMDL
MODEL 3
REMARK VINA RESULT: -6.971103921      7.771     11.204
REMARK  8 active torsions:
REMARK  status: ('A' for Active; 'I' for Inactive)
REMARK    1  A    between atoms: C4_10  and  C5_11 
REMARK    2  A    between atoms: N4_16  and  C7_17 
REMARK    3  A    between atoms: C7_17  and  C8_18 
REMARK    4  A    between atoms: C8_18  and  C9_19 
REMARK    5  A    between atoms: C9_19  and  C10_20 
REMARK       I    between atoms: C10_20  and  N5_22 
REMARK    6  A    between atoms: N5_22  and  N6_24 
REMARK    7  A    between atoms: C11_27  and  O4_28 
REMARK    8  A    between atoms: C13_33  and  N8_34 
ROOT
HETATM    1  C5  UNL     1      20.099  39.714  -4.919  1.00  0.00     0.088 A 
HETATM    2  N3  UNL     1      21.206  39.021  -4.667  1.00  0.00    -0.305 N 
ATOM      3  H3  UNL     1      21.848  38.670  -5.377  1.00  0.00     0.171 HD
HETATM    4  C6  UNL     1      21.360  38.849  -3.331  1.00  0.00     0.329 A 
HETATM    5  O2  UNL     1      22.356  38.215  -2.872  1.00  0.00    -0.246 OA
HETATM    6  N4  UNL     1      20.347  39.429  -2.699  1.00  0.00    -0.278 N 
HETATM    7  C11 UNL     1      19.556  39.970  -3.653  1.00  0.00     0.173 A 
ENDROOT
BRANCH   1   8
HETATM    8  C4  UNL     1      19.579  40.128  -6.194  1.00  0.00     0.053 C 
HETATM    9  C3  UNL     1      18.921  39.447  -7.103  1.00  0.00     0.062 A 
HETATM   10  C2  UNL     1      18.599  38.050  -6.955  1.00  0.00     0.259 A 
HETATM   11  C12 UNL     1      18.438  40.134  -8.349  1.00  0.00     0.071 A 
HETATM   12  N2  UNL     1      17.850  37.267  -7.903  1.00  0.00    -0.308 N 
HETATM   13  O1  UNL     1      18.961  37.364  -5.945  1.00  0.00    -0.267 OA
HETATM   14  C1  UNL     1      17.411  37.952  -9.064  1.00  0.00     0.121 A 
ATOM     15  H2  UNL     1      17.647  36.279  -7.748  1.00  0.00     0.170 HD
HETATM   16  N1  UNL     1      16.734  37.394  -9.999  1.00  0.00    -0.384 N 
HETATM   17  C14 UNL     1      17.727  39.380  -9.246  1.00  0.00     0.080 A 
ATOM     18  H12 UNL     1      16.516  36.406  -9.873  1.00  0.00     0.157 HD
ATOM     19  H11 UNL     1      16.418  37.886 -10.835  1.00  0.00     0.157 HD
HETATM   20  S1  UNL     1      17.391  40.545 -10.474  1.00  0.00    -0.042 SA
HETATM   21  C13 UNL     1      18.169  41.893  -9.771  1.00  0.00     0.217 A 
HETATM   22  N7  UNL     1      18.633  41.385  -8.657  1.00  0.00    -0.330 N 
ATOM     23  H7  UNL     1      19.159  41.980  -8.017  1.00  0.00     0.168 HD
BRANCH  21  24
HETATM   24  N8  UNL     1      18.322  43.235 -10.206  1.00  0.00    -0.090 N 
HETATM   25  O5  UNL     1      17.790  44.135  -9.549  1.00  0.00    -0.530 OA
HETATM   26  O6  UNL     1      19.036  43.541 -11.323  1.00  0.00    -0.530 OA
ENDBRANCH  21  24
ENDBRANCH   1   8
BRANCH   7  27
HETATM   27  O4  UNL     1      18.373  40.683  -3.492  1.00  0.00    -0.344 OA
ATOM     28  H4  UNL     1      18.157  41.426  -4.044  1.00  0.00     0.219 HD
ENDBRANCH   7  27
BRANCH   6  29
HETATM   29  C7  UNL     1      20.088  39.487  -1.304  1.00  0.00     0.136 C 
BRANCH  29  30
HETATM   30  C8  UNL     1      18.924  38.731  -0.790  1.00  0.00     0.030 C 
BRANCH  30  31
HETATM   31  C9  UNL     1      17.817  39.460  -0.150  1.00  0.00     0.106 C 
BRANCH  31  32
HETATM   32  C10 UNL     1      17.360  40.694  -0.781  1.00  0.00     0.235 C 
HETATM   33  O3  UNL     1      18.045  41.737  -0.699  1.00  0.00    -0.272 OA
HETATM   34  N5  UNL     1      16.137  40.720  -1.495  1.00  0.00    -0.277 N 
ATOM     35  H5  UNL     1      15.587  39.863  -1.557  1.00  0.00     0.189 HD
BRANCH  34  36
HETATM   36  N6  UNL     1      15.652  41.880  -2.120  1.00  0.00    -0.343 N 
ATOM     37  H62 UNL     1      15.697  41.925  -3.138  1.00  0.00     0.176 HD
ATOM     38  H61 UNL     1      15.262  42.663  -1.595  1.00  0.00     0.176 HD
ENDBRANCH  34  36
ENDBRANCH  31  32
ENDBRANCH  30  31
ENDBRANCH  29  30
ENDBRANCH   6  29
TORSDOF 8
ENDMDL
MODEL 4
REMARK VINA RESULT: -6.959227270      2.847      8.295
REMARK  8 active torsions:
REMARK  status: ('A' for Active; 'I' for Inactive)
REMARK    1  A    between atoms: C4_10  and  C5_11 
REMARK    2  A    between atoms: N4_16  and  C7_17 
REMARK    3  A    between atoms: C7_17  and  C8_18 
REMARK    4  A    between atoms: C8_18  and  C9_19 
REMARK    5  A    between atoms: C9_19  and  C10_20 
REMARK       I    between atoms: C10_20  and  N5_22 
REMARK    6  A    between atoms: N5_22  and  N6_24 
REMARK    7  A    between atoms: C11_27  and  O4_28 
REMARK    8  A    between atoms: C13_33  and  N8_34 
ROOT
HETATM    1  C5  UNL     1      17.636  46.893  -2.621  1.00  0.00     0.088 A 
HETATM    2  N3  UNL     1      18.890  47.264  -2.871  1.00  0.00    -0.305 N 
ATOM      3  H3  UNL     1      19.156  48.087  -3.411  1.00  0.00     0.171 HD
HETATM    4  C6  UNL     1      19.761  46.393  -2.306  1.00  0.00     0.329 A 
HETATM    5  O2  UNL     1      21.010  46.563  -2.421  1.00  0.00    -0.246 OA
HETATM    6  N4  UNL     1      19.078  45.440  -1.682  1.00  0.00    -0.278 N 
HETATM    7  C11 UNL     1      17.768  45.724  -1.859  1.00  0.00     0.173 A 
ENDROOT
BRANCH   1   8
HETATM    8  C4  UNL     1      16.419  47.544  -3.020  1.00  0.00     0.053 C 
HETATM    9  C3  UNL     1      15.875  47.672  -4.207  1.00  0.00     0.062 A 
HETATM   10  C2  UNL     1      16.473  47.139  -5.405  1.00  0.00     0.259 A 
HETATM   11  C12 UNL     1      14.551  48.368  -4.353  1.00  0.00     0.071 A 
HETATM   12  N2  UNL     1      15.902  47.219  -6.724  1.00  0.00    -0.308 N 
HETATM   13  O1  UNL     1      17.595  46.535  -5.404  1.00  0.00    -0.267 OA
HETATM   14  C1  UNL     1      14.652  47.882  -6.819  1.00  0.00     0.121 A 
ATOM     15  H2  UNL     1      16.367  46.823  -7.540  1.00  0.00     0.170 HD
HETATM   16  N1  UNL     1      14.016  48.035  -7.922  1.00  0.00    -0.384 N 
HETATM   17  C14 UNL     1      14.015  48.440  -5.613  1.00  0.00     0.080 A 
ATOM     18  H12 UNL     1      14.457  47.649  -8.757  1.00  0.00     0.157 HD
ATOM     19  H11 UNL     1      13.117  48.512  -7.991  1.00  0.00     0.157 HD
HETATM   20  S1  UNL     1      12.547  49.294  -5.306  1.00  0.00    -0.042 SA
HETATM   21  C13 UNL     1      12.714  49.497  -3.619  1.00  0.00     0.217 A 
HETATM   22  N7  UNL     1      13.863  48.912  -3.390  1.00  0.00    -0.330 N 
ATOM     23  H7  UNL     1      14.227  48.882  -2.438  1.00  0.00     0.168 HD
BRANCH  21  24
HETATM   24  N8  UNL     1      11.884  50.120  -2.651  1.00  0.00    -0.090 N 
HETATM   25  O5  UNL     1      12.080  49.874  -1.456  1.00  0.00    -0.530 OA
HETATM   26  O6  UNL     1      10.888  50.973  -3.014  1.00  0.00    -0.530 OA
ENDBRANCH  21  24
ENDBRANCH   1   8
BRANCH   7  27
HETATM   27  O4  UNL     1      16.661  45.022  -1.396  1.00  0.00    -0.344 OA
ATOM     28  H4  UNL     1      16.540  44.832  -0.473  1.00  0.00     0.219 HD
ENDBRANCH   7  27
BRANCH   6  29
HETATM   29  C7  UNL     1      19.574  44.316  -0.969  1.00  0.00     0.136 C 
BRANCH  29  30
HETATM   30  C8  UNL     1      19.881  43.093  -1.744  1.00  0.00     0.030 C 
BRANCH  30  31
HETATM   31  C9  UNL     1      18.786  42.362  -2.401  1.00  0.00     0.106 C 
BRANCH  31  32
HETATM   32  C10 UNL     1      17.934  41.520  -1.568  1.00  0.00     0.235 C 
HETATM   33  O3  UNL     1      16.927  42.000  -1.004  1.00  0.00    -0.272 OA
HETATM   34  N5  UNL     1      18.242  40.148  -1.392  1.00  0.00    -0.277 N 
ATOM     35  H5  UNL     1      19.066  39.767  -1.858  1.00  0.00     0.189 HD
BRANCH  34  36
HETATM   36  N6  UNL     1      17.457  39.294  -0.601  1.00  0.00    -0.343 N 
ATOM     37  H62 UNL     1      17.187  39.621   0.327  1.00  0.00     0.176 HD
ATOM     38  H61 UNL     1      17.155  38.374  -0.921  1.00  0.00     0.176 HD
ENDBRANCH  34  36
ENDBRANCH  31  32
ENDBRANCH  30  31
ENDBRANCH  29  30
ENDBRANCH   6  29
TORSDOF 8
ENDMDL
MODEL 5
REMARK VINA RESULT: -6.824506319      3.355      8.936
REMARK  8 active torsions:
REMARK  status: ('A' for Active; 'I' for Inactive)
REMARK    1  A    between atoms: C4_10  and  C5_11 
REMARK    2  A    between atoms: N4_16  and  C7_17 
REMARK    3  A    between atoms: C7_17  and  C8_18 
REMARK    4  A    between atoms: C8_18  and  C9_19 
REMARK    5  A    between atoms: C9_19  and  C10_20 
REMARK       I    between atoms: C10_20  and  N5_22 
REMARK    6  A    between atoms: N5_22  and  N6_24 
REMARK    7  A    between atoms: C11_27  and  O4_28 
REMARK    8  A    between atoms: C13_33  and  N8_34 
ROOT
HETATM    1  C5  UNL     1      17.696  44.770  -2.557  1.00  0.00     0.088 A 
HETATM    2  N3  UNL     1      17.281  43.824  -1.719  1.00  0.00    -0.305 N 
ATOM      3  H3  UNL     1      16.554  43.949  -1.015  1.00  0.00     0.171 HD
HETATM    4  C6  UNL     1      17.963  42.672  -1.933  1.00  0.00     0.329 A 
HETATM    5  O2  UNL     1      17.720  41.640  -1.241  1.00  0.00    -0.246 OA
HETATM    6  N4  UNL     1      18.833  42.860  -2.918  1.00  0.00    -0.278 N 
HETATM    7  C11 UNL     1      18.690  44.142  -3.321  1.00  0.00     0.173 A 
ENDROOT
BRANCH   1   8
HETATM    8  C4  UNL     1      17.227  46.123  -2.676  1.00  0.00     0.053 C 
HETATM    9  C3  UNL     1      16.031  46.585  -2.958  1.00  0.00     0.062 A 
HETATM   10  C2  UNL     1      14.904  45.727  -3.227  1.00  0.00     0.259 A 
HETATM   11  C12 UNL     1      15.785  48.067  -2.974  1.00  0.00     0.071 A 
HETATM   12  N2  UNL     1      13.566  46.180  -3.505  1.00  0.00    -0.308 N 
HETATM   13  O1  UNL     1      14.995  44.457  -3.246  1.00  0.00    -0.267 OA
HETATM   14  C1  UNL     1      13.375  47.585  -3.509  1.00  0.00     0.121 A 
ATOM     15  H2  UNL     1      12.802  45.529  -3.687  1.00  0.00     0.170 HD
HETATM   16  N1  UNL     1      12.243  48.142  -3.740  1.00  0.00    -0.384 N 
HETATM   17  C14 UNL     1      14.508  48.488  -3.241  1.00  0.00     0.080 A 
ATOM     18  H12 UNL     1      11.459  47.517  -3.926  1.00  0.00     0.157 HD
ATOM     19  H11 UNL     1      12.105  49.153  -3.744  1.00  0.00     0.157 HD
HETATM   20  S1  UNL     1      14.694  50.202  -3.156  1.00  0.00    -0.042 SA
HETATM   21  C13 UNL     1      16.361  50.263  -2.793  1.00  0.00     0.217 A 
HETATM   22  N7  UNL     1      16.676  48.992  -2.757  1.00  0.00    -0.330 N 
ATOM     23  H7  UNL     1      17.638  48.721  -2.557  1.00  0.00     0.168 HD
BRANCH  21  24
HETATM   24  N8  UNL     1      17.246  51.350  -2.573  1.00  0.00    -0.090 N 
HETATM   25  O5  UNL     1      18.437  51.215  -2.872  1.00  0.00    -0.530 OA
HETATM   26  O6  UNL     1      16.807  52.526  -2.046  1.00  0.00    -0.530 OA
ENDBRANCH  21  24
ENDBRANCH   1   8
BRANCH   7  27
HETATM   27  O4  UNL     1      19.378  44.814  -4.325  1.00  0.00    -0.344 OA
ATOM     28  H4  UNL     1      18.924  45.263  -5.029  1.00  0.00     0.219 HD
ENDBRANCH   7  27
BRANCH   6  29
HETATM   29  C7  UNL     1      19.763  41.937  -3.467  1.00  0.00     0.136 C 
BRANCH  29  30
HETATM   30  C8  UNL     1      19.222  40.765  -4.191  1.00  0.00     0.030 C 
BRANCH  30  31
HETATM   31  C9  UNL     1      19.750  39.425  -3.891  1.00  0.00     0.106 C 
BRANCH  31  32
HETATM   32  C10 UNL     1      19.779  39.002  -2.494  1.00  0.00     0.235 C 
HETATM   33  O3  UNL     1      20.849  38.623  -1.970  1.00  0.00    -0.272 OA
HETATM   34  N5  UNL     1      18.593  39.019  -1.720  1.00  0.00    -0.277 N 
ATOM     35  H5  UNL     1      17.726  39.332  -2.157  1.00  0.00     0.189 HD
BRANCH  34  36
HETATM   36  N6  UNL     1      18.565  38.623  -0.373  1.00  0.00    -0.343 N 
ATOM     37  H62 UNL     1      18.758  37.643  -0.163  1.00  0.00     0.176 HD
ATOM     38  H61 UNL     1      18.362  39.273   0.386  1.00  0.00     0.176 HD
ENDBRANCH  34  36
ENDBRANCH  31  32
ENDBRANCH  30  31
ENDBRANCH  29  30
ENDBRANCH   6  29
TORSDOF 8
ENDMDL
