MODEL 1
REMARK VINA RESULT: -7.024424932      0.000      0.000
REMARK  9 active torsions:
REMARK  status: ('A' for Active; 'I' for Inactive)
REMARK    1  A    between atoms: N1_2  and  C2_4 
REMARK    2  A    between atoms: C2_4  and  C3_5 
REMARK    3  A    between atoms: C2_4  and  C15_37 
REMARK    4  A    between atoms: C3_5  and  S1_6 
REMARK    5  A    between atoms: S1_6  and  C4_7 
REMARK    6  A    between atoms: C4_7  and  C5_8 
REMARK    7  A    between atoms: C6_11  and  C7_12 
REMARK    8  A    between atoms: C9_16  and  N4_17 
REMARK    9  A    between atoms: C10_22  and  N6_23 
ROOT
HETATM    1  C5  UNL     1      21.121  44.168  -2.082  1.00  0.00     0.070 A 
HETATM    2  N2  UNL     1      20.107  44.544  -2.825  1.00  0.00    -0.339 N 
ATOM      3  H2  UNL     1      20.019  44.149  -3.761  1.00  0.00     0.167 HD
HETATM    4  C6  UNL     1      19.185  45.417  -2.417  1.00  0.00     0.121 A 
HETATM    5  N7  UNL     1      19.294  45.966  -1.131  1.00  0.00    -0.340 N 
ATOM      6  H7  UNL     1      18.588  46.629  -0.812  1.00  0.00     0.167 HD
HETATM    7  C11 UNL     1      20.305  45.641  -0.311  1.00  0.00     0.069 A 
HETATM    8  C12 UNL     1      20.377  46.100   0.977  1.00  0.00     0.107 A 
HETATM    9  C13 UNL     1      21.448  45.605   1.783  1.00  0.00     0.261 A 
HETATM   10  O1  UNL     1      21.478  46.034   2.952  1.00  0.00    -0.267 OA
HETATM   11  N8  UNL     1      22.341  44.727   1.286  1.00  0.00    -0.266 N 
ATOM     12  H8  UNL     1      23.103  44.384   1.872  1.00  0.00     0.190 HD
HETATM   13  N9  UNL     1      22.227  44.313   0.038  1.00  0.00    -0.293 N 
ATOM     14  H9  UNL     1      22.910  43.650  -0.329  1.00  0.00     0.187 HD
HETATM   15  C14 UNL     1      21.217  44.748  -0.776  1.00  0.00     0.102 A 
ENDROOT
BRANCH   1  16
HETATM   16  C4  UNL     1      22.309  43.298  -2.285  1.00  0.00     0.077 C 
BRANCH  16  17
HETATM   17  S1  UNL     1      22.283  41.668  -2.495  1.00  0.00    -0.133 SA
BRANCH  17  18
HETATM   18  C3  UNL     1      21.556  40.248  -2.053  1.00  0.00     0.139 C 
BRANCH  18  19
HETATM   19  C2  UNL     1      20.194  40.024  -2.696  1.00  0.00     0.061 C 
BRANCH  19  20
HETATM   20  N1  UNL     1      19.940  40.392  -4.004  1.00  0.00    -0.394 N 
HETATM   21  C1  UNL     1      19.150  39.477  -4.798  1.00  0.00     0.146 C 
ATOM     22  H1  UNL     1      20.293  41.267  -4.391  1.00  0.00     0.159 HD
ENDBRANCH  19  20
BRANCH  19  23
HETATM   23  C15 UNL     1      19.037  39.855  -1.830  1.00  0.00     0.162 A 
HETATM   24  N10 UNL     1      18.758  38.671  -1.190  1.00  0.00    -0.267 N 
HETATM   25  N11 UNL     1      17.667  38.806  -0.494  1.00  0.00    -0.226 N 
ATOM     26  H10 UNL     1      19.318  37.821  -1.252  1.00  0.00     0.190 HD
HETATM   27  N12 UNL     1      17.228  40.016  -0.649  1.00  0.00    -0.225 N 
ATOM     28  H11 UNL     1      17.232  38.082   0.078  1.00  0.00     0.210 HD
HETATM   29  N13 UNL     1      18.032  40.665  -1.444  1.00  0.00    -0.263 N 
ATOM     30  H12 UNL     1      16.386  40.399  -0.217  1.00  0.00     0.210 HD
HETATM   31  C16 UNL     1      17.904  42.047  -1.909  1.00  0.00     0.181 C 
ENDBRANCH  19  23
ENDBRANCH  18  19
ENDBRANCH  17  18
ENDBRANCH  16  17
ENDBRANCH   1  16
BRANCH   4  32
HETATM   32  C7  UNL     1      18.014  45.873  -3.165  1.00  0.00     0.068 A 
HETATM   33  C8  UNL     1      16.785  45.443  -2.545  1.00  0.00     0.125 A 
HETATM   34  N3  UNL     1      15.579  45.799  -3.049  1.00  0.00    -0.201 N 
HETATM   35  C9  UNL     1      15.519  46.553  -4.122  1.00  0.00     0.677 A 
ATOM     36  H3  UNL     1      14.722  45.482  -2.596  1.00  0.00     0.183 HD
HETATM   37  N5  UNL     1      16.673  46.998  -4.739  1.00  0.00    -0.176 N 
HETATM   38  C10 UNL     1      17.909  46.649  -4.253  1.00  0.00     0.130 A 
ATOM     39  H5  UNL     1      16.606  47.592  -5.565  1.00  0.00     0.186 HD
BRANCH  35  40
HETATM   40  N4  UNL     1      14.360  46.908  -4.586  1.00  0.00    -0.234 N 
ATOM     41  H42 UNL     1      13.551  46.932  -3.966  1.00  0.00     0.174 HD
ATOM     42  H41 UNL     1      14.266  47.136  -5.575  1.00  0.00     0.174 HD
ENDBRANCH  35  40
BRANCH  38  43
HETATM   43  N6  UNL     1      18.938  47.137  -4.879  1.00  0.00    -0.384 N 
ATOM     44  H62 UNL     1      19.789  46.575  -4.864  1.00  0.00     0.157 HD
ATOM     45  H61 UNL     1      18.913  48.019  -5.389  1.00  0.00     0.157 HD
ENDBRANCH  38  43
ENDBRANCH   4  32
TORSDOF 9
ENDMDL
MODEL 2
REMARK VINA RESULT: -6.946585605      1.192      1.495
REMARK  9 active torsions:
REMARK  status: ('A' for Active; 'I' for Inactive)
REMARK    1  A    between atoms: N1_2  and  C2_4 
REMARK    2  A    between atoms: C2_4  and  C3_5 
REMARK    3  A    between atoms: C2_4  and  C15_37 
REMARK    4  A    between atoms: C3_5  and  S1_6 
REMARK    5  A    between atoms: S1_6  and  C4_7 
REMARK    6  A    between atoms: C4_7  and  C5_8 
REMARK    7  A    between atoms: C6_11  and  C7_12 
REMARK    8  A    between atoms: C9_16  and  N4_17 
REMARK    9  A    between atoms: C10_22  and  N6_23 
ROOT
HETATM    1  C5  UNL     1      20.488  43.459  -1.590  1.00  0.00     0.070 A 
HETATM    2  N2  UNL     1      19.426  43.908  -2.216  1.00  0.00    -0.339 N 
ATOM      3  H2  UNL     1      19.075  43.381  -3.015  1.00  0.00     0.167 HD
HETATM    4  C6  UNL     1      18.783  45.021  -1.860  1.00  0.00     0.121 A 
HETATM    5  N7  UNL     1      19.256  45.754  -0.763  1.00  0.00    -0.340 N 
ATOM      6  H7  UNL     1      18.764  46.603  -0.482  1.00  0.00     0.167 HD
HETATM    7  C11 UNL     1      20.340  45.369  -0.073  1.00  0.00     0.069 A 
HETATM    8  C12 UNL     1      20.762  46.025   1.052  1.00  0.00     0.107 A 
HETATM    9  C13 UNL     1      21.870  45.461   1.756  1.00  0.00     0.261 A 
HETATM   10  O1  UNL     1      22.221  46.076   2.780  1.00  0.00    -0.267 OA
HETATM   11  N8  UNL     1      22.466  44.334   1.320  1.00  0.00    -0.266 N 
ATOM     12  H8  UNL     1      23.259  43.943   1.830  1.00  0.00     0.190 HD
HETATM   13  N9  UNL     1      22.021  43.737   0.230  1.00  0.00    -0.293 N 
ATOM     14  H9  UNL     1      22.481  42.886  -0.093  1.00  0.00     0.187 HD
HETATM   15  C14 UNL     1      20.959  44.229  -0.478  1.00  0.00     0.102 A 
ENDROOT
BRANCH   1  16
HETATM   16  C4  UNL     1      21.431  42.328  -1.796  1.00  0.00     0.077 C 
BRANCH  16  17
HETATM   17  S1  UNL     1      21.490  41.355  -3.119  1.00  0.00    -0.133 SA
BRANCH  17  18
HETATM   18  C3  UNL     1      20.605  40.594  -4.293  1.00  0.00     0.139 C 
BRANCH  18  19
HETATM   19  C2  UNL     1      19.612  39.573  -3.754  1.00  0.00     0.061 C 
BRANCH  19  20
HETATM   20  N1  UNL     1      19.235  38.468  -4.492  1.00  0.00    -0.394 N 
HETATM   21  C1  UNL     1      18.904  38.692  -5.882  1.00  0.00     0.146 C 
ATOM     22  H1  UNL     1      19.191  37.537  -4.076  1.00  0.00     0.159 HD
ENDBRANCH  19  20
BRANCH  19  23
HETATM   23  C15 UNL     1      18.718  39.976  -2.680  1.00  0.00     0.162 A 
HETATM   24  N10 UNL     1      17.716  40.900  -2.857  1.00  0.00    -0.267 N 
HETATM   25  N11 UNL     1      17.084  41.070  -1.733  1.00  0.00    -0.226 N 
ATOM     26  H10 UNL     1      17.502  41.378  -3.732  1.00  0.00     0.190 HD
HETATM   27  N12 UNL     1      17.624  40.302  -0.838  1.00  0.00    -0.225 N 
ATOM     28  H11 UNL     1      16.296  41.701  -1.581  1.00  0.00     0.210 HD
HETATM   29  N13 UNL     1      18.604  39.636  -1.381  1.00  0.00    -0.263 N 
ATOM     30  H12 UNL     1      17.328  40.231   0.136  1.00  0.00     0.210 HD
HETATM   31  C16 UNL     1      19.499  38.677  -0.732  1.00  0.00     0.181 C 
ENDBRANCH  19  23
ENDBRANCH  18  19
ENDBRANCH  17  18
ENDBRANCH  16  17
ENDBRANCH   1  16
BRANCH   4  32
HETATM   32  C7  UNL     1      17.584  45.581  -2.482  1.00  0.00     0.068 A 
HETATM   33  C8  UNL     1      16.519  44.610  -2.557  1.00  0.00     0.125 A 
HETATM   34  N3  UNL     1      15.303  44.935  -3.055  1.00  0.00    -0.201 N 
HETATM   35  C9  UNL     1      15.077  46.158  -3.478  1.00  0.00     0.677 A 
ATOM     36  H3  UNL     1      14.565  44.233  -3.102  1.00  0.00     0.183 HD
HETATM   37  N5  UNL     1      16.066  47.122  -3.411  1.00  0.00    -0.176 N 
HETATM   38  C10 UNL     1      17.310  46.820  -2.915  1.00  0.00     0.130 A 
ATOM     39  H5  UNL     1      15.868  48.069  -3.733  1.00  0.00     0.186 HD
BRANCH  35  40
HETATM   40  N4  UNL     1      13.903  46.467  -3.933  1.00  0.00    -0.234 N 
ATOM     41  H42 UNL     1      13.069  46.081  -3.491  1.00  0.00     0.174 HD
ATOM     42  H41 UNL     1      13.826  47.076  -4.747  1.00  0.00     0.174 HD
ENDBRANCH  35  40
BRANCH  38  43
HETATM   43  N6  UNL     1      18.167  47.795  -2.862  1.00  0.00    -0.384 N 
ATOM     44  H62 UNL     1      18.800  47.803  -2.062  1.00  0.00     0.157 HD
ATOM     45  H61 UNL     1      18.241  48.511  -3.584  1.00  0.00     0.157 HD
ENDBRANCH  38  43
ENDBRANCH   4  32
TORSDOF 9
ENDMDL
MODEL 3
REMARK VINA RESULT: -6.799380385      2.636      4.236
REMARK  9 active torsions:
REMARK  status: ('A' for Active; 'I' for Inactive)
REMARK    1  A    between atoms: N1_2  and  C2_4 
REMARK    2  A    between atoms: C2_4  and  C3_5 
REMARK    3  A    between atoms: C2_4  and  C15_37 
REMARK    4  A    between atoms: C3_5  and  S1_6 
REMARK    5  A    between atoms: S1_6  and  C4_7 
REMARK    6  A    between atoms: C4_7  and  C5_8 
REMARK    7  A    between atoms: C6_11  and  C7_12 
REMARK    8  A    between atoms: C9_16  and  N4_17 
REMARK    9  A    between atoms: C10_22  and  N6_23 
ROOT
HETATM    1  C5  UNL     1      17.894  46.488  -3.117  1.00  0.00     0.070 A 
HETATM    2  N2  UNL     1      16.687  46.386  -3.622  1.00  0.00    -0.339 N 
ATOM      3  H2  UNL     1      16.344  45.460  -3.877  1.00  0.00     0.167 HD
HETATM    4  C6  UNL     1      15.885  47.434  -3.818  1.00  0.00     0.121 A 
HETATM    5  N7  UNL     1      16.345  48.712  -3.470  1.00  0.00    -0.340 N 
ATOM      6  H7  UNL     1      15.733  49.516  -3.612  1.00  0.00     0.167 HD
HETATM    7  C11 UNL     1      17.569  48.904  -2.957  1.00  0.00     0.069 A 
HETATM    8  C12 UNL     1      17.998  50.133  -2.531  1.00  0.00     0.107 A 
HETATM    9  C13 UNL     1      19.284  50.192  -1.911  1.00  0.00     0.261 A 
HETATM   10  O1  UNL     1      19.639  51.323  -1.526  1.00  0.00    -0.267 OA
HETATM   11  N8  UNL     1      20.032  49.082  -1.759  1.00  0.00    -0.266 N 
ATOM     12  H8  UNL     1      20.950  49.139  -1.317  1.00  0.00     0.190 HD
HETATM   13  N9  UNL     1      19.572  47.920  -2.184  1.00  0.00    -0.293 N 
ATOM     14  H9  UNL     1      20.147  47.086  -2.067  1.00  0.00     0.187 HD
HETATM   15  C14 UNL     1      18.345  47.804  -2.778  1.00  0.00     0.102 A 
ENDROOT
BRANCH   1  16
HETATM   16  C4  UNL     1      19.010  45.540  -2.860  1.00  0.00     0.077 C 
BRANCH  16  17
HETATM   17  S1  UNL     1      19.198  44.065  -3.559  1.00  0.00    -0.133 SA
BRANCH  17  18
HETATM   18  C3  UNL     1      19.293  42.433  -3.296  1.00  0.00     0.139 C 
BRANCH  18  19
HETATM   19  C2  UNL     1      19.278  42.043  -1.824  1.00  0.00     0.061 C 
BRANCH  19  20
HETATM   20  N1  UNL     1      20.080  42.679  -0.896  1.00  0.00    -0.394 N 
HETATM   21  C1  UNL     1      21.509  42.499  -1.035  1.00  0.00     0.146 C 
ATOM     22  H1  UNL     1      19.684  43.248  -0.148  1.00  0.00     0.159 HD
ENDBRANCH  19  20
BRANCH  19  23
HETATM   23  C15 UNL     1      18.780  40.724  -1.461  1.00  0.00     0.162 A 
HETATM   24  N10 UNL     1      17.535  40.528  -0.913  1.00  0.00    -0.267 N 
HETATM   25  N11 UNL     1      17.362  39.259  -0.684  1.00  0.00    -0.226 N 
ATOM     26  H10 UNL     1      16.854  41.261  -0.716  1.00  0.00     0.190 HD
HETATM   27  N12 UNL     1      18.429  38.624  -1.058  1.00  0.00    -0.225 N 
ATOM     28  H11 UNL     1      16.526  38.834  -0.280  1.00  0.00     0.210 HD
HETATM   29  N13 UNL     1      19.293  39.481  -1.528  1.00  0.00    -0.263 N 
ATOM     30  H12 UNL     1      18.571  37.616  -0.994  1.00  0.00     0.210 HD
HETATM   31  C16 UNL     1      20.638  39.204  -2.035  1.00  0.00     0.181 C 
ENDBRANCH  19  23
ENDBRANCH  18  19
ENDBRANCH  17  18
ENDBRANCH  16  17
ENDBRANCH   1  16
BRANCH   4  32
HETATM   32  C7  UNL     1      14.523  47.412  -4.350  1.00  0.00     0.068 A 
HETATM   33  C8  UNL     1      13.553  47.775  -3.346  1.00  0.00     0.125 A 
HETATM   34  N3  UNL     1      12.234  47.864  -3.640  1.00  0.00    -0.201 N 
HETATM   35  C9  UNL     1      11.821  47.620  -4.863  1.00  0.00     0.677 A 
ATOM     36  H3  UNL     1      11.564  48.120  -2.915  1.00  0.00     0.183 HD
HETATM   37  N5  UNL     1      12.720  47.282  -5.857  1.00  0.00    -0.176 N 
HETATM   38  C10 UNL     1      14.062  47.180  -5.587  1.00  0.00     0.130 A 
ATOM     39  H5  UNL     1      12.382  47.108  -6.803  1.00  0.00     0.186 HD
BRANCH  35  40
HETATM   40  N4  UNL     1      10.559  47.730  -5.142  1.00  0.00    -0.234 N 
ATOM     41  H42 UNL     1      10.153  48.651  -5.304  1.00  0.00     0.174 HD
ATOM     42  H41 UNL     1       9.979  46.892  -5.172  1.00  0.00     0.174 HD
ENDBRANCH  35  40
BRANCH  38  43
HETATM   43  N6  UNL     1      14.836  46.886  -6.589  1.00  0.00    -0.384 N 
ATOM     44  H62 UNL     1      15.436  46.069  -6.478  1.00  0.00     0.157 HD
ATOM     45  H61 UNL     1      14.841  47.413  -7.462  1.00  0.00     0.157 HD
ENDBRANCH  38  43
ENDBRANCH   4  32
TORSDOF 9
ENDMDL
MODEL 4
REMARK VINA RESULT: -6.786516972      5.282      7.739
REMARK  9 active torsions:
REMARK  status: ('A' for Active; 'I' for Inactive)
REMARK    1  A    between atoms: N1_2  and  C2_4 
REMARK    2  A    between atoms: C2_4  and  C3_5 
REMARK    3  A    between atoms: C2_4  and  C15_37 
REMARK    4  A    between atoms: C3_5  and  S1_6 
REMARK    5  A    between atoms: S1_6  and  C4_7 
REMARK    6  A    between atoms: C4_7  and  C5_8 
REMARK    7  A    between atoms: C6_11  and  C7_12 
REMARK    8  A    between atoms: C9_16  and  N4_17 
REMARK    9  A    between atoms: C10_22  and  N6_23 
ROOT
HETATM    1  C5  UNL     1      19.433  41.140  -7.160  1.00  0.00     0.070 A 
HETATM    2  N2  UNL     1      19.391  42.163  -7.982  1.00  0.00    -0.339 N 
ATOM      3  H2  UNL     1      19.868  43.022  -7.711  1.00  0.00     0.167 HD
HETATM    4  C6  UNL     1      18.754  42.133  -9.153  1.00  0.00     0.121 A 
HETATM    5  N7  UNL     1      18.095  40.957  -9.536  1.00  0.00    -0.340 N 
ATOM      6  H7  UNL     1      17.612  40.927 -10.434  1.00  0.00     0.167 HD
HETATM    7  C11 UNL     1      18.083  39.869  -8.751  1.00  0.00     0.069 A 
HETATM    8  C12 UNL     1      17.520  38.686  -9.149  1.00  0.00     0.107 A 
HETATM    9  C13 UNL     1      17.658  37.572  -8.266  1.00  0.00     0.261 A 
HETATM   10  O1  UNL     1      17.144  36.509  -8.663  1.00  0.00    -0.267 OA
HETATM   11  N8  UNL     1      18.313  37.693  -7.095  1.00  0.00    -0.266 N 
ATOM     12  H8  UNL     1      18.402  36.890  -6.472  1.00  0.00     0.190 HD
HETATM   13  N9  UNL     1      18.841  38.855  -6.757  1.00  0.00    -0.293 N 
ATOM     14  H9  UNL     1      19.333  38.936  -5.868  1.00  0.00     0.187 HD
HETATM   15  C14 UNL     1      18.746  39.952  -7.568  1.00  0.00     0.102 A 
ENDROOT
BRANCH   1  16
HETATM   16  C4  UNL     1      19.982  40.907  -5.798  1.00  0.00     0.077 C 
BRANCH  16  17
HETATM   17  S1  UNL     1      19.866  41.941  -4.526  1.00  0.00    -0.133 SA
BRANCH  17  18
HETATM   18  C3  UNL     1      18.935  42.429  -3.246  1.00  0.00     0.139 C 
BRANCH  18  19
HETATM   19  C2  UNL     1      19.371  41.847  -1.908  1.00  0.00     0.061 C 
BRANCH  19  20
HETATM   20  N1  UNL     1      20.507  42.290  -1.258  1.00  0.00    -0.394 N 
HETATM   21  C1  UNL     1      20.508  43.665  -0.809  1.00  0.00     0.146 C 
ATOM     22  H1  UNL     1      21.307  41.677  -1.103  1.00  0.00     0.159 HD
ENDBRANCH  19  20
BRANCH  19  23
HETATM   23  C15 UNL     1      18.874  40.533  -1.529  1.00  0.00     0.162 A 
HETATM   24  N10 UNL     1      17.669  40.351  -0.893  1.00  0.00    -0.267 N 
HETATM   25  N11 UNL     1      17.487  39.082  -0.672  1.00  0.00    -0.226 N 
ATOM     26  H10 UNL     1      17.020  41.094  -0.635  1.00  0.00     0.190 HD
HETATM   27  N12 UNL     1      18.511  38.433  -1.133  1.00  0.00    -0.225 N 
ATOM     28  H11 UNL     1      16.675  38.667  -0.213  1.00  0.00     0.210 HD
HETATM   29  N13 UNL     1      19.355  39.281  -1.653  1.00  0.00    -0.263 N 
ATOM     30  H12 UNL     1      18.636  37.422  -1.096  1.00  0.00     0.210 HD
HETATM   31  C16 UNL     1      20.653  38.987  -2.262  1.00  0.00     0.181 C 
ENDBRANCH  19  23
ENDBRANCH  18  19
ENDBRANCH  17  18
ENDBRANCH  16  17
ENDBRANCH   1  16
BRANCH   4  32
HETATM   32  C7  UNL     1      18.674  43.211 -10.138  1.00  0.00     0.068 A 
HETATM   33  C8  UNL     1      17.916  44.334  -9.639  1.00  0.00     0.125 A 
HETATM   34  N3  UNL     1      17.760  45.460 -10.374  1.00  0.00    -0.201 N 
HETATM   35  C9  UNL     1      18.308  45.543 -11.565  1.00  0.00     0.677 A 
ATOM     36  H3  UNL     1      17.219  46.241 -10.004  1.00  0.00     0.183 HD
HETATM   37  N5  UNL     1      19.054  44.496 -12.074  1.00  0.00    -0.176 N 
HETATM   38  C10 UNL     1      19.225  43.340 -11.354  1.00  0.00     0.130 A 
ATOM     39  H5  UNL     1      19.481  44.584 -12.995  1.00  0.00     0.186 HD
BRANCH  35  40
HETATM   40  N4  UNL     1      18.173  46.635 -12.253  1.00  0.00    -0.234 N 
ATOM     41  H42 UNL     1      18.099  47.532 -11.773  1.00  0.00     0.174 HD
ATOM     42  H41 UNL     1      18.118  46.581 -13.269  1.00  0.00     0.174 HD
ENDBRANCH  35  40
BRANCH  38  43
HETATM   43  N6  UNL     1      19.965  42.421 -11.898  1.00  0.00    -0.384 N 
ATOM     44  H62 UNL     1      19.954  41.503 -11.452  1.00  0.00     0.157 HD
ATOM     45  H61 UNL     1      20.514  42.575 -12.743  1.00  0.00     0.157 HD
ENDBRANCH  38  43
ENDBRANCH   4  32
TORSDOF 9
ENDMDL
MODEL 5
REMARK VINA RESULT: -6.781364632      5.470      9.213
REMARK  9 active torsions:
REMARK  status: ('A' for Active; 'I' for Inactive)
REMARK    1  A    between atoms: N1_2  and  C2_4 
REMARK    2  A    between atoms: C2_4  and  C3_5 
REMARK    3  A    between atoms: C2_4  and  C15_37 
REMARK    4  A    between atoms: C3_5  and  S1_6 
REMARK    5  A    between atoms: S1_6  and  C4_7 
REMARK    6  A    between atoms: C4_7  and  C5_8 
REMARK    7  A    between atoms: C6_11  and  C7_12 
REMARK    8  A    between atoms: C9_16  and  N4_17 
REMARK    9  A    between atoms: C10_22  and  N6_23 
ROOT
HETATM    1  C5  UNL     1      19.115  39.287  -7.034  1.00  0.00     0.070 A 
HETATM    2  N2  UNL     1      18.820  38.063  -7.406  1.00  0.00    -0.339 N 
ATOM      3  H2  UNL     1      18.961  37.306  -6.737  1.00  0.00     0.167 HD
HETATM    4  C6  UNL     1      18.345  37.760  -8.614  1.00  0.00     0.121 A 
HETATM    5  N7  UNL     1      18.146  38.792  -9.542  1.00  0.00    -0.340 N 
ATOM      6  H7  UNL     1      17.777  38.567 -10.466  1.00  0.00     0.167 HD
HETATM    7  C11 UNL     1      18.430  40.069  -9.245  1.00  0.00     0.069 A 
HETATM    8  C12 UNL     1      18.158  41.098 -10.107  1.00  0.00     0.107 A 
HETATM    9  C13 UNL     1      18.414  42.423  -9.638  1.00  0.00     0.261 A 
HETATM   10  O1  UNL     1      18.147  43.335 -10.443  1.00  0.00    -0.267 OA
HETATM   11  N8  UNL     1      18.902  42.638  -8.401  1.00  0.00    -0.266 N 
ATOM     12  H8  UNL     1      19.083  43.589  -8.080  1.00  0.00     0.190 HD
HETATM   13  N9  UNL     1      19.145  41.612  -7.606  1.00  0.00    -0.293 N 
ATOM     14  H9  UNL     1      19.517  41.786  -6.672  1.00  0.00     0.187 HD
HETATM   15  C14 UNL     1      18.912  40.324  -8.000  1.00  0.00     0.102 A 
ENDROOT
BRANCH   1  16
HETATM   16  C4  UNL     1      19.711  39.903  -5.820  1.00  0.00     0.077 C 
BRANCH  16  17
HETATM   17  S1  UNL     1      20.083  39.115  -4.426  1.00  0.00    -0.133 SA
BRANCH  17  18
HETATM   18  C3  UNL     1      20.975  39.157  -3.031  1.00  0.00     0.139 C 
BRANCH  18  19
HETATM   19  C2  UNL     1      20.451  40.139  -1.993  1.00  0.00     0.061 C 
BRANCH  19  20
HETATM   20  N1  UNL     1      21.304  40.879  -1.197  1.00  0.00    -0.394 N 
HETATM   21  C1  UNL     1      21.742  42.155  -1.718  1.00  0.00     0.146 C 
ATOM     22  H1  UNL     1      21.611  40.541  -0.284  1.00  0.00     0.159 HD
ENDBRANCH  19  20
BRANCH  19  23
HETATM   23  C15 UNL     1      19.087  39.977  -1.511  1.00  0.00     0.162 A 
HETATM   24  N10 UNL     1      18.644  38.820  -0.916  1.00  0.00    -0.267 N 
HETATM   25  N11 UNL     1      17.391  38.954  -0.595  1.00  0.00    -0.226 N 
ATOM     26  H10 UNL     1      19.210  37.987  -0.752  1.00  0.00     0.190 HD
HETATM   27  N12 UNL     1      17.000  40.138  -0.950  1.00  0.00    -0.225 N 
ATOM     28  H11 UNL     1      16.813  38.247  -0.140  1.00  0.00     0.210 HD
HETATM   29  N13 UNL     1      17.999  40.771  -1.501  1.00  0.00    -0.263 N 
ATOM     30  H12 UNL     1      16.061  40.515  -0.820  1.00  0.00     0.210 HD
HETATM   31  C16 UNL     1      17.997  42.121  -2.066  1.00  0.00     0.181 C 
ENDBRANCH  19  23
ENDBRANCH  18  19
ENDBRANCH  17  18
ENDBRANCH  16  17
ENDBRANCH   1  16
BRANCH   4  32
HETATM   32  C7  UNL     1      17.969  36.435  -9.105  1.00  0.00     0.068 A 
HETATM   33  C8  UNL     1      16.559  36.184  -8.934  1.00  0.00     0.125 A 
HETATM   34  N3  UNL     1      15.991  35.033  -9.366  1.00  0.00    -0.201 N 
HETATM   35  C9  UNL     1      16.731  34.122  -9.955  1.00  0.00     0.677 A 
ATOM     36  H3  UNL     1      14.992  34.874  -9.234  1.00  0.00     0.183 HD
HETATM   37  N5  UNL     1      18.084  34.329 -10.150  1.00  0.00    -0.176 N 
HETATM   38  C10 UNL     1      18.688  35.484  -9.719  1.00  0.00     0.130 A 
ATOM     39  H5  UNL     1      18.639  33.615 -10.621  1.00  0.00     0.186 HD
BRANCH  35  40
HETATM   40  N4  UNL     1      16.175  33.032 -10.386  1.00  0.00    -0.234 N 
ATOM     41  H42 UNL     1      15.223  32.800 -10.103  1.00  0.00     0.174 HD
ATOM     42  H41 UNL     1      16.707  32.402 -10.986  1.00  0.00     0.174 HD
ENDBRANCH  35  40
BRANCH  38  43
HETATM   43  N6  UNL     1      19.956  35.605  -9.972  1.00  0.00    -0.384 N 
ATOM     44  H62 UNL     1      20.585  34.988  -9.457  1.00  0.00     0.157 HD
ATOM     45  H61 UNL     1      20.327  36.255 -10.664  1.00  0.00     0.157 HD
ENDBRANCH  38  43
ENDBRANCH   4  32
TORSDOF 9
ENDMDL
