MODEL 1
REMARK VINA RESULT: -7.821594690      0.000      0.000
REMARK  6 active torsions:
REMARK  status: ('A' for Active; 'I' for Inactive)
REMARK    1  A    between atoms: C1_2  and  C2_4 
REMARK    2  A    between atoms: C2_4  and  C3_5 
REMARK    3  A    between atoms: C3_5  and  C4_6 
REMARK    4  A    between atoms: C4_6  and  O3_7 
REMARK    5  A    between atoms: O3_7  and  C5_8 
REMARK    6  A    between atoms: C5_8  and  C6_10 
ROOT
HETATM    1  C4  UNL     1       2.345  10.059  22.483  1.00  0.00     0.188 C 
ENDROOT
BRANCH   1   2
HETATM    2  C3  UNL     1       2.139   9.670  21.022  1.00  0.00    -0.009 C 
HETATM    3  C12 UNL     1       2.743   8.353  20.670  1.00  0.00     0.012 C 
HETATM    4  C13 UNL     1       1.439   7.910  20.092  1.00  0.00     0.002 C 
HETATM    5  C14 UNL     1       0.780   9.129  20.733  1.00  0.00     0.012 C 
BRANCH   2   6
HETATM    6  C2  UNL     1       2.518  10.842  20.149  1.00  0.00     0.124 C 
BRANCH   6   7
HETATM    7  C1  UNL     1       1.996  12.126  20.621  1.00  0.00     0.173 C 
HETATM    8  O1  UNL     1       0.848  12.485  20.275  1.00  0.00    -0.648 OA
HETATM    9  O2  UNL     1       2.739  12.961  21.443  1.00  0.00    -0.648 OA
ENDBRANCH   6   7
ENDBRANCH   2   6
ENDBRANCH   1   2
BRANCH   1  10
HETATM   10  O3  UNL     1       3.733   9.849  22.757  1.00  0.00    -0.320 OA
BRANCH  10  11
HETATM   11  C5  UNL     1       4.185   9.526  24.013  1.00  0.00     0.263 C 
HETATM   12  O4  UNL     1       4.618  10.430  24.753  1.00  0.00    -0.265 OA
BRANCH  11  13
HETATM   13  C6  UNL     1       4.149   8.101  24.471  1.00  0.00     0.085 C 
HETATM   14  C7  UNL     1       4.794   7.175  23.509  1.00  0.00     0.014 C 
HETATM   15  C8  UNL     1       6.062   6.555  23.944  1.00  0.00     0.001 C 
HETATM   16  C9  UNL     1       6.105   6.096  25.366  1.00  0.00     0.000 C 
HETATM   17  C10 UNL     1       5.008   6.655  26.222  1.00  0.00     0.001 C 
HETATM   18  C11 UNL     1       4.750   8.076  25.855  1.00  0.00     0.014 C 
ENDBRANCH  11  13
ENDBRANCH  10  11
ENDBRANCH   1  10
TORSDOF 6
ENDMDL
MODEL 2
REMARK VINA RESULT: -7.657844649      1.013      1.093
REMARK  6 active torsions:
REMARK  status: ('A' for Active; 'I' for Inactive)
REMARK    1  A    between atoms: C1_2  and  C2_4 
REMARK    2  A    between atoms: C2_4  and  C3_5 
REMARK    3  A    between atoms: C3_5  and  C4_6 
REMARK    4  A    between atoms: C4_6  and  O3_7 
REMARK    5  A    between atoms: O3_7  and  C5_8 
REMARK    6  A    between atoms: C5_8  and  C6_10 
ROOT
HETATM    1  C4  UNL     1       2.510  10.403  23.549  1.00  0.00     0.188 C 
ENDROOT
BRANCH   1   2
HETATM    2  C3  UNL     1       2.344  10.451  22.033  1.00  0.00    -0.009 C 
HETATM    3  C12 UNL     1       3.029   9.329  21.327  1.00  0.00     0.012 C 
HETATM    4  C13 UNL     1       1.760   9.007  20.608  1.00  0.00     0.002 C 
HETATM    5  C14 UNL     1       1.023   9.946  21.560  1.00  0.00     0.012 C 
BRANCH   2   6
HETATM    6  C2  UNL     1       2.662  11.846  21.552  1.00  0.00     0.124 C 
BRANCH   6   7
HETATM    7  C1  UNL     1       1.496  12.727  21.477  1.00  0.00     0.173 C 
HETATM    8  O1  UNL     1       1.023  13.025  20.357  1.00  0.00    -0.648 OA
HETATM    9  O2  UNL     1       0.895  13.245  22.616  1.00  0.00    -0.648 OA
ENDBRANCH   6   7
ENDBRANCH   2   6
ENDBRANCH   1   2
BRANCH   1  10
HETATM   10  O3  UNL     1       3.901  10.167  23.787  1.00  0.00    -0.320 OA
BRANCH  10  11
HETATM   11  C5  UNL     1       4.345   9.517  24.912  1.00  0.00     0.263 C 
HETATM   12  O4  UNL     1       4.801  10.186  25.860  1.00  0.00    -0.265 OA
BRANCH  11  13
HETATM   13  C6  UNL     1       4.272   8.023  24.984  1.00  0.00     0.085 C 
HETATM   14  C7  UNL     1       4.804   7.365  23.765  1.00  0.00     0.014 C 
HETATM   15  C8  UNL     1       6.068   6.618  23.921  1.00  0.00     0.001 C 
HETATM   16  C9  UNL     1       6.188   5.798  25.166  1.00  0.00     0.000 C 
HETATM   17  C10 UNL     1       5.181   6.142  26.222  1.00  0.00     0.001 C 
HETATM   18  C11 UNL     1       4.966   7.616  26.261  1.00  0.00     0.014 C 
ENDBRANCH  11  13
ENDBRANCH  10  11
ENDBRANCH   1  10
TORSDOF 6
ENDMDL
MODEL 3
REMARK VINA RESULT: -7.617028444      1.620      2.931
REMARK  6 active torsions:
REMARK  status: ('A' for Active; 'I' for Inactive)
REMARK    1  A    between atoms: C1_2  and  C2_4 
REMARK    2  A    between atoms: C2_4  and  C3_5 
REMARK    3  A    between atoms: C3_5  and  C4_6 
REMARK    4  A    between atoms: C4_6  and  O3_7 
REMARK    5  A    between atoms: O3_7  and  C5_8 
REMARK    6  A    between atoms: C5_8  and  C6_10 
ROOT
HETATM    1  C4  UNL     1       2.255  10.268  22.300  1.00  0.00     0.188 C 
ENDROOT
BRANCH   1   2
HETATM    2  C3  UNL     1       2.402  11.763  22.565  1.00  0.00    -0.009 C 
HETATM    3  C12 UNL     1       1.296  12.328  23.392  1.00  0.00     0.012 C 
HETATM    4  C13 UNL     1       2.299  12.924  24.325  1.00  0.00     0.002 C 
HETATM    5  C14 UNL     1       3.378  12.086  23.645  1.00  0.00     0.012 C 
BRANCH   2   6
HETATM    6  C2  UNL     1       2.695  12.463  21.260  1.00  0.00     0.124 C 
BRANCH   6   7
HETATM    7  C1  UNL     1       1.497  12.826  20.502  1.00  0.00     0.173 C 
HETATM    8  O1  UNL     1       0.848  11.931  19.913  1.00  0.00    -0.648 OA
HETATM    9  O2  UNL     1       1.056  14.139  20.414  1.00  0.00    -0.648 OA
ENDBRANCH   6   7
ENDBRANCH   2   6
ENDBRANCH   1   2
BRANCH   1  10
HETATM   10  O3  UNL     1       3.092   9.612  23.257  1.00  0.00    -0.320 OA
BRANCH  10  11
HETATM   11  C5  UNL     1       4.012   8.661  22.886  1.00  0.00     0.263 C 
HETATM   12  O4  UNL     1       3.956   8.177  21.739  1.00  0.00    -0.265 OA
BRANCH  11  13
HETATM   13  C6  UNL     1       5.064   8.226  23.859  1.00  0.00     0.085 C 
HETATM   14  C7  UNL     1       4.877   8.819  25.206  1.00  0.00     0.014 C 
HETATM   15  C8  UNL     1       4.482   7.891  26.283  1.00  0.00     0.001 C 
HETATM   16  C9  UNL     1       5.174   6.565  26.283  1.00  0.00     0.000 C 
HETATM   17  C10 UNL     1       5.881   6.245  25.001  1.00  0.00     0.001 C 
HETATM   18  C11 UNL     1       5.072   6.717  23.842  1.00  0.00     0.014 C 
ENDBRANCH  11  13
ENDBRANCH  10  11
ENDBRANCH   1  10
TORSDOF 6
ENDMDL
MODEL 4
REMARK VINA RESULT: -7.488710636      0.604      1.325
REMARK  6 active torsions:
REMARK  status: ('A' for Active; 'I' for Inactive)
REMARK    1  A    between atoms: C1_2  and  C2_4 
REMARK    2  A    between atoms: C2_4  and  C3_5 
REMARK    3  A    between atoms: C3_5  and  C4_6 
REMARK    4  A    between atoms: C4_6  and  O3_7 
REMARK    5  A    between atoms: O3_7  and  C5_8 
REMARK    6  A    between atoms: C5_8  and  C6_10 
ROOT
HETATM    1  C4  UNL     1       2.011  10.053  22.467  1.00  0.00     0.188 C 
ENDROOT
BRANCH   1   2
HETATM    2  C3  UNL     1       1.957   9.628  21.002  1.00  0.00    -0.009 C 
HETATM    3  C12 UNL     1       2.610   8.312  20.745  1.00  0.00     0.012 C 
HETATM    4  C13 UNL     1       1.376   7.837  20.050  1.00  0.00     0.002 C 
HETATM    5  C14 UNL     1       0.641   9.060  20.592  1.00  0.00     0.012 C 
BRANCH   2   6
HETATM    6  C2  UNL     1       2.408  10.785  20.143  1.00  0.00     0.124 C 
BRANCH   6   7
HETATM    7  C1  UNL     1       1.950  12.091  20.620  1.00  0.00     0.173 C 
HETATM    8  O1  UNL     1       0.826  12.513  20.266  1.00  0.00    -0.648 OA
HETATM    9  O2  UNL     1       2.727  12.879  21.458  1.00  0.00    -0.648 OA
ENDBRANCH   6   7
ENDBRANCH   2   6
ENDBRANCH   1   2
BRANCH   1  10
HETATM   10  O3  UNL     1       3.339   9.766  22.914  1.00  0.00    -0.320 OA
BRANCH  10  11
HETATM   11  C5  UNL     1       3.627   9.547  24.239  1.00  0.00     0.263 C 
HETATM   12  O4  UNL     1       2.901  10.063  25.111  1.00  0.00    -0.265 OA
BRANCH  11  13
HETATM   13  C6  UNL     1       4.801   8.697  24.613  1.00  0.00     0.085 C 
HETATM   14  C7  UNL     1       4.858   8.407  26.068  1.00  0.00     0.014 C 
HETATM   15  C8  UNL     1       4.601   7.011  26.470  1.00  0.00     0.001 C 
HETATM   16  C9  UNL     1       5.227   5.961  25.607  1.00  0.00     0.000 C 
HETATM   17  C10 UNL     1       5.705   6.468  24.280  1.00  0.00     0.001 C 
HETATM   18  C11 UNL     1       4.743   7.468  23.738  1.00  0.00     0.014 C 
ENDBRANCH  11  13
ENDBRANCH  10  11
ENDBRANCH   1  10
TORSDOF 6
ENDMDL
MODEL 5
REMARK VINA RESULT: -7.468620974      4.866      9.223
REMARK  6 active torsions:
REMARK  status: ('A' for Active; 'I' for Inactive)
REMARK    1  A    between atoms: C1_2  and  C2_4 
REMARK    2  A    between atoms: C2_4  and  C3_5 
REMARK    3  A    between atoms: C3_5  and  C4_6 
REMARK    4  A    between atoms: C4_6  and  O3_7 
REMARK    5  A    between atoms: O3_7  and  C5_8 
REMARK    6  A    between atoms: C5_8  and  C6_10 
ROOT
HETATM    1  C4  UNL     1       7.711   4.245  27.088  1.00  0.00     0.188 C 
ENDROOT
BRANCH   1   2
HETATM    2  C3  UNL     1       7.343   4.223  28.569  1.00  0.00    -0.009 C 
HETATM    3  C12 UNL     1       8.399   4.802  29.450  1.00  0.00     0.012 C 
HETATM    4  C13 UNL     1       7.382   5.697  30.079  1.00  0.00     0.002 C 
HETATM    5  C14 UNL     1       6.407   5.312  28.970  1.00  0.00     0.012 C 
BRANCH   2   6
HETATM    6  C2  UNL     1       6.848   2.842  28.926  1.00  0.00     0.124 C 
BRANCH   6   7
HETATM    7  C1  UNL     1       7.666   1.759  28.376  1.00  0.00     0.173 C 
HETATM    8  O1  UNL     1       7.220   1.076  27.427  1.00  0.00    -0.648 OA
HETATM    9  O2  UNL     1       8.927   1.466  28.877  1.00  0.00    -0.648 OA
ENDBRANCH   6   7
ENDBRANCH   2   6
ENDBRANCH   1   2
BRANCH   1  10
HETATM   10  O3  UNL     1       6.514   4.595  26.388  1.00  0.00    -0.320 OA
BRANCH  10  11
HETATM   11  C5  UNL     1       6.503   5.550  25.400  1.00  0.00     0.263 C 
HETATM   12  O4  UNL     1       7.567   5.830  24.815  1.00  0.00    -0.265 OA
BRANCH  11  13
HETATM   13  C6  UNL     1       5.220   6.234  25.044  1.00  0.00     0.085 C 
HETATM   14  C7  UNL     1       4.667   7.033  26.165  1.00  0.00     0.014 C 
HETATM   15  C8  UNL     1       4.688   8.500  25.999  1.00  0.00     0.001 C 
HETATM   16  C9  UNL     1       4.318   9.005  24.641  1.00  0.00     0.000 C 
HETATM   17  C10 UNL     1       4.339   7.953  23.572  1.00  0.00     0.001 C 
HETATM   18  C11 UNL     1       5.488   7.030  23.789  1.00  0.00     0.014 C 
ENDBRANCH  11  13
ENDBRANCH  10  11
ENDBRANCH   1  10
TORSDOF 6
ENDMDL
