MODEL 1
REMARK VINA RESULT: -3.657934568      0.000      0.000
REMARK  0 active torsions:
REMARK  status: ('A' for Active; 'I' for Inactive)
ROOT
HETATM    1  C1  UNL     1      48.430  33.210  38.632  1.00  0.00     0.056 A 
HETATM    2  C2  UNL     1      49.840  33.520  39.095  1.00  0.00     0.241 A 
HETATM    3  N1  UNL     1      49.553  34.925  39.187  1.00  0.00    -0.042 N 
HETATM    4  C3  UNL     1      48.185  34.695  38.751  1.00  0.00     0.241 A 
HETATM    5  C4  UNL     1      50.363  35.692  38.274  1.00  0.00     0.267 C 
HETATM    6  C5  UNL     1      50.685  36.974  38.983  1.00  0.00     0.262 C 
HETATM    7  N2  UNL     1      50.477  36.699  40.372  1.00  0.00    -0.049 N 
ATOM      8  H21 UNL     1      50.079  37.494  40.872  1.00  0.00     0.279 HD
ATOM      9  H22 UNL     1      51.352  36.630  40.892  1.00  0.00     0.279 HD
HETATM   10  C6  UNL     1      49.674  35.520  40.489  1.00  0.00     0.467 C 
ENDROOT
TORSDOF 0
ENDMDL
MODEL 2
REMARK VINA RESULT: -3.450851423      0.749      1.724
REMARK  0 active torsions:
REMARK  status: ('A' for Active; 'I' for Inactive)
ROOT
HETATM    1  C1  UNL     1      48.383  33.090  38.594  1.00  0.00     0.056 A 
HETATM    2  C2  UNL     1      48.085  34.576  38.606  1.00  0.00     0.241 A 
HETATM    3  N1  UNL     1      49.430  34.892  39.004  1.00  0.00    -0.042 N 
HETATM    4  C3  UNL     1      49.782  33.481  39.007  1.00  0.00     0.241 A 
HETATM    5  C4  UNL     1      49.464  35.532  40.295  1.00  0.00     0.267 C 
HETATM    6  C5  UNL     1      50.566  36.547  40.224  1.00  0.00     0.262 C 
HETATM    7  N2  UNL     1      50.777  36.779  38.828  1.00  0.00    -0.049 N 
ATOM      8  H21 UNL     1      51.760  36.922  38.600  1.00  0.00     0.279 HD
ATOM      9  H22 UNL     1      50.428  37.689  38.526  1.00  0.00     0.279 HD
HETATM   10  C6  UNL     1      50.194  35.698  38.092  1.00  0.00     0.467 C 
ENDROOT
TORSDOF 0
ENDMDL
MODEL 3
REMARK VINA RESULT: -3.348562364      1.310      2.422
REMARK  0 active torsions:
REMARK  status: ('A' for Active; 'I' for Inactive)
ROOT
HETATM    1  C1  UNL     1      49.509  35.988  36.739  1.00  0.00     0.056 A 
HETATM    2  C2  UNL     1      50.654  35.703  37.689  1.00  0.00     0.241 A 
HETATM    3  N1  UNL     1      49.756  35.232  38.707  1.00  0.00    -0.042 N 
HETATM    4  C3  UNL     1      48.613  35.479  37.842  1.00  0.00     0.241 A 
HETATM    5  C4  UNL     1      49.815  36.055  39.890  1.00  0.00     0.267 C 
HETATM    6  C5  UNL     1      49.647  35.122  41.052  1.00  0.00     0.262 C 
HETATM    7  N2  UNL     1      49.975  33.825  40.546  1.00  0.00    -0.049 N 
ATOM      8  H21 UNL     1      49.389  33.091  40.944  1.00  0.00     0.279 HD
ATOM      9  H22 UNL     1      50.875  33.488  40.888  1.00  0.00     0.279 HD
HETATM   10  C6  UNL     1      49.912  33.863  39.116  1.00  0.00     0.467 C 
ENDROOT
TORSDOF 0
ENDMDL
MODEL 4
REMARK VINA RESULT: -3.151513953      1.103      3.186
REMARK  0 active torsions:
REMARK  status: ('A' for Active; 'I' for Inactive)
ROOT
HETATM    1  C1  UNL     1      50.765  36.776  38.607  1.00  0.00     0.056 A 
HETATM    2  C2  UNL     1      49.651  36.328  39.533  1.00  0.00     0.241 A 
HETATM    3  N1  UNL     1      49.462  35.109  38.794  1.00  0.00    -0.042 N 
HETATM    4  C3  UNL     1      50.525  35.479  37.872  1.00  0.00     0.241 A 
HETATM    5  C4  UNL     1      48.145  35.042  38.210  1.00  0.00     0.267 C 
HETATM    6  C5  UNL     1      47.731  33.602  38.289  1.00  0.00     0.262 C 
HETATM    7  N2  UNL     1      48.564  33.024  39.298  1.00  0.00    -0.049 N 
ATOM      8  H21 UNL     1      48.840  32.068  39.076  1.00  0.00     0.279 HD
ATOM      9  H22 UNL     1      48.056  32.828  40.160  1.00  0.00     0.279 HD
HETATM   10  C6  UNL     1      49.690  33.884  39.509  1.00  0.00     0.467 C 
ENDROOT
TORSDOF 0
ENDMDL
MODEL 5
REMARK VINA RESULT: -2.973860234      1.120      3.303
REMARK  0 active torsions:
REMARK  status: ('A' for Active; 'I' for Inactive)
ROOT
HETATM    1  C1  UNL     1      50.757  36.633  38.913  1.00  0.00     0.056 A 
HETATM    2  C2  UNL     1      50.504  35.594  37.839  1.00  0.00     0.241 A 
HETATM    3  N1  UNL     1      49.391  35.045  38.564  1.00  0.00    -0.042 N 
HETATM    4  C3  UNL     1      49.579  36.019  39.629  1.00  0.00     0.241 A 
HETATM    5  C4  UNL     1      49.630  33.674  38.943  1.00  0.00     0.267 C 
HETATM    6  C5  UNL     1      48.306  32.978  38.832  1.00  0.00     0.262 C 
HETATM    7  N2  UNL     1      47.516  33.805  37.972  1.00  0.00    -0.049 N 
ATOM      8  H21 UNL     1      46.535  33.835  38.252  1.00  0.00     0.279 HD
ATOM      9  H22 UNL     1      47.385  33.395  37.047  1.00  0.00     0.279 HD
HETATM   10  C6  UNL     1      48.111  35.106  37.916  1.00  0.00     0.467 C 
ENDROOT
TORSDOF 0
ENDMDL
