MODEL 1
REMARK VINA RESULT: -8.728689494      0.000      0.000
REMARK  13 active torsions:
REMARK  status: ('A' for Active; 'I' for Inactive)
REMARK       I    between atoms: N1_2  and  C2_4 
REMARK       I    between atoms: C2_4  and  N10_42 
REMARK    1  A    between atoms: N2_5  and  C3_7 
REMARK    2  A    between atoms: C3_7  and  C5_9 
REMARK    3  A    between atoms: C5_9  and  C6_10 
REMARK    4  A    between atoms: C6_10  and  C7_11 
REMARK    5  A    between atoms: C8_14  and  C9_15 
REMARK    6  A    between atoms: C9_15  and  C10_16 
REMARK    7  A    between atoms: C10_16  and  C11_17 
REMARK    8  A    between atoms: C11_17  and  C12_18 
REMARK       I    between atoms: C12_18  and  N4_20 
REMARK    9  A    between atoms: C18_29  and  C19_30 
REMARK   10  A    between atoms: C19_30  and  C20_31 
REMARK   11  A    between atoms: C20_31  and  C21_32 
REMARK   12  A    between atoms: C21_32  and  N6_33 
REMARK   13  A    between atoms: N10_42  and  C25_44 
ROOT
HETATM    1  C7  UNL     1      -8.113  15.938  26.792  1.00  0.00     0.210 C 
HETATM    2  N3  UNL     1      -6.992  16.935  27.028  1.00  0.00    -0.364 N 
ATOM      3  H3  UNL     1      -6.556  16.939  27.950  1.00  0.00     0.162 HD
HETATM    4  C8  UNL     1      -6.536  17.799  26.139  1.00  0.00     0.075 C 
HETATM    5  C17 UNL     1      -6.824  18.154  24.764  1.00  0.00     0.264 C 
HETATM    6  O2  UNL     1      -6.219  19.179  24.331  1.00  0.00    -0.266 OA
HETATM    7  N5  UNL     1      -7.675  17.583  23.749  1.00  0.00    -0.343 N 
ATOM      8  H5  UNL     1      -7.211  17.544  22.842  1.00  0.00     0.163 HD
HETATM    9  C18 UNL     1      -9.011  17.053  23.691  1.00  0.00     0.177 C 
HETATM   10  C23 UNL     1      -9.659  17.057  25.040  1.00  0.00     0.244 C 
HETATM   11  O3  UNL     1     -10.864  17.349  25.055  1.00  0.00    -0.271 OA
HETATM   12  N9  UNL     1      -9.171  16.786  26.378  1.00  0.00    -0.330 N 
HETATM   13  C24 UNL     1      -9.850  17.578  27.359  1.00  0.00     0.155 C 
ENDROOT
BRANCH   1  14
HETATM   14  C6  UNL     1      -8.171  15.096  27.973  1.00  0.00     0.021 C 
BRANCH  14  15
HETATM   15  C5  UNL     1      -7.851  15.491  29.331  1.00  0.00     0.025 C 
BRANCH  15  16
HETATM   16  C3  UNL     1      -8.768  16.166  30.271  1.00  0.00     0.022 C 
HETATM   17  C4  UNL     1      -8.195  17.454  30.768  1.00  0.00     0.068 C 
BRANCH  16  18
HETATM   18  N2  UNL     1      -9.428  15.352  31.234  1.00  0.00    -0.196 N 
HETATM   19  C2  UNL     1     -10.595  14.868  31.025  1.00  0.00     0.674 C 
HETATM   20  N1  UNL     1     -11.239  14.055  32.003  1.00  0.00    -0.231 N 
HETATM   21  N10 UNL     1     -11.321  15.114  29.810  1.00  0.00    -0.222 N 
HETATM   22  C1  UNL     1     -12.392  14.555  32.746  1.00  0.00     0.165 C 
ATOM     23  H1  UNL     1     -10.890  13.114  32.186  1.00  0.00     0.177 HD
ATOM     24  H10 UNL     1     -11.825  15.996  29.720  1.00  0.00     0.178 HD
ATOM     25  H2  UNL     1      -8.958  15.147  32.117  1.00  0.00     0.184 HD
BRANCH  21  26
HETATM   26  C25 UNL     1     -11.376  14.187  28.717  1.00  0.00     0.099 C 
HETATM   27  C26 UNL     1     -12.143  12.923  29.045  1.00  0.00     0.026 C 
HETATM   28  C27 UNL     1     -13.583  13.351  29.024  1.00  0.00     0.002 C 
HETATM   29  C28 UNL     1     -13.629  14.699  28.329  1.00  0.00     0.002 C 
HETATM   30  C29 UNL     1     -12.272  14.811  27.647  1.00  0.00     0.026 C 
ENDBRANCH  21  26
ENDBRANCH  16  18
ENDBRANCH  15  16
ENDBRANCH  14  15
ENDBRANCH   1  14
BRANCH   4  31
HETATM   31  C9  UNL     1      -5.423  18.621  26.722  1.00  0.00     0.063 C 
BRANCH  31  32
HETATM   32  C10 UNL     1      -4.131  17.882  26.775  1.00  0.00     0.015 C 
BRANCH  32  33
HETATM   33  C11 UNL     1      -3.279  18.228  25.585  1.00  0.00     0.103 C 
BRANCH  33  34
HETATM   34  C12 UNL     1      -2.962  17.082  24.728  1.00  0.00     0.219 C 
HETATM   35  O1  UNL     1      -2.975  15.893  25.130  1.00  0.00    -0.273 OA
HETATM   36  N4  UNL     1      -2.620  17.379  23.362  1.00  0.00    -0.352 N 
HETATM   37  C13 UNL     1      -2.565  18.684  22.766  1.00  0.00     0.126 C 
HETATM   38  C16 UNL     1      -2.276  16.361  22.384  1.00  0.00     0.126 C 
HETATM   39  C14 UNL     1      -2.130  18.462  21.339  1.00  0.00     0.021 C 
HETATM   40  C15 UNL     1      -1.420  17.137  21.405  1.00  0.00     0.021 C 
ENDBRANCH  33  34
ENDBRANCH  32  33
ENDBRANCH  31  32
ENDBRANCH   4  31
BRANCH   9  41
HETATM   41  C19 UNL     1      -9.025  15.687  23.074  1.00  0.00     0.036 C 
BRANCH  41  42
HETATM   42  C20 UNL     1      -9.782  15.656  21.788  1.00  0.00     0.022 C 
BRANCH  42  43
HETATM   43  C21 UNL     1      -9.308  16.700  20.803  1.00  0.00     0.122 C 
BRANCH  43  44
HETATM   44  N6  UNL     1      -7.971  16.346  20.400  1.00  0.00    -0.367 N 
HETATM   45  C22 UNL     1      -7.001  17.213  20.401  1.00  0.00     0.196 C 
HETATM   46  N7  UNL     1      -5.678  16.821  19.992  1.00  0.00    -0.067 NA
HETATM   47  N8  UNL     1      -7.300  18.526  20.814  1.00  0.00    -0.067 NA
ATOM     48  H6  UNL     1      -7.779  15.389  20.105  1.00  0.00     0.161 HD
ENDBRANCH  43  44
ENDBRANCH  42  43
ENDBRANCH  41  42
ENDBRANCH   9  41
TORSDOF 13
ENDMDL
MODEL 2
REMARK VINA RESULT: -8.706692315      2.962      7.024
REMARK  13 active torsions:
REMARK  status: ('A' for Active; 'I' for Inactive)
REMARK       I    between atoms: N1_2  and  C2_4 
REMARK       I    between atoms: C2_4  and  N10_42 
REMARK    1  A    between atoms: N2_5  and  C3_7 
REMARK    2  A    between atoms: C3_7  and  C5_9 
REMARK    3  A    between atoms: C5_9  and  C6_10 
REMARK    4  A    between atoms: C6_10  and  C7_11 
REMARK    5  A    between atoms: C8_14  and  C9_15 
REMARK    6  A    between atoms: C9_15  and  C10_16 
REMARK    7  A    between atoms: C10_16  and  C11_17 
REMARK    8  A    between atoms: C11_17  and  C12_18 
REMARK       I    between atoms: C12_18  and  N4_20 
REMARK    9  A    between atoms: C18_29  and  C19_30 
REMARK   10  A    between atoms: C19_30  and  C20_31 
REMARK   11  A    between atoms: C20_31  and  C21_32 
REMARK   12  A    between atoms: C21_32  and  N6_33 
REMARK   13  A    between atoms: N10_42  and  C25_44 
ROOT
HETATM    1  C7  UNL     1     -10.486  14.933  28.475  1.00  0.00     0.210 C 
HETATM    2  N3  UNL     1     -10.970  15.497  27.150  1.00  0.00    -0.364 N 
ATOM      3  H3  UNL     1     -11.545  14.890  26.566  1.00  0.00     0.162 HD
HETATM    4  C8  UNL     1     -10.709  16.708  26.692  1.00  0.00     0.075 C 
HETATM    5  C17 UNL     1      -9.972  17.872  27.139  1.00  0.00     0.264 C 
HETATM    6  O2  UNL     1      -9.858  18.803  26.287  1.00  0.00    -0.266 OA
HETATM    7  N5  UNL     1      -9.317  18.217  28.378  1.00  0.00    -0.343 N 
ATOM      8  H5  UNL     1      -9.513  19.178  28.656  1.00  0.00     0.163 HD
HETATM    9  C18 UNL     1      -8.460  17.550  29.319  1.00  0.00     0.177 C 
HETATM   10  C23 UNL     1      -8.231  16.122  28.934  1.00  0.00     0.244 C 
HETATM   11  O3  UNL     1      -7.084  15.692  29.128  1.00  0.00    -0.271 OA
HETATM   12  N9  UNL     1      -9.083  15.098  28.361  1.00  0.00    -0.330 N 
HETATM   13  C24 UNL     1      -8.345  14.208  27.517  1.00  0.00     0.155 C 
ENDROOT
BRANCH   1  14
HETATM   14  C6  UNL     1     -11.136  13.645  28.637  1.00  0.00     0.021 C 
BRANCH  14  15
HETATM   15  C5  UNL     1     -12.564  13.399  28.686  1.00  0.00     0.025 C 
BRANCH  15  16
HETATM   16  C3  UNL     1     -13.429  13.576  29.869  1.00  0.00     0.022 C 
HETATM   17  C4  UNL     1     -14.382  14.714  29.688  1.00  0.00     0.068 C 
BRANCH  16  18
HETATM   18  N2  UNL     1     -12.814  13.461  31.148  1.00  0.00    -0.196 N 
HETATM   19  C2  UNL     1     -13.202  12.596  32.009  1.00  0.00     0.674 C 
HETATM   20  N1  UNL     1     -12.572  12.497  33.284  1.00  0.00    -0.231 N 
HETATM   21  N10 UNL     1     -14.281  11.686  31.749  1.00  0.00    -0.222 N 
HETATM   22  C1  UNL     1     -13.272  12.919  34.495  1.00  0.00     0.165 C 
ATOM     23  H1  UNL     1     -11.624  12.128  33.352  1.00  0.00     0.177 HD
ATOM     24  H10 UNL     1     -15.237  12.024  31.870  1.00  0.00     0.178 HD
ATOM     25  H2  UNL     1     -12.043  14.085  31.385  1.00  0.00     0.184 HD
BRANCH  21  26
HETATM   26  C25 UNL     1     -14.091  10.327  31.331  1.00  0.00     0.099 C 
HETATM   27  C26 UNL     1     -13.193   9.537  32.260  1.00  0.00     0.026 C 
HETATM   28  C27 UNL     1     -14.056   9.264  33.460  1.00  0.00     0.002 C 
HETATM   29  C28 UNL     1     -15.487   9.550  33.045  1.00  0.00     0.002 C 
HETATM   30  C29 UNL     1     -15.427   9.608  31.524  1.00  0.00     0.026 C 
ENDBRANCH  21  26
ENDBRANCH  16  18
ENDBRANCH  15  16
ENDBRANCH  14  15
ENDBRANCH   1  14
BRANCH   4  31
HETATM   31  C9  UNL     1     -11.355  16.919  25.353  1.00  0.00     0.063 C 
BRANCH  31  32
HETATM   32  C10 UNL     1     -10.966  15.881  24.358  1.00  0.00     0.015 C 
BRANCH  32  33
HETATM   33  C11 UNL     1      -9.520  16.037  23.976  1.00  0.00     0.103 C 
BRANCH  33  34
HETATM   34  C12 UNL     1      -9.309  16.330  22.556  1.00  0.00     0.219 C 
HETATM   35  O1  UNL     1      -9.917  15.741  21.630  1.00  0.00    -0.273 OA
HETATM   36  N4  UNL     1      -8.344  17.353  22.250  1.00  0.00    -0.352 N 
HETATM   37  C13 UNL     1      -7.577  18.108  23.202  1.00  0.00     0.126 C 
HETATM   38  C16 UNL     1      -8.014  17.762  20.896  1.00  0.00     0.126 C 
HETATM   39  C14 UNL     1      -6.696  19.019  22.384  1.00  0.00     0.021 C 
HETATM   40  C15 UNL     1      -6.610  18.307  21.061  1.00  0.00     0.021 C 
ENDBRANCH  33  34
ENDBRANCH  32  33
ENDBRANCH  31  32
ENDBRANCH   4  31
BRANCH   9  41
HETATM   41  C19 UNL     1      -8.994  17.667  30.715  1.00  0.00     0.036 C 
BRANCH  41  42
HETATM   42  C20 UNL     1      -7.967  17.329  31.744  1.00  0.00     0.022 C 
BRANCH  42  43
HETATM   43  C21 UNL     1      -8.355  16.137  32.590  1.00  0.00     0.122 C 
BRANCH  43  44
HETATM   44  N6  UNL     1      -9.244  16.606  33.624  1.00  0.00    -0.367 N 
HETATM   45  C22 UNL     1     -10.447  16.133  33.761  1.00  0.00     0.196 C 
HETATM   46  N7  UNL     1     -11.305  16.626  34.806  1.00  0.00    -0.067 NA
HETATM   47  N8  UNL     1     -10.864  15.135  32.857  1.00  0.00    -0.067 NA
ATOM     48  H6  UNL     1      -8.920  17.328  34.265  1.00  0.00     0.161 HD
ENDBRANCH  43  44
ENDBRANCH  42  43
ENDBRANCH  41  42
ENDBRANCH   9  41
TORSDOF 13
ENDMDL
MODEL 3
REMARK VINA RESULT: -8.626762525      1.261      1.605
REMARK  13 active torsions:
REMARK  status: ('A' for Active; 'I' for Inactive)
REMARK       I    between atoms: N1_2  and  C2_4 
REMARK       I    between atoms: C2_4  and  N10_42 
REMARK    1  A    between atoms: N2_5  and  C3_7 
REMARK    2  A    between atoms: C3_7  and  C5_9 
REMARK    3  A    between atoms: C5_9  and  C6_10 
REMARK    4  A    between atoms: C6_10  and  C7_11 
REMARK    5  A    between atoms: C8_14  and  C9_15 
REMARK    6  A    between atoms: C9_15  and  C10_16 
REMARK    7  A    between atoms: C10_16  and  C11_17 
REMARK    8  A    between atoms: C11_17  and  C12_18 
REMARK       I    between atoms: C12_18  and  N4_20 
REMARK    9  A    between atoms: C18_29  and  C19_30 
REMARK   10  A    between atoms: C19_30  and  C20_31 
REMARK   11  A    between atoms: C20_31  and  C21_32 
REMARK   12  A    between atoms: C21_32  and  N6_33 
REMARK   13  A    between atoms: N10_42  and  C25_44 
ROOT
HETATM    1  C7  UNL     1      -7.407  16.770  27.193  1.00  0.00     0.210 C 
HETATM    2  N3  UNL     1      -6.201  17.640  26.880  1.00  0.00    -0.364 N 
ATOM      3  H3  UNL     1      -5.533  17.801  27.633  1.00  0.00     0.162 HD
HETATM    4  C8  UNL     1      -5.947  18.205  25.714  1.00  0.00     0.075 C 
HETATM    5  C17 UNL     1      -6.573  18.265  24.408  1.00  0.00     0.264 C 
HETATM    6  O2  UNL     1      -6.042  19.073  23.589  1.00  0.00    -0.266 OA
HETATM    7  N5  UNL     1      -7.702  17.589  23.817  1.00  0.00    -0.343 N 
ATOM      8  H5  UNL     1      -7.504  17.280  22.865  1.00  0.00     0.163 HD
HETATM    9  C18 UNL     1      -9.034  17.240  24.228  1.00  0.00     0.177 C 
HETATM   10  C23 UNL     1      -9.292  17.642  25.646  1.00  0.00     0.244 C 
HETATM   11  O3  UNL     1     -10.427  18.085  25.879  1.00  0.00    -0.271 OA
HETATM   12  N9  UNL     1      -8.479  17.630  26.846  1.00  0.00    -0.330 N 
HETATM   13  C24 UNL     1      -8.815  18.710  27.724  1.00  0.00     0.155 C 
ENDROOT
BRANCH   1  14
HETATM   14  C6  UNL     1      -7.198  16.241  28.529  1.00  0.00     0.021 C 
BRANCH  14  15
HETATM   15  C5  UNL     1      -8.178  15.559  29.350  1.00  0.00     0.025 C 
BRANCH  15  16
HETATM   16  C3  UNL     1      -8.983  16.175  30.424  1.00  0.00     0.022 C 
HETATM   17  C4  UNL     1      -8.284  17.351  31.027  1.00  0.00     0.068 C 
BRANCH  16  18
HETATM   18  N2  UNL     1      -9.643  15.297  31.329  1.00  0.00    -0.196 N 
HETATM   19  C2  UNL     1     -10.793  14.798  31.068  1.00  0.00     0.674 C 
HETATM   20  N1  UNL     1     -11.438  13.919  31.988  1.00  0.00    -0.231 N 
HETATM   21  N10 UNL     1     -11.498  15.088  29.851  1.00  0.00    -0.222 N 
HETATM   22  C1  UNL     1     -12.619  14.353  32.729  1.00  0.00     0.165 C 
ATOM     23  H1  UNL     1     -11.070  12.979  32.130  1.00  0.00     0.177 HD
ATOM     24  H10 UNL     1     -12.022  15.962  29.795  1.00  0.00     0.178 HD
ATOM     25  H2  UNL     1      -9.188  15.058  32.210  1.00  0.00     0.184 HD
BRANCH  21  26
HETATM   26  C25 UNL     1     -11.506  14.218  28.710  1.00  0.00     0.099 C 
HETATM   27  C26 UNL     1     -12.862  13.600  28.442  1.00  0.00     0.026 C 
HETATM   28  C27 UNL     1     -13.667  14.723  27.850  1.00  0.00     0.002 C 
HETATM   29  C28 UNL     1     -12.680  15.802  27.446  1.00  0.00     0.002 C 
HETATM   30  C29 UNL     1     -11.329  15.100  27.474  1.00  0.00     0.026 C 
ENDBRANCH  21  26
ENDBRANCH  16  18
ENDBRANCH  15  16
ENDBRANCH  14  15
ENDBRANCH   1  14
BRANCH   4  31
HETATM   31  C9  UNL     1      -4.667  18.988  25.772  1.00  0.00     0.063 C 
BRANCH  31  32
HETATM   32  C10 UNL     1      -3.467  18.116  25.909  1.00  0.00     0.015 C 
BRANCH  32  33
HETATM   33  C11 UNL     1      -3.598  16.902  25.031  1.00  0.00     0.103 C 
BRANCH  33  34
HETATM   34  C12 UNL     1      -2.817  16.977  23.794  1.00  0.00     0.219 C 
HETATM   35  O1  UNL     1      -3.021  17.833  22.898  1.00  0.00    -0.273 OA
HETATM   36  N4  UNL     1      -1.773  16.000  23.634  1.00  0.00    -0.352 N 
HETATM   37  C13 UNL     1      -1.428  14.967  24.571  1.00  0.00     0.126 C 
HETATM   38  C16 UNL     1      -0.911  15.933  22.467  1.00  0.00     0.126 C 
HETATM   39  C14 UNL     1      -0.303  14.195  23.929  1.00  0.00     0.021 C 
HETATM   40  C15 UNL     1      -0.493  14.477  22.463  1.00  0.00     0.021 C 
ENDBRANCH  33  34
ENDBRANCH  32  33
ENDBRANCH  31  32
ENDBRANCH   4  31
BRANCH   9  41
HETATM   41  C19 UNL     1      -9.304  15.781  24.008  1.00  0.00     0.036 C 
BRANCH  41  42
HETATM   42  C20 UNL     1     -10.393  15.551  23.014  1.00  0.00     0.022 C 
BRANCH  42  43
HETATM   43  C21 UNL     1     -10.183  16.315  21.726  1.00  0.00     0.122 C 
BRANCH  43  44
HETATM   44  N6  UNL     1      -8.941  15.866  21.149  1.00  0.00    -0.367 N 
HETATM   45  C22 UNL     1      -8.079  16.697  20.643  1.00  0.00     0.196 C 
HETATM   46  N7  UNL     1      -6.850  16.210  20.075  1.00  0.00    -0.067 NA
HETATM   47  N8  UNL     1      -8.399  18.069  20.674  1.00  0.00    -0.067 NA
ATOM     48  H6  UNL     1      -8.732  14.868  21.138  1.00  0.00     0.161 HD
ENDBRANCH  43  44
ENDBRANCH  42  43
ENDBRANCH  41  42
ENDBRANCH   9  41
TORSDOF 13
ENDMDL
MODEL 4
REMARK VINA RESULT: -8.618757895      0.994      1.099
REMARK  13 active torsions:
REMARK  status: ('A' for Active; 'I' for Inactive)
REMARK       I    between atoms: N1_2  and  C2_4 
REMARK       I    between atoms: C2_4  and  N10_42 
REMARK    1  A    between atoms: N2_5  and  C3_7 
REMARK    2  A    between atoms: C3_7  and  C5_9 
REMARK    3  A    between atoms: C5_9  and  C6_10 
REMARK    4  A    between atoms: C6_10  and  C7_11 
REMARK    5  A    between atoms: C8_14  and  C9_15 
REMARK    6  A    between atoms: C9_15  and  C10_16 
REMARK    7  A    between atoms: C10_16  and  C11_17 
REMARK    8  A    between atoms: C11_17  and  C12_18 
REMARK       I    between atoms: C12_18  and  N4_20 
REMARK    9  A    between atoms: C18_29  and  C19_30 
REMARK   10  A    between atoms: C19_30  and  C20_31 
REMARK   11  A    between atoms: C20_31  and  C21_32 
REMARK   12  A    between atoms: C21_32  and  N6_33 
REMARK   13  A    between atoms: N10_42  and  C25_44 
ROOT
HETATM    1  C7  UNL     1      -7.380  16.769  27.199  1.00  0.00     0.210 C 
HETATM    2  N3  UNL     1      -6.168  17.633  26.893  1.00  0.00    -0.364 N 
ATOM      3  H3  UNL     1      -5.503  17.791  27.651  1.00  0.00     0.162 HD
HETATM    4  C8  UNL     1      -5.903  18.196  25.728  1.00  0.00     0.075 C 
HETATM    5  C17 UNL     1      -6.520  18.258  24.418  1.00  0.00     0.264 C 
HETATM    6  O2  UNL     1      -5.980  19.063  23.602  1.00  0.00    -0.266 OA
HETATM    7  N5  UNL     1      -7.648  17.588  23.820  1.00  0.00    -0.343 N 
ATOM      8  H5  UNL     1      -7.446  17.277  22.870  1.00  0.00     0.163 HD
HETATM    9  C18 UNL     1      -8.985  17.245  24.223  1.00  0.00     0.177 C 
HETATM   10  C23 UNL     1      -9.251  17.650  25.638  1.00  0.00     0.244 C 
HETATM   11  O3  UNL     1     -10.384  18.098  25.864  1.00  0.00    -0.271 OA
HETATM   12  N9  UNL     1      -8.446  17.634  26.844  1.00  0.00    -0.330 N 
HETATM   13  C24 UNL     1      -8.782  18.717  27.719  1.00  0.00     0.155 C 
ENDROOT
BRANCH   1  14
HETATM   14  C6  UNL     1      -7.182  16.240  28.536  1.00  0.00     0.021 C 
BRANCH  14  15
HETATM   15  C5  UNL     1      -8.172  15.566  29.352  1.00  0.00     0.025 C 
BRANCH  15  16
HETATM   16  C3  UNL     1      -8.966  16.185  30.433  1.00  0.00     0.022 C 
HETATM   17  C4  UNL     1      -8.254  17.352  31.037  1.00  0.00     0.068 C 
BRANCH  16  18
HETATM   18  N2  UNL     1      -9.630  15.309  31.337  1.00  0.00    -0.196 N 
HETATM   19  C2  UNL     1     -10.777  14.806  31.071  1.00  0.00     0.674 C 
HETATM   20  N1  UNL     1     -11.425  13.930  31.991  1.00  0.00    -0.231 N 
HETATM   21  N10 UNL     1     -11.475  15.090  29.849  1.00  0.00    -0.222 N 
HETATM   22  C1  UNL     1     -12.612  14.364  32.723  1.00  0.00     0.165 C 
ATOM     23  H1  UNL     1     -11.056  12.991  32.139  1.00  0.00     0.177 HD
ATOM     24  H10 UNL     1     -12.000  15.962  29.786  1.00  0.00     0.178 HD
ATOM     25  H2  UNL     1      -9.179  15.075  32.222  1.00  0.00     0.184 HD
BRANCH  21  26
HETATM   26  C25 UNL     1     -11.474  14.215  28.712  1.00  0.00     0.099 C 
HETATM   27  C26 UNL     1     -12.827  13.591  28.440  1.00  0.00     0.026 C 
HETATM   28  C27 UNL     1     -13.633  14.708  27.839  1.00  0.00     0.002 C 
HETATM   29  C28 UNL     1     -12.648  15.790  27.435  1.00  0.00     0.002 C 
HETATM   30  C29 UNL     1     -11.295  15.092  27.473  1.00  0.00     0.026 C 
ENDBRANCH  21  26
ENDBRANCH  16  18
ENDBRANCH  15  16
ENDBRANCH  14  15
ENDBRANCH   1  14
BRANCH   4  31
HETATM   31  C9  UNL     1      -4.619  18.972  25.794  1.00  0.00     0.063 C 
BRANCH  31  32
HETATM   32  C10 UNL     1      -3.416  18.096  25.755  1.00  0.00     0.015 C 
BRANCH  32  33
HETATM   33  C11 UNL     1      -2.635  18.334  24.493  1.00  0.00     0.103 C 
BRANCH  33  34
HETATM   34  C12 UNL     1      -2.482  17.141  23.655  1.00  0.00     0.219 C 
HETATM   35  O1  UNL     1      -2.118  16.026  24.099  1.00  0.00    -0.273 OA
HETATM   36  N4  UNL     1      -2.774  17.301  22.255  1.00  0.00    -0.352 N 
HETATM   37  C13 UNL     1      -3.200  18.511  21.609  1.00  0.00     0.126 C 
HETATM   38  C16 UNL     1      -2.670  16.222  21.288  1.00  0.00     0.126 C 
HETATM   39  C14 UNL     1      -3.337  18.167  20.148  1.00  0.00     0.021 C 
HETATM   40  C15 UNL     1      -2.432  16.975  19.994  1.00  0.00     0.021 C 
ENDBRANCH  33  34
ENDBRANCH  32  33
ENDBRANCH  31  32
ENDBRANCH   4  31
BRANCH   9  41
HETATM   41  C19 UNL     1      -9.261  15.788  24.002  1.00  0.00     0.036 C 
BRANCH  41  42
HETATM   42  C20 UNL     1     -10.328  15.562  22.984  1.00  0.00     0.022 C 
BRANCH  42  43
HETATM   43  C21 UNL     1     -10.105  16.351  21.714  1.00  0.00     0.122 C 
BRANCH  43  44
HETATM   44  N6  UNL     1      -8.861  15.908  21.137  1.00  0.00    -0.367 N 
HETATM   45  C22 UNL     1      -7.998  16.744  20.640  1.00  0.00     0.196 C 
HETATM   46  N7  UNL     1      -6.766  16.263  20.072  1.00  0.00    -0.067 NA
HETATM   47  N8  UNL     1      -8.319  18.115  20.681  1.00  0.00    -0.067 NA
ATOM     48  H6  UNL     1      -8.651  14.910  21.119  1.00  0.00     0.161 HD
ENDBRANCH  43  44
ENDBRANCH  42  43
ENDBRANCH  41  42
ENDBRANCH   9  41
TORSDOF 13
ENDMDL
MODEL 5
REMARK VINA RESULT: -8.603992137      0.920      1.190
REMARK  13 active torsions:
REMARK  status: ('A' for Active; 'I' for Inactive)
REMARK       I    between atoms: N1_2  and  C2_4 
REMARK       I    between atoms: C2_4  and  N10_42 
REMARK    1  A    between atoms: N2_5  and  C3_7 
REMARK    2  A    between atoms: C3_7  and  C5_9 
REMARK    3  A    between atoms: C5_9  and  C6_10 
REMARK    4  A    between atoms: C6_10  and  C7_11 
REMARK    5  A    between atoms: C8_14  and  C9_15 
REMARK    6  A    between atoms: C9_15  and  C10_16 
REMARK    7  A    between atoms: C10_16  and  C11_17 
REMARK    8  A    between atoms: C11_17  and  C12_18 
REMARK       I    between atoms: C12_18  and  N4_20 
REMARK    9  A    between atoms: C18_29  and  C19_30 
REMARK   10  A    between atoms: C19_30  and  C20_31 
REMARK   11  A    between atoms: C20_31  and  C21_32 
REMARK   12  A    between atoms: C21_32  and  N6_33 
REMARK   13  A    between atoms: N10_42  and  C25_44 
ROOT
HETATM    1  C7  UNL     1      -8.215  16.036  26.898  1.00  0.00     0.210 C 
HETATM    2  N3  UNL     1      -7.141  17.085  27.126  1.00  0.00    -0.364 N 
ATOM      3  H3  UNL     1      -6.725  17.134  28.056  1.00  0.00     0.162 HD
HETATM    4  C8  UNL     1      -6.700  17.940  26.221  1.00  0.00     0.075 C 
HETATM    5  C17 UNL     1      -6.974  18.242  24.830  1.00  0.00     0.264 C 
HETATM    6  O2  UNL     1      -6.402  19.279  24.378  1.00  0.00    -0.266 OA
HETATM    7  N5  UNL     1      -7.779  17.607  23.816  1.00  0.00    -0.343 N 
ATOM      8  H5  UNL     1      -7.295  17.561  22.920  1.00  0.00     0.163 HD
HETATM    9  C18 UNL     1      -9.090  17.021  23.747  1.00  0.00     0.177 C 
HETATM   10  C23 UNL     1      -9.767  17.039  25.082  1.00  0.00     0.244 C 
HETATM   11  O3  UNL     1     -10.983  17.281  25.064  1.00  0.00    -0.271 OA
HETATM   12  N9  UNL     1      -9.297  16.828  26.437  1.00  0.00    -0.330 N 
HETATM   13  C24 UNL     1     -10.029  17.620  27.380  1.00  0.00     0.155 C 
ENDROOT
BRANCH   1  14
HETATM   14  C6  UNL     1      -8.264  15.227  28.103  1.00  0.00     0.021 C 
BRANCH  14  15
HETATM   15  C5  UNL     1      -7.939  15.662  29.447  1.00  0.00     0.025 C 
BRANCH  15  16
HETATM   16  C3  UNL     1      -8.845  16.385  30.362  1.00  0.00     0.022 C 
HETATM   17  C4  UNL     1      -8.384  17.788  30.595  1.00  0.00     0.068 C 
BRANCH  16  18
HETATM   18  N2  UNL     1      -9.322  15.676  31.500  1.00  0.00    -0.196 N 
HETATM   19  C2  UNL     1     -10.478  15.126  31.519  1.00  0.00     0.674 C 
HETATM   20  N1  UNL     1     -10.937  14.420  32.669  1.00  0.00    -0.231 N 
HETATM   21  N10 UNL     1     -11.374  15.186  30.398  1.00  0.00    -0.222 N 
HETATM   22  C1  UNL     1     -12.005  14.967  33.502  1.00  0.00     0.165 C 
ATOM     23  H1  UNL     1     -10.515  13.524  32.914  1.00  0.00     0.177 HD
ATOM     24  H10 UNL     1     -11.934  16.030  30.274  1.00  0.00     0.178 HD
ATOM     25  H2  UNL     1      -8.726  15.604  32.326  1.00  0.00     0.184 HD
BRANCH  21  26
HETATM   26  C25 UNL     1     -11.525  14.125  29.444  1.00  0.00     0.099 C 
HETATM   27  C26 UNL     1     -12.775  13.299  29.665  1.00  0.00     0.026 C 
HETATM   28  C27 UNL     1     -13.889  14.178  29.173  1.00  0.00     0.002 C 
HETATM   29  C28 UNL     1     -13.246  15.282  28.354  1.00  0.00     0.002 C 
HETATM   30  C29 UNL     1     -11.832  14.777  28.096  1.00  0.00     0.026 C 
ENDBRANCH  21  26
ENDBRANCH  16  18
ENDBRANCH  15  16
ENDBRANCH  14  15
ENDBRANCH   1  14
BRANCH   4  31
HETATM   31  C9  UNL     1      -5.634  18.824  26.800  1.00  0.00     0.063 C 
BRANCH  31  32
HETATM   32  C10 UNL     1      -4.348  18.105  27.019  1.00  0.00     0.015 C 
BRANCH  32  33
HETATM   33  C11 UNL     1      -4.032  17.228  25.839  1.00  0.00     0.103 C 
BRANCH  33  34
HETATM   34  C12 UNL     1      -3.084  17.823  24.893  1.00  0.00     0.219 C 
HETATM   35  O1  UNL     1      -3.098  19.036  24.571  1.00  0.00    -0.273 OA
HETATM   36  N4  UNL     1      -2.103  16.936  24.325  1.00  0.00    -0.352 N 
HETATM   37  C13 UNL     1      -1.968  15.533  24.600  1.00  0.00     0.126 C 
HETATM   38  C16 UNL     1      -1.095  17.364  23.371  1.00  0.00     0.126 C 
HETATM   39  C14 UNL     1      -0.826  15.057  23.739  1.00  0.00     0.021 C 
HETATM   40  C15 UNL     1      -0.789  16.077  22.632  1.00  0.00     0.021 C 
ENDBRANCH  33  34
ENDBRANCH  32  33
ENDBRANCH  31  32
ENDBRANCH   4  31
BRANCH   9  41
HETATM   41  C19 UNL     1      -9.036  15.639  23.171  1.00  0.00     0.036 C 
BRANCH  41  42
HETATM   42  C20 UNL     1      -9.757  15.540  21.868  1.00  0.00     0.022 C 
BRANCH  42  43
HETATM   43  C21 UNL     1      -9.332  16.603  20.881  1.00  0.00     0.122 C 
BRANCH  43  44
HETATM   44  N6  UNL     1      -7.976  16.315  20.484  1.00  0.00    -0.367 N 
HETATM   45  C22 UNL     1      -7.055  17.232  20.472  1.00  0.00     0.196 C 
HETATM   46  N7  UNL     1      -5.712  16.905  20.070  1.00  0.00    -0.067 NA
HETATM   47  N8  UNL     1      -7.424  18.534  20.863  1.00  0.00    -0.067 NA
ATOM     48  H6  UNL     1      -7.733  15.365  20.206  1.00  0.00     0.161 HD
ENDBRANCH  43  44
ENDBRANCH  42  43
ENDBRANCH  41  42
ENDBRANCH   9  41
TORSDOF 13
ENDMDL
