MODEL 1
REMARK VINA RESULT: -5.924532984      0.000      0.000
REMARK  5 active torsions:
REMARK  status: ('A' for Active; 'I' for Inactive)
REMARK    1  A    between atoms: C2_2  and  C3_3 
REMARK    2  A    between atoms: C3_3  and  C4_4 
REMARK    3  A    between atoms: C4_4  and  C5_5 
REMARK    4  A    between atoms: C6_8  and  N2_9 
REMARK    5  A    between atoms: C12_19  and  N4_20 
ROOT
HETATM    1  C5  UNL     1      -2.924  32.046  -6.862  1.00  0.00     0.035 A 
HETATM    2  N1  UNL     1      -3.780  33.108  -7.014  1.00  0.00    -0.195 N 
ATOM      3  H1  UNL     1      -3.739  33.669  -7.865  1.00  0.00     0.184 HD
HETATM    4  C6  UNL     1      -4.671  33.423  -6.061  1.00  0.00     0.676 A 
HETATM    5  N3  UNL     1      -4.730  32.682  -4.933  1.00  0.00    -0.193 N 
ATOM      6  H3  UNL     1      -5.411  32.929  -4.215  1.00  0.00     0.184 HD
HETATM    7  C7  UNL     1      -3.919  31.628  -4.724  1.00  0.00     0.065 A 
HETATM    8  C8  UNL     1      -2.986  31.296  -5.718  1.00  0.00    -0.010 A 
HETATM    9  C9  UNL     1      -2.080  30.134  -5.544  1.00  0.00     0.043 C 
HETATM   10  C10 UNL     1      -2.610  29.215  -4.435  1.00  0.00     0.007 C 
HETATM   11  C11 UNL     1      -2.760  30.131  -3.214  1.00  0.00     0.039 C 
HETATM   12  C12 UNL     1      -4.066  30.879  -3.460  1.00  0.00     0.234 C 
ENDROOT
BRANCH   1  13
HETATM   13  C4  UNL     1      -1.957  31.773  -7.946  1.00  0.00     0.058 C 
BRANCH  13  14
HETATM   14  C3  UNL     1      -1.373  33.064  -8.462  1.00  0.00     0.006 C 
BRANCH  14  15
HETATM   15  C2  UNL     1      -1.089  32.883  -9.948  1.00  0.00    -0.004 C 
HETATM   16  C1  UNL     1      -2.162  32.032 -10.535  1.00  0.00     0.005 C 
ENDBRANCH  14  15
ENDBRANCH  13  14
ENDBRANCH   1  13
BRANCH   4  17
HETATM   17  N2  UNL     1      -5.487  34.427  -6.190  1.00  0.00    -0.234 N 
ATOM     18  H22 UNL     1      -5.174  35.248  -6.708  1.00  0.00     0.174 HD
ATOM     19  H21 UNL     1      -6.425  34.413  -5.788  1.00  0.00     0.174 HD
ENDBRANCH   4  17
BRANCH  12  20
HETATM   20  N4  UNL     1      -4.287  31.732  -2.307  1.00  0.00    -0.070 N 
ATOM     21  H43 UNL     1      -4.570  32.667  -2.599  1.00  0.00     0.275 HD
ATOM     22  H42 UNL     1      -5.128  31.450  -1.804  1.00  0.00     0.275 HD
ATOM     23  H41 UNL     1      -3.487  31.777  -1.677  1.00  0.00     0.275 HD
ENDBRANCH  12  20
TORSDOF 5
ENDMDL
MODEL 2
REMARK VINA RESULT: -5.890752302      2.330      4.954
REMARK  5 active torsions:
REMARK  status: ('A' for Active; 'I' for Inactive)
REMARK    1  A    between atoms: C2_2  and  C3_3 
REMARK    2  A    between atoms: C3_3  and  C4_4 
REMARK    3  A    between atoms: C4_4  and  C5_5 
REMARK    4  A    between atoms: C6_8  and  N2_9 
REMARK    5  A    between atoms: C12_19  and  N4_20 
ROOT
HETATM    1  C5  UNL     1      -3.062  32.350  -6.099  1.00  0.00     0.035 A 
HETATM    2  N1  UNL     1      -3.566  31.325  -5.338  1.00  0.00    -0.195 N 
ATOM      3  H1  UNL     1      -4.134  31.541  -4.518  1.00  0.00     0.184 HD
HETATM    4  C6  UNL     1      -3.326  30.043  -5.654  1.00  0.00     0.676 A 
HETATM    5  N3  UNL     1      -2.576  29.754  -6.739  1.00  0.00    -0.193 N 
ATOM      6  H3  UNL     1      -2.400  28.776  -6.971  1.00  0.00     0.184 HD
HETATM    7  C7  UNL     1      -2.054  30.713  -7.526  1.00  0.00     0.065 A 
HETATM    8  C8  UNL     1      -2.302  32.055  -7.199  1.00  0.00    -0.010 A 
HETATM    9  C9  UNL     1      -1.762  33.149  -8.042  1.00  0.00     0.043 C 
HETATM   10  C10 UNL     1      -1.338  32.598  -9.411  1.00  0.00     0.007 C 
HETATM   11  C11 UNL     1      -0.358  31.465  -9.083  1.00  0.00     0.039 C 
HETATM   12  C12 UNL     1      -1.253  30.292  -8.694  1.00  0.00     0.234 C 
ENDROOT
BRANCH   1  13
HETATM   13  C4  UNL     1      -3.352  33.737  -5.677  1.00  0.00     0.058 C 
BRANCH  13  14
HETATM   14  C3  UNL     1      -4.786  34.087  -5.985  1.00  0.00     0.006 C 
BRANCH  14  15
HETATM   15  C2  UNL     1      -4.974  35.571  -5.693  1.00  0.00    -0.004 C 
HETATM   16  C1  UNL     1      -3.671  36.132  -5.237  1.00  0.00     0.005 C 
ENDBRANCH  14  15
ENDBRANCH  13  14
ENDBRANCH   1  13
BRANCH   4  17
HETATM   17  N2  UNL     1      -3.797  29.062  -4.942  1.00  0.00    -0.234 N 
ATOM     18  H22 UNL     1      -4.804  29.010  -4.786  1.00  0.00     0.174 HD
ATOM     19  H21 UNL     1      -3.188  28.350  -4.540  1.00  0.00     0.174 HD
ENDBRANCH   4  17
BRANCH  12  20
HETATM   20  N4  UNL     1      -0.378  29.168  -8.416  1.00  0.00    -0.070 N 
ATOM     21  H43 UNL     1      -0.729  28.622  -7.630  1.00  0.00     0.275 HD
ATOM     22  H42 UNL     1      -0.445  28.467  -9.154  1.00  0.00     0.275 HD
ATOM     23  H41 UNL     1       0.593  29.439  -8.263  1.00  0.00     0.275 HD
ENDBRANCH  12  20
TORSDOF 5
ENDMDL
MODEL 3
REMARK VINA RESULT: -5.879804304      2.055      3.106
REMARK  5 active torsions:
REMARK  status: ('A' for Active; 'I' for Inactive)
REMARK    1  A    between atoms: C2_2  and  C3_3 
REMARK    2  A    between atoms: C3_3  and  C4_4 
REMARK    3  A    between atoms: C4_4  and  C5_5 
REMARK    4  A    between atoms: C6_8  and  N2_9 
REMARK    5  A    between atoms: C12_19  and  N4_20 
ROOT
HETATM    1  C5  UNL     1      -2.755  32.096  -6.399  1.00  0.00     0.035 A 
HETATM    2  N1  UNL     1      -3.082  30.784  -6.161  1.00  0.00    -0.195 N 
ATOM      3  H1  UNL     1      -2.937  30.089  -6.894  1.00  0.00     0.184 HD
HETATM    4  C6  UNL     1      -3.590  30.399  -4.980  1.00  0.00     0.676 A 
HETATM    5  N3  UNL     1      -3.783  31.315  -4.007  1.00  0.00    -0.193 N 
ATOM      6  H3  UNL     1      -4.170  31.011  -3.113  1.00  0.00     0.184 HD
HETATM    7  C7  UNL     1      -3.482  32.616  -4.177  1.00  0.00     0.065 A 
HETATM    8  C8  UNL     1      -2.951  33.023  -5.410  1.00  0.00    -0.010 A 
HETATM    9  C9  UNL     1      -2.587  34.442  -5.644  1.00  0.00     0.043 C 
HETATM   10  C10 UNL     1      -2.480  35.185  -4.305  1.00  0.00     0.007 C 
HETATM   11  C11 UNL     1      -3.832  34.947  -3.622  1.00  0.00     0.039 C 
HETATM   12  C12 UNL     1      -3.725  33.538  -3.049  1.00  0.00     0.234 C 
ENDROOT
BRANCH   1  13
HETATM   13  C4  UNL     1      -2.218  32.447  -7.730  1.00  0.00     0.058 C 
BRANCH  13  14
HETATM   14  C3  UNL     1      -0.768  32.048  -7.831  1.00  0.00     0.006 C 
BRANCH  14  15
HETATM   15  C2  UNL     1      -0.289  32.389  -9.237  1.00  0.00    -0.004 C 
HETATM   16  C1  UNL     1      -1.328  33.227  -9.900  1.00  0.00     0.005 C 
ENDBRANCH  14  15
ENDBRANCH  13  14
ENDBRANCH   1  13
BRANCH   4  17
HETATM   17  N2  UNL     1      -3.906  29.160  -4.741  1.00  0.00    -0.234 N 
ATOM     18  H22 UNL     1      -4.640  28.966  -4.059  1.00  0.00     0.174 HD
ATOM     19  H21 UNL     1      -3.442  28.386  -5.215  1.00  0.00     0.174 HD
ENDBRANCH   4  17
BRANCH  12  20
HETATM   20  N4  UNL     1      -4.966  33.272  -2.346  1.00  0.00    -0.070 N 
ATOM     21  H43 UNL     1      -5.749  33.736  -2.806  1.00  0.00     0.275 HD
ATOM     22  H42 UNL     1      -5.250  32.300  -2.467  1.00  0.00     0.275 HD
ATOM     23  H41 UNL     1      -4.932  33.518  -1.357  1.00  0.00     0.275 HD
ENDBRANCH  12  20
TORSDOF 5
ENDMDL
MODEL 4
REMARK VINA RESULT: -5.641983742      2.248      4.749
REMARK  5 active torsions:
REMARK  status: ('A' for Active; 'I' for Inactive)
REMARK    1  A    between atoms: C2_2  and  C3_3 
REMARK    2  A    between atoms: C3_3  and  C4_4 
REMARK    3  A    between atoms: C4_4  and  C5_5 
REMARK    4  A    between atoms: C6_8  and  N2_9 
REMARK    5  A    between atoms: C12_19  and  N4_20 
ROOT
HETATM    1  C5  UNL     1      -3.865  32.127  -5.843  1.00  0.00     0.035 A 
HETATM    2  N1  UNL     1      -4.094  31.096  -4.967  1.00  0.00    -0.195 N 
ATOM      3  H1  UNL     1      -4.896  31.141  -4.338  1.00  0.00     0.184 HD
HETATM    4  C6  UNL     1      -3.281  30.029  -4.923  1.00  0.00     0.676 A 
HETATM    5  N3  UNL     1      -2.219  29.966  -5.756  1.00  0.00    -0.193 N 
ATOM      6  H3  UNL     1      -1.608  29.150  -5.714  1.00  0.00     0.184 HD
HETATM    7  C7  UNL     1      -1.941  30.943  -6.638  1.00  0.00     0.065 A 
HETATM    8  C8  UNL     1      -2.787  32.061  -6.686  1.00  0.00    -0.010 A 
HETATM    9  C9  UNL     1      -2.533  33.158  -7.651  1.00  0.00     0.043 C 
HETATM   10  C10 UNL     1      -1.576  32.681  -8.752  1.00  0.00     0.007 C 
HETATM   11  C11 UNL     1      -0.347  32.162  -7.994  1.00  0.00     0.039 C 
HETATM   12  C12 UNL     1      -0.759  30.776  -7.508  1.00  0.00     0.234 C 
ENDROOT
BRANCH   1  13
HETATM   13  C4  UNL     1      -4.792  33.278  -5.819  1.00  0.00     0.058 C 
BRANCH  13  14
HETATM   14  C3  UNL     1      -4.485  34.172  -4.644  1.00  0.00     0.006 C 
BRANCH  14  15
HETATM   15  C2  UNL     1      -4.087  35.537  -5.192  1.00  0.00    -0.004 C 
HETATM   16  C1  UNL     1      -5.195  36.044  -6.049  1.00  0.00     0.005 C 
ENDBRANCH  14  15
ENDBRANCH  13  14
ENDBRANCH   1  13
BRANCH   4  17
HETATM   17  N2  UNL     1      -3.485  29.045  -4.098  1.00  0.00    -0.234 N 
ATOM     18  H22 UNL     1      -4.349  29.034  -3.555  1.00  0.00     0.174 HD
ATOM     19  H21 UNL     1      -2.808  28.292  -3.981  1.00  0.00     0.174 HD
ENDBRANCH   4  17
BRANCH  12  20
HETATM   20  N4  UNL     1       0.388  30.212  -6.820  1.00  0.00    -0.070 N 
ATOM     21  H43 UNL     1       0.100  29.742  -5.963  1.00  0.00     0.275 HD
ATOM     22  H42 UNL     1       0.761  29.414  -7.334  1.00  0.00     0.275 HD
ATOM     23  H41 UNL     1       1.121  30.894  -6.630  1.00  0.00     0.275 HD
ENDBRANCH  12  20
TORSDOF 5
ENDMDL
MODEL 5
REMARK VINA RESULT: -5.605705465      2.827      4.736
REMARK  5 active torsions:
REMARK  status: ('A' for Active; 'I' for Inactive)
REMARK    1  A    between atoms: C2_2  and  C3_3 
REMARK    2  A    between atoms: C3_3  and  C4_4 
REMARK    3  A    between atoms: C4_4  and  C5_5 
REMARK    4  A    between atoms: C6_8  and  N2_9 
REMARK    5  A    between atoms: C12_19  and  N4_20 
ROOT
HETATM    1  C5  UNL     1      -3.466  33.525  -3.605  1.00  0.00     0.035 A 
HETATM    2  N1  UNL     1      -4.332  33.914  -4.597  1.00  0.00    -0.195 N 
ATOM      3  H1  UNL     1      -4.674  34.874  -4.616  1.00  0.00     0.184 HD
HETATM    4  C6  UNL     1      -4.736  33.051  -5.541  1.00  0.00     0.676 A 
HETATM    5  N3  UNL     1      -4.284  31.778  -5.520  1.00  0.00    -0.193 N 
ATOM      6  H3  UNL     1      -4.598  31.131  -6.243  1.00  0.00     0.184 HD
HETATM    7  C7  UNL     1      -3.434  31.336  -4.575  1.00  0.00     0.065 A 
HETATM    8  C8  UNL     1      -3.008  32.234  -3.584  1.00  0.00    -0.010 A 
HETATM    9  C9  UNL     1      -2.059  31.801  -2.530  1.00  0.00     0.043 C 
HETATM   10  C10 UNL     1      -1.365  30.498  -2.950  1.00  0.00     0.007 C 
HETATM   11  C11 UNL     1      -2.515  29.529  -3.250  1.00  0.00     0.039 C 
HETATM   12  C12 UNL     1      -2.993  29.928  -4.642  1.00  0.00     0.234 C 
ENDROOT
BRANCH   1  13
HETATM   13  C4  UNL     1      -3.081  34.526  -2.588  1.00  0.00     0.058 C 
BRANCH  13  14
HETATM   14  C3  UNL     1      -4.067  34.518  -1.447  1.00  0.00     0.006 C 
BRANCH  14  15
HETATM   15  C2  UNL     1      -4.693  35.905  -1.366  1.00  0.00    -0.004 C 
HETATM   16  C1  UNL     1      -6.040  35.854  -2.002  1.00  0.00     0.005 C 
ENDBRANCH  14  15
ENDBRANCH  13  14
ENDBRANCH   1  13
BRANCH   4  17
HETATM   17  N2  UNL     1      -5.557  33.404  -6.486  1.00  0.00    -0.234 N 
ATOM     18  H22 UNL     1      -5.312  33.187  -7.453  1.00  0.00     0.174 HD
ATOM     19  H21 UNL     1      -6.432  33.889  -6.285  1.00  0.00     0.174 HD
ENDBRANCH   4  17
BRANCH  12  20
HETATM   20  N4  UNL     1      -4.057  29.009  -5.003  1.00  0.00    -0.070 N 
ATOM     21  H43 UNL     1      -4.339  29.144  -5.973  1.00  0.00     0.275 HD
ATOM     22  H42 UNL     1      -3.706  28.053  -5.060  1.00  0.00     0.275 HD
ATOM     23  H41 UNL     1      -4.864  29.060  -4.382  1.00  0.00     0.275 HD
ENDBRANCH  12  20
TORSDOF 5
ENDMDL
