MODEL 1
REMARK VINA RESULT: -5.308465604      0.000      0.000
REMARK  13 active torsions:
REMARK  status: ('A' for Active; 'I' for Inactive)
REMARK    1  A    between atoms: N1_1  and  N2_4 
REMARK    2  A    between atoms: N2_4  and  C1_5 
REMARK    3  A    between atoms: C1_5  and  C2_6 
REMARK    4  A    between atoms: C2_6  and  N3_7 
REMARK    5  A    between atoms: N3_7  and  C3_10 
REMARK    6  A    between atoms: C3_10  and  C4_11 
REMARK    7  A    between atoms: C5_13  and  N4_14 
REMARK    8  A    between atoms: C8_19  and  N6_20 
REMARK    9  A    between atoms: N6_20  and  C9_22 
REMARK   10  A    between atoms: C9_22  and  C10_23 
REMARK   11  A    between atoms: C10_23  and  N7_24 
REMARK   12  A    between atoms: C13_34  and  O2_35 
REMARK   13  A    between atoms: C14_37  and  O3_38 
ROOT
HETATM    1  N4  UNL     1     -11.043  69.272  21.389  1.00  0.00    -0.297 N 
HETATM    2  C6  UNL     1      -9.716  68.951  21.345  1.00  0.00     0.188 A 
HETATM    3  N5  UNL     1      -8.987  69.909  21.959  1.00  0.00    -0.346 N 
ATOM      4  H5  UNL     1      -7.972  69.916  22.065  1.00  0.00     0.167 HD
HETATM    5  C7  UNL     1      -9.824  70.839  22.398  1.00  0.00     0.122 A 
HETATM    6  C8  UNL     1      -9.576  72.032  23.101  1.00  0.00     0.137 A 
HETATM    7  N8  UNL     1     -10.667  72.751  23.401  1.00  0.00    -0.337 N 
ATOM      8  H8  UNL     1     -10.555  73.628  23.909  1.00  0.00     0.168 HD
HETATM    9  C11 UNL     1     -11.928  72.346  23.046  1.00  0.00     0.183 A 
HETATM   10  N9  UNL     1     -12.124  71.202  22.376  1.00  0.00    -0.336 N 
ATOM     11  H9  UNL     1     -13.069  70.918  22.121  1.00  0.00     0.168 HD
HETATM   12  C12 UNL     1     -11.083  70.432  22.041  1.00  0.00     0.142 A 
ENDROOT
BRANCH   1  13
HETATM   13  C5  UNL     1     -12.054  68.475  20.819  1.00  0.00     0.262 C 
HETATM   14  O1  UNL     1     -13.351  68.761  21.125  1.00  0.00    -0.354 OA
HETATM   15  C4  UNL     1     -14.163  68.076  20.215  1.00  0.00     0.181 C 
HETATM   16  C14 UNL     1     -13.276  67.547  19.115  1.00  0.00     0.181 C 
HETATM   17  C13 UNL     1     -12.075  68.497  19.295  1.00  0.00     0.198 C 
BRANCH  15  18
HETATM   18  C3  UNL     1     -15.088  69.138  19.589  1.00  0.00     0.267 C 
BRANCH  18  19
HETATM   19  N3  UNL     1     -14.939  70.296  20.468  1.00  0.00    -0.067 N 
ATOM     20  H32 UNL     1     -14.133  70.197  21.086  1.00  0.00     0.277 HD
ATOM     21  H31 UNL     1     -15.674  70.328  21.174  1.00  0.00     0.277 HD
BRANCH  19  22
HETATM   22  C2  UNL     1     -14.878  71.540  19.696  1.00  0.00     0.293 C 
BRANCH  22  23
HETATM   23  C1  UNL     1     -13.632  71.508  18.910  1.00  0.00     0.208 C 
BRANCH  23  24
HETATM   24  N2  UNL     1     -12.627  72.171  19.287  1.00  0.00    -0.348 NA
BRANCH  24  25
HETATM   25  N1  UNL     1     -11.579  72.807  19.344  1.00  0.00    -0.281 N 
ATOM     26  H12 UNL     1     -11.280  72.344  20.202  1.00  0.00     0.191 HD
ATOM     27  H11 UNL     1     -10.801  73.444  19.171  1.00  0.00     0.191 HD
ENDBRANCH  24  25
ENDBRANCH  23  24
ENDBRANCH  22  23
ENDBRANCH  19  22
ENDBRANCH  18  19
ENDBRANCH  15  18
BRANCH  16  28
HETATM   28  O3  UNL     1     -12.828  66.291  19.485  1.00  0.00    -0.390 OA
ATOM     29  H3  UNL     1     -12.394  65.898  18.738  1.00  0.00     0.210 HD
ENDBRANCH  16  28
BRANCH  17  30
HETATM   30  O2  UNL     1     -10.921  67.963  18.783  1.00  0.00    -0.388 OA
ATOM     31  H2  UNL     1     -10.687  67.163  19.237  1.00  0.00     0.210 HD
ENDBRANCH  17  30
ENDBRANCH   1  13
BRANCH   6  32
HETATM   32  N6  UNL     1      -8.424  72.323  23.358  1.00  0.00    -0.352 N 
ATOM     33  H6  UNL     1      -7.847  71.541  23.048  1.00  0.00     0.166 HD
BRANCH  32  34
HETATM   34  C9  UNL     1      -7.569  73.259  23.891  1.00  0.00     0.089 C 
BRANCH  34  35
HETATM   35  C10 UNL     1      -6.241  73.520  23.262  1.00  0.00     0.274 C 
BRANCH  35  36
HETATM   36  N7  UNL     1      -5.833  72.214  22.669  1.00  0.00    -0.075 N 
ATOM     37  H73 UNL     1      -6.608  71.569  22.519  1.00  0.00     0.274 HD
ATOM     38  H72 UNL     1      -5.542  72.276  21.694  1.00  0.00     0.274 HD
ATOM     39  H71 UNL     1      -5.112  71.855  23.294  1.00  0.00     0.274 HD
ENDBRANCH  35  36
ENDBRANCH  34  35
ENDBRANCH  32  34
ENDBRANCH   6  32
TORSDOF 13
ENDMDL
MODEL 2
REMARK VINA RESULT: -5.280171784      3.097      3.857
REMARK  13 active torsions:
REMARK  status: ('A' for Active; 'I' for Inactive)
REMARK    1  A    between atoms: N1_1  and  N2_4 
REMARK    2  A    between atoms: N2_4  and  C1_5 
REMARK    3  A    between atoms: C1_5  and  C2_6 
REMARK    4  A    between atoms: C2_6  and  N3_7 
REMARK    5  A    between atoms: N3_7  and  C3_10 
REMARK    6  A    between atoms: C3_10  and  C4_11 
REMARK    7  A    between atoms: C5_13  and  N4_14 
REMARK    8  A    between atoms: C8_19  and  N6_20 
REMARK    9  A    between atoms: N6_20  and  C9_22 
REMARK   10  A    between atoms: C9_22  and  C10_23 
REMARK   11  A    between atoms: C10_23  and  N7_24 
REMARK   12  A    between atoms: C13_34  and  O2_35 
REMARK   13  A    between atoms: C14_37  and  O3_38 
ROOT
HETATM    1  N4  UNL     1     -10.282  70.472  23.660  1.00  0.00    -0.297 N 
HETATM    2  C6  UNL     1      -9.697  71.686  23.439  1.00  0.00     0.188 A 
HETATM    3  N5  UNL     1      -9.310  72.234  24.613  1.00  0.00    -0.346 N 
ATOM      4  H5  UNL     1      -8.850  73.136  24.732  1.00  0.00     0.167 HD
HETATM    5  C7  UNL     1      -9.635  71.390  25.583  1.00  0.00     0.122 A 
HETATM    6  C8  UNL     1      -9.448  71.482  26.973  1.00  0.00     0.137 A 
HETATM    7  N8  UNL     1      -9.897  70.433  27.677  1.00  0.00    -0.337 N 
ATOM      8  H8  UNL     1      -9.793  70.438  28.691  1.00  0.00     0.168 HD
HETATM    9  C11 UNL     1     -10.492  69.353  27.078  1.00  0.00     0.183 A 
HETATM   10  N9  UNL     1     -10.653  69.302  25.748  1.00  0.00    -0.336 N 
ATOM     11  H9  UNL     1     -11.098  68.491  25.320  1.00  0.00     0.168 HD
HETATM   12  C12 UNL     1     -10.230  70.313  24.980  1.00  0.00     0.142 A 
ENDROOT
BRANCH   1  13
HETATM   13  C5  UNL     1     -10.804  69.663  22.632  1.00  0.00     0.262 C 
HETATM   14  O1  UNL     1     -11.972  70.043  22.042  1.00  0.00    -0.354 OA
HETATM   15  C4  UNL     1     -12.117  69.297  20.867  1.00  0.00     0.181 C 
HETATM   16  C14 UNL     1     -10.804  68.604  20.599  1.00  0.00     0.181 C 
HETATM   17  C13 UNL     1      -9.877  69.511  21.432  1.00  0.00     0.198 C 
BRANCH  15  18
HETATM   18  C3  UNL     1     -12.335  70.322  19.738  1.00  0.00     0.267 C 
BRANCH  18  19
HETATM   19  N3  UNL     1     -13.167  69.609  18.771  1.00  0.00    -0.067 N 
ATOM     20  H32 UNL     1     -12.662  68.835  18.339  1.00  0.00     0.277 HD
ATOM     21  H31 UNL     1     -13.338  70.169  17.937  1.00  0.00     0.277 HD
BRANCH  19  22
HETATM   22  C2  UNL     1     -14.421  69.159  19.385  1.00  0.00     0.293 C 
BRANCH  22  23
HETATM   23  C1  UNL     1     -14.668  67.783  18.920  1.00  0.00     0.208 C 
BRANCH  23  24
HETATM   24  N2  UNL     1     -13.918  66.841  19.295  1.00  0.00    -0.348 NA
BRANCH  24  25
HETATM   25  N1  UNL     1     -13.000  66.038  19.429  1.00  0.00    -0.281 N 
ATOM     26  H12 UNL     1     -13.530  65.278  19.005  1.00  0.00     0.191 HD
ATOM     27  H11 UNL     1     -12.116  65.578  19.648  1.00  0.00     0.191 HD
ENDBRANCH  24  25
ENDBRANCH  23  24
ENDBRANCH  22  23
ENDBRANCH  19  22
ENDBRANCH  18  19
ENDBRANCH  15  18
BRANCH  16  28
HETATM   28  O3  UNL     1     -10.820  67.379  21.243  1.00  0.00    -0.390 OA
ATOM     29  H3  UNL     1     -10.512  67.506  22.132  1.00  0.00     0.210 HD
ENDBRANCH  16  28
BRANCH  17  30
HETATM   30  O2  UNL     1      -8.720  68.867  21.788  1.00  0.00    -0.388 OA
ATOM     31  H2  UNL     1      -7.978  69.213  21.306  1.00  0.00     0.210 HD
ENDBRANCH  17  30
ENDBRANCH   1  13
BRANCH   6  32
HETATM   32  N6  UNL     1      -8.928  72.485  27.422  1.00  0.00    -0.352 N 
ATOM     33  H6  UNL     1      -9.676  73.162  27.573  1.00  0.00     0.166 HD
BRANCH  32  34
HETATM   34  C9  UNL     1      -7.758  73.094  27.813  1.00  0.00     0.089 C 
BRANCH  34  35
HETATM   35  C10 UNL     1      -6.440  72.590  27.327  1.00  0.00     0.274 C 
BRANCH  35  36
HETATM   36  N7  UNL     1      -5.455  73.630  27.738  1.00  0.00    -0.075 N 
ATOM     37  H73 UNL     1      -4.958  74.060  26.959  1.00  0.00     0.274 HD
ATOM     38  H72 UNL     1      -5.881  74.487  28.091  1.00  0.00     0.274 HD
ATOM     39  H71 UNL     1      -4.845  73.164  28.410  1.00  0.00     0.274 HD
ENDBRANCH  35  36
ENDBRANCH  34  35
ENDBRANCH  32  34
ENDBRANCH   6  32
TORSDOF 13
ENDMDL
MODEL 3
REMARK VINA RESULT: -5.267426281      2.777      3.778
REMARK  13 active torsions:
REMARK  status: ('A' for Active; 'I' for Inactive)
REMARK    1  A    between atoms: N1_1  and  N2_4 
REMARK    2  A    between atoms: N2_4  and  C1_5 
REMARK    3  A    between atoms: C1_5  and  C2_6 
REMARK    4  A    between atoms: C2_6  and  N3_7 
REMARK    5  A    between atoms: N3_7  and  C3_10 
REMARK    6  A    between atoms: C3_10  and  C4_11 
REMARK    7  A    between atoms: C5_13  and  N4_14 
REMARK    8  A    between atoms: C8_19  and  N6_20 
REMARK    9  A    between atoms: N6_20  and  C9_22 
REMARK   10  A    between atoms: C9_22  and  C10_23 
REMARK   11  A    between atoms: C10_23  and  N7_24 
REMARK   12  A    between atoms: C13_34  and  O2_35 
REMARK   13  A    between atoms: C14_37  and  O3_38 
ROOT
HETATM    1  N4  UNL     1     -10.328  70.296  23.961  1.00  0.00    -0.297 N 
HETATM    2  C6  UNL     1     -10.384  69.845  25.249  1.00  0.00     0.188 A 
HETATM    3  N5  UNL     1      -9.833  70.755  26.083  1.00  0.00    -0.346 N 
ATOM      4  H5  UNL     1      -9.745  70.666  27.095  1.00  0.00     0.167 HD
HETATM    5  C7  UNL     1      -9.426  71.784  25.351  1.00  0.00     0.122 A 
HETATM    6  C8  UNL     1      -8.799  72.983  25.733  1.00  0.00     0.137 A 
HETATM    7  N8  UNL     1      -8.524  73.824  24.726  1.00  0.00    -0.337 N 
ATOM      8  H8  UNL     1      -8.068  74.712  24.936  1.00  0.00     0.168 HD
HETATM    9  C11 UNL     1      -8.836  73.531  23.424  1.00  0.00     0.183 A 
HETATM   10  N9  UNL     1      -9.435  72.376  23.100  1.00  0.00    -0.336 N 
ATOM     11  H9  UNL     1      -9.659  72.175  22.126  1.00  0.00     0.168 HD
HETATM   12  C12 UNL     1      -9.739  71.487  24.051  1.00  0.00     0.142 A 
ENDROOT
BRANCH   1  13
HETATM   13  C5  UNL     1     -10.809  69.562  22.859  1.00  0.00     0.262 C 
HETATM   14  O1  UNL     1     -11.987  69.945  22.294  1.00  0.00    -0.354 OA
HETATM   15  C4  UNL     1     -12.093  69.302  21.056  1.00  0.00     0.181 C 
HETATM   16  C14 UNL     1     -10.750  68.689  20.740  1.00  0.00     0.181 C 
HETATM   17  C13 UNL     1      -9.868  69.555  21.661  1.00  0.00     0.198 C 
BRANCH  15  18
HETATM   18  C3  UNL     1     -12.346  70.414  20.020  1.00  0.00     0.267 C 
BRANCH  18  19
HETATM   19  N3  UNL     1     -11.944  69.811  18.751  1.00  0.00    -0.067 N 
ATOM     20  H32 UNL     1     -11.034  69.354  18.825  1.00  0.00     0.277 HD
ATOM     21  H31 UNL     1     -11.706  70.519  18.058  1.00  0.00     0.277 HD
BRANCH  19  22
HETATM   22  C2  UNL     1     -12.972  68.891  18.255  1.00  0.00     0.293 C 
BRANCH  22  23
HETATM   23  C1  UNL     1     -12.298  67.631  17.896  1.00  0.00     0.208 C 
BRANCH  23  24
HETATM   24  N2  UNL     1     -12.457  66.601  18.607  1.00  0.00    -0.348 NA
BRANCH  24  25
HETATM   25  N1  UNL     1     -12.816  65.787  19.452  1.00  0.00    -0.281 N 
ATOM     26  H12 UNL     1     -13.745  66.200  19.534  1.00  0.00     0.191 HD
ATOM     27  H11 UNL     1     -12.871  65.017  20.119  1.00  0.00     0.191 HD
ENDBRANCH  24  25
ENDBRANCH  23  24
ENDBRANCH  22  23
ENDBRANCH  19  22
ENDBRANCH  18  19
ENDBRANCH  15  18
BRANCH  16  28
HETATM   28  O3  UNL     1     -10.720  67.413  21.273  1.00  0.00    -0.390 OA
ATOM     29  H3  UNL     1     -10.152  66.878  20.732  1.00  0.00     0.210 HD
ENDBRANCH  16  28
BRANCH  17  30
HETATM   30  O2  UNL     1      -8.687  68.931  21.970  1.00  0.00    -0.388 OA
ATOM     31  H2  UNL     1      -8.047  69.555  22.290  1.00  0.00     0.210 HD
ENDBRANCH  17  30
ENDBRANCH   1  13
BRANCH   6  32
HETATM   32  N6  UNL     1      -8.542  73.154  26.909  1.00  0.00    -0.352 N 
ATOM     33  H6  UNL     1      -9.434  73.238  27.395  1.00  0.00     0.166 HD
BRANCH  32  34
HETATM   34  C9  UNL     1      -7.558  73.281  27.862  1.00  0.00     0.089 C 
BRANCH  34  35
HETATM   35  C10 UNL     1      -6.145  72.917  27.547  1.00  0.00     0.274 C 
BRANCH  35  36
HETATM   36  N7  UNL     1      -5.406  74.211  27.544  1.00  0.00    -0.075 N 
ATOM     37  H73 UNL     1      -4.989  74.447  26.644  1.00  0.00     0.274 HD
ATOM     38  H72 UNL     1      -6.008  75.032  27.612  1.00  0.00     0.274 HD
ATOM     39  H71 UNL     1      -4.730  74.131  28.304  1.00  0.00     0.274 HD
ENDBRANCH  35  36
ENDBRANCH  34  35
ENDBRANCH  32  34
ENDBRANCH   6  32
TORSDOF 13
ENDMDL
MODEL 4
REMARK VINA RESULT: -5.237327279      2.636      4.087
REMARK  13 active torsions:
REMARK  status: ('A' for Active; 'I' for Inactive)
REMARK    1  A    between atoms: N1_1  and  N2_4 
REMARK    2  A    between atoms: N2_4  and  C1_5 
REMARK    3  A    between atoms: C1_5  and  C2_6 
REMARK    4  A    between atoms: C2_6  and  N3_7 
REMARK    5  A    between atoms: N3_7  and  C3_10 
REMARK    6  A    between atoms: C3_10  and  C4_11 
REMARK    7  A    between atoms: C5_13  and  N4_14 
REMARK    8  A    between atoms: C8_19  and  N6_20 
REMARK    9  A    between atoms: N6_20  and  C9_22 
REMARK   10  A    between atoms: C9_22  and  C10_23 
REMARK   11  A    between atoms: C10_23  and  N7_24 
REMARK   12  A    between atoms: C13_34  and  O2_35 
REMARK   13  A    between atoms: C14_37  and  O3_38 
ROOT
HETATM    1  N4  UNL     1     -10.397  71.876  22.939  1.00  0.00    -0.297 N 
HETATM    2  C6  UNL     1     -11.256  72.938  22.962  1.00  0.00     0.188 A 
HETATM    3  N5  UNL     1     -10.570  74.084  23.171  1.00  0.00    -0.346 N 
ATOM      4  H5  UNL     1     -10.971  75.020  23.233  1.00  0.00     0.167 HD
HETATM    5  C7  UNL     1      -9.285  73.775  23.280  1.00  0.00     0.122 A 
HETATM    6  C8  UNL     1      -8.165  74.597  23.496  1.00  0.00     0.137 A 
HETATM    7  N8  UNL     1      -6.991  73.952  23.549  1.00  0.00    -0.337 N 
ATOM      8  H8  UNL     1      -6.139  74.491  23.705  1.00  0.00     0.168 HD
HETATM    9  C11 UNL     1      -6.897  72.593  23.403  1.00  0.00     0.183 A 
HETATM   10  N9  UNL     1      -7.989  71.842  23.199  1.00  0.00    -0.336 N 
ATOM     11  H9  UNL     1      -7.900  70.832  23.093  1.00  0.00     0.168 HD
HETATM   12  C12 UNL     1      -9.196  72.416  23.134  1.00  0.00     0.142 A 
ENDROOT
BRANCH   1  13
HETATM   13  C5  UNL     1     -10.814  70.543  22.757  1.00  0.00     0.262 C 
HETATM   14  O1  UNL     1     -12.144  70.264  22.856  1.00  0.00    -0.354 OA
HETATM   15  C4  UNL     1     -12.351  68.985  22.327  1.00  0.00     0.181 C 
HETATM   16  C14 UNL     1     -11.084  68.573  21.617  1.00  0.00     0.181 C 
HETATM   17  C13 UNL     1     -10.470  69.968  21.388  1.00  0.00     0.198 C 
BRANCH  15  18
HETATM   18  C3  UNL     1     -13.448  69.141  21.257  1.00  0.00     0.267 C 
BRANCH  18  19
HETATM   19  N3  UNL     1     -13.859  67.768  20.973  1.00  0.00    -0.067 N 
ATOM     20  H32 UNL     1     -14.714  67.521  21.473  1.00  0.00     0.277 HD
ATOM     21  H31 UNL     1     -13.228  67.091  21.401  1.00  0.00     0.277 HD
BRANCH  19  22
HETATM   22  C2  UNL     1     -13.993  67.544  19.531  1.00  0.00     0.293 C 
BRANCH  22  23
HETATM   23  C1  UNL     1     -12.833  66.745  19.100  1.00  0.00     0.208 C 
BRANCH  23  24
HETATM   24  N2  UNL     1     -12.196  67.061  18.058  1.00  0.00    -0.348 NA
BRANCH  24  25
HETATM   25  N1  UNL     1     -11.441  67.577  17.240  1.00  0.00    -0.281 N 
ATOM     26  H12 UNL     1     -11.513  66.791  16.595  1.00  0.00     0.191 HD
ATOM     27  H11 UNL     1     -10.808  68.199  16.738  1.00  0.00     0.191 HD
ENDBRANCH  24  25
ENDBRANCH  23  24
ENDBRANCH  22  23
ENDBRANCH  19  22
ENDBRANCH  18  19
ENDBRANCH  15  18
BRANCH  16  28
HETATM   28  O3  UNL     1     -10.262  67.937  22.530  1.00  0.00    -0.390 OA
ATOM     29  H3  UNL     1     -10.714  67.166  22.851  1.00  0.00     0.210 HD
ENDBRANCH  16  28
BRANCH  17  30
HETATM   30  O2  UNL     1      -9.111  69.904  21.213  1.00  0.00    -0.388 OA
ATOM     31  H2  UNL     1      -8.886  69.278  20.534  1.00  0.00     0.210 HD
ENDBRANCH  17  30
ENDBRANCH   1  13
BRANCH   6  32
HETATM   32  N6  UNL     1      -8.341  75.792  23.633  1.00  0.00    -0.352 N 
ATOM     33  H6  UNL     1      -8.362  75.972  24.637  1.00  0.00     0.166 HD
BRANCH  32  34
HETATM   34  C9  UNL     1      -8.525  77.004  23.009  1.00  0.00     0.089 C 
BRANCH  34  35
HETATM   35  C10 UNL     1      -9.880  77.625  22.940  1.00  0.00     0.274 C 
BRANCH  35  36
HETATM   36  N7  UNL     1     -10.361  77.346  21.557  1.00  0.00    -0.075 N 
ATOM     37  H73 UNL     1      -9.615  77.283  20.865  1.00  0.00     0.274 HD
ATOM     38  H72 UNL     1     -10.721  76.401  21.426  1.00  0.00     0.274 HD
ATOM     39  H71 UNL     1     -11.044  78.079  21.363  1.00  0.00     0.274 HD
ENDBRANCH  35  36
ENDBRANCH  34  35
ENDBRANCH  32  34
ENDBRANCH   6  32
TORSDOF 13
ENDMDL
MODEL 5
REMARK VINA RESULT: -5.235762308      2.965      6.833
REMARK  13 active torsions:
REMARK  status: ('A' for Active; 'I' for Inactive)
REMARK    1  A    between atoms: N1_1  and  N2_4 
REMARK    2  A    between atoms: N2_4  and  C1_5 
REMARK    3  A    between atoms: C1_5  and  C2_6 
REMARK    4  A    between atoms: C2_6  and  N3_7 
REMARK    5  A    between atoms: N3_7  and  C3_10 
REMARK    6  A    between atoms: C3_10  and  C4_11 
REMARK    7  A    between atoms: C5_13  and  N4_14 
REMARK    8  A    between atoms: C8_19  and  N6_20 
REMARK    9  A    between atoms: N6_20  and  C9_22 
REMARK   10  A    between atoms: C9_22  and  C10_23 
REMARK   11  A    between atoms: C10_23  and  N7_24 
REMARK   12  A    between atoms: C13_34  and  O2_35 
REMARK   13  A    between atoms: C14_37  and  O3_38 
ROOT
HETATM    1  N4  UNL     1     -12.247  72.509  20.519  1.00  0.00    -0.297 N 
HETATM    2  C6  UNL     1     -12.953  72.229  19.383  1.00  0.00     0.188 A 
HETATM    3  N5  UNL     1     -12.670  70.977  18.959  1.00  0.00    -0.346 N 
ATOM      4  H5  UNL     1     -13.060  70.520  18.135  1.00  0.00     0.167 HD
HETATM    5  C7  UNL     1     -11.797  70.448  19.806  1.00  0.00     0.122 A 
HETATM    6  C8  UNL     1     -11.192  69.178  19.818  1.00  0.00     0.137 A 
HETATM    7  N8  UNL     1     -10.347  68.963  20.836  1.00  0.00    -0.337 N 
ATOM      8  H8  UNL     1      -9.875  68.061  20.902  1.00  0.00     0.168 HD
HETATM    9  C11 UNL     1     -10.097  69.913  21.791  1.00  0.00     0.183 A 
HETATM   10  N9  UNL     1     -10.693  71.113  21.745  1.00  0.00    -0.336 N 
ATOM     11  H9  UNL     1     -10.494  71.808  22.464  1.00  0.00     0.168 HD
HETATM   12  C12 UNL     1     -11.549  71.401  20.758  1.00  0.00     0.142 A 
ENDROOT
BRANCH   1  13
HETATM   13  C5  UNL     1     -12.316  73.745  21.191  1.00  0.00     0.262 C 
HETATM   14  O1  UNL     1     -11.853  73.810  22.470  1.00  0.00    -0.354 OA
HETATM   15  C4  UNL     1     -11.720  75.161  22.806  1.00  0.00     0.181 C 
HETATM   16  C14 UNL     1     -11.868  75.966  21.537  1.00  0.00     0.181 C 
HETATM   17  C13 UNL     1     -11.536  74.864  20.512  1.00  0.00     0.198 C 
BRANCH  15  18
HETATM   18  C3  UNL     1     -10.270  75.338  23.295  1.00  0.00     0.267 C 
BRANCH  18  19
HETATM   19  N3  UNL     1      -9.867  73.991  23.694  1.00  0.00    -0.067 N 
ATOM     20  H32 UNL     1     -10.203  73.288  23.036  1.00  0.00     0.277 HD
ATOM     21  H31 UNL     1     -10.370  73.680  24.524  1.00  0.00     0.277 HD
BRANCH  19  22
HETATM   22  C2  UNL     1      -8.415  73.907  23.879  1.00  0.00     0.293 C 
BRANCH  22  23
HETATM   23  C1  UNL     1      -8.025  72.503  23.665  1.00  0.00     0.208 C 
BRANCH  23  24
HETATM   24  N2  UNL     1      -6.943  72.227  23.078  1.00  0.00    -0.348 NA
BRANCH  24  25
HETATM   25  N1  UNL     1      -5.788  72.213  22.665  1.00  0.00    -0.281 N 
ATOM     26  H12 UNL     1      -5.986  72.889  21.927  1.00  0.00     0.191 HD
ATOM     27  H11 UNL     1      -4.796  72.029  22.517  1.00  0.00     0.191 HD
ENDBRANCH  24  25
ENDBRANCH  23  24
ENDBRANCH  22  23
ENDBRANCH  19  22
ENDBRANCH  18  19
ENDBRANCH  15  18
BRANCH  16  28
HETATM   28  O3  UNL     1     -13.209  76.258  21.364  1.00  0.00    -0.390 OA
ATOM     29  H3  UNL     1     -13.295  77.195  21.232  1.00  0.00     0.210 HD
ENDBRANCH  16  28
BRANCH  17  30
HETATM   30  O2  UNL     1     -12.059  75.144  19.276  1.00  0.00    -0.388 OA
ATOM     31  H2  UNL     1     -12.095  74.362  18.738  1.00  0.00     0.210 HD
ENDBRANCH  17  30
ENDBRANCH   1  13
BRANCH   6  32
HETATM   32  N6  UNL     1     -11.457  68.402  18.921  1.00  0.00    -0.352 N 
ATOM     33  H6  UNL     1     -10.827  68.619  18.149  1.00  0.00     0.166 HD
BRANCH  32  34
HETATM   34  C9  UNL     1     -12.247  67.355  18.505  1.00  0.00     0.089 C 
BRANCH  34  35
HETATM   35  C10 UNL     1     -13.096  66.610  19.481  1.00  0.00     0.274 C 
BRANCH  35  36
HETATM   36  N7  UNL     1     -14.444  67.237  19.376  1.00  0.00    -0.075 N 
ATOM     37  H73 UNL     1     -14.980  67.213  20.243  1.00  0.00     0.274 HD
ATOM     38  H72 UNL     1     -14.421  68.253  19.282  1.00  0.00     0.274 HD
ATOM     39  H71 UNL     1     -14.897  66.760  18.597  1.00  0.00     0.274 HD
ENDBRANCH  35  36
ENDBRANCH  34  35
ENDBRANCH  32  34
ENDBRANCH   6  32
TORSDOF 13
ENDMDL
