MODEL 1
REMARK VINA RESULT: -7.561767364      0.000      0.000
REMARK  10 active torsions:
REMARK  status: ('A' for Active; 'I' for Inactive)
REMARK    1  A    between atoms: N2_4  and  N3_6 
REMARK    2  A    between atoms: N3_6  and  C3_8 
REMARK    3  A    between atoms: C4_11  and  N5_12 
REMARK    4  A    between atoms: N5_12  and  C5_14 
REMARK    5  A    between atoms: C6_15  and  C7_16 
REMARK    6  A    between atoms: C7_16  and  N6_17 
REMARK    7  A    between atoms: C7_16  and  O1_21 
REMARK    8  A    between atoms: C8_24  and  S1_25 
REMARK    9  A    between atoms: C10_35  and  N9_36 
REMARK   10  A    between atoms: N9_36  and  O7_38 
ROOT
HETATM    1  N5  UNL     1      13.808  14.882   6.225  1.00  0.00    -0.183 N 
ATOM      2  H5  UNL     1      14.291  15.739   5.958  1.00  0.00     0.184 HD
ENDROOT
BRANCH   1   3
HETATM    3  C4  UNL     1      13.764  13.817   5.270  1.00  0.00     0.696 A 
HETATM    4  N4  UNL     1      14.257  12.684   5.554  1.00  0.00    -0.185 N 
HETATM    5  C3  UNL     1      14.294  11.512   4.709  1.00  0.00     0.336 A 
ATOM      6  H4  UNL     1      14.672  12.588   6.480  1.00  0.00     0.181 HD
HETATM    7  N10 UNL     1      13.668  11.807   3.449  1.00  0.00    -0.183 N 
HETATM    8  C10 UNL     1      13.148  12.919   3.086  1.00  0.00     0.717 A 
ATOM      9  H10 UNL     1      13.636  11.046   2.770  1.00  0.00     0.181 HD
HETATM   10  N8  UNL     1      13.179  13.991   4.005  1.00  0.00    -0.021 N 
ATOM     11  H8  UNL     1      12.775  14.892   3.750  1.00  0.00     0.203 HD
BRANCH   5  12
HETATM   12  N3  UNL     1      15.640  11.056   4.493  1.00  0.00    -0.293 N 
ATOM     13  H3  UNL     1      15.796  10.072   4.276  1.00  0.00     0.184 HD
BRANCH  12  14
HETATM   14  N2  UNL     1      16.739  11.910   4.568  1.00  0.00    -0.293 N 
HETATM   15  C2  UNL     1      17.316  12.373   3.503  1.00  0.00     0.103 C 
HETATM   16  C1  UNL     1      16.875  12.049   2.145  1.00  0.00     0.086 C 
HETATM   17  N1  UNL     1      18.430  13.237   3.678  1.00  0.00    -0.087 NA
ATOM     18  H2  UNL     1      17.099  12.176   5.485  1.00  0.00     0.187 HD
ENDBRANCH  12  14
ENDBRANCH   5  12
BRANCH   8  19
HETATM   19  N9  UNL     1      12.564  13.069   1.809  1.00  0.00    -0.095 N 
HETATM   20  C11 UNL     1      11.249  13.625   1.690  1.00  0.00     0.205 C 
BRANCH  19  21
HETATM   21  O7  UNL     1      13.239  12.692   0.721  1.00  0.00    -0.274 OA
ATOM     22  H7  UNL     1      12.768  12.431  -0.061  1.00  0.00     0.245 HD
ENDBRANCH  19  21
ENDBRANCH   8  19
ENDBRANCH   1   3
BRANCH   1  23
HETATM   23  C5  UNL     1      13.234  14.827   7.500  1.00  0.00     0.151 A 
HETATM   24  C6  UNL     1      13.929  14.856   8.670  1.00  0.00     0.144 A 
HETATM   25  O2  UNL     1      13.275  14.815   9.850  1.00  0.00    -0.279 OA
HETATM   26  C8  UNL     1      11.976  14.745   9.926  1.00  0.00     0.271 A 
HETATM   27  N7  UNL     1      11.238  14.713   8.802  1.00  0.00    -0.290 N 
HETATM   28  C9  UNL     1      11.837  14.752   7.599  1.00  0.00     0.278 A 
ATOM     29  H7  UNL     1      10.221  14.659   8.862  1.00  0.00     0.172 HD
HETATM   30  O6  UNL     1      11.138  14.720   6.562  1.00  0.00    -0.266 OA
BRANCH  24  31
HETATM   31  C7  UNL     1      15.393  14.932   8.701  1.00  0.00     0.377 C 
BRANCH  31  32
HETATM   32  N6  UNL     1      15.952  16.151   8.206  1.00  0.00    -0.047 N 
ATOM     33  H63 UNL     1      15.459  16.446   7.363  1.00  0.00     0.277 HD
ATOM     34  H62 UNL     1      15.719  16.923   8.830  1.00  0.00     0.277 HD
ATOM     35  H61 UNL     1      16.957  16.131   8.034  1.00  0.00     0.277 HD
ENDBRANCH  31  32
BRANCH  31  36
HETATM   36  O1  UNL     1      15.922  13.838   8.002  1.00  0.00    -0.365 OA
ATOM     37  H1  UNL     1      16.207  13.180   8.625  1.00  0.00     0.212 HD
ENDBRANCH  31  36
ENDBRANCH  24  31
BRANCH  26  38
HETATM   38  S1  UNL     1      11.236  14.697  11.518  1.00  0.00     0.180 S 
HETATM   39  O3  UNL     1      12.312  14.375  12.527  1.00  0.00    -0.589 OA
HETATM   40  O4  UNL     1      10.186  13.621  11.589  1.00  0.00    -0.589 OA
HETATM   41  O5  UNL     1      10.491  16.157  11.883  1.00  0.00    -0.589 OA
ENDBRANCH  26  38
ENDBRANCH   1  23
TORSDOF 10
ENDMDL
MODEL 2
REMARK VINA RESULT: -7.510884889      1.760      3.852
REMARK  10 active torsions:
REMARK  status: ('A' for Active; 'I' for Inactive)
REMARK    1  A    between atoms: N2_4  and  N3_6 
REMARK    2  A    between atoms: N3_6  and  C3_8 
REMARK    3  A    between atoms: C4_11  and  N5_12 
REMARK    4  A    between atoms: N5_12  and  C5_14 
REMARK    5  A    between atoms: C6_15  and  C7_16 
REMARK    6  A    between atoms: C7_16  and  N6_17 
REMARK    7  A    between atoms: C7_16  and  O1_21 
REMARK    8  A    between atoms: C8_24  and  S1_25 
REMARK    9  A    between atoms: C10_35  and  N9_36 
REMARK   10  A    between atoms: N9_36  and  O7_38 
ROOT
HETATM    1  N5  UNL     1      13.561  15.432   6.370  1.00  0.00    -0.183 N 
ATOM      2  H5  UNL     1      13.994  16.322   6.127  1.00  0.00     0.184 HD
ENDROOT
BRANCH   1   3
HETATM    3  C4  UNL     1      13.488  14.426   5.355  1.00  0.00     0.696 A 
HETATM    4  N4  UNL     1      12.522  14.418   4.533  1.00  0.00    -0.185 N 
HETATM    5  C3  UNL     1      12.301  13.479   3.457  1.00  0.00     0.336 A 
ATOM      6  H4  UNL     1      11.825  15.154   4.644  1.00  0.00     0.181 HD
HETATM    7  N10 UNL     1      13.366  12.516   3.431  1.00  0.00    -0.183 N 
HETATM    8  C10 UNL     1      14.374  12.456   4.219  1.00  0.00     0.717 A 
ATOM      9  H10 UNL     1      13.313  11.801   2.705  1.00  0.00     0.181 HD
HETATM   10  N8  UNL     1      14.472  13.432   5.235  1.00  0.00    -0.021 N 
ATOM     11  H8  UNL     1      15.260  13.415   5.883  1.00  0.00     0.203 HD
BRANCH   5  12
HETATM   12  N3  UNL     1      11.036  12.809   3.589  1.00  0.00    -0.293 N 
ATOM     13  H3  UNL     1      10.772  12.115   2.889  1.00  0.00     0.184 HD
BRANCH  12  14
HETATM   14  N2  UNL     1      10.157  13.072   4.638  1.00  0.00    -0.293 N 
HETATM   15  C2  UNL     1       8.874  13.129   4.455  1.00  0.00     0.103 C 
HETATM   16  C1  UNL     1       8.240  12.926   3.151  1.00  0.00     0.086 C 
HETATM   17  N1  UNL     1       8.057  13.402   5.583  1.00  0.00    -0.087 NA
ATOM     18  H2  UNL     1      10.533  13.223   5.574  1.00  0.00     0.187 HD
ENDBRANCH  12  14
ENDBRANCH   5  12
BRANCH   8  19
HETATM   19  N9  UNL     1      15.351  11.447   4.078  1.00  0.00    -0.095 N 
HETATM   20  C11 UNL     1      16.595  11.560   4.781  1.00  0.00     0.205 C 
BRANCH  19  21
HETATM   21  O7  UNL     1      15.112  10.395   3.293  1.00  0.00    -0.274 OA
ATOM     22  H7  UNL     1      15.351  10.426   2.374  1.00  0.00     0.245 HD
ENDBRANCH  19  21
ENDBRANCH   8  19
ENDBRANCH   1   3
BRANCH   1  23
HETATM   23  C5  UNL     1      13.081  15.276   7.676  1.00  0.00     0.151 A 
HETATM   24  C6  UNL     1      13.862  15.155   8.785  1.00  0.00     0.144 A 
HETATM   25  O2  UNL     1      13.297  15.026  10.003  1.00  0.00    -0.279 OA
HETATM   26  C8  UNL     1      12.006  15.010  10.175  1.00  0.00     0.271 A 
HETATM   27  N7  UNL     1      11.185  15.125   9.115  1.00  0.00    -0.290 N 
HETATM   28  C9  UNL     1      11.694  15.257   7.878  1.00  0.00     0.278 A 
ATOM     29  H7  UNL     1      10.174  15.113   9.251  1.00  0.00     0.172 HD
HETATM   30  O6  UNL     1      10.919  15.362   6.901  1.00  0.00    -0.266 OA
BRANCH  24  31
HETATM   31  C7  UNL     1      15.326  15.158   8.706  1.00  0.00     0.377 C 
BRANCH  31  32
HETATM   32  N6  UNL     1      15.905  16.329   8.124  1.00  0.00    -0.047 N 
ATOM     33  H63 UNL     1      15.270  17.120   8.227  1.00  0.00     0.277 HD
ATOM     34  H62 UNL     1      16.688  16.652   8.692  1.00  0.00     0.277 HD
ATOM     35  H61 UNL     1      16.193  16.235   7.151  1.00  0.00     0.277 HD
ENDBRANCH  31  32
BRANCH  31  36
HETATM   36  O1  UNL     1      15.750  14.014   8.013  1.00  0.00    -0.365 OA
ATOM     37  H1  UNL     1      16.388  13.551   8.542  1.00  0.00     0.212 HD
ENDBRANCH  31  36
ENDBRANCH  24  31
BRANCH  26  38
HETATM   38  S1  UNL     1      11.384  14.837  11.808  1.00  0.00     0.180 S 
HETATM   39  O3  UNL     1      12.529  14.432  12.706  1.00  0.00    -0.589 OA
HETATM   40  O4  UNL     1      10.333  13.762  11.872  1.00  0.00    -0.589 OA
HETATM   41  O5  UNL     1      10.681  16.265  12.343  1.00  0.00    -0.589 OA
ENDBRANCH  26  38
ENDBRANCH   1  23
TORSDOF 10
ENDMDL
MODEL 3
REMARK VINA RESULT: -7.444787683      1.247      1.485
REMARK  10 active torsions:
REMARK  status: ('A' for Active; 'I' for Inactive)
REMARK    1  A    between atoms: N2_4  and  N3_6 
REMARK    2  A    between atoms: N3_6  and  C3_8 
REMARK    3  A    between atoms: C4_11  and  N5_12 
REMARK    4  A    between atoms: N5_12  and  C5_14 
REMARK    5  A    between atoms: C6_15  and  C7_16 
REMARK    6  A    between atoms: C7_16  and  N6_17 
REMARK    7  A    between atoms: C7_16  and  O1_21 
REMARK    8  A    between atoms: C8_24  and  S1_25 
REMARK    9  A    between atoms: C10_35  and  N9_36 
REMARK   10  A    between atoms: N9_36  and  O7_38 
ROOT
HETATM    1  N5  UNL     1      13.939  14.636   5.543  1.00  0.00    -0.183 N 
ATOM      2  H5  UNL     1      14.615  15.399   5.502  1.00  0.00     0.184 HD
ENDROOT
BRANCH   1   3
HETATM    3  C4  UNL     1      13.914  13.709   4.454  1.00  0.00     0.696 A 
HETATM    4  N4  UNL     1      14.481  12.580   4.564  1.00  0.00    -0.185 N 
HETATM    5  C3  UNL     1      14.547  11.537   3.565  1.00  0.00     0.336 A 
ATOM      6  H4  UNL     1      14.941  12.387   5.453  1.00  0.00     0.181 HD
HETATM    7  N10 UNL     1      13.853  11.958   2.381  1.00  0.00    -0.183 N 
HETATM    8  C10 UNL     1      13.255  13.075   2.191  1.00  0.00     0.717 A 
ATOM      9  H10 UNL     1      13.834  11.296   1.606  1.00  0.00     0.181 HD
HETATM   10  N8  UNL     1      13.266  14.014   3.247  1.00  0.00    -0.021 N 
ATOM     11  H8  UNL     1      12.802  14.915   3.131  1.00  0.00     0.203 HD
BRANCH   5  12
HETATM   12  N3  UNL     1      15.907  11.197   3.242  1.00  0.00    -0.293 N 
ATOM     13  H3  UNL     1      16.383  10.491   3.802  1.00  0.00     0.184 HD
BRANCH  12  14
HETATM   14  N2  UNL     1      16.597  11.798   2.191  1.00  0.00    -0.293 N 
HETATM   15  C2  UNL     1      17.550  12.652   2.401  1.00  0.00     0.103 C 
HETATM   16  C1  UNL     1      17.983  13.059   3.739  1.00  0.00     0.086 C 
HETATM   17  N1  UNL     1      18.197  13.213   1.268  1.00  0.00    -0.087 NA
ATOM     18  H2  UNL     1      16.346  11.559   1.231  1.00  0.00     0.187 HD
ENDBRANCH  12  14
ENDBRANCH   5  12
BRANCH   8  19
HETATM   19  N9  UNL     1      12.609  13.359   0.969  1.00  0.00    -0.095 N 
HETATM   20  C11 UNL     1      11.221  13.713   0.964  1.00  0.00     0.205 C 
BRANCH  19  21
HETATM   21  O7  UNL     1      13.294  13.295  -0.176  1.00  0.00    -0.274 OA
ATOM     22  H7  UNL     1      14.155  13.691  -0.234  1.00  0.00     0.245 HD
ENDBRANCH  19  21
ENDBRANCH   8  19
ENDBRANCH   1   3
BRANCH   1  23
HETATM   23  C5  UNL     1      13.101  14.568   6.662  1.00  0.00     0.151 A 
HETATM   24  C6  UNL     1      13.527  14.455   7.950  1.00  0.00     0.144 A 
HETATM   25  O2  UNL     1      12.634  14.414   8.961  1.00  0.00    -0.279 OA
HETATM   26  C8  UNL     1      11.348  14.479   8.758  1.00  0.00     0.271 A 
HETATM   27  N7  UNL     1      10.870  14.591   7.506  1.00  0.00    -0.290 N 
HETATM   28  C9  UNL     1      11.715  14.636   6.461  1.00  0.00     0.278 A 
ATOM     29  H7  UNL     1       9.863  14.642   7.348  1.00  0.00     0.172 HD
HETATM   30  O6  UNL     1      11.256  14.740   5.302  1.00  0.00    -0.266 OA
BRANCH  24  31
HETATM   31  C7  UNL     1      14.951  14.372   8.291  1.00  0.00     0.377 C 
BRANCH  31  32
HETATM   32  N6  UNL     1      15.665  15.609   8.237  1.00  0.00    -0.047 N 
ATOM     33  H63 UNL     1      16.606  15.487   8.614  1.00  0.00     0.277 HD
ATOM     34  H62 UNL     1      15.888  15.843   7.270  1.00  0.00     0.277 HD
ATOM     35  H61 UNL     1      15.206  16.398   8.692  1.00  0.00     0.277 HD
ENDBRANCH  31  32
BRANCH  31  36
HETATM   36  O1  UNL     1      15.566  13.422   7.463  1.00  0.00    -0.365 OA
ATOM     37  H1  UNL     1      15.018  12.648   7.420  1.00  0.00     0.212 HD
ENDBRANCH  31  36
ENDBRANCH  24  31
BRANCH  26  38
HETATM   38  S1  UNL     1      10.281  14.417  10.151  1.00  0.00     0.180 S 
HETATM   39  O3  UNL     1      10.327  15.760  10.838  1.00  0.00    -0.589 OA
HETATM   40  O4  UNL     1      10.738  13.371  11.132  1.00  0.00    -0.589 OA
HETATM   41  O5  UNL     1       8.712  14.032   9.694  1.00  0.00    -0.589 OA
ENDBRANCH  26  38
ENDBRANCH   1  23
TORSDOF 10
ENDMDL
MODEL 4
REMARK VINA RESULT: -7.367289559      1.510      2.475
REMARK  10 active torsions:
REMARK  status: ('A' for Active; 'I' for Inactive)
REMARK    1  A    between atoms: N2_4  and  N3_6 
REMARK    2  A    between atoms: N3_6  and  C3_8 
REMARK    3  A    between atoms: C4_11  and  N5_12 
REMARK    4  A    between atoms: N5_12  and  C5_14 
REMARK    5  A    between atoms: C6_15  and  C7_16 
REMARK    6  A    between atoms: C7_16  and  N6_17 
REMARK    7  A    between atoms: C7_16  and  O1_21 
REMARK    8  A    between atoms: C8_24  and  S1_25 
REMARK    9  A    between atoms: C10_35  and  N9_36 
REMARK   10  A    between atoms: N9_36  and  O7_38 
ROOT
HETATM    1  N5  UNL     1      14.678  14.864   6.569  1.00  0.00    -0.183 N 
ATOM      2  H5  UNL     1      15.375  15.556   6.293  1.00  0.00     0.184 HD
ENDROOT
BRANCH   1   3
HETATM    3  C4  UNL     1      14.386  13.810   5.647  1.00  0.00     0.696 A 
HETATM    4  N4  UNL     1      15.023  12.715   5.706  1.00  0.00    -0.185 N 
HETATM    5  C3  UNL     1      14.852  11.559   4.856  1.00  0.00     0.336 A 
ATOM      6  H4  UNL     1      15.735  12.642   6.433  1.00  0.00     0.181 HD
HETATM    7  N10 UNL     1      13.817  11.817   3.894  1.00  0.00    -0.183 N 
HETATM    8  C10 UNL     1      13.127  12.889   3.769  1.00  0.00     0.717 A 
ATOM      9  H10 UNL     1      13.608  11.064   3.239  1.00  0.00     0.181 HD
HETATM   10  N8  UNL     1      13.395  13.951   4.662  1.00  0.00    -0.021 N 
ATOM     11  H8  UNL     1      12.867  14.821   4.592  1.00  0.00     0.203 HD
BRANCH   5  12
HETATM   12  N3  UNL     1      16.073  11.211   4.181  1.00  0.00    -0.293 N 
ATOM     13  H3  UNL     1      16.788  10.696   4.694  1.00  0.00     0.184 HD
BRANCH  12  14
HETATM   14  N2  UNL     1      16.314  11.551   2.851  1.00  0.00    -0.293 N 
HETATM   15  C2  UNL     1      17.228  12.410   2.522  1.00  0.00     0.103 C 
HETATM   16  C1  UNL     1      18.079  13.092   3.500  1.00  0.00     0.086 C 
HETATM   17  N1  UNL     1      17.403  12.694   1.141  1.00  0.00    -0.087 NA
ATOM     18  H2  UNL     1      15.756  11.113   2.117  1.00  0.00     0.187 HD
ENDBRANCH  12  14
ENDBRANCH   5  12
BRANCH   8  19
HETATM   19  N9  UNL     1      12.135  13.007   2.772  1.00  0.00    -0.095 N 
HETATM   20  C11 UNL     1      12.515  13.313   1.425  1.00  0.00     0.205 C 
BRANCH  19  21
HETATM   21  O7  UNL     1      10.850  12.832   3.089  1.00  0.00    -0.274 OA
ATOM     22  H7  UNL     1      10.172  13.182   2.524  1.00  0.00     0.245 HD
ENDBRANCH  19  21
ENDBRANCH   8  19
ENDBRANCH   1   3
BRANCH   1  23
HETATM   23  C5  UNL     1      14.074  15.011   7.822  1.00  0.00     0.151 A 
HETATM   24  C6  UNL     1      12.904  15.669   8.052  1.00  0.00     0.144 A 
HETATM   25  O2  UNL     1      12.396  15.738   9.300  1.00  0.00    -0.279 OA
HETATM   26  C8  UNL     1      12.988  15.193  10.325  1.00  0.00     0.271 A 
HETATM   27  N7  UNL     1      14.147  14.530  10.158  1.00  0.00    -0.290 N 
HETATM   28  C9  UNL     1      14.697  14.430   8.935  1.00  0.00     0.278 A 
ATOM     29  H7  UNL     1      14.609  14.103  10.961  1.00  0.00     0.172 HD
HETATM   30  O6  UNL     1      15.776  13.812   8.794  1.00  0.00    -0.266 OA
BRANCH  24  31
HETATM   31  C7  UNL     1      12.156  16.321   6.972  1.00  0.00     0.377 C 
BRANCH  31  32
HETATM   32  N6  UNL     1      11.319  17.407   7.377  1.00  0.00    -0.047 N 
ATOM     33  H63 UNL     1      10.564  17.064   7.972  1.00  0.00     0.277 HD
ATOM     34  H62 UNL     1      11.814  18.003   8.041  1.00  0.00     0.277 HD
ATOM     35  H61 UNL     1      10.938  17.970   6.618  1.00  0.00     0.277 HD
ENDBRANCH  31  32
BRANCH  31  36
HETATM   36  O1  UNL     1      11.401  15.356   6.290  1.00  0.00    -0.365 OA
ATOM     37  H1  UNL     1      11.449  14.534   6.763  1.00  0.00     0.212 HD
ENDBRANCH  31  36
ENDBRANCH  24  31
BRANCH  26  38
HETATM   38  S1  UNL     1      12.233  15.348  11.903  1.00  0.00     0.180 S 
HETATM   39  O3  UNL     1      11.805  16.784  12.079  1.00  0.00    -0.589 OA
HETATM   40  O4  UNL     1      13.207  15.009  12.999  1.00  0.00    -0.589 OA
HETATM   41  O5  UNL     1      10.922  14.310  12.051  1.00  0.00    -0.589 OA
ENDBRANCH  26  38
ENDBRANCH   1  23
TORSDOF 10
ENDMDL
MODEL 5
REMARK VINA RESULT: -7.308647170      4.026      8.242
REMARK  10 active torsions:
REMARK  status: ('A' for Active; 'I' for Inactive)
REMARK    1  A    between atoms: N2_4  and  N3_6 
REMARK    2  A    between atoms: N3_6  and  C3_8 
REMARK    3  A    between atoms: C4_11  and  N5_12 
REMARK    4  A    between atoms: N5_12  and  C5_14 
REMARK    5  A    between atoms: C6_15  and  C7_16 
REMARK    6  A    between atoms: C7_16  and  N6_17 
REMARK    7  A    between atoms: C7_16  and  O1_21 
REMARK    8  A    between atoms: C8_24  and  S1_25 
REMARK    9  A    between atoms: C10_35  and  N9_36 
REMARK   10  A    between atoms: N9_36  and  O7_38 
ROOT
HETATM    1  N5  UNL     1      13.727  15.783   5.487  1.00  0.00    -0.183 N 
ATOM      2  H5  UNL     1      12.833  15.991   5.044  1.00  0.00     0.184 HD
ENDROOT
BRANCH   1   3
HETATM    3  C4  UNL     1      13.944  16.271   6.814  1.00  0.00     0.696 A 
HETATM    4  N4  UNL     1      13.459  15.653   7.809  1.00  0.00    -0.185 N 
HETATM    5  C3  UNL     1      13.585  16.012   9.204  1.00  0.00     0.336 A 
ATOM      6  H4  UNL     1      12.922  14.811   7.604  1.00  0.00     0.181 HD
HETATM    7  N10 UNL     1      14.368  17.209   9.325  1.00  0.00    -0.183 N 
HETATM    8  C10 UNL     1      14.893  17.890   8.376  1.00  0.00     0.717 A 
ATOM      9  H10 UNL     1      14.524  17.556  10.272  1.00  0.00     0.181 HD
HETATM   10  N8  UNL     1      14.694  17.434   7.053  1.00  0.00    -0.021 N 
ATOM     11  H8  UNL     1      15.095  17.952   6.271  1.00  0.00     0.203 HD
BRANCH   5  12
HETATM   12  N3  UNL     1      12.300  16.202   9.820  1.00  0.00    -0.293 N 
ATOM     13  H3  UNL     1      11.988  17.152  10.024  1.00  0.00     0.184 HD
BRANCH  12  14
HETATM   14  N2  UNL     1      11.464  15.136  10.149  1.00  0.00    -0.293 N 
HETATM   15  C2  UNL     1      11.379  14.686  11.363  1.00  0.00     0.103 C 
HETATM   16  C1  UNL     1      12.140  15.245  12.482  1.00  0.00     0.086 C 
HETATM   17  N1  UNL     1      10.500  13.596  11.604  1.00  0.00    -0.087 NA
ATOM     18  H2  UNL     1      10.905  14.699   9.417  1.00  0.00     0.187 HD
ENDBRANCH  12  14
ENDBRANCH   5  12
BRANCH   8  19
HETATM   19  N9  UNL     1      15.643  19.055   8.641  1.00  0.00    -0.095 N 
HETATM   20  C11 UNL     1      15.229  19.944   9.686  1.00  0.00     0.205 C 
BRANCH  19  21
HETATM   21  O7  UNL     1      16.734  19.323   7.919  1.00  0.00    -0.274 OA
ATOM     22  H7  UNL     1      16.775  20.118   7.402  1.00  0.00     0.245 HD
ENDBRANCH  19  21
ENDBRANCH   8  19
ENDBRANCH   1   3
BRANCH   1  23
HETATM   23  C5  UNL     1      14.659  15.037   4.756  1.00  0.00     0.151 A 
HETATM   24  C6  UNL     1      14.677  13.678   4.672  1.00  0.00     0.144 A 
HETATM   25  O2  UNL     1      15.610  13.055   3.923  1.00  0.00    -0.279 OA
HETATM   26  C8  UNL     1      16.522  13.708   3.259  1.00  0.00     0.271 A 
HETATM   27  N7  UNL     1      16.553  15.053   3.305  1.00  0.00    -0.290 N 
HETATM   28  C9  UNL     1      15.646  15.725   4.035  1.00  0.00     0.278 A 
ATOM     29  H7  UNL     1      17.266  15.564   2.784  1.00  0.00     0.172 HD
HETATM   30  O6  UNL     1      15.686  16.975   4.070  1.00  0.00    -0.266 OA
BRANCH  24  31
HETATM   31  C7  UNL     1      13.700  12.845   5.380  1.00  0.00     0.377 C 
BRANCH  31  32
HETATM   32  N6  UNL     1      13.846  11.435   5.188  1.00  0.00    -0.047 N 
ATOM     33  H63 UNL     1      13.077  10.939   5.640  1.00  0.00     0.277 HD
ATOM     34  H62 UNL     1      13.666  11.194   4.213  1.00  0.00     0.277 HD
ATOM     35  H61 UNL     1      14.738  11.044   5.487  1.00  0.00     0.277 HD
ENDBRANCH  31  32
BRANCH  31  36
HETATM   36  O1  UNL     1      12.407  13.251   5.023  1.00  0.00    -0.365 OA
ATOM     37  H1  UNL     1      12.113  13.919   5.630  1.00  0.00     0.212 HD
ENDBRANCH  31  36
ENDBRANCH  24  31
BRANCH  26  38
HETATM   38  S1  UNL     1      17.686  12.791   2.317  1.00  0.00     0.180 S 
HETATM   39  O3  UNL     1      16.992  11.562   1.781  1.00  0.00    -0.589 OA
HETATM   40  O4  UNL     1      18.838  12.344   3.176  1.00  0.00    -0.589 OA
HETATM   41  O5  UNL     1      18.316  13.716   1.066  1.00  0.00    -0.589 OA
ENDBRANCH  26  38
ENDBRANCH   1  23
TORSDOF 10
ENDMDL
