MODEL 1
REMARK VINA RESULT: -9.212020031      0.000      0.000
REMARK  18 active torsions:
REMARK  status: ('A' for Active; 'I' for Inactive)
REMARK    1  A    between atoms: N1_2  and  C2_3 
REMARK       I    between atoms: N1_2  and  C23_42 
REMARK    2  A    between atoms: C2_3  and  C3_4 
REMARK    3  A    between atoms: C3_4  and  C4_5 
REMARK    4  A    between atoms: C4_5  and  C5_6 
REMARK    5  A    between atoms: N4_12  and  C7_14 
REMARK    6  A    between atoms: C7_14  and  C8_15 
REMARK    7  A    between atoms: C8_15  and  N5_16 
REMARK       I    between atoms: N5_16  and  C9_18 
REMARK       I    between atoms: C9_18  and  N8_23 
REMARK    8  A    between atoms: N8_23  and  N9_25 
REMARK    9  A    between atoms: N9_25  and  C11_26 
REMARK   10  A    between atoms: C11_26  and  C12_27 
REMARK   11  A    between atoms: C12_27  and  C13_28 
REMARK   12  A    between atoms: C13_28  and  C14_29 
REMARK   13  A    between atoms: C14_29  and  N10_30 
REMARK   14  A    between atoms: C15_34  and  C16_35 
REMARK   15  A    between atoms: C16_35  and  C17_36 
REMARK   16  A    between atoms: C23_42  and  C24_44 
REMARK   17  A    between atoms: C24_44  and  C25_45 
REMARK   18  A    between atoms: C26_46  and  C27_47 
ROOT
HETATM    1  N5  UNL     1       4.300  -5.312  16.127  1.00  0.00    -0.223 N 
ATOM      2  H5  UNL     1       4.220  -5.427  15.116  1.00  0.00     0.177 HD
HETATM    3  C9  UNL     1       5.575  -5.327  16.730  1.00  0.00     0.698 C 
HETATM    4  N6  UNL     1       5.879  -6.260  17.548  1.00  0.00    -0.125 N 
ATOM      5  H6  UNL     1       5.186  -6.982  17.748  1.00  0.00     0.197 HD
HETATM    6  C10 UNL     1       7.120  -6.331  18.176  1.00  0.00     0.196 C 
HETATM    7  N7  UNL     1       8.161  -6.389  18.682  1.00  0.00    -0.171 NA
HETATM    8  N8  UNL     1       6.506  -4.311  16.428  1.00  0.00    -0.136 N 
ATOM      9  H8  UNL     1       6.799  -3.633  17.131  1.00  0.00     0.201 HD
ENDROOT
BRANCH   1  10
HETATM   10  C8  UNL     1       3.115  -5.136  16.914  1.00  0.00     0.157 C 
BRANCH  10  11
HETATM   11  C7  UNL     1       2.714  -3.676  16.964  1.00  0.00     0.141 C 
BRANCH  11  12
HETATM   12  N4  UNL     1       3.055  -2.976  15.766  1.00  0.00    -0.373 N 
HETATM   13  C6  UNL     1       3.868  -1.981  15.710  1.00  0.00     0.128 A 
HETATM   14  N3  UNL     1       4.554  -1.386  16.695  1.00  0.00    -0.285 N 
HETATM   15  C15 UNL     1       4.216  -1.282  14.549  1.00  0.00     0.037 A 
HETATM   16  N2  UNL     1       5.281  -0.394  16.224  1.00  0.00    -0.299 N 
ATOM     17  H3  UNL     1       4.519  -1.664  17.676  1.00  0.00     0.188 HD
HETATM   18  C5  UNL     1       5.108  -0.284  14.895  1.00  0.00     0.058 A 
ATOM     19  H2  UNL     1       5.887   0.204  16.785  1.00  0.00     0.187 HD
ATOM     20  H4  UNL     1       2.625  -3.288  14.895  1.00  0.00     0.161 HD
BRANCH  18  21
HETATM   21  C4  UNL     1       5.664   0.572  14.057  1.00  0.00     0.007 C 
BRANCH  21  22
HETATM   22  C3  UNL     1       6.966   0.342  13.426  1.00  0.00     0.049 C 
BRANCH  22  23
HETATM   23  C2  UNL     1       7.915   1.490  13.432  1.00  0.00     0.129 C 
BRANCH  23  24
HETATM   24  N1  UNL     1       7.993   2.226  12.200  1.00  0.00    -0.356 N 
HETATM   25  C1  UNL     1       7.461   3.573  12.181  1.00  0.00     0.152 C 
HETATM   26  C23 UNL     1       8.564   1.708  11.027  1.00  0.00     0.222 C 
HETATM   27  O1  UNL     1       9.031   0.551  11.031  1.00  0.00    -0.273 OA
BRANCH  26  28
HETATM   28  C24 UNL     1       8.611   2.522   9.795  1.00  0.00     0.130 C 
BRANCH  28  29
HETATM   29  C25 UNL     1       7.739   1.960   8.771  1.00  0.00    -0.017 C 
HETATM   30  C26 UNL     1       6.482   1.888   8.589  1.00  0.00     0.008 C 
BRANCH  30  31
HETATM   31  C27 UNL     1       5.378   2.370   9.362  1.00  0.00    -0.036 A 
HETATM   32  C28 UNL     1       4.993   1.871  10.574  1.00  0.00     0.011 A 
HETATM   33  C29 UNL     1       3.888   2.320  11.268  1.00  0.00     0.001 A 
HETATM   34  C30 UNL     1       3.103   3.326  10.748  1.00  0.00     0.000 A 
HETATM   35  C31 UNL     1       3.480   3.842   9.523  1.00  0.00     0.001 A 
HETATM   36  C32 UNL     1       4.562   3.395   8.854  1.00  0.00     0.011 A 
ENDBRANCH  30  31
ENDBRANCH  28  29
ENDBRANCH  26  28
ENDBRANCH  23  24
ENDBRANCH  22  23
ENDBRANCH  21  22
ENDBRANCH  18  21
BRANCH  15  37
HETATM   37  C16 UNL     1       3.765  -1.540  13.348  1.00  0.00     0.029 C 
BRANCH  37  38
HETATM   38  C17 UNL     1       2.590  -0.955  12.771  1.00  0.00    -0.035 A 
HETATM   39  C18 UNL     1       2.503  -0.827  11.405  1.00  0.00     0.011 A 
HETATM   40  C19 UNL     1       1.382  -0.277  10.828  1.00  0.00     0.001 A 
HETATM   41  C20 UNL     1       0.325   0.154  11.603  1.00  0.00     0.000 A 
HETATM   42  C21 UNL     1       0.409   0.027  12.970  1.00  0.00     0.001 A 
HETATM   43  C22 UNL     1       1.529  -0.520  13.539  1.00  0.00     0.011 A 
ENDBRANCH  37  38
ENDBRANCH  15  37
ENDBRANCH  11  12
ENDBRANCH  10  11
ENDBRANCH   1  10
BRANCH   8  44
HETATM   44  N9  UNL     1       7.012  -4.276  15.120  1.00  0.00    -0.126 NA
BRANCH  44  45
HETATM   45  C11 UNL     1       7.688  -3.014  14.857  1.00  0.00     0.135 C 
BRANCH  45  46
HETATM   46  C12 UNL     1       9.056  -2.995  15.494  1.00  0.00     0.019 C 
BRANCH  46  47
HETATM   47  C13 UNL     1       9.881  -4.099  14.888  1.00  0.00     0.028 C 
BRANCH  47  48
HETATM   48  C14 UNL     1      10.190  -5.186  15.900  1.00  0.00     0.229 C 
BRANCH  48  49
HETATM   49  N10 UNL     1       9.412  -6.356  15.552  1.00  0.00    -0.079 N 
ATOM     50 3H10 UNL     1       8.796  -6.197  14.754  1.00  0.00     0.274 HD
ATOM     51 2H10 UNL     1       9.979  -7.098  15.142  1.00  0.00     0.274 HD
ATOM     52 1H10 UNL     1       8.907  -6.659  16.385  1.00  0.00     0.274 HD
ENDBRANCH  48  49
ENDBRANCH  47  48
ENDBRANCH  46  47
ENDBRANCH  45  46
ENDBRANCH  44  45
ENDBRANCH   8  44
TORSDOF 18
ENDMDL
MODEL 2
REMARK VINA RESULT: -9.006911863      1.112      1.580
REMARK  18 active torsions:
REMARK  status: ('A' for Active; 'I' for Inactive)
REMARK    1  A    between atoms: N1_2  and  C2_3 
REMARK       I    between atoms: N1_2  and  C23_42 
REMARK    2  A    between atoms: C2_3  and  C3_4 
REMARK    3  A    between atoms: C3_4  and  C4_5 
REMARK    4  A    between atoms: C4_5  and  C5_6 
REMARK    5  A    between atoms: N4_12  and  C7_14 
REMARK    6  A    between atoms: C7_14  and  C8_15 
REMARK    7  A    between atoms: C8_15  and  N5_16 
REMARK       I    between atoms: N5_16  and  C9_18 
REMARK       I    between atoms: C9_18  and  N8_23 
REMARK    8  A    between atoms: N8_23  and  N9_25 
REMARK    9  A    between atoms: N9_25  and  C11_26 
REMARK   10  A    between atoms: C11_26  and  C12_27 
REMARK   11  A    between atoms: C12_27  and  C13_28 
REMARK   12  A    between atoms: C13_28  and  C14_29 
REMARK   13  A    between atoms: C14_29  and  N10_30 
REMARK   14  A    between atoms: C15_34  and  C16_35 
REMARK   15  A    between atoms: C16_35  and  C17_36 
REMARK   16  A    between atoms: C23_42  and  C24_44 
REMARK   17  A    between atoms: C24_44  and  C25_45 
REMARK   18  A    between atoms: C26_46  and  C27_47 
ROOT
HETATM    1  N5  UNL     1       4.327  -5.140  16.195  1.00  0.00    -0.223 N 
ATOM      2  H5  UNL     1       4.199  -5.227  15.187  1.00  0.00     0.177 HD
HETATM    3  C9  UNL     1       5.628  -5.177  16.736  1.00  0.00     0.698 C 
HETATM    4  N6  UNL     1       5.966  -6.134  17.513  1.00  0.00    -0.125 N 
ATOM      5  H6  UNL     1       5.280  -6.858  17.726  1.00  0.00     0.197 HD
HETATM    6  C10 UNL     1       7.235  -6.228  18.079  1.00  0.00     0.196 C 
HETATM    7  N7  UNL     1       8.299  -6.304  18.533  1.00  0.00    -0.171 NA
HETATM    8  N8  UNL     1       6.550  -4.157  16.419  1.00  0.00    -0.136 N 
ATOM      9  H8  UNL     1       6.879  -3.500  17.125  1.00  0.00     0.201 HD
ENDROOT
BRANCH   1  10
HETATM   10  C8  UNL     1       3.182  -4.981  17.042  1.00  0.00     0.157 C 
BRANCH  10  11
HETATM   11  C7  UNL     1       2.660  -3.560  16.983  1.00  0.00     0.141 C 
BRANCH  11  12
HETATM   12  N4  UNL     1       3.036  -2.893  15.776  1.00  0.00    -0.373 N 
HETATM   13  C6  UNL     1       3.883  -1.928  15.711  1.00  0.00     0.128 A 
HETATM   14  N3  UNL     1       4.581  -1.340  16.691  1.00  0.00    -0.285 N 
HETATM   15  C15 UNL     1       4.265  -1.261  14.541  1.00  0.00     0.037 A 
HETATM   16  N2  UNL     1       5.345  -0.381  16.210  1.00  0.00    -0.299 N 
ATOM     17  H3  UNL     1       4.527  -1.599  17.676  1.00  0.00     0.188 HD
HETATM   18  C5  UNL     1       5.188  -0.289  14.878  1.00  0.00     0.058 A 
ATOM     19  H2  UNL     1       5.966   0.206  16.767  1.00  0.00     0.187 HD
ATOM     20  H4  UNL     1       2.603  -3.205  14.906  1.00  0.00     0.161 HD
BRANCH  18  21
HETATM   21  C4  UNL     1       5.780   0.534  14.031  1.00  0.00     0.007 C 
BRANCH  21  22
HETATM   22  C3  UNL     1       7.236   0.645  13.911  1.00  0.00     0.049 C 
BRANCH  22  23
HETATM   23  C2  UNL     1       7.743   1.569  12.858  1.00  0.00     0.129 C 
BRANCH  23  24
HETATM   24  N1  UNL     1       7.234   1.329  11.536  1.00  0.00    -0.356 N 
HETATM   25  C1  UNL     1       7.672   0.132  10.849  1.00  0.00     0.152 C 
HETATM   26  C23 UNL     1       6.334   2.190  10.889  1.00  0.00     0.222 C 
HETATM   27  O1  UNL     1       5.945   3.222  11.472  1.00  0.00    -0.273 OA
BRANCH  26  28
HETATM   28  C24 UNL     1       5.850   1.881   9.528  1.00  0.00     0.130 C 
BRANCH  28  29
HETATM   29  C25 UNL     1       5.599   3.105   8.778  1.00  0.00    -0.017 C 
HETATM   30  C26 UNL     1       4.574   3.808   8.504  1.00  0.00     0.008 C 
BRANCH  30  31
HETATM   31  C27 UNL     1       3.196   3.662   8.859  1.00  0.00    -0.036 A 
HETATM   32  C28 UNL     1       2.718   3.599  10.137  1.00  0.00     0.011 A 
HETATM   33  C29 UNL     1       1.388   3.400  10.446  1.00  0.00     0.001 A 
HETATM   34  C30 UNL     1       0.456   3.252   9.443  1.00  0.00     0.000 A 
HETATM   35  C31 UNL     1       0.923   3.315   8.143  1.00  0.00     0.001 A 
HETATM   36  C32 UNL     1       2.226   3.510   7.853  1.00  0.00     0.011 A 
ENDBRANCH  30  31
ENDBRANCH  28  29
ENDBRANCH  26  28
ENDBRANCH  23  24
ENDBRANCH  22  23
ENDBRANCH  21  22
ENDBRANCH  18  21
BRANCH  15  37
HETATM   37  C16 UNL     1       3.816  -1.524  13.340  1.00  0.00     0.029 C 
BRANCH  37  38
HETATM   38  C17 UNL     1       2.637  -0.948  12.762  1.00  0.00    -0.035 A 
HETATM   39  C18 UNL     1       2.586  -0.740  11.405  1.00  0.00     0.011 A 
HETATM   40  C19 UNL     1       1.463  -0.197  10.826  1.00  0.00     0.001 A 
HETATM   41  C20 UNL     1       0.367   0.146  11.591  1.00  0.00     0.000 A 
HETATM   42  C21 UNL     1       0.415  -0.061  12.950  1.00  0.00     0.001 A 
HETATM   43  C22 UNL     1       1.538  -0.601  13.521  1.00  0.00     0.011 A 
ENDBRANCH  37  38
ENDBRANCH  15  37
ENDBRANCH  11  12
ENDBRANCH  10  11
ENDBRANCH   1  10
BRANCH   8  44
HETATM   44  N9  UNL     1       6.993  -4.088  15.090  1.00  0.00    -0.126 NA
BRANCH  44  45
HETATM   45  C11 UNL     1       7.739  -2.860  14.853  1.00  0.00     0.135 C 
BRANCH  45  46
HETATM   46  C12 UNL     1       9.063  -2.888  15.577  1.00  0.00     0.019 C 
BRANCH  46  47
HETATM   47  C13 UNL     1       9.953  -3.900  14.908  1.00  0.00     0.028 C 
BRANCH  47  48
HETATM   48  C14 UNL     1      10.177  -5.115  15.788  1.00  0.00     0.229 C 
BRANCH  48  49
HETATM   49  N10 UNL     1       9.377  -6.201  15.265  1.00  0.00    -0.079 N 
ATOM     50 3H10 UNL     1       9.068  -6.037  14.306  1.00  0.00     0.274 HD
ATOM     51 2H10 UNL     1       9.923  -7.045  15.090  1.00  0.00     0.274 HD
ATOM     52 1H10 UNL     1       8.600  -6.359  15.908  1.00  0.00     0.274 HD
ENDBRANCH  48  49
ENDBRANCH  47  48
ENDBRANCH  46  47
ENDBRANCH  45  46
ENDBRANCH  44  45
ENDBRANCH   8  44
TORSDOF 18
ENDMDL
MODEL 3
REMARK VINA RESULT: -8.733914813      3.879     10.210
REMARK  18 active torsions:
REMARK  status: ('A' for Active; 'I' for Inactive)
REMARK    1  A    between atoms: N1_2  and  C2_3 
REMARK       I    between atoms: N1_2  and  C23_42 
REMARK    2  A    between atoms: C2_3  and  C3_4 
REMARK    3  A    between atoms: C3_4  and  C4_5 
REMARK    4  A    between atoms: C4_5  and  C5_6 
REMARK    5  A    between atoms: N4_12  and  C7_14 
REMARK    6  A    between atoms: C7_14  and  C8_15 
REMARK    7  A    between atoms: C8_15  and  N5_16 
REMARK       I    between atoms: N5_16  and  C9_18 
REMARK       I    between atoms: C9_18  and  N8_23 
REMARK    8  A    between atoms: N8_23  and  N9_25 
REMARK    9  A    between atoms: N9_25  and  C11_26 
REMARK   10  A    between atoms: C11_26  and  C12_27 
REMARK   11  A    between atoms: C12_27  and  C13_28 
REMARK   12  A    between atoms: C13_28  and  C14_29 
REMARK   13  A    between atoms: C14_29  and  N10_30 
REMARK   14  A    between atoms: C15_34  and  C16_35 
REMARK   15  A    between atoms: C16_35  and  C17_36 
REMARK   16  A    between atoms: C23_42  and  C24_44 
REMARK   17  A    between atoms: C24_44  and  C25_45 
REMARK   18  A    between atoms: C26_46  and  C27_47 
ROOT
HETATM    1  N5  UNL     1       6.373   1.304  11.441  1.00  0.00    -0.223 N 
ATOM      2  H5  UNL     1       6.601   0.420  10.985  1.00  0.00     0.177 HD
HETATM    3  C9  UNL     1       5.030   1.725  11.511  1.00  0.00     0.698 C 
HETATM    4  N6  UNL     1       4.664   2.786  10.900  1.00  0.00    -0.125 N 
ATOM      5  H6  UNL     1       5.359   3.311  10.369  1.00  0.00     0.197 HD
HETATM    6  C10 UNL     1       3.353   3.254  10.930  1.00  0.00     0.196 C 
HETATM    7  N7  UNL     1       2.255   3.627  10.949  1.00  0.00    -0.171 NA
HETATM    8  N8  UNL     1       4.097   0.974  12.255  1.00  0.00    -0.136 N 
ATOM      9  H8  UNL     1       3.672   1.345  13.105  1.00  0.00     0.201 HD
ENDROOT
BRANCH   1  10
HETATM   10  C8  UNL     1       7.425   2.101  12.001  1.00  0.00     0.157 C 
BRANCH  10  11
HETATM   11  C7  UNL     1       7.752   1.649  13.409  1.00  0.00     0.141 C 
BRANCH  11  12
HETATM   12  N4  UNL     1       7.457   0.266  13.618  1.00  0.00    -0.373 N 
HETATM   13  C6  UNL     1       6.547  -0.172  14.414  1.00  0.00     0.128 A 
HETATM   14  N3  UNL     1       5.700   0.510  15.197  1.00  0.00    -0.285 N 
HETATM   15  C15 UNL     1       6.242  -1.520  14.634  1.00  0.00     0.037 A 
HETATM   16  N2  UNL     1       4.918  -0.312  15.865  1.00  0.00    -0.299 N 
ATOM     17  H3  UNL     1       5.667   1.527  15.267  1.00  0.00     0.188 HD
HETATM   18  C5  UNL     1       5.211  -1.586  15.553  1.00  0.00     0.058 A 
ATOM     19  H2  UNL     1       4.194  -0.024  16.523  1.00  0.00     0.187 HD
ATOM     20  H4  UNL     1       8.006  -0.420  13.101  1.00  0.00     0.161 HD
BRANCH  18  21
HETATM   21  C4  UNL     1       4.650  -2.697  15.997  1.00  0.00     0.007 C 
BRANCH  21  22
HETATM   22  C3  UNL     1       3.228  -2.793  16.335  1.00  0.00     0.049 C 
BRANCH  22  23
HETATM   23  C2  UNL     1       2.791  -4.053  17.000  1.00  0.00     0.129 C 
BRANCH  23  24
HETATM   24  N1  UNL     1       2.822  -5.226  16.171  1.00  0.00    -0.356 N 
HETATM   25  C1  UNL     1       2.022  -5.224  14.965  1.00  0.00     0.152 C 
HETATM   26  C23 UNL     1       3.593  -6.360  16.469  1.00  0.00     0.222 C 
HETATM   27  O1  UNL     1       4.291  -6.373  17.503  1.00  0.00    -0.273 OA
BRANCH  26  28
HETATM   28  C24 UNL     1       3.578  -7.533  15.571  1.00  0.00     0.130 C 
BRANCH  28  29
HETATM   29  C25 UNL     1       4.304  -8.649  16.165  1.00  0.00    -0.017 C 
HETATM   30  C26 UNL     1       4.332  -9.909  15.990  1.00  0.00     0.008 C 
BRANCH  30  31
HETATM   31  C27 UNL     1       3.626 -10.762  15.083  1.00  0.00    -0.036 A 
HETATM   32  C28 UNL     1       2.800 -11.785  15.450  1.00  0.00     0.011 A 
HETATM   33  C29 UNL     1       2.178 -12.626  14.550  1.00  0.00     0.001 A 
HETATM   34  C30 UNL     1       2.373 -12.460  13.196  1.00  0.00     0.000 A 
HETATM   35  C31 UNL     1       3.206 -11.428  12.807  1.00  0.00     0.001 A 
HETATM   36  C32 UNL     1       3.808 -10.612  13.697  1.00  0.00     0.011 A 
ENDBRANCH  30  31
ENDBRANCH  28  29
ENDBRANCH  26  28
ENDBRANCH  23  24
ENDBRANCH  22  23
ENDBRANCH  21  22
ENDBRANCH  18  21
BRANCH  15  37
HETATM   37  C16 UNL     1       6.838  -2.534  14.060  1.00  0.00     0.029 C 
BRANCH  37  38
HETATM   38  C17 UNL     1       7.958  -3.242  14.609  1.00  0.00    -0.035 A 
HETATM   39  C18 UNL     1       7.988  -4.614  14.533  1.00  0.00     0.011 A 
HETATM   40  C19 UNL     1       9.055  -5.315  15.044  1.00  0.00     0.001 A 
HETATM   41  C20 UNL     1      10.114  -4.661  15.639  1.00  0.00     0.000 A 
HETATM   42  C21 UNL     1      10.086  -3.288  15.717  1.00  0.00     0.001 A 
HETATM   43  C22 UNL     1       9.019  -2.595  15.207  1.00  0.00     0.011 A 
ENDBRANCH  37  38
ENDBRANCH  15  37
ENDBRANCH  11  12
ENDBRANCH  10  11
ENDBRANCH   1  10
BRANCH   8  44
HETATM   44  N9  UNL     1       3.779  -0.306  11.776  1.00  0.00    -0.126 NA
BRANCH  44  45
HETATM   45  C11 UNL     1       2.337  -0.504  11.735  1.00  0.00     0.135 C 
BRANCH  45  46
HETATM   46  C12 UNL     1       1.769  -0.602  13.131  1.00  0.00     0.019 C 
BRANCH  46  47
HETATM   47  C13 UNL     1       0.403   0.032  13.136  1.00  0.00     0.028 C 
BRANCH  47  48
HETATM   48  C14 UNL     1       0.088   0.688  11.805  1.00  0.00     0.229 C 
BRANCH  48  49
HETATM   49  N10 UNL     1      -0.267   2.068  12.059  1.00  0.00    -0.079 N 
ATOM     50 3H10 UNL     1      -0.323   2.284  13.054  1.00  0.00     0.274 HD
ATOM     51 2H10 UNL     1       0.481   2.718  11.819  1.00  0.00     0.274 HD
ATOM     52 1H10 UNL     1      -1.136   2.267  11.563  1.00  0.00     0.274 HD
ENDBRANCH  48  49
ENDBRANCH  47  48
ENDBRANCH  46  47
ENDBRANCH  45  46
ENDBRANCH  44  45
ENDBRANCH   8  44
TORSDOF 18
ENDMDL
MODEL 4
REMARK VINA RESULT: -8.684428049      1.584      2.555
REMARK  18 active torsions:
REMARK  status: ('A' for Active; 'I' for Inactive)
REMARK    1  A    between atoms: N1_2  and  C2_3 
REMARK       I    between atoms: N1_2  and  C23_42 
REMARK    2  A    between atoms: C2_3  and  C3_4 
REMARK    3  A    between atoms: C3_4  and  C4_5 
REMARK    4  A    between atoms: C4_5  and  C5_6 
REMARK    5  A    between atoms: N4_12  and  C7_14 
REMARK    6  A    between atoms: C7_14  and  C8_15 
REMARK    7  A    between atoms: C8_15  and  N5_16 
REMARK       I    between atoms: N5_16  and  C9_18 
REMARK       I    between atoms: C9_18  and  N8_23 
REMARK    8  A    between atoms: N8_23  and  N9_25 
REMARK    9  A    between atoms: N9_25  and  C11_26 
REMARK   10  A    between atoms: C11_26  and  C12_27 
REMARK   11  A    between atoms: C12_27  and  C13_28 
REMARK   12  A    between atoms: C13_28  and  C14_29 
REMARK   13  A    between atoms: C14_29  and  N10_30 
REMARK   14  A    between atoms: C15_34  and  C16_35 
REMARK   15  A    between atoms: C16_35  and  C17_36 
REMARK   16  A    between atoms: C23_42  and  C24_44 
REMARK   17  A    between atoms: C24_44  and  C25_45 
REMARK   18  A    between atoms: C26_46  and  C27_47 
ROOT
HETATM    1  N5  UNL     1       4.354  -5.234  16.310  1.00  0.00    -0.223 N 
ATOM      2  H5  UNL     1       4.241  -5.296  15.299  1.00  0.00     0.177 HD
HETATM    3  C9  UNL     1       5.647  -5.296  16.871  1.00  0.00     0.698 C 
HETATM    4  N6  UNL     1       5.964  -6.274  17.630  1.00  0.00    -0.125 N 
ATOM      5  H6  UNL     1       5.267  -6.996  17.816  1.00  0.00     0.197 HD
HETATM    6  C10 UNL     1       7.222  -6.392  18.214  1.00  0.00     0.196 C 
HETATM    7  N7  UNL     1       8.279  -6.489  18.682  1.00  0.00    -0.171 NA
HETATM    8  N8  UNL     1       6.582  -4.278  16.592  1.00  0.00    -0.136 N 
ATOM      9  H8  UNL     1       6.906  -3.640  17.318  1.00  0.00     0.201 HD
ENDROOT
BRANCH   1  10
HETATM   10  C8  UNL     1       3.197  -5.084  17.143  1.00  0.00     0.157 C 
BRANCH  10  11
HETATM   11  C7  UNL     1       2.702  -3.652  17.125  1.00  0.00     0.141 C 
BRANCH  11  12
HETATM   12  N4  UNL     1       3.008  -2.987  15.898  1.00  0.00    -0.373 N 
HETATM   13  C6  UNL     1       3.833  -2.007  15.787  1.00  0.00     0.128 A 
HETATM   14  N3  UNL     1       4.566  -1.400  16.730  1.00  0.00    -0.285 N 
HETATM   15  C15 UNL     1       4.146  -1.341  14.597  1.00  0.00     0.037 A 
HETATM   16  N2  UNL     1       5.289  -0.431  16.208  1.00  0.00    -0.299 N 
ATOM     17  H3  UNL     1       4.564  -1.654  17.718  1.00  0.00     0.188 HD
HETATM   18  C5  UNL     1       5.067  -0.350  14.885  1.00  0.00     0.058 A 
ATOM     19  H2  UNL     1       5.925   0.170  16.731  1.00  0.00     0.187 HD
ATOM     20  H4  UNL     1       2.540  -3.312  15.052  1.00  0.00     0.161 HD
BRANCH  18  21
HETATM   21  C4  UNL     1       5.603   0.477  14.005  1.00  0.00     0.007 C 
BRANCH  21  22
HETATM   22  C3  UNL     1       7.013   0.420  13.611  1.00  0.00     0.049 C 
BRANCH  22  23
HETATM   23  C2  UNL     1       7.591   1.670  13.041  1.00  0.00     0.129 C 
BRANCH  23  24
HETATM   24  N1  UNL     1       7.472   1.804  11.616  1.00  0.00    -0.356 N 
HETATM   25  C1  UNL     1       6.293   2.463  11.093  1.00  0.00     0.152 C 
HETATM   26  C23 UNL     1       8.442   1.339  10.714  1.00  0.00     0.222 C 
HETATM   27  O1  UNL     1       9.466   0.774  11.152  1.00  0.00    -0.273 OA
BRANCH  26  28
HETATM   28  C24 UNL     1       8.256   1.512   9.259  1.00  0.00     0.130 C 
BRANCH  28  29
HETATM   29  C25 UNL     1       8.728   0.338   8.535  1.00  0.00    -0.017 C 
HETATM   30  C26 UNL     1       8.689  -0.059   7.326  1.00  0.00     0.008 C 
BRANCH  30  31
HETATM   31  C27 UNL     1       8.143   0.536   6.145  1.00  0.00    -0.036 A 
HETATM   32  C28 UNL     1       8.867   1.207   5.200  1.00  0.00     0.011 A 
HETATM   33  C29 UNL     1       8.303   1.820   4.099  1.00  0.00     0.001 A 
HETATM   34  C30 UNL     1       6.940   1.777   3.903  1.00  0.00     0.000 A 
HETATM   35  C31 UNL     1       6.194   1.100   4.849  1.00  0.00     0.001 A 
HETATM   36  C32 UNL     1       6.756   0.505   5.921  1.00  0.00     0.011 A 
ENDBRANCH  30  31
ENDBRANCH  28  29
ENDBRANCH  26  28
ENDBRANCH  23  24
ENDBRANCH  22  23
ENDBRANCH  21  22
ENDBRANCH  18  21
BRANCH  15  37
HETATM   37  C16 UNL     1       3.646  -1.619  13.420  1.00  0.00     0.029 C 
BRANCH  37  38
HETATM   38  C17 UNL     1       2.512  -0.964  12.837  1.00  0.00    -0.035 A 
HETATM   39  C18 UNL     1       2.520  -0.675  11.494  1.00  0.00     0.011 A 
HETATM   40  C19 UNL     1       1.440  -0.055  10.910  1.00  0.00     0.001 A 
HETATM   41  C20 UNL     1       0.330   0.287  11.655  1.00  0.00     0.000 A 
HETATM   42  C21 UNL     1       0.320  -0.001  13.000  1.00  0.00     0.001 A 
HETATM   43  C22 UNL     1       1.399  -0.618  13.576  1.00  0.00     0.011 A 
ENDBRANCH  37  38
ENDBRANCH  15  37
ENDBRANCH  11  12
ENDBRANCH  10  11
ENDBRANCH   1  10
BRANCH   8  44
HETATM   44  N9  UNL     1       7.047  -4.181  15.272  1.00  0.00    -0.126 NA
BRANCH  44  45
HETATM   45  C11 UNL     1       7.771  -2.936  15.064  1.00  0.00     0.135 C 
BRANCH  45  46
HETATM   46  C12 UNL     1       9.208  -3.069  15.505  1.00  0.00     0.019 C 
BRANCH  46  47
HETATM   47  C13 UNL     1       9.809  -4.267  14.819  1.00  0.00     0.028 C 
BRANCH  47  48
HETATM   48  C14 UNL     1      10.199  -5.343  15.814  1.00  0.00     0.229 C 
BRANCH  48  49
HETATM   49  N10 UNL     1       9.376  -6.507  15.561  1.00  0.00    -0.079 N 
ATOM     50 3H10 UNL     1       9.735  -7.349  16.013  1.00  0.00     0.274 HD
ATOM     51 2H10 UNL     1       8.477  -6.466  16.041  1.00  0.00     0.274 HD
ATOM     52 1H10 UNL     1       9.280  -6.612  14.551  1.00  0.00     0.274 HD
ENDBRANCH  48  49
ENDBRANCH  47  48
ENDBRANCH  46  47
ENDBRANCH  45  46
ENDBRANCH  44  45
ENDBRANCH   8  44
TORSDOF 18
ENDMDL
MODEL 5
REMARK VINA RESULT: -8.628947799      1.477      2.725
REMARK  18 active torsions:
REMARK  status: ('A' for Active; 'I' for Inactive)
REMARK    1  A    between atoms: N1_2  and  C2_3 
REMARK       I    between atoms: N1_2  and  C23_42 
REMARK    2  A    between atoms: C2_3  and  C3_4 
REMARK    3  A    between atoms: C3_4  and  C4_5 
REMARK    4  A    between atoms: C4_5  and  C5_6 
REMARK    5  A    between atoms: N4_12  and  C7_14 
REMARK    6  A    between atoms: C7_14  and  C8_15 
REMARK    7  A    between atoms: C8_15  and  N5_16 
REMARK       I    between atoms: N5_16  and  C9_18 
REMARK       I    between atoms: C9_18  and  N8_23 
REMARK    8  A    between atoms: N8_23  and  N9_25 
REMARK    9  A    between atoms: N9_25  and  C11_26 
REMARK   10  A    between atoms: C11_26  and  C12_27 
REMARK   11  A    between atoms: C12_27  and  C13_28 
REMARK   12  A    between atoms: C13_28  and  C14_29 
REMARK   13  A    between atoms: C14_29  and  N10_30 
REMARK   14  A    between atoms: C15_34  and  C16_35 
REMARK   15  A    between atoms: C16_35  and  C17_36 
REMARK   16  A    between atoms: C23_42  and  C24_44 
REMARK   17  A    between atoms: C24_44  and  C25_45 
REMARK   18  A    between atoms: C26_46  and  C27_47 
ROOT
HETATM    1  N5  UNL     1       4.240  -5.174  16.231  1.00  0.00    -0.223 N 
ATOM      2  H5  UNL     1       4.119  -5.301  15.226  1.00  0.00     0.177 HD
HETATM    3  C9  UNL     1       5.535  -5.216  16.787  1.00  0.00     0.698 C 
HETATM    4  N6  UNL     1       5.845  -6.146  17.606  1.00  0.00    -0.125 N 
ATOM      5  H6  UNL     1       5.141  -6.846  17.842  1.00  0.00     0.197 HD
HETATM    6  C10 UNL     1       7.106  -6.242  18.189  1.00  0.00     0.196 C 
HETATM    7  N7  UNL     1       8.164  -6.322  18.656  1.00  0.00    -0.171 NA
HETATM    8  N8  UNL     1       6.480  -4.229  16.437  1.00  0.00    -0.136 N 
ATOM      9  H8  UNL     1       6.817  -3.550  17.119  1.00  0.00     0.201 HD
ENDROOT
BRANCH   1  10
HETATM   10  C8  UNL     1       3.089  -4.957  17.059  1.00  0.00     0.157 C 
BRANCH  10  11
HETATM   11  C7  UNL     1       2.683  -3.498  17.043  1.00  0.00     0.141 C 
BRANCH  11  12
HETATM   12  N4  UNL     1       2.980  -2.864  15.798  1.00  0.00    -0.373 N 
HETATM   13  C6  UNL     1       3.809  -1.892  15.655  1.00  0.00     0.128 A 
HETATM   14  N3  UNL     1       4.556  -1.268  16.576  1.00  0.00    -0.285 N 
HETATM   15  C15 UNL     1       4.115  -1.256  14.446  1.00  0.00     0.037 A 
HETATM   16  N2  UNL     1       5.280  -0.316  16.023  1.00  0.00    -0.299 N 
ATOM     17  H3  UNL     1       4.563  -1.498  17.569  1.00  0.00     0.188 HD
HETATM   18  C5  UNL     1       5.044  -0.265  14.700  1.00  0.00     0.058 A 
ATOM     19  H2  UNL     1       5.925   0.294  16.525  1.00  0.00     0.187 HD
ATOM     20  H4  UNL     1       2.501  -3.206  14.964  1.00  0.00     0.161 HD
BRANCH  18  21
HETATM   21  C4  UNL     1       5.577   0.537  13.796  1.00  0.00     0.007 C 
BRANCH  21  22
HETATM   22  C3  UNL     1       6.885   0.294  13.183  1.00  0.00     0.049 C 
BRANCH  22  23
HETATM   23  C2  UNL     1       7.844   1.434  13.201  1.00  0.00     0.129 C 
BRANCH  23  24
HETATM   24  N1  UNL     1       8.283   1.885  11.910  1.00  0.00    -0.356 N 
HETATM   25  C1  UNL     1       9.189   1.035  11.167  1.00  0.00     0.152 C 
HETATM   26  C23 UNL     1       7.870   3.097  11.335  1.00  0.00     0.222 C 
HETATM   27  O1  UNL     1       7.085   3.837  11.963  1.00  0.00    -0.273 OA
BRANCH  26  28
HETATM   28  C24 UNL     1       8.360   3.500  10.002  1.00  0.00     0.130 C 
BRANCH  28  29
HETATM   29  C25 UNL     1       7.270   3.523   9.035  1.00  0.00    -0.017 C 
HETATM   30  C26 UNL     1       7.041   2.973   7.910  1.00  0.00     0.008 C 
BRANCH  30  31
HETATM   31  C27 UNL     1       7.810   2.057   7.124  1.00  0.00    -0.036 A 
HETATM   32  C28 UNL     1       8.292   2.312   5.872  1.00  0.00     0.011 A 
HETATM   33  C29 UNL     1       8.982   1.386   5.116  1.00  0.00     0.001 A 
HETATM   34  C30 UNL     1       9.220   0.123   5.612  1.00  0.00     0.000 A 
HETATM   35  C31 UNL     1       8.740  -0.150   6.879  1.00  0.00     0.001 A 
HETATM   36  C32 UNL     1       8.067   0.763   7.608  1.00  0.00     0.011 A 
ENDBRANCH  30  31
ENDBRANCH  28  29
ENDBRANCH  26  28
ENDBRANCH  23  24
ENDBRANCH  22  23
ENDBRANCH  21  22
ENDBRANCH  18  21
BRANCH  15  37
HETATM   37  C16 UNL     1       3.601  -1.560  13.281  1.00  0.00     0.029 C 
BRANCH  37  38
HETATM   38  C17 UNL     1       2.455  -0.923  12.701  1.00  0.00    -0.035 A 
HETATM   39  C18 UNL     1       1.395  -0.581  13.508  1.00  0.00     0.011 A 
HETATM   40  C19 UNL     1       0.289   0.038  12.976  1.00  0.00     0.001 A 
HETATM   41  C20 UNL     1       0.218   0.331  11.630  1.00  0.00     0.000 A 
HETATM   42  C21 UNL     1       1.276  -0.010  10.821  1.00  0.00     0.001 A 
HETATM   43  C22 UNL     1       2.376  -0.629  11.356  1.00  0.00     0.011 A 
ENDBRANCH  37  38
ENDBRANCH  15  37
ENDBRANCH  11  12
ENDBRANCH  10  11
ENDBRANCH   1  10
BRANCH   8  44
HETATM   44  N9  UNL     1       6.938  -4.224  15.111  1.00  0.00    -0.126 NA
BRANCH  44  45
HETATM   45  C11 UNL     1       7.807  -3.083  14.864  1.00  0.00     0.135 C 
BRANCH  45  46
HETATM   46  C12 UNL     1       9.077  -3.191  15.672  1.00  0.00     0.019 C 
BRANCH  46  47
HETATM   47  C13 UNL     1       9.964  -4.226  15.033  1.00  0.00     0.028 C 
BRANCH  47  48
HETATM   48  C14 UNL     1      10.356  -5.310  16.018  1.00  0.00     0.229 C 
BRANCH  48  49
HETATM   49  N10 UNL     1      10.521  -4.696  17.318  1.00  0.00    -0.079 N 
ATOM     50 3H10 UNL     1      10.660  -3.687  17.263  1.00  0.00     0.274 HD
ATOM     51 2H10 UNL     1       9.658  -4.686  17.862  1.00  0.00     0.274 HD
ATOM     52 1H10 UNL     1      11.284  -5.174  17.798  1.00  0.00     0.274 HD
ENDBRANCH  48  49
ENDBRANCH  47  48
ENDBRANCH  46  47
ENDBRANCH  45  46
ENDBRANCH  44  45
ENDBRANCH   8  44
TORSDOF 18
ENDMDL
