MODEL 1
REMARK VINA RESULT: -9.845818798      0.000      0.000
REMARK  16 active torsions:
REMARK  status: ('A' for Active; 'I' for Inactive)
REMARK    1  A    between atoms: C2_2  and  C4_4 
REMARK    2  A    between atoms: C2_2  and  N4_22 
REMARK    3  A    between atoms: C4_4  and  C5_5 
REMARK    4  A    between atoms: C5_5  and  C6_6 
REMARK    5  A    between atoms: C6_6  and  N1_7 
REMARK       I    between atoms: C7_9  and  N3_11 
REMARK    6  A    between atoms: N3_11  and  C8_13 
REMARK    7  A    between atoms: C8_13  and  C9_14 
REMARK    8  A    between atoms: C9_14  and  C10_15 
REMARK    9  A    between atoms: C10_15  and  C11_16 
REMARK   10  A    between atoms: N4_22  and  C17_23 
REMARK   11  A    between atoms: N4_22  and  C24_30 
REMARK   12  A    between atoms: C17_23  and  C18_24 
REMARK   13  A    between atoms: C26_35  and  C27_36 
REMARK   14  A    between atoms: C27_36  and  C28_37 
REMARK   15  A    between atoms: C28_37  and  C29_38 
REMARK   16  A    between atoms: C29_38  and  N6_39 
ROOT
HETATM    1  N4  UNL     1      14.153  29.973  13.603  1.00  0.00    -0.352 N 
ENDROOT
BRANCH   1   2
HETATM    2  C2  UNL     1      13.214  29.125  14.186  1.00  0.00     0.027 C 
HETATM    3  C1  UNL     1      13.868  27.757  14.512  1.00  0.00     0.038 C 
HETATM    4  C3  UNL     1      12.555  29.495  15.461  1.00  0.00     0.038 C 
BRANCH   2   5
HETATM    5  C4  UNL     1      12.127  28.693  13.194  1.00  0.00     0.035 C 
BRANCH   5   6
HETATM    6  C5  UNL     1      11.030  27.851  13.621  1.00  0.00     0.047 C 
BRANCH   6   7
HETATM    7  C6  UNL     1       9.830  27.644  12.707  1.00  0.00     0.063 C 
BRANCH   7   8
HETATM    8  N1  UNL     1      10.018  26.528  11.906  1.00  0.00    -0.344 N 
HETATM    9  C7  UNL     1      10.701  25.601  11.575  1.00  0.00     0.187 C 
HETATM   10  N2  UNL     1      10.211  24.719  10.537  1.00  0.00    -0.064 NA
HETATM   11  N3  UNL     1      11.969  25.254  12.091  1.00  0.00    -0.364 N 
ATOM     12  H3  UNL     1      12.179  25.339  13.086  1.00  0.00     0.162 HD
ATOM     13  H1  UNL     1       9.181  26.469  11.326  1.00  0.00     0.167 HD
BRANCH  11  14
HETATM   14  C8  UNL     1      12.949  24.779  11.159  1.00  0.00     0.122 C 
BRANCH  14  15
HETATM   15  C9  UNL     1      13.631  25.883  10.396  1.00  0.00     0.024 C 
BRANCH  15  16
HETATM   16  C10 UNL     1      13.334  25.636   8.913  1.00  0.00     0.040 C 
BRANCH  16  17
HETATM   17  C11 UNL     1      13.757  26.808   8.143  1.00  0.00    -0.058 A 
HETATM   18  C12 UNL     1      14.661  26.705   7.116  1.00  0.00     0.007 A 
HETATM   19  C13 UNL     1      15.065  27.843   6.400  1.00  0.00     0.001 A 
HETATM   20  C14 UNL     1      14.554  29.076   6.727  1.00  0.00     0.000 A 
HETATM   21  C15 UNL     1      13.645  29.192   7.755  1.00  0.00     0.001 A 
HETATM   22  C16 UNL     1      13.257  28.067   8.449  1.00  0.00     0.007 A 
ENDBRANCH  16  17
ENDBRANCH  15  16
ENDBRANCH  14  15
ENDBRANCH  11  14
ENDBRANCH   7   8
ENDBRANCH   6   7
ENDBRANCH   5   6
ENDBRANCH   2   5
ENDBRANCH   1   2
BRANCH   1  23
HETATM   23  C17 UNL     1      15.296  30.403  14.294  1.00  0.00     0.100 C 
BRANCH  23  24
HETATM   24  C18 UNL     1      15.273  31.482  15.288  1.00  0.00    -0.021 A 
HETATM   25  C19 UNL     1      15.487  31.182  16.628  1.00  0.00     0.013 A 
HETATM   26  C20 UNL     1      15.512  32.162  17.587  1.00  0.00     0.001 A 
HETATM   27  C21 UNL     1      15.320  33.478  17.208  1.00  0.00     0.000 A 
HETATM   28  C22 UNL     1      15.108  33.787  15.878  1.00  0.00     0.001 A 
HETATM   29  C23 UNL     1      15.087  32.798  14.946  1.00  0.00     0.013 A 
ENDBRANCH  23  24
ENDBRANCH   1  23
BRANCH   1  30
HETATM   30  C24 UNL     1      14.056  30.366  12.253  1.00  0.00     0.281 C 
HETATM   31  N5  UNL     1      14.955  29.630  11.380  1.00  0.00    -0.330 N 
HETATM   32  C25 UNL     1      15.938  30.232  10.590  1.00  0.00     0.242 C 
ATOM     33  H5  UNL     1      14.863  28.615  11.342  1.00  0.00     0.165 HD
HETATM   34  O1  UNL     1      16.573  29.466   9.779  1.00  0.00    -0.271 OA
HETATM   35  C26 UNL     1      16.249  31.641  10.654  1.00  0.00     0.176 C 
HETATM   36  N9  UNL     1      15.358  32.357  11.509  1.00  0.00    -0.344 N 
HETATM   37  C31 UNL     1      14.084  31.771  11.864  1.00  0.00     0.261 C 
ATOM     38  H9  UNL     1      15.618  33.276  11.866  1.00  0.00     0.163 HD
HETATM   39  O2  UNL     1      13.130  32.584  11.785  1.00  0.00    -0.269 OA
BRANCH  35  40
HETATM   40  C27 UNL     1      17.647  31.992  11.011  1.00  0.00     0.036 C 
BRANCH  40  41
HETATM   41  C28 UNL     1      17.873  33.048  12.021  1.00  0.00     0.022 C 
BRANCH  41  42
HETATM   42  C29 UNL     1      18.833  34.102  11.496  1.00  0.00     0.122 C 
BRANCH  42  43
HETATM   43  N6  UNL     1      18.583  34.301  10.120  1.00  0.00    -0.367 N 
HETATM   44  C30 UNL     1      17.928  35.190   9.571  1.00  0.00     0.196 C 
HETATM   45  N7  UNL     1      17.259  36.239  10.233  1.00  0.00    -0.067 NA
HETATM   46  N8  UNL     1      17.822  35.167   8.132  1.00  0.00    -0.067 NA
ATOM     47  H6  UNL     1      19.003  33.614   9.494  1.00  0.00     0.161 HD
ENDBRANCH  42  43
ENDBRANCH  41  42
ENDBRANCH  40  41
ENDBRANCH  35  40
ENDBRANCH   1  30
TORSDOF 16
ENDMDL
MODEL 2
REMARK VINA RESULT: -9.770764122      2.793      8.624
REMARK  16 active torsions:
REMARK  status: ('A' for Active; 'I' for Inactive)
REMARK    1  A    between atoms: C2_2  and  C4_4 
REMARK    2  A    between atoms: C2_2  and  N4_22 
REMARK    3  A    between atoms: C4_4  and  C5_5 
REMARK    4  A    between atoms: C5_5  and  C6_6 
REMARK    5  A    between atoms: C6_6  and  N1_7 
REMARK       I    between atoms: C7_9  and  N3_11 
REMARK    6  A    between atoms: N3_11  and  C8_13 
REMARK    7  A    between atoms: C8_13  and  C9_14 
REMARK    8  A    between atoms: C9_14  and  C10_15 
REMARK    9  A    between atoms: C10_15  and  C11_16 
REMARK   10  A    between atoms: N4_22  and  C17_23 
REMARK   11  A    between atoms: N4_22  and  C24_30 
REMARK   12  A    between atoms: C17_23  and  C18_24 
REMARK   13  A    between atoms: C26_35  and  C27_36 
REMARK   14  A    between atoms: C27_36  and  C28_37 
REMARK   15  A    between atoms: C28_37  and  C29_38 
REMARK   16  A    between atoms: C29_38  and  N6_39 
ROOT
HETATM    1  N4  UNL     1      14.541  29.575  13.570  1.00  0.00    -0.352 N 
ENDROOT
BRANCH   1   2
HETATM    2  C2  UNL     1      14.759  30.887  13.985  1.00  0.00     0.027 C 
HETATM    3  C1  UNL     1      16.276  31.205  13.960  1.00  0.00     0.038 C 
HETATM    4  C3  UNL     1      14.166  32.021  13.239  1.00  0.00     0.038 C 
BRANCH   2   5
HETATM    5  C4  UNL     1      14.451  31.082  15.475  1.00  0.00     0.035 C 
BRANCH   5   6
HETATM    6  C5  UNL     1      15.520  31.287  16.430  1.00  0.00     0.047 C 
BRANCH   6   7
HETATM    7  C6  UNL     1      15.289  32.162  17.653  1.00  0.00     0.063 C 
BRANCH   7   8
HETATM    8  N1  UNL     1      16.261  33.148  17.734  1.00  0.00    -0.344 N 
HETATM    9  C7  UNL     1      16.813  34.093  17.246  1.00  0.00     0.187 C 
HETATM   10  N2  UNL     1      17.891  34.719  17.982  1.00  0.00    -0.064 NA
HETATM   11  N3  UNL     1      16.528  34.691  15.998  1.00  0.00    -0.364 N 
ATOM     12  H3  UNL     1      15.569  34.799  15.668  1.00  0.00     0.162 HD
ATOM     13  H1  UNL     1      16.726  32.996  18.630  1.00  0.00     0.167 HD
BRANCH  11  14
HETATM   14  C8  UNL     1      17.643  35.138  15.216  1.00  0.00     0.122 C 
BRANCH  14  15
HETATM   15  C9  UNL     1      17.720  34.485  13.861  1.00  0.00     0.024 C 
BRANCH  15  16
HETATM   16  C10 UNL     1      17.765  35.621  12.833  1.00  0.00     0.040 C 
BRANCH  16  17
HETATM   17  C11 UNL     1      17.597  35.053  11.493  1.00  0.00    -0.058 A 
HETATM   18  C12 UNL     1      17.861  35.787  10.363  1.00  0.00     0.007 A 
HETATM   19  C13 UNL     1      17.679  35.231   9.088  1.00  0.00     0.001 A 
HETATM   20  C14 UNL     1      17.233  33.936   8.962  1.00  0.00     0.000 A 
HETATM   21  C15 UNL     1      16.965  33.190  10.088  1.00  0.00     0.001 A 
HETATM   22  C16 UNL     1      17.148  33.750  11.334  1.00  0.00     0.007 A 
ENDBRANCH  16  17
ENDBRANCH  15  16
ENDBRANCH  14  15
ENDBRANCH  11  14
ENDBRANCH   7   8
ENDBRANCH   6   7
ENDBRANCH   5   6
ENDBRANCH   2   5
ENDBRANCH   1   2
BRANCH   1  23
HETATM   23  C17 UNL     1      15.341  28.963  12.594  1.00  0.00     0.100 C 
BRANCH  23  24
HETATM   24  C18 UNL     1      15.180  29.208  11.156  1.00  0.00    -0.021 A 
HETATM   25  C19 UNL     1      16.293  29.531  10.389  1.00  0.00     0.013 A 
HETATM   26  C20 UNL     1      16.197  29.731   9.036  1.00  0.00     0.001 A 
HETATM   27  C21 UNL     1      14.963  29.608   8.423  1.00  0.00     0.000 A 
HETATM   28  C22 UNL     1      13.850  29.285   9.177  1.00  0.00     0.001 A 
HETATM   29  C23 UNL     1      13.971  29.092  10.517  1.00  0.00     0.013 A 
ENDBRANCH  23  24
ENDBRANCH   1  23
BRANCH   1  30
HETATM   30  C24 UNL     1      13.567  28.759  14.179  1.00  0.00     0.281 C 
HETATM   31  N5  UNL     1      13.858  27.340  14.059  1.00  0.00    -0.330 N 
HETATM   32  C25 UNL     1      13.004  26.420  13.444  1.00  0.00     0.242 C 
ATOM     33  H5  UNL     1      14.736  26.996  14.447  1.00  0.00     0.165 HD
HETATM   34  O1  UNL     1      13.338  25.184  13.522  1.00  0.00    -0.271 OA
HETATM   35  C26 UNL     1      11.798  26.806  12.748  1.00  0.00     0.176 C 
HETATM   36  N9  UNL     1      11.517  28.199  12.875  1.00  0.00    -0.344 N 
HETATM   37  C31 UNL     1      12.143  28.960  13.935  1.00  0.00     0.261 C 
ATOM     38  H9  UNL     1      10.878  28.655  12.224  1.00  0.00     0.163 HD
HETATM   39  O2  UNL     1      11.344  29.723  14.531  1.00  0.00    -0.269 OA
BRANCH  35  40
HETATM   40  C27 UNL     1      11.713  26.425  11.315  1.00  0.00     0.036 C 
BRANCH  40  41
HETATM   41  C28 UNL     1      10.775  25.350  10.927  1.00  0.00     0.022 C 
BRANCH  41  42
HETATM   42  C29 UNL     1       9.617  25.264  11.908  1.00  0.00     0.122 C 
BRANCH  42  43
HETATM   43  N6  UNL     1       8.486  25.884  11.333  1.00  0.00    -0.367 N 
HETATM   44  C30 UNL     1       7.957  26.959  11.625  1.00  0.00     0.196 C 
HETATM   45  N7  UNL     1       8.390  27.832  12.643  1.00  0.00    -0.067 NA
HETATM   46  N8  UNL     1       6.794  27.372  10.876  1.00  0.00    -0.067 NA
ATOM     47  H6  UNL     1       8.045  25.371  10.569  1.00  0.00     0.161 HD
ENDBRANCH  42  43
ENDBRANCH  41  42
ENDBRANCH  40  41
ENDBRANCH  35  40
ENDBRANCH   1  30
TORSDOF 16
ENDMDL
MODEL 3
REMARK VINA RESULT: -9.705898710      2.602      5.188
REMARK  16 active torsions:
REMARK  status: ('A' for Active; 'I' for Inactive)
REMARK    1  A    between atoms: C2_2  and  C4_4 
REMARK    2  A    between atoms: C2_2  and  N4_22 
REMARK    3  A    between atoms: C4_4  and  C5_5 
REMARK    4  A    between atoms: C5_5  and  C6_6 
REMARK    5  A    between atoms: C6_6  and  N1_7 
REMARK       I    between atoms: C7_9  and  N3_11 
REMARK    6  A    between atoms: N3_11  and  C8_13 
REMARK    7  A    between atoms: C8_13  and  C9_14 
REMARK    8  A    between atoms: C9_14  and  C10_15 
REMARK    9  A    between atoms: C10_15  and  C11_16 
REMARK   10  A    between atoms: N4_22  and  C17_23 
REMARK   11  A    between atoms: N4_22  and  C24_30 
REMARK   12  A    between atoms: C17_23  and  C18_24 
REMARK   13  A    between atoms: C26_35  and  C27_36 
REMARK   14  A    between atoms: C27_36  and  C28_37 
REMARK   15  A    between atoms: C28_37  and  C29_38 
REMARK   16  A    between atoms: C29_38  and  N6_39 
ROOT
HETATM    1  N4  UNL     1      16.908  32.071  11.830  1.00  0.00    -0.352 N 
ENDROOT
BRANCH   1   2
HETATM    2  C2  UNL     1      16.005  31.217  11.200  1.00  0.00     0.027 C 
HETATM    3  C1  UNL     1      16.148  29.782  11.771  1.00  0.00     0.038 C 
HETATM    4  C3  UNL     1      14.547  31.468  11.283  1.00  0.00     0.038 C 
BRANCH   2   5
HETATM    5  C4  UNL     1      16.365  30.975   9.728  1.00  0.00     0.035 C 
BRANCH   5   6
HETATM    6  C5  UNL     1      16.328  29.641   9.168  1.00  0.00     0.047 C 
BRANCH   6   7
HETATM    7  C6  UNL     1      15.536  29.372   7.896  1.00  0.00     0.063 C 
BRANCH   7   8
HETATM    8  N1  UNL     1      15.032  28.081   7.902  1.00  0.00    -0.344 N 
HETATM    9  C7  UNL     1      14.275  27.273   8.361  1.00  0.00     0.187 C 
HETATM   10  N2  UNL     1      14.285  25.931   7.816  1.00  0.00    -0.064 NA
HETATM   11  N3  UNL     1      13.344  27.478   9.403  1.00  0.00    -0.364 N 
ATOM     12  H3  UNL     1      12.812  28.345   9.477  1.00  0.00     0.162 HD
ATOM     13  H1  UNL     1      15.548  27.586   7.175  1.00  0.00     0.167 HD
BRANCH  11  14
HETATM   14  C8  UNL     1      13.177  26.416  10.352  1.00  0.00     0.122 C 
BRANCH  14  15
HETATM   15  C9  UNL     1      12.345  26.807  11.544  1.00  0.00     0.024 C 
BRANCH  15  16
HETATM   16  C10 UNL     1      12.770  28.228  11.925  1.00  0.00     0.040 C 
BRANCH  16  17
HETATM   17  C11 UNL     1      12.404  28.473  13.323  1.00  0.00    -0.058 A 
HETATM   18  C12 UNL     1      11.460  27.710  13.963  1.00  0.00     0.007 A 
HETATM   19  C13 UNL     1      11.111  27.971  15.296  1.00  0.00     0.001 A 
HETATM   20  C14 UNL     1      11.718  29.001  15.976  1.00  0.00     0.000 A 
HETATM   21  C15 UNL     1      12.667  29.774  15.344  1.00  0.00     0.001 A 
HETATM   22  C16 UNL     1      13.000  29.506  14.034  1.00  0.00     0.007 A 
ENDBRANCH  16  17
ENDBRANCH  15  16
ENDBRANCH  14  15
ENDBRANCH  11  14
ENDBRANCH   7   8
ENDBRANCH   6   7
ENDBRANCH   5   6
ENDBRANCH   2   5
ENDBRANCH   1   2
BRANCH   1  23
HETATM   23  C17 UNL     1      17.278  31.900  13.172  1.00  0.00     0.100 C 
BRANCH  23  24
HETATM   24  C18 UNL     1      16.429  32.312  14.296  1.00  0.00    -0.021 A 
HETATM   25  C19 UNL     1      16.223  31.435  15.354  1.00  0.00     0.013 A 
HETATM   26  C20 UNL     1      15.470  31.790  16.443  1.00  0.00     0.001 A 
HETATM   27  C21 UNL     1      14.903  33.051  16.487  1.00  0.00     0.000 A 
HETATM   28  C22 UNL     1      15.103  33.931  15.440  1.00  0.00     0.001 A 
HETATM   29  C23 UNL     1      15.854  33.555  14.371  1.00  0.00     0.013 A 
ENDBRANCH  23  24
ENDBRANCH   1  23
BRANCH   1  30
HETATM   30  C24 UNL     1      17.573  33.093  11.125  1.00  0.00     0.281 C 
HETATM   31  N5  UNL     1      18.901  33.371  11.645  1.00  0.00    -0.330 N 
HETATM   32  C25 UNL     1      19.302  34.622  12.124  1.00  0.00     0.242 C 
ATOM     33  H5  UNL     1      19.580  32.610  11.662  1.00  0.00     0.165 HD
HETATM   34  O1  UNL     1      20.541  34.748  12.438  1.00  0.00    -0.271 OA
HETATM   35  C26 UNL     1      18.397  35.738  12.271  1.00  0.00     0.176 C 
HETATM   36  N9  UNL     1      17.098  35.459  11.753  1.00  0.00    -0.344 N 
HETATM   37  C31 UNL     1      16.920  34.362  10.825  1.00  0.00     0.261 C 
ATOM     38  H9  UNL     1      16.300  36.028  12.034  1.00  0.00     0.163 HD
HETATM   39  O2  UNL     1      16.198  34.662   9.843  1.00  0.00    -0.269 OA
BRANCH  35  40
HETATM   40  C27 UNL     1      18.262  36.301  13.639  1.00  0.00     0.036 C 
BRANCH  40  41
HETATM   41  C28 UNL     1      18.788  37.659  13.896  1.00  0.00     0.022 C 
BRANCH  41  42
HETATM   42  C29 UNL     1      18.885  38.455  12.605  1.00  0.00     0.122 C 
BRANCH  42  43
HETATM   43  N6  UNL     1      17.848  39.415  12.583  1.00  0.00    -0.367 N 
HETATM   44  C30 UNL     1      16.791  39.401  11.949  1.00  0.00     0.196 C 
HETATM   45  N7  UNL     1      16.378  38.379  11.071  1.00  0.00    -0.067 NA
HETATM   46  N8  UNL     1      15.891  40.519  12.102  1.00  0.00    -0.067 NA
ATOM     47  H6  UNL     1      17.996  40.233  13.174  1.00  0.00     0.161 HD
ENDBRANCH  42  43
ENDBRANCH  41  42
ENDBRANCH  40  41
ENDBRANCH  35  40
ENDBRANCH   1  30
TORSDOF 16
ENDMDL
MODEL 4
REMARK VINA RESULT: -9.681177212      1.272      1.650
REMARK  16 active torsions:
REMARK  status: ('A' for Active; 'I' for Inactive)
REMARK    1  A    between atoms: C2_2  and  C4_4 
REMARK    2  A    between atoms: C2_2  and  N4_22 
REMARK    3  A    between atoms: C4_4  and  C5_5 
REMARK    4  A    between atoms: C5_5  and  C6_6 
REMARK    5  A    between atoms: C6_6  and  N1_7 
REMARK       I    between atoms: C7_9  and  N3_11 
REMARK    6  A    between atoms: N3_11  and  C8_13 
REMARK    7  A    between atoms: C8_13  and  C9_14 
REMARK    8  A    between atoms: C9_14  and  C10_15 
REMARK    9  A    between atoms: C10_15  and  C11_16 
REMARK   10  A    between atoms: N4_22  and  C17_23 
REMARK   11  A    between atoms: N4_22  and  C24_30 
REMARK   12  A    between atoms: C17_23  and  C18_24 
REMARK   13  A    between atoms: C26_35  and  C27_36 
REMARK   14  A    between atoms: C27_36  and  C28_37 
REMARK   15  A    between atoms: C28_37  and  C29_38 
REMARK   16  A    between atoms: C29_38  and  N6_39 
ROOT
HETATM    1  N4  UNL     1      14.157  30.073  13.854  1.00  0.00    -0.352 N 
ENDROOT
BRANCH   1   2
HETATM    2  C2  UNL     1      13.191  29.266  14.453  1.00  0.00     0.027 C 
HETATM    3  C1  UNL     1      13.745  27.829  14.638  1.00  0.00     0.038 C 
HETATM    4  C3  UNL     1      12.660  29.597  15.796  1.00  0.00     0.038 C 
BRANCH   2   5
HETATM    5  C4  UNL     1      12.002  28.997  13.522  1.00  0.00     0.035 C 
BRANCH   5   6
HETATM    6  C5  UNL     1      10.752  28.492  14.048  1.00  0.00     0.047 C 
BRANCH   6   7
HETATM    7  C6  UNL     1       9.935  27.494  13.240  1.00  0.00     0.063 C 
BRANCH   7   8
HETATM    8  N1  UNL     1      10.732  26.437  12.827  1.00  0.00    -0.344 N 
HETATM    9  C7  UNL     1      11.260  25.831  11.938  1.00  0.00     0.187 C 
HETATM   10  N2  UNL     1      12.054  24.668  12.272  1.00  0.00    -0.064 NA
HETATM   11  N3  UNL     1      11.199  26.125  10.558  1.00  0.00    -0.364 N 
ATOM     12  H3  UNL     1      11.227  27.086  10.217  1.00  0.00     0.162 HD
ATOM     13  H1  UNL     1      10.991  25.944  13.682  1.00  0.00     0.167 HD
BRANCH  11  14
HETATM   14  C8  UNL     1      11.094  25.016   9.656  1.00  0.00     0.122 C 
BRANCH  14  15
HETATM   15  C9  UNL     1      11.876  25.206   8.383  1.00  0.00     0.024 C 
BRANCH  15  16
HETATM   16  C10 UNL     1      13.320  25.507   8.801  1.00  0.00     0.040 C 
BRANCH  16  17
HETATM   17  C11 UNL     1      13.775  26.708   8.097  1.00  0.00    -0.058 A 
HETATM   18  C12 UNL     1      14.481  26.629   6.923  1.00  0.00     0.007 A 
HETATM   19  C13 UNL     1      14.922  27.791   6.272  1.00  0.00     0.001 A 
HETATM   20  C14 UNL     1      14.648  29.026   6.811  1.00  0.00     0.000 A 
HETATM   21  C15 UNL     1      13.940  29.118   7.989  1.00  0.00     0.001 A 
HETATM   22  C16 UNL     1      13.513  27.968   8.617  1.00  0.00     0.007 A 
ENDBRANCH  16  17
ENDBRANCH  15  16
ENDBRANCH  14  15
ENDBRANCH  11  14
ENDBRANCH   7   8
ENDBRANCH   6   7
ENDBRANCH   5   6
ENDBRANCH   2   5
ENDBRANCH   1   2
BRANCH   1  23
HETATM   23  C17 UNL     1      15.305  30.491  14.543  1.00  0.00     0.100 C 
BRANCH  23  24
HETATM   24  C18 UNL     1      15.299  31.583  15.524  1.00  0.00    -0.021 A 
HETATM   25  C19 UNL     1      15.543  31.300  16.863  1.00  0.00     0.013 A 
HETATM   26  C20 UNL     1      15.585  32.291  17.809  1.00  0.00     0.001 A 
HETATM   27  C21 UNL     1      15.378  33.602  17.420  1.00  0.00     0.000 A 
HETATM   28  C22 UNL     1      15.136  33.894  16.090  1.00  0.00     0.001 A 
HETATM   29  C23 UNL     1      15.099  32.893  15.171  1.00  0.00     0.013 A 
ENDBRANCH  23  24
ENDBRANCH   1  23
BRANCH   1  30
HETATM   30  C24 UNL     1      14.080  30.433  12.495  1.00  0.00     0.281 C 
HETATM   31  N5  UNL     1      15.025  29.709  11.661  1.00  0.00    -0.330 N 
HETATM   32  C25 UNL     1      16.007  30.328  10.881  1.00  0.00     0.242 C 
ATOM     33  H5  UNL     1      14.969  28.691  11.644  1.00  0.00     0.165 HD
HETATM   34  O1  UNL     1      16.688  29.567  10.104  1.00  0.00    -0.271 OA
HETATM   35  C26 UNL     1      16.267  31.748  10.920  1.00  0.00     0.176 C 
HETATM   36  N9  UNL     1      15.331  32.451  11.736  1.00  0.00    -0.344 N 
HETATM   37  C31 UNL     1      14.069  31.829  12.073  1.00  0.00     0.261 C 
ATOM     38  H9  UNL     1      15.550  33.387  12.078  1.00  0.00     0.163 HD
HETATM   39  O2  UNL     1      13.090  32.606  11.952  1.00  0.00    -0.269 OA
BRANCH  35  40
HETATM   40  C27 UNL     1      17.643  32.155  11.302  1.00  0.00     0.036 C 
BRANCH  40  41
HETATM   41  C28 UNL     1      18.142  33.468  10.839  1.00  0.00     0.022 C 
BRANCH  41  42
HETATM   42  C29 UNL     1      18.092  34.492  11.961  1.00  0.00     0.122 C 
BRANCH  42  43
HETATM   43  N6  UNL     1      19.402  34.697  12.449  1.00  0.00    -0.367 N 
HETATM   44  C30 UNL     1      19.791  35.472  13.326  1.00  0.00     0.196 C 
HETATM   45  N7  UNL     1      18.972  36.357  14.056  1.00  0.00    -0.067 NA
HETATM   46  N8  UNL     1      21.199  35.492  13.641  1.00  0.00    -0.067 NA
ATOM     47  H6  UNL     1      20.126  34.125  12.015  1.00  0.00     0.161 HD
ENDBRANCH  42  43
ENDBRANCH  41  42
ENDBRANCH  40  41
ENDBRANCH  35  40
ENDBRANCH   1  30
TORSDOF 16
ENDMDL
MODEL 5
REMARK VINA RESULT: -9.635302933      2.335      9.571
REMARK  16 active torsions:
REMARK  status: ('A' for Active; 'I' for Inactive)
REMARK    1  A    between atoms: C2_2  and  C4_4 
REMARK    2  A    between atoms: C2_2  and  N4_22 
REMARK    3  A    between atoms: C4_4  and  C5_5 
REMARK    4  A    between atoms: C5_5  and  C6_6 
REMARK    5  A    between atoms: C6_6  and  N1_7 
REMARK       I    between atoms: C7_9  and  N3_11 
REMARK    6  A    between atoms: N3_11  and  C8_13 
REMARK    7  A    between atoms: C8_13  and  C9_14 
REMARK    8  A    between atoms: C9_14  and  C10_15 
REMARK    9  A    between atoms: C10_15  and  C11_16 
REMARK   10  A    between atoms: N4_22  and  C17_23 
REMARK   11  A    between atoms: N4_22  and  C24_30 
REMARK   12  A    between atoms: C17_23  and  C18_24 
REMARK   13  A    between atoms: C26_35  and  C27_36 
REMARK   14  A    between atoms: C27_36  and  C28_37 
REMARK   15  A    between atoms: C28_37  and  C29_38 
REMARK   16  A    between atoms: C29_38  and  N6_39 
ROOT
HETATM    1  N4  UNL     1      16.230  31.015  11.857  1.00  0.00    -0.352 N 
ENDROOT
BRANCH   1   2
HETATM    2  C2  UNL     1      16.923  32.180  11.533  1.00  0.00     0.027 C 
HETATM    3  C1  UNL     1      18.364  31.829  11.078  1.00  0.00     0.038 C 
HETATM    4  C3  UNL     1      16.437  33.070  10.453  1.00  0.00     0.038 C 
BRANCH   2   5
HETATM    5  C4  UNL     1      17.217  33.042  12.768  1.00  0.00     0.035 C 
BRANCH   5   6
HETATM    6  C5  UNL     1      17.461  34.463  12.635  1.00  0.00     0.047 C 
BRANCH   6   7
HETATM    7  C6  UNL     1      18.859  34.966  12.304  1.00  0.00     0.063 C 
BRANCH   7   8
HETATM    8  N1  UNL     1      19.156  36.098  13.047  1.00  0.00    -0.344 N 
HETATM    9  C7  UNL     1      19.368  36.605  14.112  1.00  0.00     0.187 C 
HETATM   10  N2  UNL     1      19.646  38.025  14.158  1.00  0.00    -0.064 NA
HETATM   11  N3  UNL     1      19.379  35.963  15.370  1.00  0.00    -0.364 N 
ATOM     12  H3  UNL     1      19.774  35.030  15.487  1.00  0.00     0.162 HD
ATOM     13  H1  UNL     1      19.228  36.856  12.368  1.00  0.00     0.167 HD
BRANCH  11  14
HETATM   14  C8  UNL     1      18.810  36.676  16.476  1.00  0.00     0.122 C 
BRANCH  14  15
HETATM   15  C9  UNL     1      17.404  36.247  16.804  1.00  0.00     0.024 C 
BRANCH  15  16
HETATM   16  C10 UNL     1      17.520  35.176  17.894  1.00  0.00     0.040 C 
BRANCH  16  17
HETATM   17  C11 UNL     1      16.619  34.068  17.566  1.00  0.00    -0.058 A 
HETATM   18  C12 UNL     1      16.314  33.094  18.483  1.00  0.00     0.007 A 
HETATM   19  C13 UNL     1      15.462  32.032  18.144  1.00  0.00     0.001 A 
HETATM   20  C14 UNL     1      14.923  31.960  16.881  1.00  0.00     0.000 A 
HETATM   21  C15 UNL     1      15.222  32.932  15.952  1.00  0.00     0.001 A 
HETATM   22  C16 UNL     1      16.060  33.969  16.299  1.00  0.00     0.007 A 
ENDBRANCH  16  17
ENDBRANCH  15  16
ENDBRANCH  14  15
ENDBRANCH  11  14
ENDBRANCH   7   8
ENDBRANCH   6   7
ENDBRANCH   5   6
ENDBRANCH   2   5
ENDBRANCH   1   2
BRANCH   1  23
HETATM   23  C17 UNL     1      16.347  29.846  11.091  1.00  0.00     0.100 C 
BRANCH  23  24
HETATM   24  C18 UNL     1      15.634  29.643   9.825  1.00  0.00    -0.021 A 
HETATM   25  C19 UNL     1      16.325  29.759   8.625  1.00  0.00     0.013 A 
HETATM   26  C20 UNL     1      15.710  29.540   7.419  1.00  0.00     0.001 A 
HETATM   27  C21 UNL     1      14.370  29.198   7.400  1.00  0.00     0.000 A 
HETATM   28  C22 UNL     1      13.674  29.079   8.588  1.00  0.00     0.001 A 
HETATM   29  C23 UNL     1      14.306  29.301   9.770  1.00  0.00     0.013 A 
ENDBRANCH  23  24
ENDBRANCH   1  23
BRANCH   1  30
HETATM   30  C24 UNL     1      15.452  30.920  13.027  1.00  0.00     0.281 C 
HETATM   31  N5  UNL     1      15.751  29.735  13.814  1.00  0.00    -0.330 N 
HETATM   32  C25 UNL     1      14.806  28.757  14.138  1.00  0.00     0.242 C 
ATOM     33  H5  UNL     1      16.706  29.611  14.150  1.00  0.00     0.165 HD
HETATM   34  O1  UNL     1      15.188  27.832  14.941  1.00  0.00    -0.271 OA
HETATM   35  C26 UNL     1      13.460  28.757  13.615  1.00  0.00     0.176 C 
HETATM   36  N9  UNL     1      13.172  29.926  12.848  1.00  0.00    -0.344 N 
HETATM   37  C31 UNL     1      14.005  31.100  12.998  1.00  0.00     0.261 C 
ATOM     38  H9  UNL     1      12.385  29.934  12.200  1.00  0.00     0.163 HD
HETATM   39  O2  UNL     1      13.343  32.163  13.088  1.00  0.00    -0.269 OA
BRANCH  35  40
HETATM   40  C27 UNL     1      13.054  27.558  12.838  1.00  0.00     0.036 C 
BRANCH  40  41
HETATM   41  C28 UNL     1      11.818  27.627  12.030  1.00  0.00     0.022 C 
BRANCH  41  42
HETATM   42  C29 UNL     1      11.464  26.261  11.465  1.00  0.00     0.122 C 
BRANCH  42  43
HETATM   43  N6  UNL     1      12.112  26.103  10.220  1.00  0.00    -0.367 N 
HETATM   44  C30 UNL     1      13.082  25.397   9.934  1.00  0.00     0.196 C 
HETATM   45  N7  UNL     1      13.781  24.566  10.832  1.00  0.00    -0.067 NA
HETATM   46  N8  UNL     1      13.559  25.415   8.571  1.00  0.00    -0.067 NA
ATOM     47  H6  UNL     1      11.722  26.647   9.450  1.00  0.00     0.161 HD
ENDBRANCH  42  43
ENDBRANCH  41  42
ENDBRANCH  40  41
ENDBRANCH  35  40
ENDBRANCH   1  30
TORSDOF 16
ENDMDL
