MODEL 1
REMARK VINA RESULT: -7.857613779      0.000      0.000
REMARK  3 active torsions:
REMARK  status: ('A' for Active; 'I' for Inactive)
REMARK    1  A    between atoms: N1_1  and  C1_4 
REMARK    2  A    between atoms: C2_7  and  C3_8 
REMARK    3  A    between atoms: C7_15  and  N4_16 
ROOT
HETATM    1  C1  UNL     1      -9.984 -32.033  21.223  1.00  0.00     0.692 A 
HETATM    2  N2  UNL     1      -9.944 -33.168  20.494  1.00  0.00    -0.175 N 
ATOM      3  H2  UNL     1     -10.165 -34.068  20.923  1.00  0.00     0.186 HD
HETATM    4  C2  UNL     1      -9.613 -33.096  19.213  1.00  0.00     0.153 A 
HETATM    5  N3  UNL     1      -9.320 -31.920  18.639  1.00  0.00    -0.174 N 
ATOM      6  H3  UNL     1      -9.068 -31.899  17.650  1.00  0.00     0.186 HD
HETATM    7  C7  UNL     1      -9.349 -30.756  19.336  1.00  0.00     0.696 A 
HETATM    8  N5  UNL     1      -9.684 -30.847  20.625  1.00  0.00    -0.022 N 
ATOM      9  H5  UNL     1      -9.717 -29.994  21.184  1.00  0.00     0.203 HD
ENDROOT
BRANCH   7  10
HETATM   10  N4  UNL     1      -9.042 -29.516  18.727  1.00  0.00    -0.217 N 
HETATM   11  C8  UNL     1      -9.817 -29.093  17.606  1.00  0.00     0.144 C 
HETATM   12  C9  UNL     1      -9.938 -27.594  17.488  1.00  0.00     0.062 C 
HETATM   13  C10 UNL     1      -8.623 -26.892  17.702  1.00  0.00     0.101 C 
HETATM   14  C11 UNL     1      -8.289 -26.158  16.420  1.00  0.00     0.071 C 
HETATM   15  O2  UNL     1      -8.702 -25.866  18.608  1.00  0.00    -0.230 OA
HETATM   16  C13 UNL     1      -7.505 -27.857  18.007  1.00  0.00     0.062 C 
HETATM   17  C12 UNL     1      -8.902 -24.804  16.724  1.00  0.00     0.213 C 
HETATM   18  O1  UNL     1      -9.314 -24.863  18.039  1.00  0.00    -0.240 OA
HETATM   19  C14 UNL     1      -7.973 -28.682  19.213  1.00  0.00     0.144 C 
ENDBRANCH   7  10
BRANCH   4  20
HETATM   20  C3  UNL     1      -9.562 -34.334  18.397  1.00  0.00     0.050 A 
HETATM   21  C4  UNL     1      -8.466 -34.890  17.797  1.00  0.00     0.023 A 
HETATM   22  C5  UNL     1      -8.652 -36.020  17.103  1.00  0.00     0.009 A 
HETATM   23  C6  UNL     1      -9.925 -36.525  17.052  1.00  0.00     0.050 A 
HETATM   24  S1  UNL     1     -10.817 -35.407  17.974  1.00  0.00    -0.098 SA
ENDBRANCH   4  20
BRANCH   1  25
HETATM   25  N1  UNL     1     -10.305 -32.109  22.460  1.00  0.00    -0.234 N 
ATOM     26  H12 UNL     1     -11.197 -31.760  22.810  1.00  0.00     0.174 HD
ATOM     27  H11 UNL     1      -9.644 -32.533  23.112  1.00  0.00     0.174 HD
ENDBRANCH   1  25
TORSDOF 3
ENDMDL
MODEL 2
REMARK VINA RESULT: -7.758241625      2.707      3.870
REMARK  3 active torsions:
REMARK  status: ('A' for Active; 'I' for Inactive)
REMARK    1  A    between atoms: N1_1  and  C1_4 
REMARK    2  A    between atoms: C2_7  and  C3_8 
REMARK    3  A    between atoms: C7_15  and  N4_16 
ROOT
HETATM    1  C1  UNL     1     -11.853 -29.107  17.419  1.00  0.00     0.692 A 
HETATM    2  N2  UNL     1     -11.126 -30.204  17.718  1.00  0.00    -0.175 N 
ATOM      3  H2  UNL     1     -11.580 -31.108  17.842  1.00  0.00     0.186 HD
HETATM    4  C2  UNL     1      -9.812 -30.086  17.847  1.00  0.00     0.153 A 
HETATM    5  N3  UNL     1      -9.203 -28.902  17.687  1.00  0.00    -0.174 N 
ATOM      6  H3  UNL     1      -8.190 -28.846  17.794  1.00  0.00     0.186 HD
HETATM    7  C7  UNL     1      -9.898 -27.775  17.385  1.00  0.00     0.696 A 
HETATM    8  N5  UNL     1     -11.219 -27.911  17.258  1.00  0.00    -0.022 N 
ATOM      9  H5  UNL     1     -11.777 -27.088  17.032  1.00  0.00     0.203 HD
ENDROOT
BRANCH   7  10
HETATM   10  N4  UNL     1      -9.253 -26.528  17.213  1.00  0.00    -0.217 N 
HETATM   11  C8  UNL     1     -10.022 -25.333  17.350  1.00  0.00     0.144 C 
HETATM   12  C9  UNL     1      -9.226 -24.158  17.859  1.00  0.00     0.062 C 
HETATM   13  C10 UNL     1      -7.892 -24.026  17.171  1.00  0.00     0.101 C 
HETATM   14  C11 UNL     1      -7.883 -22.691  16.455  1.00  0.00     0.071 C 
HETATM   15  O2  UNL     1      -6.847 -23.888  18.048  1.00  0.00    -0.230 OA
HETATM   16  C13 UNL     1      -7.664 -25.117  16.155  1.00  0.00     0.062 C 
HETATM   17  C12 UNL     1      -7.259 -21.819  17.528  1.00  0.00     0.213 C 
HETATM   18  O1  UNL     1      -6.880 -22.679  18.539  1.00  0.00    -0.240 OA
HETATM   19  C14 UNL     1      -7.848 -26.442  16.906  1.00  0.00     0.144 C 
ENDBRANCH   7  10
BRANCH   4  20
HETATM   20  C3  UNL     1      -8.997 -31.281  18.178  1.00  0.00     0.050 A 
HETATM   21  C4  UNL     1      -9.097 -32.074  19.287  1.00  0.00     0.023 A 
HETATM   22  C5  UNL     1      -8.251 -33.109  19.381  1.00  0.00     0.009 A 
HETATM   23  C6  UNL     1      -7.358 -33.287  18.357  1.00  0.00     0.050 A 
HETATM   24  S1  UNL     1      -7.728 -32.006  17.300  1.00  0.00    -0.098 SA
ENDBRANCH   4  20
BRANCH   1  25
HETATM   25  N1  UNL     1     -13.121 -29.226  17.295  1.00  0.00    -0.234 N 
ATOM     26  H12 UNL     1     -13.677 -29.796  17.933  1.00  0.00     0.174 HD
ATOM     27  H11 UNL     1     -13.586 -28.733  16.532  1.00  0.00     0.174 HD
ENDBRANCH   1  25
TORSDOF 3
ENDMDL
MODEL 3
REMARK VINA RESULT: -7.650973583      3.682      4.325
REMARK  3 active torsions:
REMARK  status: ('A' for Active; 'I' for Inactive)
REMARK    1  A    between atoms: N1_1  and  C1_4 
REMARK    2  A    between atoms: C2_7  and  C3_8 
REMARK    3  A    between atoms: C7_15  and  N4_16 
ROOT
HETATM    1  C1  UNL     1     -11.543 -29.072  17.101  1.00  0.00     0.692 A 
HETATM    2  N2  UNL     1     -10.807 -30.093  16.613  1.00  0.00    -0.175 N 
ATOM      3  H2  UNL     1     -11.191 -31.038  16.580  1.00  0.00     0.186 HD
HETATM    4  C2  UNL     1      -9.580 -29.849  16.179  1.00  0.00     0.153 A 
HETATM    5  N3  UNL     1      -9.065 -28.610  16.218  1.00  0.00    -0.174 N 
ATOM      6  H3  UNL     1      -8.116 -28.457  15.876  1.00  0.00     0.186 HD
HETATM    7  C7  UNL     1      -9.771 -27.556  16.699  1.00  0.00     0.696 A 
HETATM    8  N5  UNL     1     -11.005 -27.820  17.133  1.00  0.00    -0.022 N 
ATOM      9  H5  UNL     1     -11.569 -27.055  17.502  1.00  0.00     0.203 HD
ENDROOT
BRANCH   7  10
HETATM   10  N4  UNL     1      -9.226 -26.251  16.737  1.00  0.00    -0.217 N 
HETATM   11  C8  UNL     1     -10.023 -25.191  17.264  1.00  0.00     0.144 C 
HETATM   12  C9  UNL     1      -9.215 -24.096  17.915  1.00  0.00     0.062 C 
HETATM   13  C10 UNL     1      -8.019 -23.696  17.092  1.00  0.00     0.101 C 
HETATM   14  C11 UNL     1      -8.194 -22.238  16.720  1.00  0.00     0.071 C 
HETATM   15  O2  UNL     1      -6.854 -23.670  17.814  1.00  0.00    -0.230 OA
HETATM   16  C13 UNL     1      -7.904 -24.504  15.824  1.00  0.00     0.062 C 
HETATM   17  C12 UNL     1      -7.450 -21.581  17.867  1.00  0.00     0.213 C 
HETATM   18  O1  UNL     1      -6.869 -22.611  18.578  1.00  0.00    -0.240 OA
HETATM   19  C14 UNL     1      -7.897 -25.976  16.257  1.00  0.00     0.144 C 
ENDBRANCH   7  10
BRANCH   4  20
HETATM   20  C3  UNL     1      -8.756 -30.960  15.642  1.00  0.00     0.050 A 
HETATM   21  C4  UNL     1      -7.575 -31.435  16.140  1.00  0.00     0.023 A 
HETATM   22  C5  UNL     1      -6.999 -32.455  15.490  1.00  0.00     0.009 A 
HETATM   23  C6  UNL     1      -7.642 -32.936  14.379  1.00  0.00     0.050 A 
HETATM   24  S1  UNL     1      -9.025 -31.951  14.281  1.00  0.00    -0.098 SA
ENDBRANCH   4  20
BRANCH   1  25
HETATM   25  N1  UNL     1     -12.728 -29.313  17.518  1.00  0.00    -0.234 N 
ATOM     26  H12 UNL     1     -13.023 -30.249  17.799  1.00  0.00     0.174 HD
ATOM     27  H11 UNL     1     -13.395 -28.543  17.571  1.00  0.00     0.174 HD
ENDBRANCH   1  25
TORSDOF 3
ENDMDL
MODEL 4
REMARK VINA RESULT: -7.580379885      3.214      4.619
REMARK  3 active torsions:
REMARK  status: ('A' for Active; 'I' for Inactive)
REMARK    1  A    between atoms: N1_1  and  C1_4 
REMARK    2  A    between atoms: C2_7  and  C3_8 
REMARK    3  A    between atoms: C7_15  and  N4_16 
ROOT
HETATM    1  C1  UNL     1     -10.008 -29.605  15.271  1.00  0.00     0.692 A 
HETATM    2  N2  UNL     1     -10.107 -30.360  16.385  1.00  0.00    -0.175 N 
ATOM      3  H2  UNL     1     -10.400 -31.336  16.325  1.00  0.00     0.186 HD
HETATM    4  C2  UNL     1      -9.817 -29.815  17.557  1.00  0.00     0.153 A 
HETATM    5  N3  UNL     1      -9.431 -28.533  17.649  1.00  0.00    -0.174 N 
ATOM      6  H3  UNL     1      -9.217 -28.144  18.567  1.00  0.00     0.186 HD
HETATM    7  C7  UNL     1      -9.319 -27.740  16.554  1.00  0.00     0.696 A 
HETATM    8  N5  UNL     1      -9.614 -28.305  15.381  1.00  0.00    -0.022 N 
ATOM      9  H5  UNL     1      -9.541 -27.742  14.534  1.00  0.00     0.203 HD
ENDROOT
BRANCH   7  10
HETATM   10  N4  UNL     1      -8.908 -26.390  16.653  1.00  0.00    -0.217 N 
HETATM   11  C8  UNL     1      -9.804 -25.442  17.234  1.00  0.00     0.144 C 
HETATM   12  C9  UNL     1      -9.105 -24.305  17.935  1.00  0.00     0.062 C 
HETATM   13  C10 UNL     1      -7.963 -23.745  17.129  1.00  0.00     0.101 C 
HETATM   14  C11 UNL     1      -8.287 -22.297  16.829  1.00  0.00     0.071 C 
HETATM   15  O2  UNL     1      -6.800 -23.636  17.847  1.00  0.00    -0.230 OA
HETATM   16  C13 UNL     1      -7.777 -24.475  15.822  1.00  0.00     0.062 C 
HETATM   17  C12 UNL     1      -7.603 -21.624  18.004  1.00  0.00     0.213 C 
HETATM   18  O1  UNL     1      -6.915 -22.623  18.662  1.00  0.00    -0.240 OA
HETATM   19  C14 UNL     1      -7.617 -25.958  16.183  1.00  0.00     0.144 C 
ENDBRANCH   7  10
BRANCH   4  20
HETATM   20  C3  UNL     1      -9.923 -30.630  18.793  1.00  0.00     0.050 A 
HETATM   21  C4  UNL     1      -9.296 -30.413  19.988  1.00  0.00     0.023 A 
HETATM   22  C5  UNL     1      -9.539 -31.285  20.977  1.00  0.00     0.009 A 
HETATM   23  C6  UNL     1     -10.396 -32.319  20.707  1.00  0.00     0.050 A 
HETATM   24  S1  UNL     1     -10.832 -32.042  19.086  1.00  0.00    -0.098 SA
ENDBRANCH   4  20
BRANCH   1  25
HETATM   25  N1  UNL     1     -10.288 -30.137  14.141  1.00  0.00    -0.234 N 
ATOM     26  H12 UNL     1     -11.235 -30.431  13.901  1.00  0.00     0.174 HD
ATOM     27  H11 UNL     1      -9.537 -30.268  13.463  1.00  0.00     0.174 HD
ENDBRANCH   1  25
TORSDOF 3
ENDMDL
MODEL 5
REMARK VINA RESULT: -7.420507680      3.510      4.629
REMARK  3 active torsions:
REMARK  status: ('A' for Active; 'I' for Inactive)
REMARK    1  A    between atoms: N1_1  and  C1_4 
REMARK    2  A    between atoms: C2_7  and  C3_8 
REMARK    3  A    between atoms: C7_15  and  N4_16 
ROOT
HETATM    1  C1  UNL     1      -9.241 -29.289  18.511  1.00  0.00     0.692 A 
HETATM    2  N2  UNL     1      -9.735 -29.993  17.471  1.00  0.00    -0.175 N 
ATOM      3  H2  UNL     1      -9.978 -30.978  17.581  1.00  0.00     0.186 HD
HETATM    4  C2  UNL     1      -9.899 -29.385  16.305  1.00  0.00     0.153 A 
HETATM    5  N3  UNL     1      -9.582 -28.091  16.149  1.00  0.00    -0.174 N 
ATOM      6  H3  UNL     1      -9.719 -27.653  15.238  1.00  0.00     0.186 HD
HETATM    7  C7  UNL     1      -9.083 -27.348  17.169  1.00  0.00     0.696 A 
HETATM    8  N5  UNL     1      -8.925 -27.975  18.336  1.00  0.00    -0.022 N 
ATOM      9  H5  UNL     1      -8.553 -27.451  19.128  1.00  0.00     0.203 HD
ENDROOT
BRANCH   7  10
HETATM   10  N4  UNL     1      -8.753 -25.982  17.002  1.00  0.00    -0.217 N 
HETATM   11  C8  UNL     1      -9.582 -24.996  17.616  1.00  0.00     0.144 C 
HETATM   12  C9  UNL     1      -8.841 -23.742  18.005  1.00  0.00     0.062 C 
HETATM   13  C10 UNL     1      -7.913 -23.261  16.920  1.00  0.00     0.101 C 
HETATM   14  C11 UNL     1      -8.385 -21.885  16.498  1.00  0.00     0.071 C 
HETATM   15  O2  UNL     1      -6.645 -23.003  17.372  1.00  0.00    -0.230 OA
HETATM   16  C13 UNL     1      -7.932 -24.166  15.713  1.00  0.00     0.062 C 
HETATM   17  C12 UNL     1      -7.536 -21.023  17.412  1.00  0.00     0.213 C 
HETATM   18  O1  UNL     1      -6.670 -21.888  18.050  1.00  0.00    -0.240 OA
HETATM   19  C14 UNL     1      -7.607 -25.573  16.231  1.00  0.00     0.144 C 
ENDBRANCH   7  10
BRANCH   4  20
HETATM   20  C3  UNL     1     -10.438 -30.144  15.150  1.00  0.00     0.050 A 
HETATM   21  C4  UNL     1      -9.970 -30.146  13.866  1.00  0.00     0.023 A 
HETATM   22  C5  UNL     1     -10.617 -30.913  12.977  1.00  0.00     0.009 A 
HETATM   23  C6  UNL     1     -11.693 -31.631  13.431  1.00  0.00     0.050 A 
HETATM   24  S1  UNL     1     -11.765 -31.212  15.078  1.00  0.00    -0.098 SA
ENDBRANCH   4  20
BRANCH   1  25
HETATM   25  N1  UNL     1      -9.086 -29.881  19.635  1.00  0.00    -0.234 N 
ATOM     26  H12 UNL     1      -9.792 -30.510  20.018  1.00  0.00     0.174 HD
ATOM     27  H11 UNL     1      -8.227 -29.717  20.160  1.00  0.00     0.174 HD
ENDBRANCH   1  25
TORSDOF 3
ENDMDL
