MODEL 1
REMARK VINA RESULT: -7.058309451      0.000      0.000
REMARK  4 active torsions:
REMARK  status: ('A' for Active; 'I' for Inactive)
REMARK    1  A    between atoms: N1_1  and  C1_4 
REMARK    2  A    between atoms: C2_7  and  N3_8 
REMARK    3  A    between atoms: N3_8  and  C3_10 
REMARK    4  A    between atoms: N7_24  and  C10_25 
ROOT
HETATM    1  C1  UNL     1      -8.906 -29.634  22.592  1.00  0.00     0.147 A 
HETATM    2  N2  UNL     1      -8.320 -28.709  21.778  1.00  0.00    -0.175 N 
ATOM      3  H2  UNL     1      -7.852 -27.905  22.196  1.00  0.00     0.186 HD
HETATM    4  C2  UNL     1      -8.344 -28.829  20.447  1.00  0.00     0.681 A 
HETATM    5  N4  UNL     1      -8.970 -29.904  19.887  1.00  0.00    -0.172 N 
ATOM      6  H4  UNL     1      -8.990 -30.000  18.872  1.00  0.00     0.186 HD
HETATM    7  C8  UNL     1      -9.546 -30.819  20.636  1.00  0.00     0.176 A 
HETATM    8  C9  UNL     1      -9.527 -30.705  22.006  1.00  0.00     0.140 A 
HETATM    9  N5  UNL     1     -10.193 -31.785  22.467  1.00  0.00    -0.279 N 
ATOM     10  H5  UNL     1     -10.363 -32.008  23.448  1.00  0.00     0.189 HD
HETATM   11  N6  UNL     1     -10.582 -32.496  21.442  1.00  0.00    -0.233 N 
ATOM     12  H6  UNL     1     -11.108 -33.367  21.521  1.00  0.00     0.209 HD
HETATM   13  N7  UNL     1     -10.217 -31.958  20.291  1.00  0.00    -0.223 N 
ENDROOT
BRANCH   4  14
HETATM   14  N3  UNL     1      -7.726 -27.844  19.640  1.00  0.00    -0.221 N 
ATOM     15  H3  UNL     1      -6.798 -27.554  19.947  1.00  0.00     0.178 HD
BRANCH  14  16
HETATM   16  C3  UNL     1      -8.198 -27.204  18.477  1.00  0.00     0.100 C 
HETATM   17  C4  UNL     1      -7.911 -25.725  18.370  1.00  0.00     0.036 C 
HETATM   18  C5  UNL     1      -9.196 -25.064  17.845  1.00  0.00     0.076 C 
HETATM   19  S1  UNL     1      -9.955 -26.183  16.668  1.00  0.00    -0.169 SA
HETATM   20  C6  UNL     1      -8.867 -27.523  16.131  1.00  0.00     0.076 C 
HETATM   21  C7  UNL     1      -7.790 -27.844  17.160  1.00  0.00     0.036 C 
ENDBRANCH  14  16
ENDBRANCH   4  14
BRANCH   1  22
HETATM   22  N1  UNL     1      -8.870 -29.498  23.873  1.00  0.00    -0.383 N 
ATOM     23  H12 UNL     1      -8.465 -28.668  24.308  1.00  0.00     0.157 HD
ATOM     24  H11 UNL     1      -9.248 -30.222  24.483  1.00  0.00     0.157 HD
ENDBRANCH   1  22
BRANCH  13  25
HETATM   25  C10 UNL     1     -10.444 -32.414  18.962  1.00  0.00     0.060 A 
HETATM   26  C11 UNL     1      -9.630 -33.388  18.411  1.00  0.00     0.031 A 
HETATM   27  C12 UNL     1      -9.817 -33.858  17.123  1.00  0.00     0.002 A 
HETATM   28  C13 UNL     1     -10.843 -33.344  16.360  1.00  0.00     0.000 A 
HETATM   29  C14 UNL     1     -11.670 -32.377  16.878  1.00  0.00     0.002 A 
HETATM   30  C15 UNL     1     -11.458 -31.932  18.159  1.00  0.00     0.031 A 
ENDBRANCH  13  25
TORSDOF 4
ENDMDL
MODEL 2
REMARK VINA RESULT: -6.980345700      5.532      8.126
REMARK  4 active torsions:
REMARK  status: ('A' for Active; 'I' for Inactive)
REMARK    1  A    between atoms: N1_1  and  C1_4 
REMARK    2  A    between atoms: C2_7  and  N3_8 
REMARK    3  A    between atoms: N3_8  and  C3_10 
REMARK    4  A    between atoms: N7_24  and  C10_25 
ROOT
HETATM    1  C1  UNL     1      -7.814 -21.661  17.006  1.00  0.00     0.147 A 
HETATM    2  N2  UNL     1      -6.816 -21.723  16.078  1.00  0.00    -0.175 N 
ATOM      3  H2  UNL     1      -6.325 -20.867  15.820  1.00  0.00     0.186 HD
HETATM    4  C2  UNL     1      -6.464 -22.874  15.499  1.00  0.00     0.681 A 
HETATM    5  N4  UNL     1      -7.119 -24.020  15.845  1.00  0.00    -0.172 N 
ATOM      6  H4  UNL     1      -6.854 -24.902  15.406  1.00  0.00     0.186 HD
HETATM    7  C8  UNL     1      -8.088 -24.005  16.736  1.00  0.00     0.176 A 
HETATM    8  C9  UNL     1      -8.457 -22.825  17.337  1.00  0.00     0.140 A 
HETATM    9  N5  UNL     1      -9.459 -23.149  18.182  1.00  0.00    -0.279 N 
ATOM     10  H5  UNL     1      -9.963 -22.501  18.787  1.00  0.00     0.189 HD
HETATM   11  N6  UNL     1      -9.672 -24.435  18.092  1.00  0.00    -0.233 N 
ATOM     12  H6  UNL     1     -10.381 -24.933  18.632  1.00  0.00     0.209 HD
HETATM   13  N7  UNL     1      -8.864 -25.017  17.223  1.00  0.00    -0.223 N 
ENDROOT
BRANCH   4  14
HETATM   14  N3  UNL     1      -5.424 -22.892  14.540  1.00  0.00    -0.221 N 
ATOM     15  H3  UNL     1      -5.097 -23.821  14.275  1.00  0.00     0.178 HD
BRANCH  14  16
HETATM   16  C3  UNL     1      -4.772 -21.822  13.895  1.00  0.00     0.100 C 
HETATM   17  C4  UNL     1      -3.353 -22.083  13.445  1.00  0.00     0.036 C 
HETATM   18  C5  UNL     1      -2.540 -20.830  13.805  1.00  0.00     0.076 C 
HETATM   19  S1  UNL     1      -3.587 -19.396  13.556  1.00  0.00    -0.169 SA
HETATM   20  C6  UNL     1      -5.089 -19.746  12.613  1.00  0.00     0.076 C 
HETATM   21  C7  UNL     1      -5.516 -21.205  12.723  1.00  0.00     0.036 C 
ENDBRANCH  14  16
ENDBRANCH   4  14
BRANCH   1  22
HETATM   22  N1  UNL     1      -8.136 -20.539  17.551  1.00  0.00    -0.383 N 
ATOM     23  H12 UNL     1      -8.757 -19.878  17.081  1.00  0.00     0.157 HD
ATOM     24  H11 UNL     1      -7.775 -20.285  18.470  1.00  0.00     0.157 HD
ENDBRANCH   1  22
BRANCH  13  25
HETATM   25  C10 UNL     1      -8.777 -26.385  16.838  1.00  0.00     0.060 A 
HETATM   26  C11 UNL     1      -9.709 -26.927  15.971  1.00  0.00     0.031 A 
HETATM   27  C12 UNL     1      -9.660 -28.251  15.574  1.00  0.00     0.002 A 
HETATM   28  C13 UNL     1      -8.654 -29.062  16.054  1.00  0.00     0.000 A 
HETATM   29  C14 UNL     1      -7.713 -28.555  16.916  1.00  0.00     0.002 A 
HETATM   30  C15 UNL     1      -7.790 -27.237  17.291  1.00  0.00     0.031 A 
ENDBRANCH  13  25
TORSDOF 4
ENDMDL
MODEL 3
REMARK VINA RESULT: -6.932864866      6.771     11.267
REMARK  4 active torsions:
REMARK  status: ('A' for Active; 'I' for Inactive)
REMARK    1  A    between atoms: N1_1  and  C1_4 
REMARK    2  A    between atoms: C2_7  and  N3_8 
REMARK    3  A    between atoms: N3_8  and  C3_10 
REMARK    4  A    between atoms: N7_24  and  C10_25 
ROOT
HETATM    1  C1  UNL     1      -5.977 -20.473  16.634  1.00  0.00     0.147 A 
HETATM    2  N2  UNL     1      -6.668 -21.470  17.258  1.00  0.00    -0.175 N 
ATOM      3  H2  UNL     1      -6.180 -22.075  17.919  1.00  0.00     0.186 HD
HETATM    4  C2  UNL     1      -7.968 -21.676  17.026  1.00  0.00     0.681 A 
HETATM    5  N4  UNL     1      -8.623 -20.868  16.143  1.00  0.00    -0.172 N 
ATOM      6  H4  UNL     1      -9.615 -21.021  15.964  1.00  0.00     0.186 HD
HETATM    7  C8  UNL     1      -7.994 -19.894  15.520  1.00  0.00     0.176 A 
HETATM    8  C9  UNL     1      -6.656 -19.675  15.752  1.00  0.00     0.140 A 
HETATM    9  N5  UNL     1      -6.323 -18.624  14.972  1.00  0.00    -0.279 N 
ATOM     10  H5  UNL     1      -5.398 -18.201  14.903  1.00  0.00     0.189 HD
HETATM   11  N6  UNL     1      -7.389 -18.242  14.320  1.00  0.00    -0.233 N 
ATOM     12  H6  UNL     1      -7.404 -17.463  13.661  1.00  0.00     0.209 HD
HETATM   13  N7  UNL     1      -8.447 -18.981  14.612  1.00  0.00    -0.223 N 
ENDROOT
BRANCH   4  14
HETATM   14  N3  UNL     1      -8.645 -22.724  17.694  1.00  0.00    -0.221 N 
ATOM     15  H3  UNL     1      -9.317 -22.423  18.399  1.00  0.00     0.178 HD
BRANCH  14  16
HETATM   16  C3  UNL     1      -8.532 -24.119  17.533  1.00  0.00     0.100 C 
HETATM   17  C4  UNL     1      -8.192 -24.602  16.142  1.00  0.00     0.036 C 
HETATM   18  C5  UNL     1      -9.090 -25.817  15.865  1.00  0.00     0.076 C 
HETATM   19  S1  UNL     1      -9.273 -26.734  17.395  1.00  0.00    -0.169 SA
HETATM   20  C6  UNL     1      -8.094 -26.252  18.678  1.00  0.00     0.076 C 
HETATM   21  C7  UNL     1      -7.596 -24.823  18.501  1.00  0.00     0.036 C 
ENDBRANCH  14  16
ENDBRANCH   4  14
BRANCH   1  22
HETATM   22  N1  UNL     1      -4.724 -20.293  16.873  1.00  0.00    -0.383 N 
ATOM     23  H12 UNL     1      -4.228 -20.859  17.563  1.00  0.00     0.157 HD
ATOM     24  H11 UNL     1      -4.197 -19.577  16.374  1.00  0.00     0.157 HD
ENDBRANCH   1  22
BRANCH  13  25
HETATM   25  C10 UNL     1      -9.780 -18.892  14.122  1.00  0.00     0.060 A 
HETATM   26  C11 UNL     1     -10.024 -18.880  12.761  1.00  0.00     0.031 A 
HETATM   27  C12 UNL     1     -11.304 -18.795  12.245  1.00  0.00     0.002 A 
HETATM   28  C13 UNL     1     -12.375 -18.718  13.108  1.00  0.00     0.000 A 
HETATM   29  C14 UNL     1     -12.168 -18.727  14.466  1.00  0.00     0.002 A 
HETATM   30  C15 UNL     1     -10.885 -18.813  14.946  1.00  0.00     0.031 A 
ENDBRANCH  13  25
TORSDOF 4
ENDMDL
MODEL 4
REMARK VINA RESULT: -6.929578404      5.270      9.514
REMARK  4 active torsions:
REMARK  status: ('A' for Active; 'I' for Inactive)
REMARK    1  A    between atoms: N1_1  and  C1_4 
REMARK    2  A    between atoms: C2_7  and  N3_8 
REMARK    3  A    between atoms: N3_8  and  C3_10 
REMARK    4  A    between atoms: N7_24  and  C10_25 
ROOT
HETATM    1  C1  UNL     1      -7.896 -23.249  18.211  1.00  0.00     0.147 A 
HETATM    2  N2  UNL     1      -8.291 -24.414  17.621  1.00  0.00    -0.175 N 
ATOM      3  H2  UNL     1      -8.814 -25.096  18.171  1.00  0.00     0.186 HD
HETATM    4  C2  UNL     1      -8.012 -24.685  16.343  1.00  0.00     0.681 A 
HETATM    5  N4  UNL     1      -7.315 -23.773  15.607  1.00  0.00    -0.172 N 
ATOM      6  H4  UNL     1      -7.099 -23.975  14.630  1.00  0.00     0.186 HD
HETATM    7  C8  UNL     1      -6.915 -22.636  16.136  1.00  0.00     0.176 A 
HETATM    8  C9  UNL     1      -7.198 -22.348  17.451  1.00  0.00     0.140 A 
HETATM    9  N5  UNL     1      -6.659 -21.131  17.677  1.00  0.00    -0.279 N 
ATOM     10  H5  UNL     1      -6.688 -20.620  18.559  1.00  0.00     0.189 HD
HETATM   11  N6  UNL     1      -6.094 -20.720  16.573  1.00  0.00    -0.233 N 
ATOM     12  H6  UNL     1      -5.614 -19.825  16.479  1.00  0.00     0.209 HD
HETATM   13  N7  UNL     1      -6.217 -21.598  15.591  1.00  0.00    -0.223 N 
ENDROOT
BRANCH   4  14
HETATM   14  N3  UNL     1      -8.439 -25.908  15.772  1.00  0.00    -0.221 N 
ATOM     15  H3  UNL     1      -8.615 -25.877  14.768  1.00  0.00     0.178 HD
BRANCH  14  16
HETATM   16  C3  UNL     1      -8.658 -27.160  16.380  1.00  0.00     0.100 C 
HETATM   17  C4  UNL     1      -9.597 -28.095  15.655  1.00  0.00     0.036 C 
HETATM   18  C5  UNL     1     -10.502 -28.727  16.724  1.00  0.00     0.076 C 
HETATM   19  S1  UNL     1      -9.518 -28.991  18.199  1.00  0.00    -0.169 SA
HETATM   20  C6  UNL     1      -7.738 -28.840  17.924  1.00  0.00     0.076 C 
HETATM   21  C7  UNL     1      -7.408 -27.951  16.731  1.00  0.00     0.036 C 
ENDBRANCH  14  16
ENDBRANCH   4  14
BRANCH   1  22
HETATM   22  N1  UNL     1      -8.177 -23.009  19.445  1.00  0.00    -0.383 N 
ATOM     23  H12 UNL     1      -9.133 -22.811  19.744  1.00  0.00     0.157 HD
ATOM     24  H11 UNL     1      -7.445 -23.013  20.155  1.00  0.00     0.157 HD
ENDBRANCH   1  22
BRANCH  13  25
HETATM   25  C10 UNL     1      -5.747 -21.530  14.249  1.00  0.00     0.060 A 
HETATM   26  C11 UNL     1      -4.636 -22.258  13.861  1.00  0.00     0.031 A 
HETATM   27  C12 UNL     1      -4.148 -22.220  12.568  1.00  0.00     0.002 A 
HETATM   28  C13 UNL     1      -4.782 -21.434  11.631  1.00  0.00     0.000 A 
HETATM   29  C14 UNL     1      -5.888 -20.698  11.983  1.00  0.00     0.002 A 
HETATM   30  C15 UNL     1      -6.347 -20.759  13.274  1.00  0.00     0.031 A 
ENDBRANCH  13  25
TORSDOF 4
ENDMDL
MODEL 5
REMARK VINA RESULT: -6.881550808      5.649      8.226
REMARK  4 active torsions:
REMARK  status: ('A' for Active; 'I' for Inactive)
REMARK    1  A    between atoms: N1_1  and  C1_4 
REMARK    2  A    between atoms: C2_7  and  N3_8 
REMARK    3  A    between atoms: N3_8  and  C3_10 
REMARK    4  A    between atoms: N7_24  and  C10_25 
ROOT
HETATM    1  C1  UNL     1      -7.693 -21.545  16.903  1.00  0.00     0.147 A 
HETATM    2  N2  UNL     1      -6.692 -21.634  15.980  1.00  0.00    -0.175 N 
ATOM      3  H2  UNL     1      -6.178 -20.792  15.721  1.00  0.00     0.186 HD
HETATM    4  C2  UNL     1      -6.367 -22.796  15.406  1.00  0.00     0.681 A 
HETATM    5  N4  UNL     1      -7.053 -23.924  15.752  1.00  0.00    -0.172 N 
ATOM      6  H4  UNL     1      -6.808 -24.813  15.318  1.00  0.00     0.186 HD
HETATM    7  C8  UNL     1      -8.025 -23.881  16.639  1.00  0.00     0.176 A 
HETATM    8  C9  UNL     1      -8.367 -22.690  17.234  1.00  0.00     0.140 A 
HETATM    9  N5  UNL     1      -9.380 -22.986  18.075  1.00  0.00    -0.279 N 
ATOM     10  H5  UNL     1      -9.870 -22.323  18.676  1.00  0.00     0.189 HD
HETATM   11  N6  UNL     1      -9.626 -24.266  17.989  1.00  0.00    -0.233 N 
ATOM     12  H6  UNL     1     -10.350 -24.744  18.526  1.00  0.00     0.209 HD
HETATM   13  N7  UNL     1      -8.829 -24.872  17.125  1.00  0.00    -0.223 N 
ENDROOT
BRANCH   4  14
HETATM   14  N3  UNL     1      -5.323 -22.844  14.452  1.00  0.00    -0.221 N 
ATOM     15  H3  UNL     1      -5.034 -23.781  14.174  1.00  0.00     0.178 HD
BRANCH  14  16
HETATM   16  C3  UNL     1      -4.622 -21.793  13.828  1.00  0.00     0.100 C 
HETATM   17  C4  UNL     1      -3.171 -22.062  13.504  1.00  0.00     0.036 C 
HETATM   18  C5  UNL     1      -2.391 -20.796  13.888  1.00  0.00     0.076 C 
HETATM   19  S1  UNL     1      -3.416 -19.375  13.507  1.00  0.00    -0.169 SA
HETATM   20  C6  UNL     1      -4.835 -19.761  12.457  1.00  0.00     0.076 C 
HETATM   21  C7  UNL     1      -5.269 -21.217  12.579  1.00  0.00     0.036 C 
ENDBRANCH  14  16
ENDBRANCH   4  14
BRANCH   1  22
HETATM   22  N1  UNL     1      -7.989 -20.412  17.442  1.00  0.00    -0.383 N 
ATOM     23  H12 UNL     1      -8.553 -19.720  16.949  1.00  0.00     0.157 HD
ATOM     24  H11 UNL     1      -7.663 -20.183  18.381  1.00  0.00     0.157 HD
ENDBRANCH   1  22
BRANCH  13  25
HETATM   25  C10 UNL     1      -8.775 -26.243  16.745  1.00  0.00     0.060 A 
HETATM   26  C11 UNL     1      -7.756 -27.055  17.209  1.00  0.00     0.031 A 
HETATM   27  C12 UNL     1      -7.668 -28.392  16.863  1.00  0.00     0.002 A 
HETATM   28  C13 UNL     1      -8.621 -28.937  16.031  1.00  0.00     0.000 A 
HETATM   29  C14 UNL     1      -9.647 -28.157  15.553  1.00  0.00     0.002 A 
HETATM   30  C15 UNL     1      -9.705 -26.835  15.915  1.00  0.00     0.031 A 
ENDBRANCH  13  25
TORSDOF 4
ENDMDL
