MODEL 1
REMARK VINA RESULT: -6.680903326      0.000      0.000
REMARK  2 active torsions:
REMARK  status: ('A' for Active; 'I' for Inactive)
REMARK    1  A    between atoms: C3_6  and  N3_7 
REMARK    2  A    between atoms: C8_14  and  N5_15 
ROOT
HETATM    1  N1  UNL     1      -8.158  68.814  14.856  1.00  0.00    -0.190 NA
HETATM    2  C1  UNL     1      -7.272  68.758  14.115  1.00  0.00     0.121 C 
HETATM    3  C2  UNL     1      -6.146  68.669  13.196  1.00  0.00     0.153 A 
HETATM    4  N2  UNL     1      -6.323  68.100  12.005  1.00  0.00    -0.328 N 
ATOM      5  H2  UNL     1      -7.250  67.741  11.774  1.00  0.00     0.168 HD
HETATM    6  C3  UNL     1      -5.328  67.971  11.075  1.00  0.00     0.149 A 
HETATM    7  C8  UNL     1      -4.101  68.469  11.434  1.00  0.00     0.144 A 
HETATM    8  N6  UNL     1      -3.921  69.048  12.647  1.00  0.00    -0.329 N 
ATOM      9  H6  UNL     1      -3.001  69.412  12.893  1.00  0.00     0.168 HD
HETATM   10  C9  UNL     1      -4.922  69.155  13.527  1.00  0.00     0.153 A 
HETATM   11  C10 UNL     1      -4.763  69.764  14.821  1.00  0.00     0.121 C 
HETATM   12  N7  UNL     1      -4.650  70.253  15.863  1.00  0.00    -0.190 NA
ENDROOT
BRANCH   6  13
HETATM   13  N3  UNL     1      -5.602  67.351   9.830  1.00  0.00    -0.361 N 
HETATM   14  C4  UNL     1      -5.507  65.905   9.734  1.00  0.00     0.143 C 
HETATM   15  C5  UNL     1      -6.819  65.441   9.134  1.00  0.00     0.133 C 
HETATM   16  N4  UNL     1      -6.882  65.896   7.789  1.00  0.00    -0.418 N 
HETATM   17  C6  UNL     1      -6.143  67.061   7.467  1.00  0.00     0.133 C 
ATOM     18  H4  UNL     1      -7.436  65.406   7.087  1.00  0.00     0.153 HD
HETATM   19  C7  UNL     1      -5.974  68.034   8.623  1.00  0.00     0.143 C 
ENDBRANCH   6  13
BRANCH   7  20
HETATM   20  N5  UNL     1      -3.106  68.397  10.635  1.00  0.00    -0.382 N 
ATOM     21  H52 UNL     1      -2.826  69.236  10.125  1.00  0.00     0.157 HD
ATOM     22  H51 UNL     1      -2.601  67.520  10.505  1.00  0.00     0.157 HD
ENDBRANCH   7  20
TORSDOF 2
ENDMDL
MODEL 2
REMARK VINA RESULT: -6.655022403      1.821      5.992
REMARK  2 active torsions:
REMARK  status: ('A' for Active; 'I' for Inactive)
REMARK    1  A    between atoms: C3_6  and  N3_7 
REMARK    2  A    between atoms: C8_14  and  N5_15 
ROOT
HETATM    1  N1  UNL     1      -4.677  68.069   7.747  1.00  0.00    -0.190 NA
HETATM    2  C1  UNL     1      -4.948  67.979   8.868  1.00  0.00     0.121 C 
HETATM    3  C2  UNL     1      -5.270  67.850  10.282  1.00  0.00     0.153 A 
HETATM    4  N2  UNL     1      -5.042  68.879  11.096  1.00  0.00    -0.328 N 
ATOM      5  H2  UNL     1      -4.645  69.731  10.698  1.00  0.00     0.168 HD
HETATM    6  C3  UNL     1      -5.312  68.854  12.437  1.00  0.00     0.149 A 
HETATM    7  C8  UNL     1      -5.843  67.686  12.923  1.00  0.00     0.144 A 
HETATM    8  N6  UNL     1      -6.074  66.639  12.093  1.00  0.00    -0.329 N 
ATOM      9  H6  UNL     1      -6.470  65.780  12.475  1.00  0.00     0.168 HD
HETATM   10  C9  UNL     1      -5.797  66.704  10.787  1.00  0.00     0.153 A 
HETATM   11  C10 UNL     1      -6.031  65.611   9.882  1.00  0.00     0.121 C 
HETATM   12  N7  UNL     1      -6.217  64.741   9.143  1.00  0.00    -0.190 NA
ENDROOT
BRANCH   6  13
HETATM   13  N3  UNL     1      -5.038  69.996  13.233  1.00  0.00    -0.361 N 
HETATM   14  C4  UNL     1      -3.774  70.064  13.944  1.00  0.00     0.143 C 
HETATM   15  C5  UNL     1      -3.159  71.399  13.572  1.00  0.00     0.133 C 
HETATM   16  N4  UNL     1      -3.956  72.432  14.135  1.00  0.00    -0.418 N 
HETATM   17  C6  UNL     1      -5.323  72.139  14.367  1.00  0.00     0.133 C 
ATOM     18  H4  UNL     1      -3.561  73.344  14.363  1.00  0.00     0.153 HD
HETATM   19  C7  UNL     1      -5.915  71.119  13.407  1.00  0.00     0.143 C 
ENDBRANCH   6  13
BRANCH   7  20
HETATM   20  N5  UNL     1      -6.129  67.563  14.162  1.00  0.00    -0.382 N 
ATOM     21  H52 UNL     1      -5.994  68.365  14.778  1.00  0.00     0.157 HD
ATOM     22  H51 UNL     1      -6.485  66.681  14.531  1.00  0.00     0.157 HD
ENDBRANCH   7  20
TORSDOF 2
ENDMDL
MODEL 3
REMARK VINA RESULT: -6.457820757      1.054      1.054
REMARK  2 active torsions:
REMARK  status: ('A' for Active; 'I' for Inactive)
REMARK    1  A    between atoms: C3_6  and  N3_7 
REMARK    2  A    between atoms: C8_14  and  N5_15 
ROOT
HETATM    1  N1  UNL     1      -7.770  66.567  15.580  1.00  0.00    -0.190 NA
HETATM    2  C1  UNL     1      -7.099  67.057  14.776  1.00  0.00     0.121 C 
HETATM    3  C2  UNL     1      -6.233  67.663  13.775  1.00  0.00     0.153 A 
HETATM    4  N2  UNL     1      -6.270  67.208  12.524  1.00  0.00    -0.328 N 
ATOM      5  H2  UNL     1      -6.910  66.443  12.306  1.00  0.00     0.168 HD
HETATM    6  C3  UNL     1      -5.497  67.713  11.514  1.00  0.00     0.149 A 
HETATM    7  C8  UNL     1      -4.654  68.739  11.857  1.00  0.00     0.144 A 
HETATM    8  N6  UNL     1      -4.616  69.201  13.132  1.00  0.00    -0.329 N 
ATOM      9  H6  UNL     1      -3.982  69.965  13.365  1.00  0.00     0.168 HD
HETATM   10  C9  UNL     1      -5.390  68.680  14.090  1.00  0.00     0.153 A 
HETATM   11  C10 UNL     1      -5.373  69.148  15.449  1.00  0.00     0.121 C 
HETATM   12  N7  UNL     1      -5.370  69.516  16.546  1.00  0.00    -0.190 NA
ENDROOT
BRANCH   6  13
HETATM   13  N3  UNL     1      -5.600  67.170  10.208  1.00  0.00    -0.361 N 
HETATM   14  C4  UNL     1      -5.502  65.731  10.040  1.00  0.00     0.143 C 
HETATM   15  C5  UNL     1      -6.721  65.322   9.238  1.00  0.00     0.133 C 
HETATM   16  N4  UNL     1      -6.594  65.856   7.927  1.00  0.00    -0.418 N 
HETATM   17  C6  UNL     1      -5.809  67.026   7.780  1.00  0.00     0.133 C 
ATOM     18  H4  UNL     1      -7.048  65.415   7.126  1.00  0.00     0.153 HD
HETATM   19  C7  UNL     1      -5.796  67.928   9.004  1.00  0.00     0.143 C 
ENDBRANCH   6  13
BRANCH   7  20
HETATM   20  N5  UNL     1      -3.891  69.278  10.986  1.00  0.00    -0.382 N 
ATOM     21  H52 UNL     1      -3.588  68.720  10.188  1.00  0.00     0.157 HD
ATOM     22  H51 UNL     1      -3.588  70.248  11.084  1.00  0.00     0.157 HD
ENDBRANCH   7  20
TORSDOF 2
ENDMDL
MODEL 4
REMARK VINA RESULT: -6.330952095      1.685      6.071
REMARK  2 active torsions:
REMARK  status: ('A' for Active; 'I' for Inactive)
REMARK    1  A    between atoms: C3_6  and  N3_7 
REMARK    2  A    between atoms: C8_14  and  N5_15 
ROOT
HETATM    1  N1  UNL     1      -4.658  68.076   7.686  1.00  0.00    -0.190 NA
HETATM    2  C1  UNL     1      -4.900  68.022   8.816  1.00  0.00     0.121 C 
HETATM    3  C2  UNL     1      -5.185  67.937  10.241  1.00  0.00     0.153 A 
HETATM    4  N2  UNL     1      -4.861  68.960  11.030  1.00  0.00    -0.328 N 
ATOM      5  H2  UNL     1      -4.419  69.776  10.606  1.00  0.00     0.168 HD
HETATM    6  C3  UNL     1      -5.090  68.974  12.379  1.00  0.00     0.149 A 
HETATM    7  C8  UNL     1      -5.684  67.853  12.901  1.00  0.00     0.144 A 
HETATM    8  N6  UNL     1      -6.014  66.812  12.096  1.00  0.00    -0.329 N 
ATOM      9  H6  UNL     1      -6.455  65.988  12.505  1.00  0.00     0.168 HD
HETATM   10  C9  UNL     1      -5.774  66.838  10.781  1.00  0.00     0.153 A 
HETATM   11  C10 UNL     1      -6.111  65.751   9.903  1.00  0.00     0.121 C 
HETATM   12  N7  UNL     1      -6.379  64.884   9.185  1.00  0.00    -0.190 NA
ENDROOT
BRANCH   6  13
HETATM   13  N3  UNL     1      -4.713  70.105  13.147  1.00  0.00    -0.361 N 
HETATM   14  C4  UNL     1      -5.642  71.216  13.255  1.00  0.00     0.143 C 
HETATM   15  C5  UNL     1      -5.788  71.492  14.739  1.00  0.00     0.133 C 
HETATM   16  N4  UNL     1      -4.552  71.996  15.225  1.00  0.00    -0.418 N 
HETATM   17  C6  UNL     1      -3.380  71.620  14.522  1.00  0.00     0.133 C 
ATOM     18  H4  UNL     1      -4.509  72.602  16.044  1.00  0.00     0.153 HD
HETATM   19  C7  UNL     1      -3.467  70.261  13.844  1.00  0.00     0.143 C 
ENDBRANCH   6  13
BRANCH   7  20
HETATM   20  N5  UNL     1      -5.940  67.769  14.149  1.00  0.00    -0.382 N 
ATOM     21  H52 UNL     1      -6.830  67.364  14.441  1.00  0.00     0.157 HD
ATOM     22  H51 UNL     1      -5.270  68.100  14.844  1.00  0.00     0.157 HD
ENDBRANCH   7  20
TORSDOF 2
ENDMDL
MODEL 5
REMARK VINA RESULT: -6.232051647      1.492      2.652
REMARK  2 active torsions:
REMARK  status: ('A' for Active; 'I' for Inactive)
REMARK    1  A    between atoms: C3_6  and  N3_7 
REMARK    2  A    between atoms: C8_14  and  N5_15 
ROOT
HETATM    1  N1  UNL     1      -2.711  71.893  13.972  1.00  0.00    -0.190 NA
HETATM    2  C1  UNL     1      -3.362  70.960  13.764  1.00  0.00     0.121 C 
HETATM    3  C2  UNL     1      -4.202  69.800  13.503  1.00  0.00     0.153 A 
HETATM    4  N2  UNL     1      -4.204  69.260  12.286  1.00  0.00    -0.328 N 
ATOM      5  H2  UNL     1      -3.611  69.681  11.570  1.00  0.00     0.168 HD
HETATM    6  C3  UNL     1      -4.957  68.170  11.945  1.00  0.00     0.149 A 
HETATM    7  C8  UNL     1      -5.737  67.642  12.942  1.00  0.00     0.144 A 
HETATM    8  N6  UNL     1      -5.735  68.192  14.182  1.00  0.00    -0.329 N 
ATOM      9  H6  UNL     1      -6.323  67.784  14.909  1.00  0.00     0.168 HD
HETATM   10  C9  UNL     1      -4.983  69.258  14.474  1.00  0.00     0.153 A 
HETATM   11  C10 UNL     1      -4.959  69.864  15.778  1.00  0.00     0.121 C 
HETATM   12  N7  UNL     1      -4.928  70.360  16.823  1.00  0.00    -0.190 NA
ENDROOT
BRANCH   6  13
HETATM   13  N3  UNL     1      -4.900  67.658  10.624  1.00  0.00    -0.361 N 
HETATM   14  C4  UNL     1      -4.021  66.536  10.347  1.00  0.00     0.143 C 
HETATM   15  C5  UNL     1      -4.881  65.495   9.658  1.00  0.00     0.133 C 
HETATM   16  N4  UNL     1      -5.252  65.996   8.380  1.00  0.00    -0.418 N 
HETATM   17  C6  UNL     1      -5.301  67.404   8.229  1.00  0.00     0.133 C 
ATOM     18  H4  UNL     1      -5.473  65.370   7.606  1.00  0.00     0.153 HD
HETATM   19  C7  UNL     1      -5.647  68.158   9.504  1.00  0.00     0.143 C 
ENDBRANCH   6  13
BRANCH   7  20
HETATM   20  N5  UNL     1      -6.477  66.624  12.724  1.00  0.00    -0.382 N 
ATOM     21  H52 UNL     1      -6.395  66.141  11.829  1.00  0.00     0.157 HD
ATOM     22  H51 UNL     1      -7.139  66.298  13.429  1.00  0.00     0.157 HD
ENDBRANCH   7  20
TORSDOF 2
ENDMDL
