MODEL 1
REMARK VINA RESULT: -7.250270072      0.000      0.000
REMARK  4 active torsions:
REMARK  status: ('A' for Active; 'I' for Inactive)
REMARK    1  A    between atoms: O1_1  and  N1_3 
REMARK    2  A    between atoms: C3_10  and  N4_11 
REMARK    3  A    between atoms: N4_11  and  N5_13 
REMARK    4  A    between atoms: N5_13  and  C4_15 
ROOT
HETATM    1  N4  UNL     1      -3.694  67.776   9.238  1.00  0.00    -0.269 N 
ATOM      2  H4  UNL     1      -3.284  68.260   8.438  1.00  0.00     0.189 HD
ENDROOT
BRANCH   1   3
HETATM    3  C3  UNL     1      -4.533  66.856   8.981  1.00  0.00     0.155 A 
HETATM    4  N3  UNL     1      -4.552  65.696   9.649  1.00  0.00    -0.335 N 
HETATM    5  C2  UNL     1      -5.480  64.753   9.321  1.00  0.00     0.183 A 
ATOM      6  H3  UNL     1      -3.879  65.520  10.394  1.00  0.00     0.168 HD
HETATM    7  N2  UNL     1      -6.382  64.944   8.348  1.00  0.00    -0.335 N 
HETATM    8  C1  UNL     1      -6.395  66.091   7.657  1.00  0.00     0.168 A 
ATOM      9  H2  UNL     1      -7.060  64.213   8.133  1.00  0.00     0.168 HD
HETATM   10  N1  UNL     1      -6.387  67.330   6.932  1.00  0.00    -0.198 N 
HETATM   11  C8  UNL     1      -5.459  67.050   7.983  1.00  0.00     0.156 A 
BRANCH  10  12
HETATM   12  O1  UNL     1      -6.950  68.067   5.960  1.00  0.00    -0.281 OA
ATOM     13  H1  UNL     1      -6.810  68.644   5.218  1.00  0.00     0.245 HD
ENDBRANCH  10  12
ENDBRANCH   1   3
BRANCH   1  14
HETATM   14  N5  UNL     1      -3.284  68.185  10.483  1.00  0.00    -0.130 N 
ATOM     15  H5  UNL     1      -2.310  68.000  10.724  1.00  0.00     0.205 HD
BRANCH  14  16
HETATM   16  C4  UNL     1      -3.983  68.767  11.366  1.00  0.00     0.696 A 
HETATM   17  N6  UNL     1      -3.900  70.101  11.500  1.00  0.00    -0.200 N 
HETATM   18  C5  UNL     1      -4.604  70.800  12.411  1.00  0.00     0.107 A 
ATOM     19  H6  UNL     1      -3.270  70.612  10.881  1.00  0.00     0.183 HD
HETATM   20  C6  UNL     1      -5.458  70.117  13.254  1.00  0.00     0.035 A 
HETATM   21  C7  UNL     1      -5.540  68.748  13.114  1.00  0.00     0.107 A 
HETATM   22  N7  UNL     1      -4.811  68.105  12.185  1.00  0.00    -0.200 N 
ATOM     23  H7  UNL     1      -4.889  67.091  12.102  1.00  0.00     0.183 HD
ENDBRANCH  14  16
ENDBRANCH   1  14
TORSDOF 4
ENDMDL
MODEL 2
REMARK VINA RESULT: -7.225675587      0.024      1.166
REMARK  4 active torsions:
REMARK  status: ('A' for Active; 'I' for Inactive)
REMARK    1  A    between atoms: O1_1  and  N1_3 
REMARK    2  A    between atoms: C3_10  and  N4_11 
REMARK    3  A    between atoms: N4_11  and  N5_13 
REMARK    4  A    between atoms: N5_13  and  C4_15 
ROOT
HETATM    1  N4  UNL     1      -3.700  67.770   9.256  1.00  0.00    -0.269 N 
ATOM      2  H4  UNL     1      -3.292  68.261   8.460  1.00  0.00     0.189 HD
ENDROOT
BRANCH   1   3
HETATM    3  C3  UNL     1      -4.538  66.851   8.992  1.00  0.00     0.155 A 
HETATM    4  N3  UNL     1      -4.559  65.688   9.656  1.00  0.00    -0.335 N 
HETATM    5  C2  UNL     1      -5.486  64.746   9.322  1.00  0.00     0.183 A 
ATOM      6  H3  UNL     1      -3.889  65.509  10.403  1.00  0.00     0.168 HD
HETATM    7  N2  UNL     1      -6.384  64.940   8.346  1.00  0.00    -0.335 N 
HETATM    8  C1  UNL     1      -6.395  66.090   7.658  1.00  0.00     0.168 A 
ATOM      9  H2  UNL     1      -7.061  64.210   8.126  1.00  0.00     0.168 HD
HETATM   10  N1  UNL     1      -6.384  67.332   6.938  1.00  0.00    -0.198 N 
HETATM   11  C8  UNL     1      -5.460  67.048   7.992  1.00  0.00     0.156 A 
BRANCH  10  12
HETATM   12  O1  UNL     1      -6.943  68.072   5.966  1.00  0.00    -0.281 OA
ATOM     13  H1  UNL     1      -7.149  68.145   5.041  1.00  0.00     0.245 HD
ENDBRANCH  10  12
ENDBRANCH   1   3
BRANCH   1  14
HETATM   14  N5  UNL     1      -3.289  68.169  10.504  1.00  0.00    -0.130 N 
ATOM     15  H5  UNL     1      -2.333  67.929  10.765  1.00  0.00     0.205 HD
BRANCH  14  16
HETATM   16  C4  UNL     1      -3.967  68.803  11.367  1.00  0.00     0.696 A 
HETATM   17  N6  UNL     1      -4.787  68.127  12.189  1.00  0.00    -0.200 N 
HETATM   18  C5  UNL     1      -5.543  68.719  13.132  1.00  0.00     0.107 A 
ATOM     19  H6  UNL     1      -4.840  67.113  12.092  1.00  0.00     0.183 HD
HETATM   20  C6  UNL     1      -5.478  70.092  13.269  1.00  0.00     0.035 A 
HETATM   21  C7  UNL     1      -4.637  70.782  12.424  1.00  0.00     0.107 A 
HETATM   22  N7  UNL     1      -3.906  70.135  11.499  1.00  0.00    -0.200 N 
ATOM     23  H7  UNL     1      -3.291  70.669  10.885  1.00  0.00     0.183 HD
ENDBRANCH  14  16
ENDBRANCH   1  14
TORSDOF 4
ENDMDL
MODEL 3
REMARK VINA RESULT: -6.847461312      3.302      4.512
REMARK  4 active torsions:
REMARK  status: ('A' for Active; 'I' for Inactive)
REMARK    1  A    between atoms: O1_1  and  N1_3 
REMARK    2  A    between atoms: C3_10  and  N4_11 
REMARK    3  A    between atoms: N4_11  and  N5_13 
REMARK    4  A    between atoms: N5_13  and  C4_15 
ROOT
HETATM    1  N4  UNL     1      -6.154  66.728  11.764  1.00  0.00    -0.269 N 
ATOM      2  H4  UNL     1      -6.694  65.864  11.721  1.00  0.00     0.189 HD
ENDROOT
BRANCH   1   3
HETATM    3  C3  UNL     1      -5.576  67.096  10.693  1.00  0.00     0.155 A 
HETATM    4  N3  UNL     1      -6.208  67.794   9.741  1.00  0.00    -0.335 N 
HETATM    5  C2  UNL     1      -5.527  68.156   8.617  1.00  0.00     0.183 A 
ATOM      6  H3  UNL     1      -7.188  68.050   9.855  1.00  0.00     0.168 HD
HETATM    7  N2  UNL     1      -4.238  67.838   8.427  1.00  0.00    -0.335 N 
HETATM    8  C1  UNL     1      -3.572  67.141   9.356  1.00  0.00     0.168 A 
ATOM      9  H2  UNL     1      -3.764  68.128   7.572  1.00  0.00     0.168 HD
HETATM   10  N1  UNL     1      -2.881  66.394  10.369  1.00  0.00    -0.198 N 
HETATM   11  C8  UNL     1      -4.255  66.772  10.497  1.00  0.00     0.156 A 
BRANCH  10  12
HETATM   12  O1  UNL     1      -1.728  65.822  10.754  1.00  0.00    -0.281 OA
ATOM     13  H1  UNL     1      -1.092  65.133  10.600  1.00  0.00     0.245 HD
ENDBRANCH  10  12
ENDBRANCH   1   3
BRANCH   1  14
HETATM   14  N5  UNL     1      -6.124  67.377  12.974  1.00  0.00    -0.130 N 
ATOM     15  H5  UNL     1      -5.590  68.246  13.010  1.00  0.00     0.205 HD
BRANCH  14  16
HETATM   16  C4  UNL     1      -6.686  67.016  14.051  1.00  0.00     0.696 A 
HETATM   17  N6  UNL     1      -7.565  66.000  14.029  1.00  0.00    -0.200 N 
HETATM   18  C5  UNL     1      -8.207  65.552  15.123  1.00  0.00     0.107 A 
ATOM     19  H6  UNL     1      -7.755  65.544  13.136  1.00  0.00     0.183 HD
HETATM   20  C6  UNL     1      -7.956  66.163  16.336  1.00  0.00     0.035 A 
HETATM   21  C7  UNL     1      -7.055  67.206  16.356  1.00  0.00     0.107 A 
HETATM   22  N7  UNL     1      -6.444  67.609  15.227  1.00  0.00    -0.200 N 
ATOM     23  H7  UNL     1      -5.781  68.384  15.269  1.00  0.00     0.183 HD
ENDBRANCH  14  16
ENDBRANCH   1  14
TORSDOF 4
ENDMDL
MODEL 4
REMARK VINA RESULT: -6.825258925      3.301      4.407
REMARK  4 active torsions:
REMARK  status: ('A' for Active; 'I' for Inactive)
REMARK    1  A    between atoms: O1_1  and  N1_3 
REMARK    2  A    between atoms: C3_10  and  N4_11 
REMARK    3  A    between atoms: N4_11  and  N5_13 
REMARK    4  A    between atoms: N5_13  and  C4_15 
ROOT
HETATM    1  N4  UNL     1      -6.161  66.695  11.743  1.00  0.00    -0.269 N 
ATOM      2  H4  UNL     1      -6.709  65.837  11.684  1.00  0.00     0.189 HD
ENDROOT
BRANCH   1   3
HETATM    3  C3  UNL     1      -5.581  67.078  10.678  1.00  0.00     0.155 A 
HETATM    4  N3  UNL     1      -6.212  67.785   9.732  1.00  0.00    -0.335 N 
HETATM    5  C2  UNL     1      -5.529  68.163   8.615  1.00  0.00     0.183 A 
ATOM      6  H3  UNL     1      -7.194  68.037   9.846  1.00  0.00     0.168 HD
HETATM    7  N2  UNL     1      -4.239  67.852   8.425  1.00  0.00    -0.335 N 
HETATM    8  C1  UNL     1      -3.573  67.146   9.348  1.00  0.00     0.168 A 
ATOM      9  H2  UNL     1      -3.763  68.154   7.575  1.00  0.00     0.168 HD
HETATM   10  N1  UNL     1      -2.883  66.388  10.354  1.00  0.00    -0.198 N 
HETATM   11  C8  UNL     1      -4.258  66.760  10.482  1.00  0.00     0.156 A 
BRANCH  10  12
HETATM   12  O1  UNL     1      -1.729  65.816  10.735  1.00  0.00    -0.281 OA
ATOM     13  H1  UNL     1      -0.890  65.929  11.166  1.00  0.00     0.245 HD
ENDBRANCH  10  12
ENDBRANCH   1   3
BRANCH   1  14
HETATM   14  N5  UNL     1      -6.123  67.320  12.965  1.00  0.00    -0.130 N 
ATOM     15  H5  UNL     1      -5.564  68.172  13.022  1.00  0.00     0.205 HD
BRANCH  14  16
HETATM   16  C4  UNL     1      -6.705  66.956  14.030  1.00  0.00     0.696 A 
HETATM   17  N6  UNL     1      -6.431  67.590  15.182  1.00  0.00    -0.200 N 
HETATM   18  C5  UNL     1      -7.002  67.269  16.359  1.00  0.00     0.107 A 
ATOM     19  H6  UNL     1      -5.755  68.354  15.166  1.00  0.00     0.183 HD
HETATM   20  C6  UNL     1      -7.918  66.235  16.391  1.00  0.00     0.035 A 
HETATM   21  C7  UNL     1      -8.197  65.587  15.207  1.00  0.00     0.107 A 
HETATM   22  N7  UNL     1      -7.593  65.953  14.062  1.00  0.00    -0.200 N 
ATOM     23  H7  UNL     1      -7.816  65.456  13.199  1.00  0.00     0.183 HD
ENDBRANCH  14  16
ENDBRANCH   1  14
TORSDOF 4
ENDMDL
MODEL 5
REMARK VINA RESULT: -6.817302626      2.078      5.408
REMARK  4 active torsions:
REMARK  status: ('A' for Active; 'I' for Inactive)
REMARK    1  A    between atoms: O1_1  and  N1_3 
REMARK    2  A    between atoms: C3_10  and  N4_11 
REMARK    3  A    between atoms: N4_11  and  N5_13 
REMARK    4  A    between atoms: N5_13  and  C4_15 
ROOT
HETATM    1  N4  UNL     1      -3.264  68.167  10.634  1.00  0.00    -0.269 N 
ATOM      2  H4  UNL     1      -2.366  67.845  10.995  1.00  0.00     0.189 HD
ENDROOT
BRANCH   1   3
HETATM    3  C3  UNL     1      -3.991  68.843  11.429  1.00  0.00     0.155 A 
HETATM    4  N3  UNL     1      -3.841  70.164  11.588  1.00  0.00    -0.335 N 
HETATM    5  C2  UNL     1      -4.655  70.828  12.458  1.00  0.00     0.183 A 
ATOM      6  H3  UNL     1      -3.125  70.668  11.066  1.00  0.00     0.168 HD
HETATM    7  N2  UNL     1      -5.608  70.203  13.164  1.00  0.00    -0.335 N 
HETATM    8  C1  UNL     1      -5.788  68.882  13.033  1.00  0.00     0.168 A 
ATOM      9  H2  UNL     1      -6.197  70.735  13.805  1.00  0.00     0.168 HD
HETATM   10  N1  UNL     1      -5.961  67.466  12.872  1.00  0.00    -0.198 N 
HETATM   11  C8  UNL     1      -4.968  68.205  12.154  1.00  0.00     0.156 A 
BRANCH  10  12
HETATM   12  O1  UNL     1      -6.644  66.369  13.236  1.00  0.00    -0.281 OA
ATOM     13  H1  UNL     1      -6.921  65.804  13.948  1.00  0.00     0.245 HD
ENDBRANCH  10  12
ENDBRANCH   1   3
BRANCH   1  14
HETATM   14  N5  UNL     1      -3.567  67.825   9.339  1.00  0.00    -0.130 N 
ATOM     15  H5  UNL     1      -2.999  68.258   8.611  1.00  0.00     0.205 HD
BRANCH  14  16
HETATM   16  C4  UNL     1      -4.475  67.031   8.949  1.00  0.00     0.696 A 
HETATM   17  N6  UNL     1      -4.524  65.786   9.452  1.00  0.00    -0.200 N 
HETATM   18  C5  UNL     1      -5.452  64.879   9.094  1.00  0.00     0.107 A 
ATOM     19  H6  UNL     1      -3.823  65.515  10.141  1.00  0.00     0.183 HD
HETATM   20  C6  UNL     1      -6.405  65.238   8.161  1.00  0.00     0.035 A 
HETATM   21  C7  UNL     1      -6.351  66.516   7.647  1.00  0.00     0.107 A 
HETATM   22  N7  UNL     1      -5.399  67.378   8.044  1.00  0.00    -0.200 N 
ATOM     23  H7  UNL     1      -5.380  68.318   7.646  1.00  0.00     0.183 HD
ENDBRANCH  14  16
ENDBRANCH   1  14
TORSDOF 4
ENDMDL
