MODEL 1
REMARK VINA RESULT: -8.478041828      0.000      0.000
REMARK  10 active torsions:
REMARK  status: ('A' for Active; 'I' for Inactive)
REMARK    1  A    between atoms: C5_5  and  C6_6 
REMARK    2  A    between atoms: C6_6  and  O1_7 
REMARK    3  A    between atoms: C6_6  and  C7_9 
REMARK    4  A    between atoms: C6_6  and  C16_20 
REMARK    5  A    between atoms: C7_9  and  C8_10 
REMARK    6  A    between atoms: C10_12  and  C11_13 
REMARK    7  A    between atoms: C11_13  and  O3_15 
REMARK    8  A    between atoms: O3_15  and  C12_16 
REMARK    9  A    between atoms: C16_20  and  O5_22 
REMARK   10  A    between atoms: C22_29  and  C23_30 
ROOT
HETATM    1  C1  UNL     1      15.118  21.251   8.260  1.00  0.00     0.015 C 
HETATM    2  C2  UNL     1      15.505  21.640   7.067  1.00  0.00    -0.073 C 
HETATM    3  C3  UNL     1      14.983  23.062   6.870  1.00  0.00     0.043 C 
HETATM    4  C4  UNL     1      15.153  23.780   8.164  1.00  0.00     0.017 C 
HETATM    5  C5  UNL     1      13.549  22.814   6.463  1.00  0.00     0.174 C 
HETATM    6  O6  UNL     1      13.373  21.601   5.851  1.00  0.00    -0.376 OA
HETATM    7  C18 UNL     1      14.193  21.007   5.029  1.00  0.00     0.127 C 
HETATM    8  C19 UNL     1      15.182  21.747   4.239  1.00  0.00     0.033 C 
HETATM    9  C20 UNL     1      16.337  21.649   4.838  1.00  0.00     0.017 C 
HETATM   10  C21 UNL     1      16.226  20.806   6.119  1.00  0.00    -0.007 C 
HETATM   11  C22 UNL     1      17.512  20.232   6.334  1.00  0.00     0.002 C 
HETATM   12  C26 UNL     1      17.745  18.948   5.504  1.00  0.00     0.006 C 
HETATM   13  C27 UNL     1      16.989  18.931   4.236  1.00  0.00     0.005 C 
HETATM   14  C28 UNL     1      15.522  18.901   4.586  1.00  0.00    -0.011 C 
HETATM   15  C29 UNL     1      14.754  18.841   3.296  1.00  0.00     0.010 C 
HETATM   16  C30 UNL     1      15.095  19.877   5.588  1.00  0.00     0.031 C 
ENDROOT
BRANCH   5  17
HETATM   17  C6  UNL     1      12.867  23.951   5.764  1.00  0.00     0.175 C 
BRANCH  17  18
HETATM   18  O1  UNL     1      13.686  24.621   4.860  1.00  0.00    -0.377 OA
ATOM     19  H1  UNL     1      13.223  25.259   4.330  1.00  0.00     0.211 HD
ENDBRANCH  17  18
BRANCH  17  20
HETATM   20  C7  UNL     1      11.713  23.263   4.979  1.00  0.00     0.085 C 
BRANCH  20  21
HETATM   21  C8  UNL     1      11.635  23.677   3.605  1.00  0.00    -0.074 C 
HETATM   22  C9  UNL     1      12.462  22.882   2.616  1.00  0.00     0.043 C 
HETATM   23  C10 UNL     1      10.926  24.656   3.130  1.00  0.00     0.084 C 
BRANCH  23  24
HETATM   24  C11 UNL     1      10.044  25.572   3.816  1.00  0.00     0.283 C 
HETATM   25  O2  UNL     1      10.470  26.757   4.106  1.00  0.00    -0.260 OA
BRANCH  24  26
HETATM   26  O3  UNL     1       8.755  25.337   4.215  1.00  0.00    -0.308 OA
BRANCH  26  27
HETATM   27  C12 UNL     1       7.606  25.480   3.435  1.00  0.00     0.060 C 
HETATM   28  C13 UNL     1       6.753  24.234   3.408  1.00  0.00     0.046 C 
HETATM   29  C14 UNL     1       6.767  26.589   4.042  1.00  0.00     0.046 C 
HETATM   30  C15 UNL     1       7.911  25.884   2.004  1.00  0.00     0.046 C 
ENDBRANCH  26  27
ENDBRANCH  24  26
ENDBRANCH  23  24
ENDBRANCH  20  21
ENDBRANCH  17  20
BRANCH  17  31
HETATM   31  C16 UNL     1      12.240  24.943   6.647  1.00  0.00     0.296 C 
HETATM   32  O4  UNL     1      12.852  25.985   7.044  1.00  0.00    -0.262 OA
BRANCH  31  33
HETATM   33  O5  UNL     1      10.954  24.792   7.086  1.00  0.00    -0.324 OA
HETATM   34  C17 UNL     1      10.198  25.898   7.543  1.00  0.00     0.213 C 
ENDBRANCH  31  33
ENDBRANCH  17  31
ENDBRANCH   5  17
BRANCH  11  35
HETATM   35  C23 UNL     1      18.173  19.929   7.614  1.00  0.00    -0.018 C 
HETATM   36  C24 UNL     1      18.817  18.587   7.765  1.00  0.00     0.010 C 
HETATM   37  C25 UNL     1      18.878  21.057   8.326  1.00  0.00     0.010 C 
ENDBRANCH  11  35
TORSDOF 10
ENDMDL
MODEL 2
REMARK VINA RESULT: -8.246155509      1.770      8.809
REMARK  10 active torsions:
REMARK  status: ('A' for Active; 'I' for Inactive)
REMARK    1  A    between atoms: C5_5  and  C6_6 
REMARK    2  A    between atoms: C6_6  and  O1_7 
REMARK    3  A    between atoms: C6_6  and  C7_9 
REMARK    4  A    between atoms: C6_6  and  C16_20 
REMARK    5  A    between atoms: C7_9  and  C8_10 
REMARK    6  A    between atoms: C10_12  and  C11_13 
REMARK    7  A    between atoms: C11_13  and  O3_15 
REMARK    8  A    between atoms: O3_15  and  C12_16 
REMARK    9  A    between atoms: C16_20  and  O5_22 
REMARK   10  A    between atoms: C22_29  and  C23_30 
ROOT
HETATM    1  C1  UNL     1      10.459  23.026   4.342  1.00  0.00     0.015 C 
HETATM    2  C2  UNL     1      11.204  24.075   4.604  1.00  0.00    -0.073 C 
HETATM    3  C3  UNL     1      12.646  23.690   4.280  1.00  0.00     0.043 C 
HETATM    4  C4  UNL     1      12.620  22.879   3.030  1.00  0.00     0.017 C 
HETATM    5  C5  UNL     1      13.053  22.932   5.522  1.00  0.00     0.174 C 
HETATM    6  O6  UNL     1      12.360  23.328   6.637  1.00  0.00    -0.376 OA
HETATM    7  C18 UNL     1      11.982  24.538   6.940  1.00  0.00     0.127 C 
HETATM    8  C19 UNL     1      12.660  25.726   6.412  1.00  0.00     0.033 C 
HETATM    9  C20 UNL     1      11.960  26.182   5.409  1.00  0.00     0.017 C 
HETATM   10  C21 UNL     1      10.710  25.319   5.169  1.00  0.00    -0.007 C 
HETATM   11  C22 UNL     1       9.743  26.174   4.567  1.00  0.00     0.002 C 
HETATM   12  C26 UNL     1       8.963  27.024   5.599  1.00  0.00     0.006 C 
HETATM   13  C27 UNL     1       9.746  27.321   6.815  1.00  0.00     0.005 C 
HETATM   14  C28 UNL     1      10.007  26.010   7.516  1.00  0.00    -0.011 C 
HETATM   15  C29 UNL     1      10.766  26.317   8.775  1.00  0.00     0.010 C 
HETATM   16  C30 UNL     1      10.508  24.932   6.664  1.00  0.00     0.031 C 
ENDROOT
BRANCH   5  17
HETATM   17  C6  UNL     1      14.529  22.793   5.744  1.00  0.00     0.175 C 
BRANCH  17  18
HETATM   18  O1  UNL     1      15.273  23.845   5.218  1.00  0.00    -0.377 OA
ATOM     19  H1  UNL     1      16.124  23.951   5.628  1.00  0.00     0.211 HD
ENDBRANCH  17  18
BRANCH  17  20
HETATM   20  C7  UNL     1      14.673  22.804   7.293  1.00  0.00     0.085 C 
BRANCH  20  21
HETATM   21  C8  UNL     1      15.998  23.139   7.739  1.00  0.00    -0.074 C 
HETATM   22  C9  UNL     1      16.364  24.608   7.711  1.00  0.00     0.043 C 
HETATM   23  C10 UNL     1      16.904  22.311   8.165  1.00  0.00     0.084 C 
BRANCH  23  24
HETATM   24  C11 UNL     1      16.844  20.876   8.312  1.00  0.00     0.283 C 
HETATM   25  O2  UNL     1      16.278  20.374   9.360  1.00  0.00    -0.260 OA
BRANCH  24  26
HETATM   26  O3  UNL     1      17.330  19.934   7.444  1.00  0.00    -0.308 OA
BRANCH  26  27
HETATM   27  C12 UNL     1      18.674  19.648   7.198  1.00  0.00     0.060 C 
HETATM   28  C13 UNL     1      19.583  20.073   8.327  1.00  0.00     0.046 C 
HETATM   29  C14 UNL     1      18.809  18.144   7.051  1.00  0.00     0.046 C 
HETATM   30  C15 UNL     1      19.184  20.270   5.911  1.00  0.00     0.046 C 
ENDBRANCH  26  27
ENDBRANCH  24  26
ENDBRANCH  23  24
ENDBRANCH  20  21
ENDBRANCH  17  20
BRANCH  17  31
HETATM   31  C16 UNL     1      15.116  21.530   5.277  1.00  0.00     0.296 C 
HETATM   32  O4  UNL     1      16.200  21.489   4.613  1.00  0.00    -0.262 OA
BRANCH  31  33
HETATM   33  O5  UNL     1      14.520  20.329   5.541  1.00  0.00    -0.324 OA
HETATM   34  C17 UNL     1      14.846  19.167   4.800  1.00  0.00     0.213 C 
ENDBRANCH  31  33
ENDBRANCH  17  31
ENDBRANCH   5  17
BRANCH  11  35
HETATM   35  C23 UNL     1       8.713  25.829   3.572  1.00  0.00    -0.018 C 
HETATM   36  C24 UNL     1       7.293  26.176   3.889  1.00  0.00     0.010 C 
HETATM   37  C25 UNL     1       9.084  25.934   2.113  1.00  0.00     0.010 C 
ENDBRANCH  11  35
TORSDOF 10
ENDMDL
MODEL 3
REMARK VINA RESULT: -8.182214000      1.883      8.958
REMARK  10 active torsions:
REMARK  status: ('A' for Active; 'I' for Inactive)
REMARK    1  A    between atoms: C5_5  and  C6_6 
REMARK    2  A    between atoms: C6_6  and  O1_7 
REMARK    3  A    between atoms: C6_6  and  C7_9 
REMARK    4  A    between atoms: C6_6  and  C16_20 
REMARK    5  A    between atoms: C7_9  and  C8_10 
REMARK    6  A    between atoms: C10_12  and  C11_13 
REMARK    7  A    between atoms: C11_13  and  O3_15 
REMARK    8  A    between atoms: O3_15  and  C12_16 
REMARK    9  A    between atoms: C16_20  and  O5_22 
REMARK   10  A    between atoms: C22_29  and  C23_30 
ROOT
HETATM    1  C1  UNL     1      10.562  22.973   4.322  1.00  0.00     0.015 C 
HETATM    2  C2  UNL     1      11.277  24.040   4.598  1.00  0.00    -0.073 C 
HETATM    3  C3  UNL     1      12.739  23.670   4.361  1.00  0.00     0.043 C 
HETATM    4  C4  UNL     1      12.792  22.830   3.131  1.00  0.00     0.017 C 
HETATM    5  C5  UNL     1      13.090  22.947   5.641  1.00  0.00     0.174 C 
HETATM    6  O6  UNL     1      12.332  23.357   6.707  1.00  0.00    -0.376 OA
HETATM    7  C18 UNL     1      11.921  24.568   6.961  1.00  0.00     0.127 C 
HETATM    8  C19 UNL     1      12.609  25.754   6.442  1.00  0.00     0.033 C 
HETATM    9  C20 UNL     1      11.958  26.176   5.393  1.00  0.00     0.017 C 
HETATM   10  C21 UNL     1      10.735  25.289   5.107  1.00  0.00    -0.007 C 
HETATM   11  C22 UNL     1       9.790  26.115   4.434  1.00  0.00     0.002 C 
HETATM   12  C26 UNL     1       8.944  26.975   5.403  1.00  0.00     0.006 C 
HETATM   13  C27 UNL     1       9.656  27.312   6.652  1.00  0.00     0.005 C 
HETATM   14  C28 UNL     1       9.897  26.022   7.395  1.00  0.00    -0.011 C 
HETATM   15  C29 UNL     1      10.583  26.369   8.686  1.00  0.00     0.010 C 
HETATM   16  C30 UNL     1      10.459  24.932   6.598  1.00  0.00     0.031 C 
ENDROOT
BRANCH   5  17
HETATM   17  C6  UNL     1      14.553  22.836   5.944  1.00  0.00     0.175 C 
BRANCH  17  18
HETATM   18  O1  UNL     1      15.315  23.865   5.400  1.00  0.00    -0.377 OA
ATOM     19  H1  UNL     1      15.706  23.646   4.562  1.00  0.00     0.211 HD
ENDBRANCH  17  18
BRANCH  17  20
HETATM   20  C7  UNL     1      14.618  22.933   7.496  1.00  0.00     0.085 C 
BRANCH  20  21
HETATM   21  C8  UNL     1      15.943  23.173   7.996  1.00  0.00    -0.074 C 
HETATM   22  C9  UNL     1      16.484  24.576   7.821  1.00  0.00     0.043 C 
HETATM   23  C10 UNL     1      16.717  22.311   8.584  1.00  0.00     0.084 C 
BRANCH  23  24
HETATM   24  C11 UNL     1      16.478  20.921   8.896  1.00  0.00     0.283 C 
HETATM   25  O2  UNL     1      15.361  20.584   9.451  1.00  0.00    -0.260 OA
BRANCH  24  26
HETATM   26  O3  UNL     1      17.320  19.865   8.668  1.00  0.00    -0.308 OA
BRANCH  26  27
HETATM   27  C12 UNL     1      18.548  19.634   9.292  1.00  0.00     0.060 C 
HETATM   28  C13 UNL     1      18.582  20.114  10.723  1.00  0.00     0.046 C 
HETATM   29  C14 UNL     1      18.783  18.135   9.312  1.00  0.00     0.046 C 
HETATM   30  C15 UNL     1      19.714  20.258   8.547  1.00  0.00     0.046 C 
ENDBRANCH  26  27
ENDBRANCH  24  26
ENDBRANCH  23  24
ENDBRANCH  20  21
ENDBRANCH  17  20
BRANCH  17  31
HETATM   31  C16 UNL     1      15.173  21.555   5.579  1.00  0.00     0.296 C 
HETATM   32  O4  UNL     1      14.630  20.436   5.844  1.00  0.00    -0.262 OA
BRANCH  31  33
HETATM   33  O5  UNL     1      16.374  21.506   4.928  1.00  0.00    -0.324 OA
HETATM   34  C17 UNL     1      17.329  20.502   5.219  1.00  0.00     0.213 C 
ENDBRANCH  31  33
ENDBRANCH  17  31
ENDBRANCH   5  17
BRANCH  11  35
HETATM   35  C23 UNL     1       8.821  25.732   3.393  1.00  0.00    -0.018 C 
HETATM   36  C24 UNL     1       7.378  26.045   3.635  1.00  0.00     0.010 C 
HETATM   37  C25 UNL     1       9.261  25.828   1.953  1.00  0.00     0.010 C 
ENDBRANCH  11  35
TORSDOF 10
ENDMDL
MODEL 4
REMARK VINA RESULT: -8.138480416      1.691      8.832
REMARK  10 active torsions:
REMARK  status: ('A' for Active; 'I' for Inactive)
REMARK    1  A    between atoms: C5_5  and  C6_6 
REMARK    2  A    between atoms: C6_6  and  O1_7 
REMARK    3  A    between atoms: C6_6  and  C7_9 
REMARK    4  A    between atoms: C6_6  and  C16_20 
REMARK    5  A    between atoms: C7_9  and  C8_10 
REMARK    6  A    between atoms: C10_12  and  C11_13 
REMARK    7  A    between atoms: C11_13  and  O3_15 
REMARK    8  A    between atoms: O3_15  and  C12_16 
REMARK    9  A    between atoms: C16_20  and  O5_22 
REMARK   10  A    between atoms: C22_29  and  C23_30 
ROOT
HETATM    1  C1  UNL     1       9.859  23.214   3.807  1.00  0.00     0.015 C 
HETATM    2  C2  UNL     1      10.658  24.209   4.119  1.00  0.00    -0.073 C 
HETATM    3  C3  UNL     1      12.082  23.748   3.816  1.00  0.00     0.043 C 
HETATM    4  C4  UNL     1      12.038  22.978   2.541  1.00  0.00     0.017 C 
HETATM    5  C5  UNL     1      12.413  22.931   5.043  1.00  0.00     0.174 C 
HETATM    6  O6  UNL     1      11.718  23.333   6.153  1.00  0.00    -0.376 OA
HETATM    7  C18 UNL     1      11.404  24.555   6.485  1.00  0.00     0.127 C 
HETATM    8  C19 UNL     1      12.163  25.715   6.010  1.00  0.00     0.033 C 
HETATM    9  C20 UNL     1      11.516  26.242   5.007  1.00  0.00     0.017 C 
HETATM   10  C21 UNL     1      10.223  25.463   4.712  1.00  0.00    -0.007 C 
HETATM   11  C22 UNL     1       9.323  26.392   4.115  1.00  0.00     0.002 C 
HETATM   12  C26 UNL     1       8.570  27.254   5.155  1.00  0.00     0.006 C 
HETATM   13  C27 UNL     1       9.339  27.468   6.397  1.00  0.00     0.005 C 
HETATM   14  C28 UNL     1       9.505  26.123   7.062  1.00  0.00    -0.011 C 
HETATM   15  C29 UNL     1      10.250  26.347   8.347  1.00  0.00     0.010 C 
HETATM   16  C30 UNL     1       9.963  25.043   6.189  1.00  0.00     0.031 C 
ENDROOT
BRANCH   5  17
HETATM   17  C6  UNL     1      13.873  22.698   5.293  1.00  0.00     0.175 C 
BRANCH  17  18
HETATM   18  O1  UNL     1      14.673  23.791   4.979  1.00  0.00    -0.377 OA
ATOM     19  H1  UNL     1      14.518  24.548   5.532  1.00  0.00     0.211 HD
ENDBRANCH  17  18
BRANCH  17  20
HETATM   20  C7  UNL     1      13.949  22.447   6.827  1.00  0.00     0.085 C 
BRANCH  20  21
HETATM   21  C8  UNL     1      14.996  23.189   7.473  1.00  0.00    -0.074 C 
HETATM   22  C9  UNL     1      14.632  24.571   7.973  1.00  0.00     0.043 C 
HETATM   23  C10 UNL     1      16.217  22.791   7.673  1.00  0.00     0.084 C 
BRANCH  23  24
HETATM   24  C11 UNL     1      16.847  21.539   7.324  1.00  0.00     0.283 C 
HETATM   25  O2  UNL     1      17.454  21.436   6.188  1.00  0.00    -0.260 OA
BRANCH  24  26
HETATM   26  O3  UNL     1      16.887  20.394   8.075  1.00  0.00    -0.308 OA
BRANCH  26  27
HETATM   27  C12 UNL     1      17.820  20.087   9.067  1.00  0.00     0.060 C 
HETATM   28  C13 UNL     1      18.759  21.231   9.369  1.00  0.00     0.046 C 
HETATM   29  C14 UNL     1      17.057  19.779  10.343  1.00  0.00     0.046 C 
HETATM   30  C15 UNL     1      18.650  18.859   8.737  1.00  0.00     0.046 C 
ENDBRANCH  26  27
ENDBRANCH  24  26
ENDBRANCH  23  24
ENDBRANCH  20  21
ENDBRANCH  17  20
BRANCH  17  31
HETATM   31  C16 UNL     1      14.437  21.506   4.646  1.00  0.00     0.296 C 
HETATM   32  O4  UNL     1      15.080  21.568   3.550  1.00  0.00    -0.262 OA
BRANCH  31  33
HETATM   33  O5  UNL     1      14.297  20.264   5.197  1.00  0.00    -0.324 OA
HETATM   34  C17 UNL     1      15.008  19.149   4.691  1.00  0.00     0.213 C 
ENDBRANCH  31  33
ENDBRANCH  17  31
ENDBRANCH   5  17
BRANCH  11  35
HETATM   35  C23 UNL     1       8.300  26.138   3.086  1.00  0.00    -0.018 C 
HETATM   36  C24 UNL     1       8.761  25.969   1.673  1.00  0.00     0.010 C 
HETATM   37  C25 UNL     1       7.108  25.299   3.473  1.00  0.00     0.010 C 
ENDBRANCH  11  35
TORSDOF 10
ENDMDL
MODEL 5
REMARK VINA RESULT: -8.060513053      2.026      7.965
REMARK  10 active torsions:
REMARK  status: ('A' for Active; 'I' for Inactive)
REMARK    1  A    between atoms: C5_5  and  C6_6 
REMARK    2  A    between atoms: C6_6  and  O1_7 
REMARK    3  A    between atoms: C6_6  and  C7_9 
REMARK    4  A    between atoms: C6_6  and  C16_20 
REMARK    5  A    between atoms: C7_9  and  C8_10 
REMARK    6  A    between atoms: C10_12  and  C11_13 
REMARK    7  A    between atoms: C11_13  and  O3_15 
REMARK    8  A    between atoms: O3_15  and  C12_16 
REMARK    9  A    between atoms: C16_20  and  O5_22 
REMARK   10  A    between atoms: C22_29  and  C23_30 
ROOT
HETATM    1  C1  UNL     1      13.530  25.639   7.148  1.00  0.00     0.015 C 
HETATM    2  C2  UNL     1      12.695  24.655   6.904  1.00  0.00    -0.073 C 
HETATM    3  C3  UNL     1      13.440  23.355   7.203  1.00  0.00     0.043 C 
HETATM    4  C4  UNL     1      14.251  23.581   8.433  1.00  0.00     0.017 C 
HETATM    5  C5  UNL     1      14.242  23.157   5.938  1.00  0.00     0.174 C 
HETATM    6  O6  UNL     1      13.655  23.733   4.842  1.00  0.00    -0.376 OA
HETATM    7  C18 UNL     1      12.381  23.795   4.573  1.00  0.00     0.127 C 
HETATM    8  C19 UNL     1      11.416  22.837   5.123  1.00  0.00     0.033 C 
HETATM    9  C20 UNL     1      10.826  23.396   6.143  1.00  0.00     0.017 C 
HETATM   10  C21 UNL     1      11.352  24.822   6.375  1.00  0.00    -0.007 C 
HETATM   11  C22 UNL     1      10.297  25.540   7.008  1.00  0.00     0.002 C 
HETATM   12  C26 UNL     1       9.252  26.084   6.005  1.00  0.00     0.006 C 
HETATM   13  C27 UNL     1       9.129  25.256   4.789  1.00  0.00     0.005 C 
HETATM   14  C28 UNL     1      10.444  25.337   4.054  1.00  0.00    -0.011 C 
HETATM   15  C29 UNL     1      10.305  24.530   2.795  1.00  0.00     0.010 C 
HETATM   16  C30 UNL     1      11.636  25.121   4.873  1.00  0.00     0.031 C 
ENDROOT
BRANCH   5  17
HETATM   17  C6  UNL     1      14.742  21.765   5.698  1.00  0.00     0.175 C 
BRANCH  17  18
HETATM   18  O1  UNL     1      13.730  20.813   5.630  1.00  0.00    -0.377 OA
ATOM     19  H1  UNL     1      14.007  19.944   5.897  1.00  0.00     0.211 HD
ENDBRANCH  17  18
BRANCH  17  20
HETATM   20  C7  UNL     1      15.437  21.856   4.309  1.00  0.00     0.085 C 
BRANCH  20  21
HETATM   21  C8  UNL     1      14.761  21.109   3.285  1.00  0.00    -0.074 C 
HETATM   22  C9  UNL     1      13.852  21.897   2.366  1.00  0.00     0.043 C 
HETATM   23  C10 UNL     1      14.856  19.831   3.069  1.00  0.00     0.084 C 
BRANCH  23  24
HETATM   24  C11 UNL     1      15.638  18.835   3.763  1.00  0.00     0.283 C 
HETATM   25  O2  UNL     1      15.191  18.342   4.870  1.00  0.00    -0.260 OA
BRANCH  24  26
HETATM   26  O3  UNL     1      16.849  18.320   3.381  1.00  0.00    -0.308 OA
BRANCH  26  27
HETATM   27  C12 UNL     1      17.977  18.165   4.189  1.00  0.00     0.060 C 
HETATM   28  C13 UNL     1      17.786  17.136   5.277  1.00  0.00     0.046 C 
HETATM   29  C14 UNL     1      19.116  17.686   3.309  1.00  0.00     0.046 C 
HETATM   30  C15 UNL     1      18.425  19.465   4.832  1.00  0.00     0.046 C 
ENDBRANCH  26  27
ENDBRANCH  24  26
ENDBRANCH  23  24
ENDBRANCH  20  21
ENDBRANCH  17  20
BRANCH  17  31
HETATM   31  C16 UNL     1      15.761  21.294   6.645  1.00  0.00     0.296 C 
HETATM   32  O4  UNL     1      15.543  20.343   7.461  1.00  0.00    -0.262 OA
BRANCH  31  33
HETATM   33  O5  UNL     1      17.004  21.859   6.692  1.00  0.00    -0.324 OA
HETATM   34  C17 UNL     1      17.673  22.066   7.923  1.00  0.00     0.213 C 
ENDBRANCH  31  33
ENDBRANCH  17  31
ENDBRANCH   5  17
BRANCH  11  35
HETATM   35  C23 UNL     1      10.398  26.619   8.005  1.00  0.00    -0.018 C 
HETATM   36  C24 UNL     1       9.445  27.767   7.889  1.00  0.00     0.010 C 
HETATM   37  C25 UNL     1      10.767  26.238   9.418  1.00  0.00     0.010 C 
ENDBRANCH  11  35
TORSDOF 10
ENDMDL
