MODEL 1
REMARK VINA RESULT: -8.118563170      0.000      0.000
REMARK  12 active torsions:
REMARK  status: ('A' for Active; 'I' for Inactive)
REMARK    1  A    between atoms: C2_2  and  N1_4 
REMARK    2  A    between atoms: N1_4  and  C3_6 
REMARK    3  A    between atoms: C3_6  and  C4_7 
REMARK    4  A    between atoms: C4_7  and  C5_8 
REMARK    5  A    between atoms: C5_8  and  C6_9 
REMARK    6  A    between atoms: C6_9  and  C7_10 
REMARK    7  A    between atoms: C7_10  and  C8_11 
REMARK    8  A    between atoms: C7_10  and  N2_13 
REMARK       I    between atoms: N2_13  and  C9_15 
REMARK    9  A    between atoms: C9_15  and  C10_17 
REMARK   10  A    between atoms: C10_17  and  C11_18 
REMARK   11  A    between atoms: C10_17  and  C18_25 
REMARK   12  A    between atoms: C11_18  and  C12_19 
REMARK       I    between atoms: C18_25  and  N3_27 
ROOT
HETATM    1  C10 UNL     1      10.575  16.481  10.136  1.00  0.00     0.170 C 
ENDROOT
BRANCH   1   2
HETATM    2  C9  UNL     1       9.944  17.170   9.005  1.00  0.00     0.231 C 
HETATM    3  N2  UNL     1       8.701  16.707   8.528  1.00  0.00    -0.350 N 
ATOM      4  H2  UNL     1       8.266  15.922   9.014  1.00  0.00     0.163 HD
HETATM    5  O2  UNL     1      10.525  18.137   8.488  1.00  0.00    -0.273 OA
BRANCH   3   6
HETATM    6  C7  UNL     1       7.996  17.282   7.379  1.00  0.00     0.146 C 
BRANCH   6   7
HETATM    7  C6  UNL     1       6.551  17.364   7.742  1.00  0.00     0.032 C 
BRANCH   7   8
HETATM    8  C5  UNL     1       5.971  18.670   8.071  1.00  0.00     0.004 C 
BRANCH   8   9
HETATM    9  C4  UNL     1       6.696  19.579   9.010  1.00  0.00     0.020 C 
BRANCH   9  10
HETATM   10  C3  UNL     1       5.713  19.893  10.132  1.00  0.00     0.120 C 
BRANCH  10  11
HETATM   11  N1  UNL     1       6.049  19.226  11.371  1.00  0.00    -0.385 N 
ATOM     12  H1  UNL     1       6.792  19.578  11.976  1.00  0.00     0.160 HD
BRANCH  11  13
HETATM   13  C2  UNL     1       5.318  18.077  11.711  1.00  0.00     0.069 C 
HETATM   14  C1  UNL     1       5.647  16.773  11.111  1.00  0.00     0.081 C 
HETATM   15  S1  UNL     1       4.085  18.180  12.767  1.00  0.00    -0.066 SA
ENDBRANCH  11  13
ENDBRANCH  10  11
ENDBRANCH   9  10
ENDBRANCH   8   9
ENDBRANCH   7   8
ENDBRANCH   6   7
BRANCH   6  16
HETATM   16  C8  UNL     1       8.370  16.494   6.214  1.00  0.00     0.256 C 
HETATM   17  O1  UNL     1       8.727  15.311   6.373  1.00  0.00    -0.305 OA
ENDBRANCH   6  16
ENDBRANCH   3   6
ENDBRANCH   1   2
BRANCH   1  18
HETATM   18  C11 UNL     1      10.638  15.013  10.221  1.00  0.00     0.028 C 
BRANCH  18  19
HETATM   19  C12 UNL     1      11.242  14.233   9.147  1.00  0.00    -0.013 C 
HETATM   20  C13 UNL     1      12.340  15.103   8.439  1.00  0.00     0.005 C 
HETATM   21  C14 UNL     1      12.418  14.443   7.057  1.00  0.00     0.000 C 
HETATM   22  C15 UNL     1      12.806  13.003   7.180  1.00  0.00     0.000 C 
HETATM   23  C16 UNL     1      13.088  12.588   8.589  1.00  0.00     0.000 C 
HETATM   24  C17 UNL     1      12.064  13.053   9.592  1.00  0.00     0.005 C 
ENDBRANCH  18  19
ENDBRANCH   1  18
BRANCH   1  25
HETATM   25  C18 UNL     1       9.826  17.020  11.356  1.00  0.00     0.234 C 
HETATM   26  O3  UNL     1       8.923  17.842  11.136  1.00  0.00    -0.272 OA
HETATM   27  N3  UNL     1      10.167  16.592  12.612  1.00  0.00    -0.333 N 
HETATM   28  C19 UNL     1       9.504  16.291  13.638  1.00  0.00     0.003 C 
ATOM     29  H3  UNL     1      11.174  16.497  12.744  1.00  0.00     0.168 HD
HETATM   30  C20 UNL     1      10.253  15.858  14.856  1.00  0.00     0.054 C 
HETATM   31  C23 UNL     1       8.037  16.350  13.666  1.00  0.00     0.192 C 
HETATM   32  C21 UNL     1       9.547  16.225  16.117  1.00  0.00     0.021 C 
HETATM   33  C22 UNL     1       8.915  17.605  16.094  1.00  0.00     0.141 C 
HETATM   34  S2  UNL     1       7.596  17.571  14.889  1.00  0.00     0.149 S 
HETATM   35  O4  UNL     1       7.519  18.898  14.234  1.00  0.00    -0.228 OA
HETATM   36  O5  UNL     1       6.303  17.239  15.519  1.00  0.00    -0.228 OA
ENDBRANCH   1  25
TORSDOF 12
ENDMDL
MODEL 2
REMARK VINA RESULT: -8.103287292      2.725      6.161
REMARK  12 active torsions:
REMARK  status: ('A' for Active; 'I' for Inactive)
REMARK    1  A    between atoms: C2_2  and  N1_4 
REMARK    2  A    between atoms: N1_4  and  C3_6 
REMARK    3  A    between atoms: C3_6  and  C4_7 
REMARK    4  A    between atoms: C4_7  and  C5_8 
REMARK    5  A    between atoms: C5_8  and  C6_9 
REMARK    6  A    between atoms: C6_9  and  C7_10 
REMARK    7  A    between atoms: C7_10  and  C8_11 
REMARK    8  A    between atoms: C7_10  and  N2_13 
REMARK       I    between atoms: N2_13  and  C9_15 
REMARK    9  A    between atoms: C9_15  and  C10_17 
REMARK   10  A    between atoms: C10_17  and  C11_18 
REMARK   11  A    between atoms: C10_17  and  C18_25 
REMARK   12  A    between atoms: C11_18  and  C12_19 
REMARK       I    between atoms: C18_25  and  N3_27 
ROOT
HETATM    1  C10 UNL     1       8.795  15.820  10.618  1.00  0.00     0.170 C 
ENDROOT
BRANCH   1   2
HETATM    2  C9  UNL     1       8.100  17.032  10.168  1.00  0.00     0.231 C 
HETATM    3  N2  UNL     1       6.854  16.904   9.522  1.00  0.00    -0.350 N 
ATOM      4  H2  UNL     1       6.461  15.968   9.421  1.00  0.00     0.163 HD
HETATM    5  O2  UNL     1       8.631  18.137  10.356  1.00  0.00    -0.273 OA
BRANCH   3   6
HETATM    6  C7  UNL     1       6.087  18.034   8.988  1.00  0.00     0.146 C 
BRANCH   6   7
HETATM    7  C6  UNL     1       5.044  18.378   9.997  1.00  0.00     0.032 C 
BRANCH   7   8
HETATM    8  C5  UNL     1       5.297  19.471  10.941  1.00  0.00     0.004 C 
BRANCH   8   9
HETATM    9  C4  UNL     1       5.780  19.152  12.320  1.00  0.00     0.020 C 
BRANCH   9  10
HETATM   10  C3  UNL     1       5.219  17.774  12.652  1.00  0.00     0.120 C 
BRANCH  10  11
HETATM   11  N1  UNL     1       4.406  17.777  13.849  1.00  0.00    -0.385 N 
ATOM     12  H1  UNL     1       4.832  17.814  14.776  1.00  0.00     0.160 HD
BRANCH  11  13
HETATM   13  C2  UNL     1       3.013  17.729  13.691  1.00  0.00     0.069 C 
HETATM   14  C1  UNL     1       2.417  17.286  12.419  1.00  0.00     0.081 C 
HETATM   15  S1  UNL     1       2.039  18.178  14.914  1.00  0.00    -0.066 SA
ENDBRANCH  11  13
ENDBRANCH  10  11
ENDBRANCH   9  10
ENDBRANCH   8   9
ENDBRANCH   7   8
ENDBRANCH   6   7
BRANCH   6  16
HETATM   16  C8  UNL     1       5.654  17.657   7.650  1.00  0.00     0.256 C 
HETATM   17  O1  UNL     1       4.616  18.167   7.185  1.00  0.00    -0.305 OA
ENDBRANCH   6  16
ENDBRANCH   3   6
ENDBRANCH   1   2
BRANCH   1  18
HETATM   18  C11 UNL     1       9.761  15.840  11.730  1.00  0.00     0.028 C 
BRANCH  18  19
HETATM   19  C12 UNL     1       9.337  16.213  13.074  1.00  0.00    -0.013 C 
HETATM   20  C13 UNL     1       8.417  15.080  13.652  1.00  0.00     0.005 C 
HETATM   21  C14 UNL     1       7.607  15.844  14.706  1.00  0.00     0.000 C 
HETATM   22  C15 UNL     1       8.512  16.441  15.738  1.00  0.00     0.000 C 
HETATM   23  C16 UNL     1       9.951  16.092  15.530  1.00  0.00     0.000 C 
HETATM   24  C17 UNL     1      10.430  16.240  14.109  1.00  0.00     0.005 C 
ENDBRANCH  18  19
ENDBRANCH   1  18
BRANCH   1  25
HETATM   25  C18 UNL     1       9.494  15.310   9.358  1.00  0.00     0.234 C 
HETATM   26  O3  UNL     1       9.121  15.795   8.278  1.00  0.00    -0.272 OA
HETATM   27  N3  UNL     1      10.480  14.363   9.458  1.00  0.00    -0.333 N 
HETATM   28  C19 UNL     1      11.585  14.194   8.882  1.00  0.00     0.003 C 
ATOM     29  H3  UNL     1      10.273  13.640  10.146  1.00  0.00     0.168 HD
HETATM   30  C20 UNL     1      12.405  13.006   9.269  1.00  0.00     0.054 C 
HETATM   31  C23 UNL     1      12.085  15.122   7.859  1.00  0.00     0.192 C 
HETATM   32  C21 UNL     1      13.231  12.494   8.138  1.00  0.00     0.021 C 
HETATM   33  C22 UNL     1      12.515  12.489   6.799  1.00  0.00     0.141 C 
HETATM   34  S2  UNL     1      12.220  14.192   6.344  1.00  0.00     0.149 S 
HETATM   35  O4  UNL     1      10.931  14.271   5.618  1.00  0.00    -0.228 OA
HETATM   36  O5  UNL     1      13.312  14.718   5.500  1.00  0.00    -0.228 OA
ENDBRANCH   1  25
TORSDOF 12
ENDMDL
MODEL 3
REMARK VINA RESULT: -8.060804290      3.121      4.717
REMARK  12 active torsions:
REMARK  status: ('A' for Active; 'I' for Inactive)
REMARK    1  A    between atoms: C2_2  and  N1_4 
REMARK    2  A    between atoms: N1_4  and  C3_6 
REMARK    3  A    between atoms: C3_6  and  C4_7 
REMARK    4  A    between atoms: C4_7  and  C5_8 
REMARK    5  A    between atoms: C5_8  and  C6_9 
REMARK    6  A    between atoms: C6_9  and  C7_10 
REMARK    7  A    between atoms: C7_10  and  C8_11 
REMARK    8  A    between atoms: C7_10  and  N2_13 
REMARK       I    between atoms: N2_13  and  C9_15 
REMARK    9  A    between atoms: C9_15  and  C10_17 
REMARK   10  A    between atoms: C10_17  and  C11_18 
REMARK   11  A    between atoms: C10_17  and  C18_25 
REMARK   12  A    between atoms: C11_18  and  C12_19 
REMARK       I    between atoms: C18_25  and  N3_27 
ROOT
HETATM    1  C10 UNL     1      10.526  16.415  10.023  1.00  0.00     0.170 C 
ENDROOT
BRANCH   1   2
HETATM    2  C9  UNL     1       9.749  16.949   8.900  1.00  0.00     0.231 C 
HETATM    3  N2  UNL     1       8.511  16.356   8.581  1.00  0.00    -0.350 N 
ATOM      4  H2  UNL     1       8.181  15.591   9.171  1.00  0.00     0.163 HD
HETATM    5  O2  UNL     1      10.205  17.902   8.250  1.00  0.00    -0.273 OA
BRANCH   3   6
HETATM    6  C7  UNL     1       7.667  16.771   7.457  1.00  0.00     0.146 C 
BRANCH   6   7
HETATM    7  C6  UNL     1       8.447  16.533   6.207  1.00  0.00     0.032 C 
BRANCH   7   8
HETATM    8  C5  UNL     1       8.954  15.186   5.928  1.00  0.00     0.004 C 
BRANCH   8   9
HETATM    9  C4  UNL     1       9.248  14.792   4.516  1.00  0.00     0.020 C 
BRANCH   9  10
HETATM   10  C3  UNL     1       9.327  16.093   3.725  1.00  0.00     0.120 C 
BRANCH  10  11
HETATM   11  N1  UNL     1      10.640  16.324   3.162  1.00  0.00    -0.385 N 
ATOM     12  H1  UNL     1      11.339  16.875   3.662  1.00  0.00     0.160 HD
BRANCH  11  13
HETATM   13  C2  UNL     1      10.918  15.764   1.906  1.00  0.00     0.069 C 
HETATM   14  C1  UNL     1      10.000  15.969   0.773  1.00  0.00     0.081 C 
HETATM   15  S1  UNL     1      12.258  14.867   1.693  1.00  0.00    -0.066 SA
ENDBRANCH  11  13
ENDBRANCH  10  11
ENDBRANCH   9  10
ENDBRANCH   8   9
ENDBRANCH   7   8
ENDBRANCH   6   7
BRANCH   6  16
HETATM   16  C8  UNL     1       7.217  18.125   7.741  1.00  0.00     0.256 C 
HETATM   17  O1  UNL     1       6.458  18.320   8.710  1.00  0.00    -0.305 OA
ENDBRANCH   6  16
ENDBRANCH   3   6
ENDBRANCH   1   2
BRANCH   1  18
HETATM   18  C11 UNL     1      10.749  14.971  10.204  1.00  0.00     0.028 C 
BRANCH  18  19
HETATM   19  C12 UNL     1      11.320  14.168   9.128  1.00  0.00    -0.013 C 
HETATM   20  C13 UNL     1      12.362  15.037   8.340  1.00  0.00     0.005 C 
HETATM   21  C14 UNL     1      12.390  14.333   6.979  1.00  0.00     0.000 C 
HETATM   22  C15 UNL     1      12.818  12.907   7.130  1.00  0.00     0.000 C 
HETATM   23  C16 UNL     1      13.175  12.546   8.537  1.00  0.00     0.000 C 
HETATM   24  C17 UNL     1      12.190  13.022   9.573  1.00  0.00     0.005 C 
ENDBRANCH  18  19
ENDBRANCH   1  18
BRANCH   1  25
HETATM   25  C18 UNL     1       9.812  16.968  11.257  1.00  0.00     0.234 C 
HETATM   26  O3  UNL     1       8.932  17.820  11.057  1.00  0.00    -0.272 OA
HETATM   27  N3  UNL     1      10.156  16.519  12.506  1.00  0.00    -0.333 N 
HETATM   28  C19 UNL     1       9.498  16.232  13.538  1.00  0.00     0.003 C 
ATOM     29  H3  UNL     1      11.161  16.391  12.623  1.00  0.00     0.168 HD
HETATM   30  C20 UNL     1      10.249  15.765  14.743  1.00  0.00     0.054 C 
HETATM   31  C23 UNL     1       8.034  16.337  13.588  1.00  0.00     0.192 C 
HETATM   32  C21 UNL     1       9.573  16.145  16.016  1.00  0.00     0.021 C 
HETATM   33  C22 UNL     1       8.985  17.545  16.013  1.00  0.00     0.141 C 
HETATM   34  S2  UNL     1       7.649  17.562  14.825  1.00  0.00     0.149 S 
HETATM   35  O4  UNL     1       7.605  18.895  14.181  1.00  0.00    -0.228 OA
HETATM   36  O5  UNL     1       6.355  17.267  15.471  1.00  0.00    -0.228 OA
ENDBRANCH   1  25
TORSDOF 12
ENDMDL
MODEL 4
REMARK VINA RESULT: -8.042121054      3.855      7.570
REMARK  12 active torsions:
REMARK  status: ('A' for Active; 'I' for Inactive)
REMARK    1  A    between atoms: C2_2  and  N1_4 
REMARK    2  A    between atoms: N1_4  and  C3_6 
REMARK    3  A    between atoms: C3_6  and  C4_7 
REMARK    4  A    between atoms: C4_7  and  C5_8 
REMARK    5  A    between atoms: C5_8  and  C6_9 
REMARK    6  A    between atoms: C6_9  and  C7_10 
REMARK    7  A    between atoms: C7_10  and  C8_11 
REMARK    8  A    between atoms: C7_10  and  N2_13 
REMARK       I    between atoms: N2_13  and  C9_15 
REMARK    9  A    between atoms: C9_15  and  C10_17 
REMARK   10  A    between atoms: C10_17  and  C11_18 
REMARK   11  A    between atoms: C10_17  and  C18_25 
REMARK   12  A    between atoms: C11_18  and  C12_19 
REMARK       I    between atoms: C18_25  and  N3_27 
ROOT
HETATM    1  C10 UNL     1       9.786  14.929  10.159  1.00  0.00     0.170 C 
ENDROOT
BRANCH   1   2
HETATM    2  C9  UNL     1       8.473  15.105   9.528  1.00  0.00     0.231 C 
HETATM    3  N2  UNL     1       7.916  16.398   9.459  1.00  0.00    -0.350 N 
ATOM      4  H2  UNL     1       8.467  17.176   9.824  1.00  0.00     0.163 HD
HETATM    5  O2  UNL     1       7.880  14.112   9.081  1.00  0.00    -0.273 OA
BRANCH   3   6
HETATM    6  C7  UNL     1       6.596  16.694   8.896  1.00  0.00     0.146 C 
BRANCH   6   7
HETATM    7  C6  UNL     1       6.809  17.188   7.504  1.00  0.00     0.032 C 
BRANCH   7   8
HETATM    8  C5  UNL     1       8.171  17.228   6.962  1.00  0.00     0.004 C 
BRANCH   8   9
HETATM    9  C4  UNL     1       8.601  16.181   5.985  1.00  0.00     0.020 C 
BRANCH   9  10
HETATM   10  C3  UNL     1       9.855  16.727   5.311  1.00  0.00     0.120 C 
BRANCH  10  11
HETATM   11  N1  UNL     1      10.570  15.716   4.562  1.00  0.00    -0.385 N 
ATOM     12  H1  UNL     1      10.961  14.894   5.025  1.00  0.00     0.160 HD
BRANCH  11  13
HETATM   13  C2  UNL     1      10.707  15.904   3.178  1.00  0.00     0.069 C 
HETATM   14  C1  UNL     1       9.734  16.720   2.432  1.00  0.00     0.081 C 
HETATM   15  S1  UNL     1      11.940  15.206   2.380  1.00  0.00    -0.066 SA
ENDBRANCH  11  13
ENDBRANCH  10  11
ENDBRANCH   9  10
ENDBRANCH   8   9
ENDBRANCH   7   8
ENDBRANCH   6   7
BRANCH   6  16
HETATM   16  C8  UNL     1       5.918  17.569   9.841  1.00  0.00     0.256 C 
HETATM   17  O1  UNL     1       6.476  18.625  10.196  1.00  0.00    -0.305 OA
ENDBRANCH   6  16
ENDBRANCH   3   6
ENDBRANCH   1   2
BRANCH   1  18
HETATM   18  C11 UNL     1      10.281  15.840  11.203  1.00  0.00     0.028 C 
BRANCH  18  19
HETATM   19  C12 UNL     1       9.585  15.954  12.480  1.00  0.00    -0.013 C 
HETATM   20  C13 UNL     1      10.644  16.121  13.625  1.00  0.00     0.005 C 
HETATM   21  C14 UNL     1       9.864  15.620  14.847  1.00  0.00     0.000 C 
HETATM   22  C15 UNL     1       8.636  16.448  15.065  1.00  0.00     0.000 C 
HETATM   23  C16 UNL     1       8.512  17.583  14.098  1.00  0.00     0.000 C 
HETATM   24  C17 UNL     1       8.775  17.210  12.662  1.00  0.00     0.005 C 
ENDBRANCH  18  19
ENDBRANCH   1  18
BRANCH   1  25
HETATM   25  C18 UNL     1      10.762  14.941   8.981  1.00  0.00     0.234 C 
HETATM   26  O3  UNL     1      11.082  16.054   8.535  1.00  0.00    -0.272 OA
HETATM   27  N3  UNL     1      11.236  13.760   8.472  1.00  0.00    -0.333 N 
HETATM   28  C19 UNL     1      12.360  13.383   8.054  1.00  0.00     0.003 C 
ATOM     29  H3  UNL     1      10.525  13.031   8.422  1.00  0.00     0.168 HD
HETATM   30  C20 UNL     1      12.491  11.979   7.559  1.00  0.00     0.054 C 
HETATM   31  C23 UNL     1      13.530  14.271   8.044  1.00  0.00     0.192 C 
HETATM   32  C21 UNL     1      13.515  11.849   6.484  1.00  0.00     0.021 C 
HETATM   33  C22 UNL     1      13.505  12.986   5.477  1.00  0.00     0.141 C 
HETATM   34  S2  UNL     1      14.010  14.469   6.338  1.00  0.00     0.149 S 
HETATM   35  O4  UNL     1      13.276  15.621   5.764  1.00  0.00    -0.228 OA
HETATM   36  O5  UNL     1      15.466  14.685   6.223  1.00  0.00    -0.228 OA
ENDBRANCH   1  25
TORSDOF 12
ENDMDL
MODEL 5
REMARK VINA RESULT: -8.037035975      2.857      6.295
REMARK  12 active torsions:
REMARK  status: ('A' for Active; 'I' for Inactive)
REMARK    1  A    between atoms: C2_2  and  N1_4 
REMARK    2  A    between atoms: N1_4  and  C3_6 
REMARK    3  A    between atoms: C3_6  and  C4_7 
REMARK    4  A    between atoms: C4_7  and  C5_8 
REMARK    5  A    between atoms: C5_8  and  C6_9 
REMARK    6  A    between atoms: C6_9  and  C7_10 
REMARK    7  A    between atoms: C7_10  and  C8_11 
REMARK    8  A    between atoms: C7_10  and  N2_13 
REMARK       I    between atoms: N2_13  and  C9_15 
REMARK    9  A    between atoms: C9_15  and  C10_17 
REMARK   10  A    between atoms: C10_17  and  C11_18 
REMARK   11  A    between atoms: C10_17  and  C18_25 
REMARK   12  A    between atoms: C11_18  and  C12_19 
REMARK       I    between atoms: C18_25  and  N3_27 
ROOT
HETATM    1  C10 UNL     1       8.816  15.690  10.614  1.00  0.00     0.170 C 
ENDROOT
BRANCH   1   2
HETATM    2  C9  UNL     1       8.117  16.911  10.197  1.00  0.00     0.231 C 
HETATM    3  N2  UNL     1       6.792  16.813   9.725  1.00  0.00    -0.350 N 
ATOM      4  H2  UNL     1       6.352  15.893   9.723  1.00  0.00     0.163 HD
HETATM    5  O2  UNL     1       8.712  17.998  10.258  1.00  0.00    -0.273 OA
BRANCH   3   6
HETATM    6  C7  UNL     1       6.008  17.952   9.239  1.00  0.00     0.146 C 
BRANCH   6   7
HETATM    7  C6  UNL     1       4.964  18.241  10.264  1.00  0.00     0.032 C 
BRANCH   7   8
HETATM    8  C5  UNL     1       5.247  19.224  11.315  1.00  0.00     0.004 C 
BRANCH   8   9
HETATM    9  C4  UNL     1       5.989  18.793  12.539  1.00  0.00     0.020 C 
BRANCH   9  10
HETATM   10  C3  UNL     1       4.955  18.134  13.445  1.00  0.00     0.120 C 
BRANCH  10  11
HETATM   11  N1  UNL     1       5.142  18.471  14.840  1.00  0.00    -0.385 N 
ATOM     12  H1  UNL     1       5.746  19.244  15.121  1.00  0.00     0.160 HD
BRANCH  11  13
HETATM   13  C2  UNL     1       4.463  17.696  15.794  1.00  0.00     0.069 C 
HETATM   14  C1  UNL     1       5.144  17.252  17.022  1.00  0.00     0.081 C 
HETATM   15  S1  UNL     1       2.914  17.269  15.543  1.00  0.00    -0.066 SA
ENDBRANCH  11  13
ENDBRANCH  10  11
ENDBRANCH   9  10
ENDBRANCH   8   9
ENDBRANCH   7   8
ENDBRANCH   6   7
BRANCH   6  16
HETATM   16  C8  UNL     1       5.576  17.624   7.888  1.00  0.00     0.256 C 
HETATM   17  O1  UNL     1       4.541  18.153   7.438  1.00  0.00    -0.305 OA
ENDBRANCH   6  16
ENDBRANCH   3   6
ENDBRANCH   1   2
BRANCH   1  18
HETATM   18  C11 UNL     1       9.785  15.684  11.722  1.00  0.00     0.028 C 
BRANCH  18  19
HETATM   19  C12 UNL     1       9.397  16.143  13.051  1.00  0.00    -0.013 C 
HETATM   20  C13 UNL     1       8.456  15.072  13.706  1.00  0.00     0.005 C 
HETATM   21  C14 UNL     1       7.687  15.917  14.729  1.00  0.00     0.000 C 
HETATM   22  C15 UNL     1       8.627  16.544  15.710  1.00  0.00     0.000 C 
HETATM   23  C16 UNL     1      10.053  16.142  15.499  1.00  0.00     0.000 C 
HETATM   24  C17 UNL     1      10.509  16.197  14.064  1.00  0.00     0.005 C 
ENDBRANCH  18  19
ENDBRANCH   1  18
BRANCH   1  25
HETATM   25  C18 UNL     1       9.512  15.213   9.339  1.00  0.00     0.234 C 
HETATM   26  O3  UNL     1       9.118  15.709   8.271  1.00  0.00    -0.272 OA
HETATM   27  N3  UNL     1      10.516  14.284   9.413  1.00  0.00    -0.333 N 
HETATM   28  C19 UNL     1      11.618  14.145   8.824  1.00  0.00     0.003 C 
ATOM     29  H3  UNL     1      10.329  13.546  10.092  1.00  0.00     0.168 HD
HETATM   30  C20 UNL     1      12.464  12.966   9.184  1.00  0.00     0.054 C 
HETATM   31  C23 UNL     1      12.090  15.099   7.812  1.00  0.00     0.192 C 
HETATM   32  C21 UNL     1      13.288  12.488   8.037  1.00  0.00     0.021 C 
HETATM   33  C22 UNL     1      12.559  12.492   6.705  1.00  0.00     0.141 C 
HETATM   34  S2  UNL     1      12.227  14.196   6.280  1.00  0.00     0.149 S 
HETATM   35  O4  UNL     1      10.929  14.262   5.568  1.00  0.00    -0.228 OA
HETATM   36  O5  UNL     1      13.300  14.755   5.435  1.00  0.00    -0.228 OA
ENDBRANCH   1  25
TORSDOF 12
ENDMDL
