MODEL 1
REMARK VINA RESULT: -8.433694548      0.000      0.000
REMARK  11 active torsions:
REMARK  status: ('A' for Active; 'I' for Inactive)
REMARK    1  A    between atoms: C2_2  and  C3_3 
REMARK    2  A    between atoms: C3_3  and  N1_4 
REMARK    3  A    between atoms: N1_4  and  C4_5 
REMARK    4  A    between atoms: N1_4  and  C8_10 
REMARK    5  A    between atoms: C4_5  and  C5_6 
REMARK    6  A    between atoms: C5_6  and  O1_7 
REMARK    7  A    between atoms: O1_7  and  C6_8 
REMARK    8  A    between atoms: N4_20  and  C13_21 
REMARK    9  A    between atoms: C21_30  and  O4_31 
REMARK   10  A    between atoms: C24_34  and  N5_35 
REMARK   11  A    between atoms: N5_35  and  N6_37 
ROOT
HETATM    1  C8  UNL     1       6.980  18.180  11.497  1.00  0.00     0.115 C 
HETATM    2  N2  UNL     1       7.767  18.244  10.401  1.00  0.00    -0.341 N 
ATOM      3  H2  UNL     1       7.586  19.019   9.764  1.00  0.00     0.167 HD
HETATM    4  C9  UNL     1       8.772  17.398  10.043  1.00  0.00     0.050 A 
HETATM    5  C10 UNL     1       9.036  17.332   8.707  1.00  0.00     0.062 A 
HETATM    6  C11 UNL     1      10.050  16.491   8.228  1.00  0.00     0.065 A 
HETATM    7  N3  UNL     1      10.489  16.256   6.979  1.00  0.00    -0.306 N 
ATOM      8  H3  UNL     1      10.132  16.681   6.123  1.00  0.00     0.171 HD
HETATM    9  C12 UNL     1      11.495  15.349   7.066  1.00  0.00     0.328 A 
HETATM   10  O2  UNL     1      12.105  14.935   6.031  1.00  0.00    -0.246 OA
HETATM   11  N4  UNL     1      11.703  15.005   8.345  1.00  0.00    -0.293 N 
HETATM   12  C16 UNL     1      10.806  15.715   9.059  1.00  0.00     0.067 A 
HETATM   13  C17 UNL     1      10.528  15.788  10.428  1.00  0.00     0.050 A 
HETATM   14  C18 UNL     1       9.530  16.616  10.898  1.00  0.00     0.044 A 
HETATM   15  C19 UNL     1       9.471  16.491  12.261  1.00  0.00     0.198 C 
HETATM   16  O3  UNL     1      10.412  15.842  12.825  1.00  0.00    -0.286 OA
HETATM   17  C20 UNL     1       8.509  16.987  13.096  1.00  0.00     0.062 A 
HETATM   18  C21 UNL     1       8.788  16.640  14.397  1.00  0.00     0.085 A 
HETATM   19  C23 UNL     1       7.893  17.078  15.368  1.00  0.00     0.068 A 
HETATM   20  C24 UNL     1       6.774  17.825  15.067  1.00  0.00     0.053 A 
HETATM   21  C25 UNL     1       6.553  18.138  13.734  1.00  0.00     0.047 A 
HETATM   22  C26 UNL     1       7.391  17.741  12.731  1.00  0.00     0.027 A 
ENDROOT
BRANCH   1  23
HETATM   23  N1  UNL     1       5.593  18.593  11.366  1.00  0.00    -0.365 N 
BRANCH  23  24
HETATM   24  C3  UNL     1       4.572  17.582  11.503  1.00  0.00     0.124 C 
BRANCH  24  25
HETATM   25  C2  UNL     1       3.248  18.007  11.994  1.00  0.00     0.015 C 
HETATM   26  C1  UNL     1       2.355  16.861  12.441  1.00  0.00     0.006 C 
ENDBRANCH  24  25
ENDBRANCH  23  24
BRANCH  23  27
HETATM   27  C4  UNL     1       5.393  19.982  11.110  1.00  0.00     0.150 C 
BRANCH  27  28
HETATM   28  C5  UNL     1       5.089  20.403   9.724  1.00  0.00     0.187 C 
BRANCH  28  29
HETATM   29  O1  UNL     1       5.794  19.526   8.858  1.00  0.00    -0.390 OA
BRANCH  29  30
HETATM   30  C6  UNL     1       4.909  18.844   8.034  1.00  0.00     0.163 C 
HETATM   31  C7  UNL     1       5.239  17.395   7.861  1.00  0.00     0.033 C 
ENDBRANCH  29  30
ENDBRANCH  28  29
ENDBRANCH  27  28
ENDBRANCH  23  27
ENDBRANCH   1  23
BRANCH  18  32
HETATM   32  O4  UNL     1       9.909  15.894  14.696  1.00  0.00    -0.355 OA
HETATM   33  C22 UNL     1      10.328  15.808  16.051  1.00  0.00     0.210 C 
ENDBRANCH  18  32
BRANCH  20  34
HETATM   34  N5  UNL     1       5.873  18.269  16.073  1.00  0.00    -0.287 N 
ATOM     35  H5  UNL     1       4.941  18.584  15.805  1.00  0.00     0.188 HD
BRANCH  34  36
HETATM   36  N6  UNL     1       6.237  18.284  17.421  1.00  0.00    -0.249 N 
HETATM   37  N7  UNL     1       5.525  18.795  18.327  1.00  0.00    -0.331 N 
ATOM     38  H72 UNL     1       4.640  19.217  18.043  1.00  0.00     0.178 HD
ATOM     39  H71 UNL     1       5.790  18.805  19.311  1.00  0.00     0.178 HD
ATOM     40  H6  UNL     1       7.125  17.858  17.686  1.00  0.00     0.207 HD
ENDBRANCH  34  36
ENDBRANCH  20  34
BRANCH  11  41
HETATM   41  C13 UNL     1      12.672  14.074   8.872  1.00  0.00     0.087 C 
HETATM   42  C14 UNL     1      14.065  14.395   8.446  1.00  0.00     0.032 C 
HETATM   43  C15 UNL     1      12.303  12.632   8.579  1.00  0.00     0.032 C 
ENDBRANCH  11  41
TORSDOF 11
ENDMDL
MODEL 2
REMARK VINA RESULT: -8.247545107      0.942      2.242
REMARK  11 active torsions:
REMARK  status: ('A' for Active; 'I' for Inactive)
REMARK    1  A    between atoms: C2_2  and  C3_3 
REMARK    2  A    between atoms: C3_3  and  N1_4 
REMARK    3  A    between atoms: N1_4  and  C4_5 
REMARK    4  A    between atoms: N1_4  and  C8_10 
REMARK    5  A    between atoms: C4_5  and  C5_6 
REMARK    6  A    between atoms: C5_6  and  O1_7 
REMARK    7  A    between atoms: O1_7  and  C6_8 
REMARK    8  A    between atoms: N4_20  and  C13_21 
REMARK    9  A    between atoms: C21_30  and  O4_31 
REMARK   10  A    between atoms: C24_34  and  N5_35 
REMARK   11  A    between atoms: N5_35  and  N6_37 
ROOT
HETATM    1  C8  UNL     1       7.007  18.163  11.357  1.00  0.00     0.115 C 
HETATM    2  N2  UNL     1       7.790  18.216  10.256  1.00  0.00    -0.341 N 
ATOM      3  H2  UNL     1       7.597  18.977   9.606  1.00  0.00     0.167 HD
HETATM    4  C9  UNL     1       8.804  17.376   9.910  1.00  0.00     0.050 A 
HETATM    5  C10 UNL     1       9.064  17.289   8.575  1.00  0.00     0.062 A 
HETATM    6  C11 UNL     1      10.087  16.451   8.108  1.00  0.00     0.065 A 
HETATM    7  N3  UNL     1      10.524  16.198   6.861  1.00  0.00    -0.306 N 
ATOM      8  H3  UNL     1      10.158  16.603   5.999  1.00  0.00     0.171 HD
HETATM    9  C12 UNL     1      11.541  15.305   6.961  1.00  0.00     0.328 A 
HETATM   10  O2  UNL     1      12.152  14.879   5.932  1.00  0.00    -0.246 OA
HETATM   11  N4  UNL     1      11.757  14.987   8.246  1.00  0.00    -0.293 N 
HETATM   12  C16 UNL     1      10.855  15.699   8.950  1.00  0.00     0.067 A 
HETATM   13  C17 UNL     1      10.581  15.794  10.318  1.00  0.00     0.050 A 
HETATM   14  C18 UNL     1       9.574  16.618  10.777  1.00  0.00     0.044 A 
HETATM   15  C19 UNL     1       9.521  16.518  12.142  1.00  0.00     0.198 C 
HETATM   16  O3  UNL     1      10.472  15.891  12.714  1.00  0.00    -0.286 OA
HETATM   17  C20 UNL     1       8.556  17.017  12.971  1.00  0.00     0.062 A 
HETATM   18  C21 UNL     1       8.843  16.698  14.278  1.00  0.00     0.085 A 
HETATM   19  C23 UNL     1       7.947  17.143  15.244  1.00  0.00     0.068 A 
HETATM   20  C24 UNL     1       6.818  17.871  14.933  1.00  0.00     0.053 A 
HETATM   21  C25 UNL     1       6.589  18.157  13.595  1.00  0.00     0.047 A 
HETATM   22  C26 UNL     1       7.428  17.751  12.596  1.00  0.00     0.027 A 
ENDROOT
BRANCH   1  23
HETATM   23  N1  UNL     1       5.615  18.557  11.223  1.00  0.00    -0.365 N 
BRANCH  23  24
HETATM   24  C3  UNL     1       5.334  19.867  10.684  1.00  0.00     0.124 C 
BRANCH  24  25
HETATM   25  C2  UNL     1       5.505  20.062   9.233  1.00  0.00     0.015 C 
HETATM   26  C1  UNL     1       4.910  18.950   8.383  1.00  0.00     0.006 C 
ENDBRANCH  24  25
ENDBRANCH  23  24
BRANCH  23  27
HETATM   27  C4  UNL     1       4.663  17.584  11.648  1.00  0.00     0.150 C 
BRANCH  27  28
HETATM   28  C5  UNL     1       3.260  18.013  11.846  1.00  0.00     0.187 C 
BRANCH  28  29
HETATM   29  O1  UNL     1       3.177  18.574  13.147  1.00  0.00    -0.390 OA
BRANCH  29  30
HETATM   30  C6  UNL     1       2.836  17.599  14.074  1.00  0.00     0.163 C 
HETATM   31  C7  UNL     1       1.722  16.705  13.631  1.00  0.00     0.033 C 
ENDBRANCH  29  30
ENDBRANCH  28  29
ENDBRANCH  27  28
ENDBRANCH  23  27
ENDBRANCH   1  23
BRANCH  18  32
HETATM   32  O4  UNL     1       9.975  15.971  14.586  1.00  0.00    -0.355 OA
HETATM   33  C22 UNL     1      10.343  15.831  15.951  1.00  0.00     0.210 C 
ENDBRANCH  18  32
BRANCH  20  34
HETATM   34  N5  UNL     1       5.916  18.323  15.934  1.00  0.00    -0.287 N 
ATOM     35  H5  UNL     1       5.003  18.684  15.657  1.00  0.00     0.188 HD
BRANCH  34  36
HETATM   36  N6  UNL     1       6.251  18.283  17.288  1.00  0.00    -0.249 N 
HETATM   37  N7  UNL     1       5.516  18.749  18.200  1.00  0.00    -0.331 N 
ATOM     38  H72 UNL     1       4.632  19.174  17.916  1.00  0.00     0.178 HD
ATOM     39  H71 UNL     1       5.761  18.719  19.190  1.00  0.00     0.178 HD
ATOM     40  H6  UNL     1       7.138  17.855  17.554  1.00  0.00     0.207 HD
ENDBRANCH  34  36
ENDBRANCH  20  34
BRANCH  11  41
HETATM   41  C13 UNL     1      12.739  14.078   8.786  1.00  0.00     0.087 C 
HETATM   42  C14 UNL     1      14.124  14.390   8.326  1.00  0.00     0.032 C 
HETATM   43  C15 UNL     1      12.372  12.625   8.547  1.00  0.00     0.032 C 
ENDBRANCH  11  41
TORSDOF 11
ENDMDL
MODEL 3
REMARK VINA RESULT: -7.927917077      2.274      5.254
REMARK  11 active torsions:
REMARK  status: ('A' for Active; 'I' for Inactive)
REMARK    1  A    between atoms: C2_2  and  C3_3 
REMARK    2  A    between atoms: C3_3  and  N1_4 
REMARK    3  A    between atoms: N1_4  and  C4_5 
REMARK    4  A    between atoms: N1_4  and  C8_10 
REMARK    5  A    between atoms: C4_5  and  C5_6 
REMARK    6  A    between atoms: C5_6  and  O1_7 
REMARK    7  A    between atoms: O1_7  and  C6_8 
REMARK    8  A    between atoms: N4_20  and  C13_21 
REMARK    9  A    between atoms: C21_30  and  O4_31 
REMARK   10  A    between atoms: C24_34  and  N5_35 
REMARK   11  A    between atoms: N5_35  and  N6_37 
ROOT
HETATM    1  C8  UNL     1       7.955  16.136  11.734  1.00  0.00     0.115 C 
HETATM    2  N2  UNL     1       8.765  15.215  11.167  1.00  0.00    -0.341 N 
ATOM      3  H2  UNL     1       9.115  14.484  11.786  1.00  0.00     0.167 HD
HETATM    4  C9  UNL     1       9.173  15.145   9.870  1.00  0.00     0.050 A 
HETATM    5  C10 UNL     1      10.359  14.506   9.661  1.00  0.00     0.062 A 
HETATM    6  C11 UNL     1      10.872  14.379   8.363  1.00  0.00     0.065 A 
HETATM    7  N3  UNL     1      12.001  13.804   7.909  1.00  0.00    -0.306 N 
ATOM      8  H3  UNL     1      12.710  13.337   8.475  1.00  0.00     0.171 HD
HETATM    9  C12 UNL     1      12.024  13.961   6.562  1.00  0.00     0.328 A 
HETATM   10  O2  UNL     1      12.983  13.513   5.858  1.00  0.00    -0.246 OA
HETATM   11  N4  UNL     1      10.932  14.622   6.151  1.00  0.00    -0.293 N 
HETATM   12  C16 UNL     1      10.224  14.878   7.269  1.00  0.00     0.067 A 
HETATM   13  C17 UNL     1       9.009  15.533   7.493  1.00  0.00     0.050 A 
HETATM   14  C18 UNL     1       8.503  15.658   8.771  1.00  0.00     0.044 A 
HETATM   15  C19 UNL     1       7.315  16.337   8.702  1.00  0.00     0.198 C 
HETATM   16  O3  UNL     1       6.827  16.533   7.542  1.00  0.00    -0.286 OA
HETATM   17  C20 UNL     1       6.586  16.835   9.745  1.00  0.00     0.062 A 
HETATM   18  C21 UNL     1       5.460  17.468   9.275  1.00  0.00     0.085 A 
HETATM   19  C23 UNL     1       4.612  18.027  10.225  1.00  0.00     0.068 A 
HETATM   20  C24 UNL     1       4.865  17.963  11.579  1.00  0.00     0.053 A 
HETATM   21  C25 UNL     1       6.019  17.309  11.984  1.00  0.00     0.047 A 
HETATM   22  C26 UNL     1       6.895  16.738  11.105  1.00  0.00     0.027 A 
ENDROOT
BRANCH   1  23
HETATM   23  N1  UNL     1       8.226  16.531  13.106  1.00  0.00    -0.365 N 
BRANCH  23  24
HETATM   24  C3  UNL     1       8.477  15.487  14.071  1.00  0.00     0.124 C 
BRANCH  24  25
HETATM   25  C2  UNL     1       9.736  15.550  14.837  1.00  0.00     0.015 C 
HETATM   26  C1  UNL     1      10.925  16.053  14.034  1.00  0.00     0.006 C 
ENDBRANCH  24  25
ENDBRANCH  23  24
BRANCH  23  27
HETATM   27  C4  UNL     1       8.213  17.936  13.349  1.00  0.00     0.150 C 
BRANCH  27  28
HETATM   28  C5  UNL     1       7.356  18.452  14.440  1.00  0.00     0.187 C 
BRANCH  28  29
HETATM   29  O1  UNL     1       8.171  18.545  15.599  1.00  0.00    -0.390 OA
BRANCH  29  30
HETATM   30  C6  UNL     1       7.562  17.910  16.672  1.00  0.00     0.163 C 
HETATM   31  C7  UNL     1       6.114  17.603  16.451  1.00  0.00     0.033 C 
ENDBRANCH  29  30
ENDBRANCH  28  29
ENDBRANCH  27  28
ENDBRANCH  23  27
ENDBRANCH   1  23
BRANCH  18  32
HETATM   32  O4  UNL     1       5.208  17.530   7.920  1.00  0.00    -0.355 OA
HETATM   33  C22 UNL     1       4.467  18.632   7.414  1.00  0.00     0.210 C 
ENDBRANCH  18  32
BRANCH  20  34
HETATM   34  N5  UNL     1       3.983  18.535  12.536  1.00  0.00    -0.287 N 
ATOM     35  H5  UNL     1       3.573  19.451  12.352  1.00  0.00     0.188 HD
BRANCH  34  36
HETATM   36  N6  UNL     1       3.666  17.871  13.722  1.00  0.00    -0.249 N 
HETATM   37  N7  UNL     1       2.792  16.965  13.799  1.00  0.00    -0.331 N 
ATOM     38  H72 UNL     1       2.300  16.717  12.940  1.00  0.00     0.178 HD
ATOM     39  H71 UNL     1       2.561  16.480  14.665  1.00  0.00     0.178 HD
ATOM     40  H6  UNL     1       4.168  18.132  14.571  1.00  0.00     0.207 HD
ENDBRANCH  34  36
ENDBRANCH  20  34
BRANCH  11  41
HETATM   41  C13 UNL     1      10.570  14.995   4.805  1.00  0.00     0.087 C 
HETATM   42  C14 UNL     1      10.791  16.446   4.533  1.00  0.00     0.032 C 
HETATM   43  C15 UNL     1       9.164  14.555   4.443  1.00  0.00     0.032 C 
ENDBRANCH  11  41
TORSDOF 11
ENDMDL
MODEL 4
REMARK VINA RESULT: -7.892263323      2.334      8.597
REMARK  11 active torsions:
REMARK  status: ('A' for Active; 'I' for Inactive)
REMARK    1  A    between atoms: C2_2  and  C3_3 
REMARK    2  A    between atoms: C3_3  and  N1_4 
REMARK    3  A    between atoms: N1_4  and  C4_5 
REMARK    4  A    between atoms: N1_4  and  C8_10 
REMARK    5  A    between atoms: C4_5  and  C5_6 
REMARK    6  A    between atoms: C5_6  and  O1_7 
REMARK    7  A    between atoms: O1_7  and  C6_8 
REMARK    8  A    between atoms: N4_20  and  C13_21 
REMARK    9  A    between atoms: C21_30  and  O4_31 
REMARK   10  A    between atoms: C24_34  and  N5_35 
REMARK   11  A    between atoms: N5_35  and  N6_37 
ROOT
HETATM    1  C8  UNL     1      10.808  15.962   9.185  1.00  0.00     0.115 C 
HETATM    2  N2  UNL     1      11.121  16.366  10.436  1.00  0.00    -0.341 N 
ATOM      3  H2  UNL     1      12.112  16.509  10.626  1.00  0.00     0.167 HD
HETATM    4  C9  UNL     1      10.273  16.604  11.474  1.00  0.00     0.050 A 
HETATM    5  C10 UNL     1      10.813  16.465  12.718  1.00  0.00     0.062 A 
HETATM    6  C11 UNL     1      10.028  16.685  13.858  1.00  0.00     0.065 A 
HETATM    7  N3  UNL     1      10.327  16.609  15.167  1.00  0.00    -0.306 N 
ATOM      8  H3  UNL     1      11.233  16.364  15.566  1.00  0.00     0.171 HD
HETATM    9  C12 UNL     1       9.201  16.917  15.859  1.00  0.00     0.328 A 
HETATM   10  O2  UNL     1       9.185  16.926  17.130  1.00  0.00    -0.246 OA
HETATM   11  N4  UNL     1       8.194  17.187  15.015  1.00  0.00    -0.293 N 
HETATM   12  C16 UNL     1       8.712  17.042  13.779  1.00  0.00     0.067 A 
HETATM   13  C17 UNL     1       8.166  17.182  12.499  1.00  0.00     0.050 A 
HETATM   14  C18 UNL     1       8.939  16.966  11.378  1.00  0.00     0.044 A 
HETATM   15  C19 UNL     1       8.160  17.167  10.269  1.00  0.00     0.198 C 
HETATM   16  O3  UNL     1       7.008  17.680  10.456  1.00  0.00    -0.286 OA
HETATM   17  C20 UNL     1       8.477  16.877   8.971  1.00  0.00     0.062 A 
HETATM   18  C21 UNL     1       7.430  17.208   8.144  1.00  0.00     0.085 A 
HETATM   19  C23 UNL     1       7.607  16.971   6.784  1.00  0.00     0.068 A 
HETATM   20  C24 UNL     1       8.766  16.433   6.267  1.00  0.00     0.053 A 
HETATM   21  C25 UNL     1       9.781  16.123   7.159  1.00  0.00     0.047 A 
HETATM   22  C26 UNL     1       9.675  16.329   8.505  1.00  0.00     0.027 A 
ENDROOT
BRANCH   1  23
HETATM   23  N1  UNL     1      11.729  15.063   8.509  1.00  0.00    -0.365 N 
BRANCH  23  24
HETATM   24  C3  UNL     1      11.505  13.643   8.643  1.00  0.00     0.124 C 
BRANCH  24  25
HETATM   25  C2  UNL     1      12.226  12.935   9.717  1.00  0.00     0.015 C 
HETATM   26  C1  UNL     1      13.666  12.591   9.375  1.00  0.00     0.006 C 
ENDBRANCH  24  25
ENDBRANCH  23  24
BRANCH  23  27
HETATM   27  C4  UNL     1      12.772  15.700   7.775  1.00  0.00     0.150 C 
BRANCH  27  28
HETATM   28  C5  UNL     1      13.567  14.882   6.831  1.00  0.00     0.187 C 
BRANCH  28  29
HETATM   29  O1  UNL     1      12.781  14.720   5.659  1.00  0.00    -0.390 OA
BRANCH  29  30
HETATM   30  C6  UNL     1      13.302  13.708   4.864  1.00  0.00     0.163 C 
HETATM   31  C7  UNL     1      13.690  12.479   5.624  1.00  0.00     0.033 C 
ENDBRANCH  29  30
ENDBRANCH  28  29
ENDBRANCH  27  28
ENDBRANCH  23  27
ENDBRANCH   1  23
BRANCH  18  32
HETATM   32  O4  UNL     1       6.272  17.748   8.664  1.00  0.00    -0.355 OA
HETATM   33  C22 UNL     1       5.188  18.011   7.784  1.00  0.00     0.210 C 
ENDBRANCH  18  32
BRANCH  20  34
HETATM   34  N5  UNL     1       8.931  16.203   4.873  1.00  0.00    -0.287 N 
ATOM     35  H5  UNL     1       8.226  16.553   4.223  1.00  0.00     0.188 HD
BRANCH  34  36
HETATM   36  N6  UNL     1      10.036  15.512   4.375  1.00  0.00    -0.249 N 
HETATM   37  N7  UNL     1       9.995  14.302   4.019  1.00  0.00    -0.331 N 
ATOM     38  H72 UNL     1       9.100  13.820   4.107  1.00  0.00     0.178 HD
ATOM     39  H71 UNL     1      10.802  13.797   3.655  1.00  0.00     0.178 HD
ATOM     40  H6  UNL     1      10.922  16.010   4.295  1.00  0.00     0.207 HD
ENDBRANCH  34  36
ENDBRANCH  20  34
BRANCH  11  41
HETATM   41  C13 UNL     1       6.836  17.555  15.336  1.00  0.00     0.087 C 
HETATM   42  C14 UNL     1       6.076  16.441  15.973  1.00  0.00     0.032 C 
HETATM   43  C15 UNL     1       6.101  18.140  14.146  1.00  0.00     0.032 C 
ENDBRANCH  11  41
TORSDOF 11
ENDMDL
MODEL 5
REMARK VINA RESULT: -7.878228980      0.772      1.508
REMARK  11 active torsions:
REMARK  status: ('A' for Active; 'I' for Inactive)
REMARK    1  A    between atoms: C2_2  and  C3_3 
REMARK    2  A    between atoms: C3_3  and  N1_4 
REMARK    3  A    between atoms: N1_4  and  C4_5 
REMARK    4  A    between atoms: N1_4  and  C8_10 
REMARK    5  A    between atoms: C4_5  and  C5_6 
REMARK    6  A    between atoms: C5_6  and  O1_7 
REMARK    7  A    between atoms: O1_7  and  C6_8 
REMARK    8  A    between atoms: N4_20  and  C13_21 
REMARK    9  A    between atoms: C21_30  and  O4_31 
REMARK   10  A    between atoms: C24_34  and  N5_35 
REMARK   11  A    between atoms: N5_35  and  N6_37 
ROOT
HETATM    1  C8  UNL     1       7.041  18.141  11.601  1.00  0.00     0.115 C 
HETATM    2  N2  UNL     1       7.828  18.211  10.505  1.00  0.00    -0.341 N 
ATOM      3  H2  UNL     1       7.642  18.985   9.868  1.00  0.00     0.167 HD
HETATM    4  C9  UNL     1       8.840  17.373  10.147  1.00  0.00     0.050 A 
HETATM    5  C10 UNL     1       9.105  17.309   8.811  1.00  0.00     0.062 A 
HETATM    6  C11 UNL     1      10.125  16.475   8.333  1.00  0.00     0.065 A 
HETATM    7  N3  UNL     1      10.567  16.244   7.083  1.00  0.00    -0.306 N 
ATOM      8  H3  UNL     1      10.207  16.667   6.228  1.00  0.00     0.171 HD
HETATM    9  C12 UNL     1      11.579  15.344   7.171  1.00  0.00     0.328 A 
HETATM   10  O2  UNL     1      12.192  14.934   6.136  1.00  0.00    -0.246 OA
HETATM   11  N4  UNL     1      11.788  15.001   8.450  1.00  0.00    -0.293 N 
HETATM   12  C16 UNL     1      10.887  15.704   9.164  1.00  0.00     0.067 A 
HETATM   13  C17 UNL     1      10.607  15.775  10.532  1.00  0.00     0.050 A 
HETATM   14  C18 UNL     1       9.603  16.595  11.003  1.00  0.00     0.044 A 
HETATM   15  C19 UNL     1       9.544  16.470  12.366  1.00  0.00     0.198 C 
HETATM   16  O3  UNL     1      10.489  15.827  12.930  1.00  0.00    -0.286 OA
HETATM   17  C20 UNL     1       8.578  16.958  13.200  1.00  0.00     0.062 A 
HETATM   18  C21 UNL     1       8.859  16.613  14.501  1.00  0.00     0.085 A 
HETATM   19  C23 UNL     1       7.960  17.044  15.472  1.00  0.00     0.068 A 
HETATM   20  C24 UNL     1       6.836  17.783  15.170  1.00  0.00     0.053 A 
HETATM   21  C25 UNL     1       6.614  18.096  13.838  1.00  0.00     0.047 A 
HETATM   22  C26 UNL     1       7.455  17.704  12.834  1.00  0.00     0.027 A 
ENDROOT
BRANCH   1  23
HETATM   23  N1  UNL     1       5.651  18.545  11.469  1.00  0.00    -0.365 N 
BRANCH  23  24
HETATM   24  C3  UNL     1       5.321  19.923  11.742  1.00  0.00     0.124 C 
BRANCH  24  25
HETATM   25  C2  UNL     1       4.984  20.787  10.596  1.00  0.00     0.015 C 
HETATM   26  C1  UNL     1       5.983  20.716   9.452  1.00  0.00     0.006 C 
ENDBRANCH  24  25
ENDBRANCH  23  24
BRANCH  23  27
HETATM   27  C4  UNL     1       4.752  17.510  11.076  1.00  0.00     0.150 C 
BRANCH  27  28
HETATM   28  C5  UNL     1       4.363  17.421   9.651  1.00  0.00     0.187 C 
BRANCH  28  29
HETATM   29  O1  UNL     1       5.436  16.792   8.966  1.00  0.00    -0.390 OA
BRANCH  29  30
HETATM   30  C6  UNL     1       5.687  17.437   7.762  1.00  0.00     0.163 C 
HETATM   31  C7  UNL     1       4.596  18.368   7.335  1.00  0.00     0.033 C 
ENDBRANCH  29  30
ENDBRANCH  28  29
ENDBRANCH  27  28
ENDBRANCH  23  27
ENDBRANCH   1  23
BRANCH  18  32
HETATM   32  O4  UNL     1       9.985  15.875  14.801  1.00  0.00    -0.355 OA
HETATM   33  C22 UNL     1      10.378  15.752  16.161  1.00  0.00     0.210 C 
ENDBRANCH  18  32
BRANCH  20  34
HETATM   34  N5  UNL     1       5.932  18.221  16.177  1.00  0.00    -0.287 N 
ATOM     35  H5  UNL     1       4.993  18.516  15.909  1.00  0.00     0.188 HD
BRANCH  34  36
HETATM   36  N6  UNL     1       6.301  18.255  17.522  1.00  0.00    -0.249 N 
HETATM   37  N7  UNL     1       5.627  18.840  18.412  1.00  0.00    -0.331 N 
ATOM     38  H72 UNL     1       4.770  19.308  18.117  1.00  0.00     0.178 HD
ATOM     39  H71 UNL     1       5.896  18.865  19.396  1.00  0.00     0.178 HD
ATOM     40  H6  UNL     1       7.161  17.783  17.799  1.00  0.00     0.207 HD
ENDBRANCH  34  36
ENDBRANCH  20  34
BRANCH  11  41
HETATM   41  C13 UNL     1      12.763  14.076   8.977  1.00  0.00     0.087 C 
HETATM   42  C14 UNL     1      14.144  14.359   8.487  1.00  0.00     0.032 C 
HETATM   43  C15 UNL     1      12.365  12.630   8.756  1.00  0.00     0.032 C 
ENDBRANCH  11  41
TORSDOF 11
ENDMDL
