MODEL 1
REMARK VINA RESULT: -8.741745420      0.000      0.000
REMARK  15 active torsions:
REMARK  status: ('A' for Active; 'I' for Inactive)
REMARK    1  A    between atoms: C2_2  and  C3_3 
REMARK    2  A    between atoms: C3_3  and  C4_4 
REMARK    3  A    between atoms: C4_4  and  C5_6 
REMARK    4  A    between atoms: C5_6  and  C6_7 
REMARK    5  A    between atoms: C6_7  and  C7_9 
REMARK    6  A    between atoms: C12_14  and  C13_15 
REMARK    7  A    between atoms: C12_14  and  N1_18 
REMARK    8  A    between atoms: C13_15  and  O3_16 
REMARK       I    between atoms: N1_18  and  C14_20 
REMARK    9  A    between atoms: C14_20  and  O5_22 
REMARK   10  A    between atoms: O5_22  and  C15_23 
REMARK   11  A    between atoms: C22_30  and  C23_31 
REMARK   12  A    between atoms: C24_33  and  O7_34 
REMARK   13  A    between atoms: C28_41  and  C29_42 
REMARK   14  A    between atoms: C29_42  and  N3_43 
REMARK   15  A    between atoms: C29_42  and  C30_47 
ROOT
HETATM    1  C15 UNL     1       6.430   1.558  10.992  1.00  0.00     0.159 C 
HETATM    2  C16 UNL     1       7.625   2.439  10.803  1.00  0.00     0.040 C 
HETATM    3  C17 UNL     1       8.168   2.649   9.462  1.00  0.00     0.001 C 
HETATM    4  C18 UNL     1       7.725   1.748   8.371  1.00  0.00     0.042 C 
HETATM    5  C19 UNL     1       7.503   2.377   7.051  1.00  0.00    -0.048 C 
HETATM    6  C20 UNL     1       7.920   2.154   5.851  1.00  0.00    -0.020 C 
HETATM    7  C21 UNL     1       7.363   3.122   4.877  1.00  0.00     0.042 C 
HETATM    8  C22 UNL     1       6.775   4.235   5.728  1.00  0.00     0.090 C 
HETATM    9  C24 UNL     1       6.550   3.554   7.037  1.00  0.00     0.106 C 
HETATM   10  C26 UNL     1       6.844   4.353   8.241  1.00  0.00     0.125 C 
HETATM   11  C27 UNL     1       5.745   4.435   9.231  1.00  0.00     0.226 C 
HETATM   12  O8  UNL     1       5.184   5.583   9.277  1.00  0.00    -0.273 OA
HETATM   13  N2  UNL     1       5.163   3.512  10.165  1.00  0.00    -0.351 N 
ATOM     14  H2  UNL     1       4.558   4.030  10.801  1.00  0.00     0.163 HD
HETATM   15  C28 UNL     1       5.125   2.138  10.524  1.00  0.00     0.151 C 
HETATM   16  C31 UNL     1       8.136   4.106   8.971  1.00  0.00    -0.028 C 
HETATM   17  C32 UNL     1       8.135   5.048  10.187  1.00  0.00     0.016 C 
HETATM   18  C33 UNL     1       9.395   4.517   8.308  1.00  0.00     0.016 C 
ENDROOT
BRANCH   1  19
HETATM   19  O5  UNL     1       6.279   1.060  12.274  1.00  0.00    -0.296 OA
BRANCH  19  20
HETATM   20  C14 UNL     1       6.493  -0.159  12.787  1.00  0.00     0.361 C 
HETATM   21  N1  UNL     1       5.506  -0.812  13.537  1.00  0.00    -0.324 N 
ATOM     22  H1  UNL     1       4.622  -0.324  13.681  1.00  0.00     0.165 HD
HETATM   23  O4  UNL     1       7.587  -0.706  12.585  1.00  0.00    -0.238 OA
BRANCH  21  24
HETATM   24  C12 UNL     1       5.651  -2.158  14.136  1.00  0.00     0.071 C 
HETATM   25  C7  UNL     1       6.115  -1.952  15.497  1.00  0.00     0.087 C 
HETATM   26  C8  UNL     1       4.899  -2.188  16.385  1.00  0.00     0.025 C 
HETATM   27  C9  UNL     1       3.762  -2.502  15.473  1.00  0.00    -0.029 A 
HETATM   28  C10 UNL     1       2.503  -1.668  15.526  1.00  0.00     0.016 C 
HETATM   29  C11 UNL     1       4.282  -2.759  14.119  1.00  0.00     0.034 A 
HETATM   30  C34 UNL     1       3.753  -3.872  14.854  1.00  0.00    -0.033 A 
HETATM   31  C35 UNL     1       2.314  -4.290  14.480  1.00  0.00     0.016 C 
HETATM   32  C36 UNL     1       4.498  -5.005  15.480  1.00  0.00     0.016 C 
BRANCH  25  33
HETATM   33  C6  UNL     1       7.272  -2.762  15.976  1.00  0.00     0.140 C 
HETATM   34  O2  UNL     1       7.219  -3.634  16.777  1.00  0.00    -0.297 OA
BRANCH  33  35
HETATM   35  C5  UNL     1       8.574  -2.409  15.372  1.00  0.00     0.157 C 
BRANCH  35  36
HETATM   36  C4  UNL     1       9.653  -3.385  15.536  1.00  0.00     0.133 C 
HETATM   37  O1  UNL     1      10.319  -3.287  16.598  1.00  0.00    -0.298 OA
BRANCH  36  38
HETATM   38  C3  UNL     1      10.025  -4.445  14.601  1.00  0.00     0.078 C 
BRANCH  38  39
HETATM   39  C2  UNL     1       9.002  -5.579  14.654  1.00  0.00     0.003 C 
HETATM   40  C1  UNL     1       9.258  -6.521  15.804  1.00  0.00     0.005 C 
ENDBRANCH  38  39
ENDBRANCH  36  38
ENDBRANCH  35  36
ENDBRANCH  33  35
ENDBRANCH  25  33
BRANCH  24  41
HETATM   41  C13 UNL     1       6.521  -2.899  13.166  1.00  0.00     0.196 C 
BRANCH  41  42
HETATM   42  O3  UNL     1       5.654  -3.213  12.076  1.00  0.00    -0.398 OA
ATOM     43  H3  UNL     1       6.093  -2.856  11.313  1.00  0.00     0.209 HD
ENDBRANCH  41  42
ENDBRANCH  24  41
ENDBRANCH  21  24
ENDBRANCH  19  20
ENDBRANCH   1  19
BRANCH  15  44
HETATM   44  C29 UNL     1       4.006   1.970  11.587  1.00  0.00     0.269 C 
BRANCH  44  45
HETATM   45  N3  UNL     1       3.329   0.679  11.309  1.00  0.00    -0.067 N 
ATOM     46  H33 UNL     1       3.968  -0.045  10.980  1.00  0.00     0.275 HD
ATOM     47  H32 UNL     1       3.015   0.203  12.154  1.00  0.00     0.275 HD
ATOM     48  H31 UNL     1       2.571   0.872  10.654  1.00  0.00     0.275 HD
ENDBRANCH  44  45
BRANCH  44  49
HETATM   49  C30 UNL     1       2.946   2.985  11.461  1.00  0.00     0.266 C 
HETATM   50  O9  UNL     1       3.106   4.081  11.982  1.00  0.00    -0.305 OA
ENDBRANCH  44  49
ENDBRANCH  15  44
BRANCH   9  51
HETATM   51  O7  UNL     1       5.342   2.938   7.007  1.00  0.00    -0.379 OA
HETATM   52  C25 UNL     1       4.256   3.311   6.382  1.00  0.00     0.203 C 
ENDBRANCH   9  51
BRANCH   8  53
HETATM   53  C23 UNL     1       7.622   5.403   5.659  1.00  0.00     0.239 C 
HETATM   54  O6  UNL     1       8.592   5.428   4.879  1.00  0.00    -0.306 OA
ENDBRANCH   8  53
TORSDOF 15
ENDMDL
MODEL 2
REMARK VINA RESULT: -8.269912432      1.961      9.384
REMARK  15 active torsions:
REMARK  status: ('A' for Active; 'I' for Inactive)
REMARK    1  A    between atoms: C2_2  and  C3_3 
REMARK    2  A    between atoms: C3_3  and  C4_4 
REMARK    3  A    between atoms: C4_4  and  C5_6 
REMARK    4  A    between atoms: C5_6  and  C6_7 
REMARK    5  A    between atoms: C6_7  and  C7_9 
REMARK    6  A    between atoms: C12_14  and  C13_15 
REMARK    7  A    between atoms: C12_14  and  N1_18 
REMARK    8  A    between atoms: C13_15  and  O3_16 
REMARK       I    between atoms: N1_18  and  C14_20 
REMARK    9  A    between atoms: C14_20  and  O5_22 
REMARK   10  A    between atoms: O5_22  and  C15_23 
REMARK   11  A    between atoms: C22_30  and  C23_31 
REMARK   12  A    between atoms: C24_33  and  O7_34 
REMARK   13  A    between atoms: C28_41  and  C29_42 
REMARK   14  A    between atoms: C29_42  and  N3_43 
REMARK   15  A    between atoms: C29_42  and  C30_47 
ROOT
HETATM    1  C15 UNL     1       4.246   1.611  12.900  1.00  0.00     0.159 C 
HETATM    2  C16 UNL     1       5.701   1.272  12.992  1.00  0.00     0.040 C 
HETATM    3  C17 UNL     1       6.186   0.441  14.093  1.00  0.00     0.001 C 
HETATM    4  C18 UNL     1       5.293   0.217  15.255  1.00  0.00     0.042 C 
HETATM    5  C19 UNL     1       5.310  -1.139  15.842  1.00  0.00    -0.048 C 
HETATM    6  C20 UNL     1       5.486  -1.621  17.026  1.00  0.00    -0.020 C 
HETATM    7  C21 UNL     1       5.395  -3.100  17.047  1.00  0.00     0.042 C 
HETATM    8  C22 UNL     1       5.471  -3.515  15.588  1.00  0.00     0.090 C 
HETATM    9  C24 UNL     1       5.037  -2.275  14.878  1.00  0.00     0.106 C 
HETATM   10  C26 UNL     1       5.758  -1.957  13.632  1.00  0.00     0.125 C 
HETATM   11  C27 UNL     1       4.903  -1.737  12.442  1.00  0.00     0.226 C 
HETATM   12  O8  UNL     1       4.964  -2.685  11.588  1.00  0.00    -0.273 OA
HETATM   13  N2  UNL     1       4.015  -0.688  12.023  1.00  0.00    -0.351 N 
ATOM     14  H2  UNL     1       3.777  -0.836  11.043  1.00  0.00     0.163 HD
HETATM   15  C28 UNL     1       3.349   0.480  12.479  1.00  0.00     0.151 C 
HETATM   16  C31 UNL     1       6.821  -0.893  13.667  1.00  0.00    -0.028 C 
HETATM   17  C32 UNL     1       7.354  -0.761  12.230  1.00  0.00     0.016 C 
HETATM   18  C33 UNL     1       8.075  -1.191  14.397  1.00  0.00     0.016 C 
ENDROOT
BRANCH   1  19
HETATM   19  O5  UNL     1       3.963   2.731  12.139  1.00  0.00    -0.296 OA
BRANCH  19  20
HETATM   20  C14 UNL     1       4.702   3.419  11.259  1.00  0.00     0.361 C 
HETATM   21  N1  UNL     1       5.241   2.798  10.124  1.00  0.00    -0.324 N 
ATOM     22  H1  UNL     1       5.054   1.803   9.996  1.00  0.00     0.165 HD
HETATM   23  O4  UNL     1       4.902   4.624  11.465  1.00  0.00    -0.238 OA
BRANCH  21  24
HETATM   24  C12 UNL     1       6.062   3.479   9.098  1.00  0.00     0.071 C 
HETATM   25  C7  UNL     1       7.191   4.065   9.800  1.00  0.00     0.087 C 
HETATM   26  C8  UNL     1       8.379   3.160   9.495  1.00  0.00     0.025 C 
HETATM   27  C9  UNL     1       7.863   2.058   8.633  1.00  0.00    -0.029 A 
HETATM   28  C10 UNL     1       8.041   0.620   9.063  1.00  0.00     0.016 C 
HETATM   29  C11 UNL     1       6.511   2.405   8.159  1.00  0.00     0.034 A 
HETATM   30  C34 UNL     1       7.576   2.403   7.198  1.00  0.00    -0.033 A 
HETATM   31  C35 UNL     1       7.665   1.144   6.308  1.00  0.00     0.016 C 
HETATM   32  C36 UNL     1       8.231   3.575   6.542  1.00  0.00     0.016 C 
BRANCH  25  33
HETATM   33  C6  UNL     1       7.536   5.487   9.514  1.00  0.00     0.140 C 
HETATM   34  O2  UNL     1       7.009   6.177   8.708  1.00  0.00    -0.297 OA
BRANCH  33  35
HETATM   35  C5  UNL     1       8.638   6.038  10.332  1.00  0.00     0.157 C 
BRANCH  35  36
HETATM   36  C4  UNL     1       9.756   6.634   9.600  1.00  0.00     0.133 C 
HETATM   37  O1  UNL     1      10.089   7.792   9.963  1.00  0.00    -0.298 OA
BRANCH  36  38
HETATM   38  C3  UNL     1      10.512   6.026   8.507  1.00  0.00     0.078 C 
BRANCH  38  39
HETATM   39  C2  UNL     1      10.715   7.037   7.379  1.00  0.00     0.003 C 
HETATM   40  C1  UNL     1       9.532   7.089   6.445  1.00  0.00     0.005 C 
ENDBRANCH  38  39
ENDBRANCH  36  38
ENDBRANCH  35  36
ENDBRANCH  33  35
ENDBRANCH  25  33
BRANCH  24  41
HETATM   41  C13 UNL     1       5.093   4.374   8.386  1.00  0.00     0.196 C 
BRANCH  41  42
HETATM   42  O3  UNL     1       4.235   3.479   7.678  1.00  0.00    -0.398 OA
ATOM     43  H3  UNL     1       3.887   3.999   6.963  1.00  0.00     0.209 HD
ENDBRANCH  41  42
ENDBRANCH  24  41
ENDBRANCH  21  24
ENDBRANCH  19  20
ENDBRANCH   1  19
BRANCH  15  44
HETATM   44  C29 UNL     1       2.361   0.914  11.364  1.00  0.00     0.269 C 
BRANCH  44  45
HETATM   45  N3  UNL     1       1.336   1.779  11.997  1.00  0.00    -0.067 N 
ATOM     46  H33 UNL     1       0.823   1.309  12.743  1.00  0.00     0.275 HD
ATOM     47  H32 UNL     1       1.738   2.525  12.564  1.00  0.00     0.275 HD
ATOM     48  H31 UNL     1       0.731   2.124  11.252  1.00  0.00     0.275 HD
ENDBRANCH  44  45
BRANCH  44  49
HETATM   49  C30 UNL     1       1.603  -0.220  10.805  1.00  0.00     0.266 C 
HETATM   50  O9  UNL     1       1.034  -0.084   9.730  1.00  0.00    -0.305 OA
ENDBRANCH  44  49
ENDBRANCH  15  44
BRANCH   9  51
HETATM   51  O7  UNL     1       3.683  -2.265  14.806  1.00  0.00    -0.379 OA
HETATM   52  C25 UNL     1       2.871  -3.277  14.642  1.00  0.00     0.203 C 
ENDBRANCH   9  51
BRANCH   8  53
HETATM   53  C23 UNL     1       6.766  -4.090  15.308  1.00  0.00     0.239 C 
HETATM   54  O6  UNL     1       7.493  -4.479  16.242  1.00  0.00    -0.306 OA
ENDBRANCH   8  53
TORSDOF 15
ENDMDL
MODEL 3
REMARK VINA RESULT: -8.269027206      1.125      1.271
REMARK  15 active torsions:
REMARK  status: ('A' for Active; 'I' for Inactive)
REMARK    1  A    between atoms: C2_2  and  C3_3 
REMARK    2  A    between atoms: C3_3  and  C4_4 
REMARK    3  A    between atoms: C4_4  and  C5_6 
REMARK    4  A    between atoms: C5_6  and  C6_7 
REMARK    5  A    between atoms: C6_7  and  C7_9 
REMARK    6  A    between atoms: C12_14  and  C13_15 
REMARK    7  A    between atoms: C12_14  and  N1_18 
REMARK    8  A    between atoms: C13_15  and  O3_16 
REMARK       I    between atoms: N1_18  and  C14_20 
REMARK    9  A    between atoms: C14_20  and  O5_22 
REMARK   10  A    between atoms: O5_22  and  C15_23 
REMARK   11  A    between atoms: C22_30  and  C23_31 
REMARK   12  A    between atoms: C24_33  and  O7_34 
REMARK   13  A    between atoms: C28_41  and  C29_42 
REMARK   14  A    between atoms: C29_42  and  N3_43 
REMARK   15  A    between atoms: C29_42  and  C30_47 
ROOT
HETATM    1  C15 UNL     1       6.341   1.651  11.661  1.00  0.00     0.159 C 
HETATM    2  C16 UNL     1       7.370   2.734  11.765  1.00  0.00     0.040 C 
HETATM    3  C17 UNL     1       8.039   3.220  10.559  1.00  0.00     0.001 C 
HETATM    4  C18 UNL     1       7.918   2.423   9.315  1.00  0.00     0.042 C 
HETATM    5  C19 UNL     1       7.763   3.188   8.059  1.00  0.00    -0.048 C 
HETATM    6  C20 UNL     1       8.369   3.210   6.921  1.00  0.00    -0.020 C 
HETATM    7  C21 UNL     1       7.779   4.202   5.991  1.00  0.00     0.042 C 
HETATM    8  C22 UNL     1       6.889   5.070   6.864  1.00  0.00     0.090 C 
HETATM    9  C24 UNL     1       6.621   4.182   8.034  1.00  0.00     0.106 C 
HETATM   10  C26 UNL     1       6.599   4.839   9.354  1.00  0.00     0.125 C 
HETATM   11  C27 UNL     1       5.382   4.598  10.163  1.00  0.00     0.226 C 
HETATM   12  O8  UNL     1       4.619   5.620  10.254  1.00  0.00    -0.273 OA
HETATM   13  N2  UNL     1       4.860   3.468  10.880  1.00  0.00    -0.351 N 
ATOM     14  H2  UNL     1       4.091   3.784  11.470  1.00  0.00     0.163 HD
HETATM   15  C28 UNL     1       5.026   2.070  11.066  1.00  0.00     0.151 C 
HETATM   16  C31 UNL     1       7.805   4.707  10.243  1.00  0.00    -0.028 C 
HETATM   17  C32 UNL     1       7.470   5.452  11.546  1.00  0.00     0.016 C 
HETATM   18  C33 UNL     1       9.045   5.409   9.838  1.00  0.00     0.016 C 
ENDROOT
BRANCH   1  19
HETATM   19  O5  UNL     1       6.115   0.958  12.836  1.00  0.00    -0.296 OA
BRANCH  19  20
HETATM   20  C14 UNL     1       6.348  -0.317  13.178  1.00  0.00     0.361 C 
HETATM   21  N1  UNL     1       5.387  -1.068  13.868  1.00  0.00    -0.324 N 
ATOM     22  H1  UNL     1       4.507  -0.608  14.104  1.00  0.00     0.165 HD
HETATM   23  O4  UNL     1       7.435  -0.825  12.870  1.00  0.00    -0.238 OA
BRANCH  21  24
HETATM   24  C12 UNL     1       5.555  -2.480  14.280  1.00  0.00     0.071 C 
HETATM   25  C7  UNL     1       6.193  -2.452  15.585  1.00  0.00     0.087 C 
HETATM   26  C8  UNL     1       5.089  -2.767  16.588  1.00  0.00     0.025 C 
HETATM   27  C9  UNL     1       3.836  -2.941  15.800  1.00  0.00    -0.029 A 
HETATM   28  C10 UNL     1       2.626  -2.091  16.112  1.00  0.00     0.016 C 
HETATM   29  C11 UNL     1       4.173  -3.044  14.368  1.00  0.00     0.034 A 
HETATM   30  C34 UNL     1       3.697  -4.225  15.030  1.00  0.00    -0.033 A 
HETATM   31  C35 UNL     1       2.208  -4.562  14.797  1.00  0.00     0.016 C 
HETATM   32  C36 UNL     1       4.471  -5.442  15.417  1.00  0.00     0.016 C 
BRANCH  25  33
HETATM   33  C6  UNL     1       7.368  -3.340  15.813  1.00  0.00     0.140 C 
HETATM   34  O2  UNL     1       7.322  -4.503  16.038  1.00  0.00    -0.297 OA
BRANCH  33  35
HETATM   35  C5  UNL     1       8.683  -2.666  15.742  1.00  0.00     0.157 C 
BRANCH  35  36
HETATM   36  C4  UNL     1       9.861  -3.534  15.777  1.00  0.00     0.133 C 
HETATM   37  O1  UNL     1      10.190  -4.050  14.677  1.00  0.00    -0.298 OA
BRANCH  36  38
HETATM   38  C3  UNL     1      10.681  -3.854  16.944  1.00  0.00     0.078 C 
BRANCH  38  39
HETATM   39  C2  UNL     1      10.079  -5.035  17.704  1.00  0.00     0.003 C 
HETATM   40  C1  UNL     1      10.411  -6.356  17.053  1.00  0.00     0.005 C 
ENDBRANCH  38  39
ENDBRANCH  36  38
ENDBRANCH  35  36
ENDBRANCH  33  35
ENDBRANCH  25  33
BRANCH  24  41
HETATM   41  C13 UNL     1       6.268  -3.117  13.125  1.00  0.00     0.196 C 
BRANCH  41  42
HETATM   42  O3  UNL     1       5.307  -3.119  12.070  1.00  0.00    -0.398 OA
ATOM     43  H3  UNL     1       5.620  -3.783  11.466  1.00  0.00     0.209 HD
ENDBRANCH  41  42
ENDBRANCH  24  41
ENDBRANCH  21  24
ENDBRANCH  19  20
ENDBRANCH   1  19
BRANCH  15  44
HETATM   44  C29 UNL     1       3.826   1.571  11.913  1.00  0.00     0.269 C 
BRANCH  44  45
HETATM   45  N3  UNL     1       3.350   0.308  11.298  1.00  0.00    -0.067 N 
ATOM     46  H33 UNL     1       3.858   0.061  10.448  1.00  0.00     0.275 HD
ATOM     47  H32 UNL     1       3.595  -0.519  11.842  1.00  0.00     0.275 HD
ATOM     48  H31 UNL     1       2.345   0.405  11.148  1.00  0.00     0.275 HD
ENDBRANCH  44  45
BRANCH  44  49
HETATM   49  C30 UNL     1       2.668   2.480  11.849  1.00  0.00     0.266 C 
HETATM   50  O9  UNL     1       2.090   2.632  10.781  1.00  0.00    -0.305 OA
ENDBRANCH  44  49
ENDBRANCH  15  44
BRANCH   9  51
HETATM   51  O7  UNL     1       5.561   3.388   7.743  1.00  0.00    -0.379 OA
HETATM   52  C25 UNL     1       4.540   3.645   6.967  1.00  0.00     0.203 C 
ENDBRANCH   9  51
BRANCH   8  53
HETATM   53  C23 UNL     1       7.509   6.360   7.065  1.00  0.00     0.239 C 
HETATM   54  O6  UNL     1       6.857   7.404   6.880  1.00  0.00    -0.306 OA
ENDBRANCH   8  53
TORSDOF 15
ENDMDL
MODEL 4
REMARK VINA RESULT: -8.197243787      1.240      1.492
REMARK  15 active torsions:
REMARK  status: ('A' for Active; 'I' for Inactive)
REMARK    1  A    between atoms: C2_2  and  C3_3 
REMARK    2  A    between atoms: C3_3  and  C4_4 
REMARK    3  A    between atoms: C4_4  and  C5_6 
REMARK    4  A    between atoms: C5_6  and  C6_7 
REMARK    5  A    between atoms: C6_7  and  C7_9 
REMARK    6  A    between atoms: C12_14  and  C13_15 
REMARK    7  A    between atoms: C12_14  and  N1_18 
REMARK    8  A    between atoms: C13_15  and  O3_16 
REMARK       I    between atoms: N1_18  and  C14_20 
REMARK    9  A    between atoms: C14_20  and  O5_22 
REMARK   10  A    between atoms: O5_22  and  C15_23 
REMARK   11  A    between atoms: C22_30  and  C23_31 
REMARK   12  A    between atoms: C24_33  and  O7_34 
REMARK   13  A    between atoms: C28_41  and  C29_42 
REMARK   14  A    between atoms: C29_42  and  N3_43 
REMARK   15  A    between atoms: C29_42  and  C30_47 
ROOT
HETATM    1  C15 UNL     1       6.203   1.645  11.720  1.00  0.00     0.159 C 
HETATM    2  C16 UNL     1       7.178   2.764  11.912  1.00  0.00     0.040 C 
HETATM    3  C17 UNL     1       7.923   3.283  10.766  1.00  0.00     0.001 C 
HETATM    4  C18 UNL     1       7.933   2.491   9.513  1.00  0.00     0.042 C 
HETATM    5  C19 UNL     1       7.851   3.260   8.252  1.00  0.00    -0.048 C 
HETATM    6  C20 UNL     1       8.546   3.312   7.167  1.00  0.00    -0.020 C 
HETATM    7  C21 UNL     1       7.996   4.289   6.197  1.00  0.00     0.042 C 
HETATM    8  C22 UNL     1       7.007   5.118   6.999  1.00  0.00     0.090 C 
HETATM    9  C24 UNL     1       6.678   4.211   8.139  1.00  0.00     0.106 C 
HETATM   10  C26 UNL     1       6.526   4.857   9.456  1.00  0.00     0.125 C 
HETATM   11  C27 UNL     1       5.258   4.565  10.163  1.00  0.00     0.226 C 
HETATM   12  O8  UNL     1       4.453   5.558  10.197  1.00  0.00    -0.273 OA
HETATM   13  N2  UNL     1       4.722   3.412  10.831  1.00  0.00    -0.351 N 
ATOM     14  H2  UNL     1       3.897   3.695  11.358  1.00  0.00     0.163 HD
HETATM   15  C28 UNL     1       4.925   2.019  11.023  1.00  0.00     0.151 C 
HETATM   16  C31 UNL     1       7.661   4.762  10.439  1.00  0.00    -0.028 C 
HETATM   17  C32 UNL     1       7.195   5.485  11.714  1.00  0.00     0.016 C 
HETATM   18  C33 UNL     1       8.903   5.513  10.138  1.00  0.00     0.016 C 
ENDROOT
BRANCH   1  19
HETATM   19  O5  UNL     1       5.908   0.935  12.871  1.00  0.00    -0.296 OA
BRANCH  19  20
HETATM   20  C14 UNL     1       6.332  -0.256  13.315  1.00  0.00     0.361 C 
HETATM   21  N1  UNL     1       5.426  -1.214  13.792  1.00  0.00    -0.324 N 
ATOM     22  H1  UNL     1       4.436  -0.970  13.791  1.00  0.00     0.165 HD
HETATM   23  O4  UNL     1       7.546  -0.499  13.298  1.00  0.00    -0.238 OA
BRANCH  21  24
HETATM   24  C12 UNL     1       5.802  -2.554  14.296  1.00  0.00     0.071 C 
HETATM   25  C7  UNL     1       6.615  -2.333  15.479  1.00  0.00     0.087 C 
HETATM   26  C8  UNL     1       5.707  -2.644  16.664  1.00  0.00     0.025 C 
HETATM   27  C9  UNL     1       4.379  -3.014  16.096  1.00  0.00    -0.029 A 
HETATM   28  C10 UNL     1       3.142  -2.253  16.515  1.00  0.00     0.016 C 
HETATM   29  C11 UNL     1       4.515  -3.232  14.644  1.00  0.00     0.034 A 
HETATM   30  C34 UNL     1       4.269  -4.377  15.472  1.00  0.00    -0.033 A 
HETATM   31  C35 UNL     1       2.807  -4.873  15.501  1.00  0.00     0.016 C 
HETATM   32  C36 UNL     1       5.217  -5.472  15.841  1.00  0.00     0.016 C 
BRANCH  25  33
HETATM   33  C6  UNL     1       7.899  -3.080  15.601  1.00  0.00     0.140 C 
HETATM   34  O2  UNL     1       8.819  -2.997  14.859  1.00  0.00    -0.297 OA
BRANCH  33  35
HETATM   35  C5  UNL     1       7.984  -3.990  16.764  1.00  0.00     0.157 C 
BRANCH  35  36
HETATM   36  C4  UNL     1       9.091  -4.948  16.761  1.00  0.00     0.133 C 
HETATM   37  O1  UNL     1      10.168  -4.536  17.265  1.00  0.00    -0.298 OA
BRANCH  36  38
HETATM   38  C3  UNL     1       9.069  -6.313  16.238  1.00  0.00     0.078 C 
BRANCH  38  39
HETATM   39  C2  UNL     1       8.269  -7.222  17.171  1.00  0.00     0.003 C 
HETATM   40  C1  UNL     1       8.822  -8.625  17.205  1.00  0.00     0.005 C 
ENDBRANCH  38  39
ENDBRANCH  36  38
ENDBRANCH  35  36
ENDBRANCH  33  35
ENDBRANCH  25  33
BRANCH  24  41
HETATM   41  C13 UNL     1       6.406  -3.238  13.106  1.00  0.00     0.196 C 
BRANCH  41  42
HETATM   42  O3  UNL     1       5.402  -3.147  12.095  1.00  0.00    -0.398 OA
ATOM     43  H3  UNL     1       5.526  -3.928  11.567  1.00  0.00     0.209 HD
ENDBRANCH  41  42
ENDBRANCH  24  41
ENDBRANCH  21  24
ENDBRANCH  19  20
ENDBRANCH   1  19
BRANCH  15  44
HETATM   44  C29 UNL     1       3.680   1.470  11.769  1.00  0.00     0.269 C 
BRANCH  44  45
HETATM   45  N3  UNL     1       3.446   0.091  11.274  1.00  0.00    -0.067 N 
ATOM     46  H33 UNL     1       4.032  -0.152  10.476  1.00  0.00     0.275 HD
ATOM     47  H32 UNL     1       3.790  -0.626  11.913  1.00  0.00     0.275 HD
ATOM     48  H31 UNL     1       2.448   0.006  11.078  1.00  0.00     0.275 HD
ENDBRANCH  44  45
BRANCH  44  49
HETATM   49  C30 UNL     1       2.447   2.204  11.432  1.00  0.00     0.266 C 
HETATM   50  O9  UNL     1       2.192   3.244  12.025  1.00  0.00    -0.305 OA
ENDBRANCH  44  49
ENDBRANCH  15  44
BRANCH   9  51
HETATM   51  O7  UNL     1       5.676   3.380   7.760  1.00  0.00    -0.379 OA
HETATM   52  C25 UNL     1       4.662   3.635   6.974  1.00  0.00     0.203 C 
ENDBRANCH   9  51
BRANCH   8  53
HETATM   53  C23 UNL     1       7.560   6.427   7.255  1.00  0.00     0.239 C 
HETATM   54  O6  UNL     1       6.916   7.449   6.956  1.00  0.00    -0.306 OA
ENDBRANCH   8  53
TORSDOF 15
ENDMDL
MODEL 5
REMARK VINA RESULT: -8.007838052      2.194      3.689
REMARK  15 active torsions:
REMARK  status: ('A' for Active; 'I' for Inactive)
REMARK    1  A    between atoms: C2_2  and  C3_3 
REMARK    2  A    between atoms: C3_3  and  C4_4 
REMARK    3  A    between atoms: C4_4  and  C5_6 
REMARK    4  A    between atoms: C5_6  and  C6_7 
REMARK    5  A    between atoms: C6_7  and  C7_9 
REMARK    6  A    between atoms: C12_14  and  C13_15 
REMARK    7  A    between atoms: C12_14  and  N1_18 
REMARK    8  A    between atoms: C13_15  and  O3_16 
REMARK       I    between atoms: N1_18  and  C14_20 
REMARK    9  A    between atoms: C14_20  and  O5_22 
REMARK   10  A    between atoms: O5_22  and  C15_23 
REMARK   11  A    between atoms: C22_30  and  C23_31 
REMARK   12  A    between atoms: C24_33  and  O7_34 
REMARK   13  A    between atoms: C28_41  and  C29_42 
REMARK   14  A    between atoms: C29_42  and  N3_43 
REMARK   15  A    between atoms: C29_42  and  C30_47 
ROOT
HETATM    1  C15 UNL     1       4.939   2.772  10.516  1.00  0.00     0.159 C 
HETATM    2  C16 UNL     1       6.304   3.387  10.490  1.00  0.00     0.040 C 
HETATM    3  C17 UNL     1       7.203   3.116   9.370  1.00  0.00     0.001 C 
HETATM    4  C18 UNL     1       6.869   2.002   8.451  1.00  0.00     0.042 C 
HETATM    5  C19 UNL     1       7.132   2.236   7.015  1.00  0.00    -0.048 C 
HETATM    6  C20 UNL     1       7.782   1.613   6.091  1.00  0.00    -0.020 C 
HETATM    7  C21 UNL     1       7.714   2.316   4.788  1.00  0.00     0.042 C 
HETATM    8  C22 UNL     1       7.182   3.700   5.120  1.00  0.00     0.090 C 
HETATM    9  C24 UNL     1       6.490   3.474   6.424  1.00  0.00     0.106 C 
HETATM   10  C26 UNL     1       6.631   4.546   7.426  1.00  0.00     0.125 C 
HETATM   11  C27 UNL     1       5.361   5.065   7.984  1.00  0.00     0.226 C 
HETATM   12  O8  UNL     1       5.067   6.240   7.574  1.00  0.00    -0.273 OA
HETATM   13  N2  UNL     1       4.376   4.547   8.891  1.00  0.00    -0.351 N 
ATOM     14  H2  UNL     1       3.755   5.308   9.166  1.00  0.00     0.163 HD
HETATM   15  C28 UNL     1       3.952   3.360   9.546  1.00  0.00     0.151 C 
HETATM   16  C31 UNL     1       7.610   4.353   8.552  1.00  0.00    -0.028 C 
HETATM   17  C32 UNL     1       7.502   5.603   9.442  1.00  0.00     0.016 C 
HETATM   18  C33 UNL     1       9.055   4.375   8.225  1.00  0.00     0.016 C 
ENDROOT
BRANCH   1  19
HETATM   19  O5  UNL     1       4.363   2.701  11.772  1.00  0.00    -0.296 OA
BRANCH  19  20
HETATM   20  C14 UNL     1       4.142   1.666  12.592  1.00  0.00     0.361 C 
HETATM   21  N1  UNL     1       5.206   0.946  13.152  1.00  0.00    -0.324 N 
ATOM     22  H1  UNL     1       6.153   1.236  12.909  1.00  0.00     0.165 HD
HETATM   23  O4  UNL     1       2.972   1.352  12.851  1.00  0.00    -0.238 OA
BRANCH  21  24
HETATM   24  C12 UNL     1       5.057  -0.205  14.071  1.00  0.00     0.071 C 
HETATM   25  C7  UNL     1       4.497  -1.289  13.282  1.00  0.00     0.087 C 
HETATM   26  C8  UNL     1       5.657  -2.240  13.011  1.00  0.00     0.025 C 
HETATM   27  C9  UNL     1       6.861  -1.635  13.649  1.00  0.00    -0.029 A 
HETATM   28  C10 UNL     1       8.091  -1.351  12.818  1.00  0.00     0.016 C 
HETATM   29  C11 UNL     1       6.439  -0.535  14.535  1.00  0.00     0.034 A 
HETATM   30  C34 UNL     1       6.948  -1.730  15.147  1.00  0.00    -0.033 A 
HETATM   31  C35 UNL     1       8.420  -1.662  15.612  1.00  0.00     0.016 C 
HETATM   32  C36 UNL     1       6.193  -2.777  15.898  1.00  0.00     0.016 C 
BRANCH  25  33
HETATM   33  C6  UNL     1       3.333  -2.036  13.837  1.00  0.00     0.140 C 
HETATM   34  O2  UNL     1       2.284  -1.566  14.125  1.00  0.00    -0.297 OA
BRANCH  33  35
HETATM   35  C5  UNL     1       3.556  -3.486  14.028  1.00  0.00     0.157 C 
BRANCH  35  36
HETATM   36  C4  UNL     1       2.776  -4.130  15.086  1.00  0.00     0.133 C 
HETATM   37  O1  UNL     1       1.697  -4.664  14.719  1.00  0.00    -0.298 OA
BRANCH  36  38
HETATM   38  C3  UNL     1       3.121  -4.212  16.504  1.00  0.00     0.078 C 
BRANCH  38  39
HETATM   39  C2  UNL     1       3.648  -5.606  16.839  1.00  0.00     0.003 C 
HETATM   40  C1  UNL     1       3.838  -5.799  18.323  1.00  0.00     0.005 C 
ENDBRANCH  38  39
ENDBRANCH  36  38
ENDBRANCH  35  36
ENDBRANCH  33  35
ENDBRANCH  25  33
BRANCH  24  41
HETATM   41  C13 UNL     1       4.274   0.345  15.225  1.00  0.00     0.196 C 
BRANCH  41  42
HETATM   42  O3  UNL     1       5.255   0.609  16.228  1.00  0.00    -0.398 OA
ATOM     43  H3  UNL     1       4.795   1.126  16.879  1.00  0.00     0.209 HD
ENDBRANCH  41  42
ENDBRANCH  24  41
ENDBRANCH  21  24
ENDBRANCH  19  20
ENDBRANCH   1  19
BRANCH  15  44
HETATM   44  C29 UNL     1       2.591   3.667  10.224  1.00  0.00     0.269 C 
BRANCH  44  45
HETATM   45  N3  UNL     1       1.812   2.404  10.234  1.00  0.00    -0.067 N 
ATOM     46  H33 UNL     1       2.104   1.749   9.508  1.00  0.00     0.275 HD
ATOM     47  H32 UNL     1       2.020   1.812  11.037  1.00  0.00     0.275 HD
ATOM     48  H31 UNL     1       0.826   2.658  10.169  1.00  0.00     0.275 HD
ENDBRANCH  44  45
BRANCH  44  49
HETATM   49  C30 UNL     1       1.769   4.610   9.446  1.00  0.00     0.266 C 
HETATM   50  O9  UNL     1       1.477   4.333   8.290  1.00  0.00    -0.305 OA
ENDBRANCH  44  49
ENDBRANCH  15  44
BRANCH   9  51
HETATM   51  O7  UNL     1       5.227   3.046   6.178  1.00  0.00    -0.379 OA
HETATM   52  C25 UNL     1       4.389   3.467   5.266  1.00  0.00     0.203 C 
ENDBRANCH   9  51
BRANCH   8  53
HETATM   53  C23 UNL     1       8.249   4.669   5.029  1.00  0.00     0.239 C 
HETATM   54  O6  UNL     1       9.388   4.316   4.671  1.00  0.00    -0.306 OA
ENDBRANCH   8  53
TORSDOF 15
ENDMDL
