MODEL 1
REMARK VINA RESULT: -7.731492298      0.000      0.000
REMARK  9 active torsions:
REMARK  status: ('A' for Active; 'I' for Inactive)
REMARK    1  A    between atoms: C2_2  and  C5_5 
REMARK       I    between atoms: C5_5  and  N1_7 
REMARK    2  A    between atoms: C8_10  and  C9_11 
REMARK       I    between atoms: C9_11  and  N2_13 
REMARK    3  A    between atoms: N2_13  and  C10_15 
REMARK    4  A    between atoms: C10_15  and  C11_16 
REMARK    5  A    between atoms: C11_16  and  C12_17 
REMARK    6  A    between atoms: C12_17  and  C13_18 
REMARK       I    between atoms: C13_18  and  N3_20 
REMARK    7  A    between atoms: N3_20  and  C14_22 
REMARK    8  A    between atoms: C14_22  and  C15_23 
REMARK    9  A    between atoms: C15_23  and  C16_24 
ROOT
HETATM    1  C9  UNL     1      -8.935  15.490  24.449  1.00  0.00     0.221 C 
HETATM    2  O2  UNL     1      -7.940  14.799  24.123  1.00  0.00    -0.273 OA
HETATM    3  N2  UNL     1      -9.863  15.885  23.469  1.00  0.00    -0.361 N 
ATOM      4  H2  UNL     1     -10.674  16.445  23.732  1.00  0.00     0.162 HD
ENDROOT
BRANCH   3   5
HETATM    5  C10 UNL     1      -9.671  15.499  22.095  1.00  0.00     0.123 C 
BRANCH   5   6
HETATM    6  C11 UNL     1      -9.194  16.638  21.246  1.00  0.00     0.029 C 
BRANCH   6   7
HETATM    7  C12 UNL     1      -7.741  16.486  20.866  1.00  0.00     0.104 C 
BRANCH   7   8
HETATM    8  C13 UNL     1      -6.905  17.436  21.641  1.00  0.00     0.217 C 
HETATM    9  O3  UNL     1      -6.874  18.641  21.291  1.00  0.00    -0.274 OA
HETATM   10  N3  UNL     1      -6.151  17.006  22.759  1.00  0.00    -0.361 N 
ATOM     11  H3  UNL     1      -6.203  16.020  23.011  1.00  0.00     0.162 HD
BRANCH  10  12
HETATM   12  C14 UNL     1      -5.320  17.851  23.563  1.00  0.00     0.123 C 
BRANCH  12  13
HETATM   13  C15 UNL     1      -4.775  17.185  24.805  1.00  0.00     0.024 C 
BRANCH  13  14
HETATM   14  C16 UNL     1      -5.746  17.456  25.941  1.00  0.00    -0.013 C 
HETATM   15  C17 UNL     1      -6.123  18.896  26.078  1.00  0.00     0.005 C 
HETATM   16  C18 UNL     1      -6.678  19.154  27.435  1.00  0.00     0.000 C 
HETATM   17  C19 UNL     1      -7.308  17.944  28.094  1.00  0.00     0.000 C 
HETATM   18  C20 UNL     1      -6.320  16.801  28.204  1.00  0.00     0.000 C 
HETATM   19  C21 UNL     1      -5.143  17.007  27.273  1.00  0.00     0.005 C 
ENDBRANCH  13  14
ENDBRANCH  12  13
ENDBRANCH  10  12
ENDBRANCH   7   8
ENDBRANCH   6   7
ENDBRANCH   5   6
ENDBRANCH   3   5
BRANCH   1  20
HETATM   20  C8  UNL     1      -9.169  15.911  25.865  1.00  0.00     0.081 C 
HETATM   21  C7  UNL     1      -9.016  14.685  26.733  1.00  0.00     0.034 C 
HETATM   22  C6  UNL     1      -9.555  14.913  28.129  1.00  0.00     0.126 C 
HETATM   23  N1  UNL     1     -10.768  15.658  28.146  1.00  0.00    -0.351 N 
HETATM   24  C5  UNL     1     -11.944  15.271  28.802  1.00  0.00     0.227 C 
HETATM   25  C23 UNL     1     -10.764  16.930  27.407  1.00  0.00     0.126 C 
HETATM   26  O1  UNL     1     -12.947  16.066  28.722  1.00  0.00    -0.273 OA
HETATM   27  C22 UNL     1     -10.529  16.525  25.946  1.00  0.00     0.034 C 
BRANCH  24  28
HETATM   28  C2  UNL     1     -12.163  14.046  29.577  1.00  0.00     0.030 C 
HETATM   29  C1  UNL     1     -12.015  12.852  28.660  1.00  0.00     0.025 C 
HETATM   30  C3  UNL     1     -13.590  14.007  30.120  1.00  0.00     0.025 C 
HETATM   31  C4  UNL     1     -11.220  13.931  30.755  1.00  0.00     0.025 C 
ENDBRANCH  24  28
ENDBRANCH   1  20
TORSDOF 9
ENDMDL
MODEL 2
REMARK VINA RESULT: -7.709072859      1.184      1.419
REMARK  9 active torsions:
REMARK  status: ('A' for Active; 'I' for Inactive)
REMARK    1  A    between atoms: C2_2  and  C5_5 
REMARK       I    between atoms: C5_5  and  N1_7 
REMARK    2  A    between atoms: C8_10  and  C9_11 
REMARK       I    between atoms: C9_11  and  N2_13 
REMARK    3  A    between atoms: N2_13  and  C10_15 
REMARK    4  A    between atoms: C10_15  and  C11_16 
REMARK    5  A    between atoms: C11_16  and  C12_17 
REMARK    6  A    between atoms: C12_17  and  C13_18 
REMARK       I    between atoms: C13_18  and  N3_20 
REMARK    7  A    between atoms: N3_20  and  C14_22 
REMARK    8  A    between atoms: C14_22  and  C15_23 
REMARK    9  A    between atoms: C15_23  and  C16_24 
ROOT
HETATM    1  C9  UNL     1      -8.955  15.539  24.614  1.00  0.00     0.221 C 
HETATM    2  O2  UNL     1      -8.203  14.684  24.086  1.00  0.00    -0.273 OA
HETATM    3  N2  UNL     1     -10.107  15.972  23.933  1.00  0.00    -0.361 N 
ATOM      4  H2  UNL     1     -10.722  16.665  24.360  1.00  0.00     0.162 HD
ENDROOT
BRANCH   3   5
HETATM    5  C10 UNL     1     -10.421  15.438  22.632  1.00  0.00     0.123 C 
BRANCH   5   6
HETATM    6  C11 UNL     1     -10.134  16.415  21.533  1.00  0.00     0.029 C 
BRANCH   6   7
HETATM    7  C12 UNL     1      -8.801  16.147  20.877  1.00  0.00     0.104 C 
BRANCH   7   8
HETATM    8  C13 UNL     1      -7.826  17.205  21.241  1.00  0.00     0.217 C 
HETATM    9  O3  UNL     1      -7.769  18.244  20.539  1.00  0.00    -0.274 OA
HETATM   10  N3  UNL     1      -6.970  17.060  22.359  1.00  0.00    -0.361 N 
ATOM     11  H3  UNL     1      -7.048  16.201  22.903  1.00  0.00     0.162 HD
BRANCH  10  12
HETATM   12  C14 UNL     1      -6.003  18.027  22.783  1.00  0.00     0.123 C 
BRANCH  12  13
HETATM   13  C15 UNL     1      -4.883  17.458  23.622  1.00  0.00     0.024 C 
BRANCH  13  14
HETATM   14  C16 UNL     1      -5.326  17.496  25.074  1.00  0.00    -0.013 C 
HETATM   15  C17 UNL     1      -6.001  18.771  25.463  1.00  0.00     0.005 C 
HETATM   16  C18 UNL     1      -5.989  18.928  26.944  1.00  0.00     0.000 C 
HETATM   17  C19 UNL     1      -5.917  17.624  27.711  1.00  0.00     0.000 C 
HETATM   18  C20 UNL     1      -4.695  16.821  27.316  1.00  0.00     0.000 C 
HETATM   19  C21 UNL     1      -4.123  17.309  26.001  1.00  0.00     0.005 C 
ENDBRANCH  13  14
ENDBRANCH  12  13
ENDBRANCH  10  12
ENDBRANCH   7   8
ENDBRANCH   6   7
ENDBRANCH   5   6
ENDBRANCH   3   5
BRANCH   1  20
HETATM   20  C8  UNL     1      -8.664  16.117  25.962  1.00  0.00     0.081 C 
HETATM   21  C7  UNL     1      -8.449  14.963  26.912  1.00  0.00     0.034 C 
HETATM   22  C6  UNL     1      -8.479  15.411  28.357  1.00  0.00     0.126 C 
HETATM   23  N1  UNL     1      -9.488  16.381  28.621  1.00  0.00    -0.351 N 
HETATM   24  C5  UNL     1     -10.447  16.292  29.639  1.00  0.00     0.227 C 
HETATM   25  C23 UNL     1      -9.509  17.559  27.741  1.00  0.00     0.126 C 
HETATM   26  O1  UNL     1     -11.282  17.261  29.743  1.00  0.00    -0.273 OA
HETATM   27  C22 UNL     1      -9.811  16.993  26.348  1.00  0.00     0.034 C 
BRANCH  24  28
HETATM   28  C2  UNL     1     -10.609  15.205  30.610  1.00  0.00     0.030 C 
HETATM   29  C1  UNL     1     -11.086  13.967  29.884  1.00  0.00     0.025 C 
HETATM   30  C3  UNL     1     -11.689  15.559  31.630  1.00  0.00     0.025 C 
HETATM   31  C4  UNL     1      -9.334  14.916  31.372  1.00  0.00     0.025 C 
ENDBRANCH  24  28
ENDBRANCH   1  20
TORSDOF 9
ENDMDL
MODEL 3
REMARK VINA RESULT: -7.671217236      1.675      2.272
REMARK  9 active torsions:
REMARK  status: ('A' for Active; 'I' for Inactive)
REMARK    1  A    between atoms: C2_2  and  C5_5 
REMARK       I    between atoms: C5_5  and  N1_7 
REMARK    2  A    between atoms: C8_10  and  C9_11 
REMARK       I    between atoms: C9_11  and  N2_13 
REMARK    3  A    between atoms: N2_13  and  C10_15 
REMARK    4  A    between atoms: C10_15  and  C11_16 
REMARK    5  A    between atoms: C11_16  and  C12_17 
REMARK    6  A    between atoms: C12_17  and  C13_18 
REMARK       I    between atoms: C13_18  and  N3_20 
REMARK    7  A    between atoms: N3_20  and  C14_22 
REMARK    8  A    between atoms: C14_22  and  C15_23 
REMARK    9  A    between atoms: C15_23  and  C16_24 
ROOT
HETATM    1  C9  UNL     1      -9.061  16.453  24.092  1.00  0.00     0.221 C 
HETATM    2  O2  UNL     1      -8.407  17.503  24.300  1.00  0.00    -0.273 OA
HETATM    3  N2  UNL     1      -9.292  16.023  22.772  1.00  0.00    -0.361 N 
ATOM      4  H2  UNL     1      -9.821  15.169  22.600  1.00  0.00     0.162 HD
ENDROOT
BRANCH   3   5
HETATM    5  C10 UNL     1      -8.780  16.788  21.664  1.00  0.00     0.123 C 
BRANCH   5   6
HETATM    6  C11 UNL     1      -7.487  16.239  21.144  1.00  0.00     0.029 C 
BRANCH   6   7
HETATM    7  C12 UNL     1      -6.551  17.335  20.696  1.00  0.00     0.104 C 
BRANCH   7   8
HETATM    8  C13 UNL     1      -5.951  18.012  21.873  1.00  0.00     0.217 C 
HETATM    9  O3  UNL     1      -6.380  19.145  22.204  1.00  0.00    -0.274 OA
HETATM   10  N3  UNL     1      -4.915  17.404  22.621  1.00  0.00    -0.361 N 
ATOM     11  H3  UNL     1      -4.595  16.484  22.320  1.00  0.00     0.162 HD
BRANCH  10  12
HETATM   12  C14 UNL     1      -4.281  17.983  23.767  1.00  0.00     0.123 C 
BRANCH  12  13
HETATM   13  C15 UNL     1      -4.177  17.053  24.954  1.00  0.00     0.024 C 
BRANCH  13  14
HETATM   14  C16 UNL     1      -5.295  17.406  25.919  1.00  0.00    -0.013 C 
HETATM   15  C17 UNL     1      -5.648  18.858  25.924  1.00  0.00     0.005 C 
HETATM   16  C18 UNL     1      -6.387  19.203  27.170  1.00  0.00     0.000 C 
HETATM   17  C19 UNL     1      -7.139  18.044  27.792  1.00  0.00     0.000 C 
HETATM   18  C20 UNL     1      -6.210  16.890  28.105  1.00  0.00     0.000 C 
HETATM   19  C21 UNL     1      -4.904  17.021  27.347  1.00  0.00     0.005 C 
ENDBRANCH  13  14
ENDBRANCH  12  13
ENDBRANCH  10  12
ENDBRANCH   7   8
ENDBRANCH   6   7
ENDBRANCH   5   6
ENDBRANCH   3   5
BRANCH   1  20
HETATM   20  C8  UNL     1      -9.609  15.632  25.215  1.00  0.00     0.081 C 
HETATM   21  C7  UNL     1     -10.579  16.502  25.979  1.00  0.00     0.034 C 
HETATM   22  C6  UNL     1     -10.939  15.899  27.320  1.00  0.00     0.126 C 
HETATM   23  N1  UNL     1      -9.827  15.308  27.985  1.00  0.00    -0.351 N 
HETATM   24  C5  UNL     1      -9.435  15.581  29.302  1.00  0.00     0.227 C 
HETATM   25  C23 UNL     1      -9.041  14.339  27.206  1.00  0.00     0.126 C 
HETATM   26  O1  UNL     1      -8.411  14.952  29.749  1.00  0.00    -0.273 OA
HETATM   27  C22 UNL     1      -8.461  15.158  26.046  1.00  0.00     0.034 C 
BRANCH  24  28
HETATM   28  C2  UNL     1     -10.068  16.514  30.239  1.00  0.00     0.030 C 
HETATM   29  C1  UNL     1      -9.098  16.816  31.360  1.00  0.00     0.025 C 
HETATM   30  C3  UNL     1     -11.296  15.874  30.881  1.00  0.00     0.025 C 
HETATM   31  C4  UNL     1     -10.516  17.794  29.567  1.00  0.00     0.025 C 
ENDBRANCH  24  28
ENDBRANCH   1  20
TORSDOF 9
ENDMDL
MODEL 4
REMARK VINA RESULT: -7.641694518      2.750      8.395
REMARK  9 active torsions:
REMARK  status: ('A' for Active; 'I' for Inactive)
REMARK    1  A    between atoms: C2_2  and  C5_5 
REMARK       I    between atoms: C5_5  and  N1_7 
REMARK    2  A    between atoms: C8_10  and  C9_11 
REMARK       I    between atoms: C9_11  and  N2_13 
REMARK    3  A    between atoms: N2_13  and  C10_15 
REMARK    4  A    between atoms: C10_15  and  C11_16 
REMARK    5  A    between atoms: C11_16  and  C12_17 
REMARK    6  A    between atoms: C12_17  and  C13_18 
REMARK       I    between atoms: C13_18  and  N3_20 
REMARK    7  A    between atoms: N3_20  and  C14_22 
REMARK    8  A    between atoms: C14_22  and  C15_23 
REMARK    9  A    between atoms: C15_23  and  C16_24 
ROOT
HETATM    1  C9  UNL     1     -11.135  14.611  27.894  1.00  0.00     0.221 C 
HETATM    2  O2  UNL     1     -11.976  15.541  27.938  1.00  0.00    -0.273 OA
HETATM    3  N2  UNL     1     -11.333  13.452  28.666  1.00  0.00    -0.361 N 
ATOM      4  H2  UNL     1     -10.652  12.694  28.630  1.00  0.00     0.162 HD
ENDROOT
BRANCH   3   5
HETATM    5  C10 UNL     1     -12.497  13.335  29.507  1.00  0.00     0.123 C 
BRANCH   5   6
HETATM    6  C11 UNL     1     -12.449  12.115  30.376  1.00  0.00     0.029 C 
BRANCH   6   7
HETATM    7  C12 UNL     1     -13.704  11.962  31.199  1.00  0.00     0.104 C 
BRANCH   7   8
HETATM    8  C13 UNL     1     -13.629  12.810  32.415  1.00  0.00     0.217 C 
HETATM    9  O3  UNL     1     -14.667  13.393  32.813  1.00  0.00    -0.274 OA
HETATM   10  N3  UNL     1     -12.416  12.967  33.127  1.00  0.00    -0.361 N 
ATOM     11  H3  UNL     1     -11.595  12.476  32.772  1.00  0.00     0.162 HD
BRANCH  10  12
HETATM   12  C14 UNL     1     -12.253  13.761  34.307  1.00  0.00     0.123 C 
BRANCH  12  13
HETATM   13  C15 UNL     1     -12.013  15.229  34.038  1.00  0.00     0.024 C 
BRANCH  13  14
HETATM   14  C16 UNL     1     -10.635  15.368  33.415  1.00  0.00    -0.013 C 
HETATM   15  C17 UNL     1      -9.797  16.433  34.044  1.00  0.00     0.005 C 
HETATM   16  C18 UNL     1      -8.689  16.822  33.128  1.00  0.00     0.000 C 
HETATM   17  C19 UNL     1      -8.270  15.738  32.156  1.00  0.00     0.000 C 
HETATM   18  C20 UNL     1      -9.437  15.277  31.308  1.00  0.00     0.000 C 
HETATM   19  C21 UNL     1     -10.757  15.695  31.926  1.00  0.00     0.005 C 
ENDBRANCH  13  14
ENDBRANCH  12  13
ENDBRANCH  10  12
ENDBRANCH   7   8
ENDBRANCH   6   7
ENDBRANCH   5   6
ENDBRANCH   3   5
BRANCH   1  20
HETATM   20  C8  UNL     1      -9.915  14.695  27.034  1.00  0.00     0.081 C 
HETATM   21  C7  UNL     1      -8.755  15.061  27.930  1.00  0.00     0.034 C 
HETATM   22  C6  UNL     1      -7.545  15.500  27.134  1.00  0.00     0.126 C 
HETATM   23  N1  UNL     1      -7.877  16.320  26.018  1.00  0.00    -0.351 N 
HETATM   24  C5  UNL     1      -7.309  17.570  25.736  1.00  0.00     0.227 C 
HETATM   25  C23 UNL     1      -8.903  15.795  25.104  1.00  0.00     0.126 C 
HETATM   26  O1  UNL     1      -7.719  18.174  24.682  1.00  0.00    -0.273 OA
HETATM   27  C22 UNL     1     -10.172  15.703  25.961  1.00  0.00     0.034 C 
BRANCH  24  28
HETATM   28  C2  UNL     1      -6.289  18.274  26.518  1.00  0.00     0.030 C 
HETATM   29  C1  UNL     1      -6.969  19.052  27.624  1.00  0.00     0.025 C 
HETATM   30  C3  UNL     1      -5.562  19.296  25.647  1.00  0.00     0.025 C 
HETATM   31  C4  UNL     1      -5.249  17.337  27.092  1.00  0.00     0.025 C 
ENDBRANCH  24  28
ENDBRANCH   1  20
TORSDOF 9
ENDMDL
MODEL 5
REMARK VINA RESULT: -7.625449343      2.943      8.370
REMARK  9 active torsions:
REMARK  status: ('A' for Active; 'I' for Inactive)
REMARK    1  A    between atoms: C2_2  and  C5_5 
REMARK       I    between atoms: C5_5  and  N1_7 
REMARK    2  A    between atoms: C8_10  and  C9_11 
REMARK       I    between atoms: C9_11  and  N2_13 
REMARK    3  A    between atoms: N2_13  and  C10_15 
REMARK    4  A    between atoms: C10_15  and  C11_16 
REMARK    5  A    between atoms: C11_16  and  C12_17 
REMARK    6  A    between atoms: C12_17  and  C13_18 
REMARK       I    between atoms: C13_18  and  N3_20 
REMARK    7  A    between atoms: N3_20  and  C14_22 
REMARK    8  A    between atoms: C14_22  and  C15_23 
REMARK    9  A    between atoms: C15_23  and  C16_24 
ROOT
HETATM    1  C9  UNL     1     -10.762  14.688  27.900  1.00  0.00     0.221 C 
HETATM    2  O2  UNL     1      -9.857  13.822  27.981  1.00  0.00    -0.273 OA
HETATM    3  N2  UNL     1     -11.994  14.475  28.543  1.00  0.00    -0.361 N 
ATOM      4  H2  UNL     1     -12.730  15.179  28.480  1.00  0.00     0.162 HD
ENDROOT
BRANCH   3   5
HETATM    5  C10 UNL     1     -12.219  13.265  29.291  1.00  0.00     0.123 C 
BRANCH   5   6
HETATM    6  C11 UNL     1     -13.565  13.245  29.949  1.00  0.00     0.029 C 
BRANCH   6   7
HETATM    7  C12 UNL     1     -13.615  12.265  31.096  1.00  0.00     0.104 C 
BRANCH   7   8
HETATM    8  C13 UNL     1     -13.527  12.984  32.391  1.00  0.00     0.217 C 
HETATM    9  O3  UNL     1     -14.576  13.455  32.895  1.00  0.00    -0.274 OA
HETATM   10  N3  UNL     1     -12.290  13.142  33.060  1.00  0.00    -0.361 N 
ATOM     11  H3  UNL     1     -11.461  12.744  32.618  1.00  0.00     0.162 HD
BRANCH  10  12
HETATM   12  C14 UNL     1     -12.113  13.818  34.310  1.00  0.00     0.123 C 
BRANCH  12  13
HETATM   13  C15 UNL     1     -11.806  15.292  34.181  1.00  0.00     0.024 C 
BRANCH  13  14
HETATM   14  C16 UNL     1     -10.475  15.427  33.462  1.00  0.00    -0.013 C 
HETATM   15  C17 UNL     1      -9.598  16.500  34.019  1.00  0.00     0.005 C 
HETATM   16  C18 UNL     1      -8.558  16.883  33.024  1.00  0.00     0.000 C 
HETATM   17  C19 UNL     1      -8.204  15.789  32.037  1.00  0.00     0.000 C 
HETATM   18  C20 UNL     1      -9.427  15.318  31.277  1.00  0.00     0.000 C 
HETATM   19  C21 UNL     1     -10.702  15.738  31.981  1.00  0.00     0.005 C 
ENDBRANCH  13  14
ENDBRANCH  12  13
ENDBRANCH  10  12
ENDBRANCH   7   8
ENDBRANCH   6   7
ENDBRANCH   5   6
ENDBRANCH   3   5
BRANCH   1  20
HETATM   20  C8  UNL     1     -10.568  15.957  27.132  1.00  0.00     0.081 C 
HETATM   21  C7  UNL     1      -9.682  15.639  25.950  1.00  0.00     0.034 C 
HETATM   22  C6  UNL     1      -9.146  16.894  25.296  1.00  0.00     0.126 C 
HETATM   23  N1  UNL     1      -8.760  17.893  26.233  1.00  0.00    -0.351 N 
HETATM   24  C5  UNL     1      -7.517  18.540  26.260  1.00  0.00     0.227 C 
HETATM   25  C23 UNL     1      -9.761  18.258  27.248  1.00  0.00     0.126 C 
HETATM   26  O1  UNL     1      -7.338  19.424  27.171  1.00  0.00    -0.273 OA
HETATM   27  C22 UNL     1      -9.976  16.971  28.056  1.00  0.00     0.034 C 
BRANCH  24  28
HETATM   28  C2  UNL     1      -6.385  18.318  25.356  1.00  0.00     0.030 C 
HETATM   29  C1  UNL     1      -5.742  16.990  25.691  1.00  0.00     0.025 C 
HETATM   30  C3  UNL     1      -5.317  19.388  25.567  1.00  0.00     0.025 C 
HETATM   31  C4  UNL     1      -6.792  18.357  23.899  1.00  0.00     0.025 C 
ENDBRANCH  24  28
ENDBRANCH   1  20
TORSDOF 9
ENDMDL
