MODEL 1
REMARK VINA RESULT: -7.061982037      0.000      0.000
REMARK  13 active torsions:
REMARK  status: ('A' for Active; 'I' for Inactive)
REMARK    1  A    between atoms: C2_2  and  C3_3 
REMARK    2  A    between atoms: C3_3  and  C5_5 
REMARK    3  A    between atoms: C5_5  and  C6_6 
REMARK    4  A    between atoms: C8_11  and  C9_12 
REMARK    5  A    between atoms: C9_12  and  C10_13 
REMARK    6  A    between atoms: C18_24  and  C19_25 
REMARK       I    between atoms: C19_25  and  N3_27 
REMARK    7  A    between atoms: N3_27  and  C20_29 
REMARK    8  A    between atoms: C20_29  and  C22_31 
REMARK       I    between atoms: C22_31  and  N4_33 
REMARK    9  A    between atoms: C25_38  and  C26_39 
REMARK   10  A    between atoms: C26_39  and  C27_40 
REMARK   11  A    between atoms: C30_45  and  O6_46 
REMARK   12  A    between atoms: C31_48  and  C32_49 
REMARK   13  A    between atoms: C35_54  and  O7_55 
ROOT
HETATM    1  C6  UNL     1      17.735   5.332  18.515  1.00  0.00     0.182 C 
HETATM    2  N1  UNL     1      18.380   5.982  17.432  1.00  0.00    -0.344 N 
ATOM      3  H1  UNL     1      19.394   5.872  17.414  1.00  0.00     0.163 HD
HETATM    4  C7  UNL     1      17.856   6.751  16.382  1.00  0.00     0.241 C 
HETATM    5  O1  UNL     1      18.520   7.783  16.003  1.00  0.00    -0.271 OA
HETATM    6  C8  UNL     1      16.599   6.522  15.628  1.00  0.00     0.177 C 
HETATM    7  N2  UNL     1      16.126   7.671  14.928  1.00  0.00    -0.344 N 
ATOM      8  H2  UNL     1      15.642   7.455  14.056  1.00  0.00     0.163 HD
HETATM    9  C13 UNL     1      16.203   9.058  15.214  1.00  0.00     0.247 C 
HETATM   10  O2  UNL     1      16.919   9.767  14.402  1.00  0.00    -0.268 OA
HETATM   11  C14 UNL     1      15.606   9.861  16.282  1.00  0.00     0.006 C 
HETATM   12  C15 UNL     1      16.556  10.594  17.242  1.00  0.00     0.054 C 
HETATM   13  C16 UNL     1      14.276  10.052  16.446  1.00  0.00     0.013 C 
HETATM   14  C17 UNL     1      13.122   9.604  15.728  1.00  0.00     0.022 C 
HETATM   15  C18 UNL     1      12.373   8.505  15.715  1.00  0.00     0.080 C 
HETATM   16  C24 UNL     1      12.538   7.345  16.552  1.00  0.00     0.187 C 
HETATM   17  O5  UNL     1      12.762   6.229  15.957  1.00  0.00    -0.290 OA
HETATM   18  C25 UNL     1      12.495   7.181  18.068  1.00  0.00     0.159 C 
HETATM   19  N5  UNL     1      13.701   6.528  18.470  1.00  0.00    -0.358 N 
ATOM     20  H5  UNL     1      13.852   5.673  17.934  1.00  0.00     0.162 HD
HETATM   21  C30 UNL     1      14.719   6.728  19.380  1.00  0.00     0.160 C 
HETATM   22  C31 UNL     1      15.127   6.208  20.692  1.00  0.00     0.065 C 
HETATM   23  N6  UNL     1      16.610   6.071  20.757  1.00  0.00    -0.338 N 
ATOM     24  H6  UNL     1      16.992   5.911  21.689  1.00  0.00     0.167 HD
HETATM   25  C35 UNL     1      17.538   6.130  19.741  1.00  0.00     0.143 C 
ENDROOT
BRANCH  15  26
HETATM   26  C19 UNL     1      11.212   8.451  14.757  1.00  0.00     0.256 C 
HETATM   27  O3  UNL     1      10.140   9.048  15.086  1.00  0.00    -0.268 OA
HETATM   28  N3  UNL     1      11.224   7.791  13.525  1.00  0.00    -0.344 N 
ATOM     29  H3  UNL     1      12.071   7.304  13.235  1.00  0.00     0.163 HD
BRANCH  28  30
HETATM   30  C20 UNL     1      10.057   7.777  12.637  1.00  0.00     0.172 C 
HETATM   31  C21 UNL     1      10.089   8.963  11.684  1.00  0.00     0.042 C 
BRANCH  30  32
HETATM   32  C22 UNL     1      10.065   6.569  11.796  1.00  0.00     0.239 C 
HETATM   33  O4  UNL     1       9.958   5.442  12.322  1.00  0.00    -0.271 OA
HETATM   34  N4  UNL     1      10.193   6.673  10.397  1.00  0.00    -0.364 N 
HETATM   35  C23 UNL     1      10.206   5.492   9.538  1.00  0.00     0.149 C 
ATOM     36  H4  UNL     1      10.280   7.596   9.973  1.00  0.00     0.161 HD
ENDBRANCH  30  32
ENDBRANCH  28  30
ENDBRANCH  15  26
BRANCH  18  37
HETATM   37  C26 UNL     1      11.225   6.322  18.232  1.00  0.00     0.037 C 
BRANCH  37  38
HETATM   38  C27 UNL     1      10.721   6.232  19.636  1.00  0.00    -0.020 C 
HETATM   39  C28 UNL     1       9.515   7.111  19.861  1.00  0.00     0.009 C 
HETATM   40  C29 UNL     1      10.377   4.794  20.008  1.00  0.00     0.009 C 
ENDBRANCH  37  38
ENDBRANCH  18  37
BRANCH  21  41
HETATM   41  O6  UNL     1      15.653   7.634  19.062  1.00  0.00    -0.345 OA
ATOM     42  H6  UNL     1      15.959   8.203  19.758  1.00  0.00     0.219 HD
ENDBRANCH  21  41
BRANCH  22  43
HETATM   43  C32 UNL     1      14.438   5.116  21.351  1.00  0.00     0.032 C 
HETATM   44  C33 UNL     1      13.304   5.761  22.178  1.00  0.00     0.016 C 
HETATM   45  C34 UNL     1      15.176   4.219  22.261  1.00  0.00     0.016 C 
ENDBRANCH  22  43
BRANCH   6  46
HETATM   46  C9  UNL     1      16.693   5.333  14.708  1.00  0.00     0.038 C 
BRANCH  46  47
HETATM   47  C10 UNL     1      17.367   5.539  13.411  1.00  0.00    -0.020 C 
HETATM   48  C11 UNL     1      16.600   5.165  12.173  1.00  0.00     0.009 C 
HETATM   49  C12 UNL     1      18.680   4.741  13.319  1.00  0.00     0.009 C 
ENDBRANCH  46  47
ENDBRANCH   6  46
BRANCH  25  50
HETATM   50  O7  UNL     1      18.427   7.073  19.871  1.00  0.00    -0.348 OA
ATOM     51  H7  UNL     1      18.210   7.849  19.367  1.00  0.00     0.219 HD
ENDBRANCH  25  50
BRANCH   1  52
HETATM   52  C5  UNL     1      18.212   3.976  18.865  1.00  0.00     0.009 C 
BRANCH  52  53
HETATM   53  C3  UNL     1      18.218   2.872  17.907  1.00  0.00    -0.086 C 
HETATM   54  C4  UNL     1      19.337   2.855  16.888  1.00  0.00     0.043 C 
BRANCH  53  55
HETATM   55  C2  UNL     1      17.893   1.495  18.371  1.00  0.00     0.029 C 
HETATM   56  C1  UNL     1      19.200   0.681  18.263  1.00  0.00     0.010 C 
ENDBRANCH  53  55
ENDBRANCH  52  53
ENDBRANCH   1  52
TORSDOF 13
ENDMDL
MODEL 2
REMARK VINA RESULT: -6.749834037     14.345     18.524
REMARK  13 active torsions:
REMARK  status: ('A' for Active; 'I' for Inactive)
REMARK    1  A    between atoms: C2_2  and  C3_3 
REMARK    2  A    between atoms: C3_3  and  C5_5 
REMARK    3  A    between atoms: C5_5  and  C6_6 
REMARK    4  A    between atoms: C8_11  and  C9_12 
REMARK    5  A    between atoms: C9_12  and  C10_13 
REMARK    6  A    between atoms: C18_24  and  C19_25 
REMARK       I    between atoms: C19_25  and  N3_27 
REMARK    7  A    between atoms: N3_27  and  C20_29 
REMARK    8  A    between atoms: C20_29  and  C22_31 
REMARK       I    between atoms: C22_31  and  N4_33 
REMARK    9  A    between atoms: C25_38  and  C26_39 
REMARK   10  A    between atoms: C26_39  and  C27_40 
REMARK   11  A    between atoms: C30_45  and  O6_46 
REMARK   12  A    between atoms: C31_48  and  C32_49 
REMARK   13  A    between atoms: C35_54  and  O7_55 
ROOT
HETATM    1  C6  UNL     1      17.077  -5.223   7.947  1.00  0.00     0.182 C 
HETATM    2  N1  UNL     1      16.501  -6.409   8.468  1.00  0.00    -0.344 N 
ATOM      3  H1  UNL     1      16.740  -6.606   9.441  1.00  0.00     0.163 HD
HETATM    4  C7  UNL     1      15.658  -7.357   7.870  1.00  0.00     0.241 C 
HETATM    5  O1  UNL     1      15.847  -8.595   8.156  1.00  0.00    -0.271 OA
HETATM    6  C8  UNL     1      14.543  -7.112   6.922  1.00  0.00     0.177 C 
HETATM    7  N2  UNL     1      14.155  -8.264   6.174  1.00  0.00    -0.344 N 
ATOM      8  H2  UNL     1      13.161  -8.294   5.948  1.00  0.00     0.163 HD
HETATM    9  C13 UNL     1      14.890  -9.374   5.687  1.00  0.00     0.247 C 
HETATM   10  O2  UNL     1      14.598 -10.522   6.209  1.00  0.00    -0.268 OA
HETATM   11  C14 UNL     1      15.943  -9.470   4.675  1.00  0.00     0.006 C 
HETATM   12  C15 UNL     1      17.320  -9.984   5.124  1.00  0.00     0.054 C 
HETATM   13  C16 UNL     1      15.772  -9.196   3.361  1.00  0.00     0.013 C 
HETATM   14  C17 UNL     1      14.647  -8.774   2.583  1.00  0.00     0.022 C 
HETATM   15  C18 UNL     1      14.060  -7.614   2.306  1.00  0.00     0.080 C 
HETATM   16  C24 UNL     1      14.479  -6.312   2.753  1.00  0.00     0.187 C 
HETATM   17  O5  UNL     1      13.641  -5.646   3.464  1.00  0.00    -0.290 OA
HETATM   18  C25 UNL     1      15.777  -5.540   2.536  1.00  0.00     0.159 C 
HETATM   19  N5  UNL     1      16.271  -5.148   3.819  1.00  0.00    -0.358 N 
ATOM     20  H5  UNL     1      15.551  -4.665   4.357  1.00  0.00     0.162 HD
HETATM   21  C30 UNL     1      17.448  -5.238   4.534  1.00  0.00     0.160 C 
HETATM   22  C31 UNL     1      18.574  -4.366   4.892  1.00  0.00     0.065 C 
HETATM   23  N6  UNL     1      19.014  -4.637   6.291  1.00  0.00    -0.338 N 
ATOM     24  H6  UNL     1      19.910  -4.226   6.554  1.00  0.00     0.167 HD
HETATM   25  C35 UNL     1      18.385  -5.362   7.280  1.00  0.00     0.143 C 
ENDROOT
BRANCH  15  26
HETATM   26  C19 UNL     1      12.846  -7.631   1.413  1.00  0.00     0.256 C 
HETATM   27  O3  UNL     1      12.492  -8.742   0.909  1.00  0.00    -0.268 OA
HETATM   28  N3  UNL     1      12.073  -6.511   1.096  1.00  0.00    -0.344 N 
ATOM     29  H3  UNL     1      12.334  -5.606   1.486  1.00  0.00     0.163 HD
BRANCH  28  30
HETATM   30  C20 UNL     1      10.901  -6.595   0.218  1.00  0.00     0.172 C 
HETATM   31  C21 UNL     1       9.804  -5.651   0.691  1.00  0.00     0.042 C 
BRANCH  30  32
HETATM   32  C22 UNL     1      11.250  -6.175  -1.149  1.00  0.00     0.239 C 
HETATM   33  O4  UNL     1      11.734  -7.001  -1.950  1.00  0.00    -0.271 OA
HETATM   34  N4  UNL     1      11.042  -4.845  -1.563  1.00  0.00    -0.364 N 
HETATM   35  C23 UNL     1      11.380  -4.400  -2.912  1.00  0.00     0.149 C 
ATOM     36  H4  UNL     1      10.645  -4.176  -0.904  1.00  0.00     0.161 HD
ENDBRANCH  30  32
ENDBRANCH  28  30
ENDBRANCH  15  26
BRANCH  18  37
HETATM   37  C26 UNL     1      15.278  -4.371   1.664  1.00  0.00     0.037 C 
BRANCH  37  38
HETATM   38  C27 UNL     1      15.790  -4.389   0.260  1.00  0.00    -0.020 C 
HETATM   39  C28 UNL     1      17.163  -5.007   0.167  1.00  0.00     0.009 C 
HETATM   40  C29 UNL     1      14.835  -5.134  -0.666  1.00  0.00     0.009 C 
ENDBRANCH  37  38
ENDBRANCH  18  37
BRANCH  21  41
HETATM   41  O6  UNL     1      17.727  -6.416   5.104  1.00  0.00    -0.345 OA
ATOM     42  H6  UNL     1      17.448  -7.198   4.643  1.00  0.00     0.219 HD
ENDBRANCH  21  41
BRANCH  22  43
HETATM   43  C32 UNL     1      18.611  -2.955   4.561  1.00  0.00     0.032 C 
HETATM   44  C33 UNL     1      19.206  -2.241   5.795  1.00  0.00     0.016 C 
HETATM   45  C34 UNL     1      17.366  -2.246   4.212  1.00  0.00     0.016 C 
ENDBRANCH  22  43
BRANCH   6  46
HETATM   46  C9  UNL     1      13.352  -6.479   7.592  1.00  0.00     0.038 C 
BRANCH  46  47
HETATM   47  C10 UNL     1      12.475  -7.367   8.380  1.00  0.00    -0.020 C 
HETATM   48  C11 UNL     1      11.688  -8.401   7.624  1.00  0.00     0.009 C 
HETATM   49  C12 UNL     1      11.422  -6.570   9.172  1.00  0.00     0.009 C 
ENDBRANCH  46  47
ENDBRANCH   6  46
BRANCH  25  50
HETATM   50  O7  UNL     1      19.067  -6.378   7.724  1.00  0.00    -0.348 OA
ATOM     51  H7  UNL     1      19.943  -6.136   8.001  1.00  0.00     0.219 HD
ENDBRANCH  25  50
BRANCH   1  52
HETATM   52  C5  UNL     1      17.084  -4.035   8.830  1.00  0.00     0.009 C 
BRANCH  52  53
HETATM   53  C3  UNL     1      17.852  -3.982  10.073  1.00  0.00    -0.086 C 
HETATM   54  C4  UNL     1      18.993  -2.989  10.131  1.00  0.00     0.043 C 
BRANCH  53  55
HETATM   55  C2  UNL     1      17.143  -4.063  11.378  1.00  0.00     0.029 C 
HETATM   56  C1  UNL     1      17.474  -5.451  11.968  1.00  0.00     0.010 C 
ENDBRANCH  53  55
ENDBRANCH  52  53
ENDBRANCH   1  52
TORSDOF 13
ENDMDL
MODEL 3
REMARK VINA RESULT: -6.582995319     14.061     18.283
REMARK  13 active torsions:
REMARK  status: ('A' for Active; 'I' for Inactive)
REMARK    1  A    between atoms: C2_2  and  C3_3 
REMARK    2  A    between atoms: C3_3  and  C5_5 
REMARK    3  A    between atoms: C5_5  and  C6_6 
REMARK    4  A    between atoms: C8_11  and  C9_12 
REMARK    5  A    between atoms: C9_12  and  C10_13 
REMARK    6  A    between atoms: C18_24  and  C19_25 
REMARK       I    between atoms: C19_25  and  N3_27 
REMARK    7  A    between atoms: N3_27  and  C20_29 
REMARK    8  A    between atoms: C20_29  and  C22_31 
REMARK       I    between atoms: C22_31  and  N4_33 
REMARK    9  A    between atoms: C25_38  and  C26_39 
REMARK   10  A    between atoms: C26_39  and  C27_40 
REMARK   11  A    between atoms: C30_45  and  O6_46 
REMARK   12  A    between atoms: C31_48  and  C32_49 
REMARK   13  A    between atoms: C35_54  and  O7_55 
ROOT
HETATM    1  C6  UNL     1      13.918  -9.802   5.651  1.00  0.00     0.182 C 
HETATM    2  N1  UNL     1      13.260  -8.981   4.701  1.00  0.00    -0.344 N 
ATOM      3  H1  UNL     1      12.450  -9.412   4.255  1.00  0.00     0.163 HD
HETATM    4  C7  UNL     1      13.538  -7.674   4.272  1.00  0.00     0.241 C 
HETATM    5  O1  UNL     1      13.380  -7.404   3.026  1.00  0.00    -0.271 OA
HETATM    6  C8  UNL     1      14.003  -6.528   5.092  1.00  0.00     0.177 C 
HETATM    7  N2  UNL     1      14.592  -5.474   4.332  1.00  0.00    -0.344 N 
ATOM      8  H2  UNL     1      14.439  -4.545   4.725  1.00  0.00     0.163 HD
HETATM    9  C13 UNL     1      15.350  -5.474   3.133  1.00  0.00     0.247 C 
HETATM   10  O2  UNL     1      14.794  -4.909   2.110  1.00  0.00    -0.268 OA
HETATM   11  C14 UNL     1      16.680  -6.003   2.828  1.00  0.00     0.006 C 
HETATM   12  C15 UNL     1      16.783  -7.099   1.755  1.00  0.00     0.054 C 
HETATM   13  C16 UNL     1      17.830  -5.553   3.380  1.00  0.00     0.013 C 
HETATM   14  C17 UNL     1      18.128  -4.527   4.332  1.00  0.00     0.022 C 
HETATM   15  C18 UNL     1      18.134  -4.429   5.658  1.00  0.00     0.080 C 
HETATM   16  C24 UNL     1      17.831  -5.477   6.597  1.00  0.00     0.187 C 
HETATM   17  O5  UNL     1      16.841  -5.274   7.392  1.00  0.00    -0.290 OA
HETATM   18  C25 UNL     1      18.484  -6.834   6.840  1.00  0.00     0.159 C 
HETATM   19  N5  UNL     1      17.460  -7.829   6.775  1.00  0.00    -0.358 N 
ATOM     20  H5  UNL     1      16.680  -7.593   7.390  1.00  0.00     0.162 HD
HETATM   21  C30 UNL     1      17.229  -9.018   6.115  1.00  0.00     0.160 C 
HETATM   22  C31 UNL     1      17.281 -10.456   6.410  1.00  0.00     0.065 C 
HETATM   23  N6  UNL     1      16.150 -11.163   5.743  1.00  0.00    -0.338 N 
ATOM     24  H6  UNL     1      16.221 -12.180   5.726  1.00  0.00     0.167 HD
HETATM   25  C35 UNL     1      15.023 -10.640   5.146  1.00  0.00     0.143 C 
ENDROOT
BRANCH  15  26
HETATM   26  C19 UNL     1      18.520  -3.106   6.268  1.00  0.00     0.256 C 
HETATM   27  O3  UNL     1      19.562  -2.528   5.827  1.00  0.00    -0.268 OA
HETATM   28  N3  UNL     1      17.815  -2.462   7.288  1.00  0.00    -0.344 N 
ATOM     29  H3  UNL     1      16.975  -2.902   7.660  1.00  0.00     0.163 HD
BRANCH  28  30
HETATM   30  C20 UNL     1      18.245  -1.172   7.839  1.00  0.00     0.172 C 
HETATM   31  C21 UNL     1      17.072  -0.207   7.933  1.00  0.00     0.042 C 
BRANCH  30  32
HETATM   32  C22 UNL     1      18.754  -1.342   9.210  1.00  0.00     0.239 C 
HETATM   33  O4  UNL     1      18.072  -1.957  10.056  1.00  0.00    -0.271 OA
HETATM   34  N4  UNL     1      20.007  -0.815   9.578  1.00  0.00    -0.364 N 
HETATM   35  C23 UNL     1      20.536  -0.967  10.931  1.00  0.00     0.149 C 
ATOM     36  H4  UNL     1      20.559  -0.315   8.881  1.00  0.00     0.161 HD
ENDBRANCH  30  32
ENDBRANCH  28  30
ENDBRANCH  15  26
BRANCH  18  37
HETATM   37  C26 UNL     1      19.074  -6.624   8.249  1.00  0.00     0.037 C 
BRANCH  37  38
HETATM   38  C27 UNL     1      19.918  -5.397   8.386  1.00  0.00    -0.020 C 
HETATM   39  C28 UNL     1      19.986  -4.914   9.814  1.00  0.00     0.009 C 
HETATM   40  C29 UNL     1      21.330  -5.639   7.864  1.00  0.00     0.009 C 
ENDBRANCH  37  38
ENDBRANCH  18  37
BRANCH  21  41
HETATM   41  O6  UNL     1      16.838  -8.941   4.837  1.00  0.00    -0.345 OA
ATOM     42  H6  UNL     1      15.932  -9.154   4.647  1.00  0.00     0.219 HD
ENDBRANCH  21  41
BRANCH  22  43
HETATM   43  C32 UNL     1      17.558 -10.976   7.734  1.00  0.00     0.032 C 
HETATM   44  C33 UNL     1      18.552 -12.142   7.538  1.00  0.00     0.016 C 
HETATM   45  C34 UNL     1      16.457 -11.487   8.572  1.00  0.00     0.016 C 
ENDBRANCH  22  43
BRANCH   6  46
HETATM   46  C9  UNL     1      12.924  -5.998   5.999  1.00  0.00     0.038 C 
BRANCH  46  47
HETATM   47  C10 UNL     1      12.783  -6.639   7.321  1.00  0.00    -0.020 C 
HETATM   48  C11 UNL     1      12.023  -5.880   8.373  1.00  0.00     0.009 C 
HETATM   49  C12 UNL     1      14.153  -6.934   7.959  1.00  0.00     0.009 C 
ENDBRANCH  46  47
ENDBRANCH   6  46
BRANCH  25  50
HETATM   50  O7  UNL     1      14.892 -10.933   3.884  1.00  0.00    -0.348 OA
ATOM     51  H7  UNL     1      15.520 -11.584   3.594  1.00  0.00     0.219 HD
ENDBRANCH  25  50
BRANCH   1  52
HETATM   52  C5  UNL     1      13.063 -10.591   6.565  1.00  0.00     0.009 C 
BRANCH  52  53
HETATM   53  C3  UNL     1      12.085  -9.972   7.459  1.00  0.00    -0.086 C 
HETATM   54  C4  UNL     1      10.654  -9.910   6.970  1.00  0.00     0.043 C 
BRANCH  53  55
HETATM   55  C2  UNL     1      12.143 -10.254   8.919  1.00  0.00     0.029 C 
HETATM   56  C1  UNL     1      11.128  -9.300   9.586  1.00  0.00     0.010 C 
ENDBRANCH  53  55
ENDBRANCH  52  53
ENDBRANCH   1  52
TORSDOF 13
ENDMDL
MODEL 4
REMARK VINA RESULT: -6.521922113     14.275     18.389
REMARK  13 active torsions:
REMARK  status: ('A' for Active; 'I' for Inactive)
REMARK    1  A    between atoms: C2_2  and  C3_3 
REMARK    2  A    between atoms: C3_3  and  C5_5 
REMARK    3  A    between atoms: C5_5  and  C6_6 
REMARK    4  A    between atoms: C8_11  and  C9_12 
REMARK    5  A    between atoms: C9_12  and  C10_13 
REMARK    6  A    between atoms: C18_24  and  C19_25 
REMARK       I    between atoms: C19_25  and  N3_27 
REMARK    7  A    between atoms: N3_27  and  C20_29 
REMARK    8  A    between atoms: C20_29  and  C22_31 
REMARK       I    between atoms: C22_31  and  N4_33 
REMARK    9  A    between atoms: C25_38  and  C26_39 
REMARK   10  A    between atoms: C26_39  and  C27_40 
REMARK   11  A    between atoms: C30_45  and  O6_46 
REMARK   12  A    between atoms: C31_48  and  C32_49 
REMARK   13  A    between atoms: C35_54  and  O7_55 
ROOT
HETATM    1  C6  UNL     1      17.611  -5.014   7.954  1.00  0.00     0.182 C 
HETATM    2  N1  UNL     1      17.156  -6.181   8.617  1.00  0.00    -0.344 N 
ATOM      3  H1  UNL     1      17.556  -6.327   9.544  1.00  0.00     0.163 HD
HETATM    4  C7  UNL     1      16.246  -7.170   8.211  1.00  0.00     0.241 C 
HETATM    5  O1  UNL     1      16.508  -8.390   8.519  1.00  0.00    -0.271 OA
HETATM    6  C8  UNL     1      14.985  -6.987   7.451  1.00  0.00     0.177 C 
HETATM    7  N2  UNL     1      14.505  -8.179   6.832  1.00  0.00    -0.344 N 
ATOM      8  H2  UNL     1      13.488  -8.235   6.775  1.00  0.00     0.163 HD
HETATM    9  C13 UNL     1      15.173  -9.302   6.280  1.00  0.00     0.247 C 
HETATM   10  O2  UNL     1      14.997 -10.427   6.895  1.00  0.00    -0.268 OA
HETATM   11  C14 UNL     1      16.048  -9.432   5.113  1.00  0.00     0.006 C 
HETATM   12  C15 UNL     1      17.491  -9.903   5.350  1.00  0.00     0.054 C 
HETATM   13  C16 UNL     1      15.655  -9.225   3.835  1.00  0.00     0.013 C 
HETATM   14  C17 UNL     1      14.408  -8.857   3.236  1.00  0.00     0.022 C 
HETATM   15  C18 UNL     1      13.757  -7.721   3.007  1.00  0.00     0.080 C 
HETATM   16  C24 UNL     1      14.216  -6.392   3.319  1.00  0.00     0.187 C 
HETATM   17  O5  UNL     1      13.492  -5.705   4.128  1.00  0.00    -0.290 OA
HETATM   18  C25 UNL     1      15.442  -5.614   2.854  1.00  0.00     0.159 C 
HETATM   19  N5  UNL     1      16.132  -5.152   4.018  1.00  0.00    -0.358 N 
ATOM     20  H5  UNL     1      15.500  -4.654   4.645  1.00  0.00     0.162 HD
HETATM   21  C30 UNL     1      17.413  -5.190   4.531  1.00  0.00     0.160 C 
HETATM   22  C31 UNL     1      18.563  -4.286   4.657  1.00  0.00     0.065 C 
HETATM   23  N6  UNL     1      19.234  -4.482   5.975  1.00  0.00    -0.338 N 
ATOM     24  H6  UNL     1      20.151  -4.045   6.066  1.00  0.00     0.167 HD
HETATM   25  C35 UNL     1      18.793  -5.167   7.086  1.00  0.00     0.143 C 
ENDROOT
BRANCH  15  26
HETATM   26  C19 UNL     1      12.413  -7.799   2.330  1.00  0.00     0.256 C 
HETATM   27  O3  UNL     1      11.622  -8.728   2.682  1.00  0.00    -0.268 OA
HETATM   28  N3  UNL     1      11.967  -6.920   1.339  1.00  0.00    -0.344 N 
ATOM     29  H3  UNL     1      12.582  -6.164   1.037  1.00  0.00     0.163 HD
BRANCH  28  30
HETATM   30  C20 UNL     1      10.645  -7.052   0.719  1.00  0.00     0.172 C 
HETATM   31  C21 UNL     1      10.045  -5.682   0.432  1.00  0.00     0.042 C 
BRANCH  30  32
HETATM   32  C22 UNL     1      10.750  -7.739  -0.579  1.00  0.00     0.239 C 
HETATM   33  O4  UNL     1      10.097  -8.782  -0.786  1.00  0.00    -0.271 OA
HETATM   34  N4  UNL     1      11.585  -7.229  -1.592  1.00  0.00    -0.364 N 
HETATM   35  C23 UNL     1      11.711  -7.891  -2.888  1.00  0.00     0.149 C 
ATOM     36  H4  UNL     1      12.116  -6.376  -1.416  1.00  0.00     0.161 HD
ENDBRANCH  30  32
ENDBRANCH  28  30
ENDBRANCH  15  26
BRANCH  18  37
HETATM   37  C26 UNL     1      14.780  -4.495   2.025  1.00  0.00     0.037 C 
BRANCH  37  38
HETATM   38  C27 UNL     1      15.364  -4.314   0.660  1.00  0.00    -0.020 C 
HETATM   39  C28 UNL     1      16.828  -4.679   0.619  1.00  0.00     0.009 C 
HETATM   40  C29 UNL     1      14.607  -5.136  -0.377  1.00  0.00     0.009 C 
ENDBRANCH  37  38
ENDBRANCH  18  37
BRANCH  21  41
HETATM   41  O6  UNL     1      17.809  -6.335   5.100  1.00  0.00    -0.345 OA
ATOM     42  H6  UNL     1      18.668  -6.343   5.505  1.00  0.00     0.219 HD
ENDBRANCH  21  41
BRANCH  22  43
HETATM   43  C32 UNL     1      18.514  -2.892   4.260  1.00  0.00     0.032 C 
HETATM   44  C33 UNL     1      19.255  -2.105   5.364  1.00  0.00     0.016 C 
HETATM   45  C34 UNL     1      17.212  -2.227   4.059  1.00  0.00     0.016 C 
ENDBRANCH  22  43
BRANCH   6  46
HETATM   46  C9  UNL     1      13.907  -6.340   8.280  1.00  0.00     0.038 C 
BRANCH  46  47
HETATM   47  C10 UNL     1      12.514  -6.518   7.826  1.00  0.00    -0.020 C 
HETATM   48  C11 UNL     1      11.514  -5.482   8.259  1.00  0.00     0.009 C 
HETATM   49  C12 UNL     1      11.926  -7.859   8.305  1.00  0.00     0.009 C 
ENDBRANCH  46  47
ENDBRANCH   6  46
BRANCH  25  50
HETATM   50  O7  UNL     1      19.562  -6.150   7.457  1.00  0.00    -0.348 OA
ATOM     51  H7  UNL     1      20.419  -6.117   7.048  1.00  0.00     0.219 HD
ENDBRANCH  25  50
BRANCH   1  52
HETATM   52  C5  UNL     1      17.737  -3.785   8.768  1.00  0.00     0.009 C 
BRANCH  52  53
HETATM   53  C3  UNL     1      18.070  -3.814  10.192  1.00  0.00    -0.086 C 
HETATM   54  C4  UNL     1      19.500  -4.153  10.553  1.00  0.00     0.043 C 
BRANCH  53  55
HETATM   55  C2  UNL     1      17.521  -2.767  11.096  1.00  0.00     0.029 C 
HETATM   56  C1  UNL     1      18.586  -2.535  12.190  1.00  0.00     0.010 C 
ENDBRANCH  53  55
ENDBRANCH  52  53
ENDBRANCH   1  52
TORSDOF 13
ENDMDL
MODEL 5
REMARK VINA RESULT: -6.428634253      2.632      6.163
REMARK  13 active torsions:
REMARK  status: ('A' for Active; 'I' for Inactive)
REMARK    1  A    between atoms: C2_2  and  C3_3 
REMARK    2  A    between atoms: C3_3  and  C5_5 
REMARK    3  A    between atoms: C5_5  and  C6_6 
REMARK    4  A    between atoms: C8_11  and  C9_12 
REMARK    5  A    between atoms: C9_12  and  C10_13 
REMARK    6  A    between atoms: C18_24  and  C19_25 
REMARK       I    between atoms: C19_25  and  N3_27 
REMARK    7  A    between atoms: N3_27  and  C20_29 
REMARK    8  A    between atoms: C20_29  and  C22_31 
REMARK       I    between atoms: C22_31  and  N4_33 
REMARK    9  A    between atoms: C25_38  and  C26_39 
REMARK   10  A    between atoms: C26_39  and  C27_40 
REMARK   11  A    between atoms: C30_45  and  O6_46 
REMARK   12  A    between atoms: C31_48  and  C32_49 
REMARK   13  A    between atoms: C35_54  and  O7_55 
ROOT
HETATM    1  C6  UNL     1      17.689   5.034  13.990  1.00  0.00     0.182 C 
HETATM    2  N1  UNL     1      17.067   6.220  13.525  1.00  0.00    -0.344 N 
ATOM      3  H1  UNL     1      17.259   6.445  12.548  1.00  0.00     0.163 HD
HETATM    4  C7  UNL     1      16.232   7.135  14.184  1.00  0.00     0.241 C 
HETATM    5  O1  UNL     1      16.383   8.384  13.921  1.00  0.00    -0.271 OA
HETATM    6  C8  UNL     1      15.166   6.843  15.173  1.00  0.00     0.177 C 
HETATM    7  N2  UNL     1      14.788   7.967  15.966  1.00  0.00    -0.344 N 
ATOM      8  H2  UNL     1      13.805   7.971  16.236  1.00  0.00     0.163 HD
HETATM    9  C13 UNL     1      15.521   9.081  16.449  1.00  0.00     0.247 C 
HETATM   10  O2  UNL     1      15.183  10.234  15.970  1.00  0.00    -0.268 OA
HETATM   11  C14 UNL     1      16.617   9.174  17.416  1.00  0.00     0.006 C 
HETATM   12  C15 UNL     1      17.962   9.728  16.920  1.00  0.00     0.054 C 
HETATM   13  C16 UNL     1      16.509   8.864  18.728  1.00  0.00     0.013 C 
HETATM   14  C17 UNL     1      15.429   8.400  19.544  1.00  0.00     0.022 C 
HETATM   15  C18 UNL     1      14.878   7.221  19.818  1.00  0.00     0.080 C 
HETATM   16  C24 UNL     1      15.304   5.939  19.319  1.00  0.00     0.187 C 
HETATM   17  O5  UNL     1      14.448   5.273  18.628  1.00  0.00    -0.290 OA
HETATM   18  C25 UNL     1      16.625   5.190  19.459  1.00  0.00     0.159 C 
HETATM   19  N5  UNL     1      17.069   4.840  18.147  1.00  0.00    -0.358 N 
ATOM     20  H5  UNL     1      16.336   4.356  17.629  1.00  0.00     0.162 HD
HETATM   21  C30 UNL     1      18.211   4.973  17.383  1.00  0.00     0.160 C 
HETATM   22  C31 UNL     1      19.338   4.134  16.953  1.00  0.00     0.065 C 
HETATM   23  N6  UNL     1      19.709   4.449  15.544  1.00  0.00    -0.338 N 
ATOM     24  H6  UNL     1      20.601   4.063  15.232  1.00  0.00     0.167 HD
HETATM   25  C35 UNL     1      19.023   5.184  14.603  1.00  0.00     0.143 C 
ENDROOT
BRANCH  15  26
HETATM   26  C19 UNL     1      13.705   7.190  20.763  1.00  0.00     0.256 C 
HETATM   27  O3  UNL     1      13.916   7.470  21.984  1.00  0.00    -0.268 OA
HETATM   28  N3  UNL     1      12.394   6.876  20.397  1.00  0.00    -0.344 N 
ATOM     29  H3  UNL     1      12.195   6.648  19.423  1.00  0.00     0.163 HD
BRANCH  28  30
HETATM   30  C20 UNL     1      11.295   6.864  21.368  1.00  0.00     0.172 C 
HETATM   31  C21 UNL     1      10.469   8.139  21.266  1.00  0.00     0.042 C 
BRANCH  30  32
HETATM   32  C22 UNL     1      10.374   5.750  21.090  1.00  0.00     0.239 C 
HETATM   33  O4  UNL     1      10.806   4.697  20.576  1.00  0.00    -0.271 OA
HETATM   34  N4  UNL     1       9.004   5.860  21.399  1.00  0.00    -0.364 N 
HETATM   35  C23 UNL     1       8.067   4.773  21.132  1.00  0.00     0.149 C 
ATOM     36  H4  UNL     1       8.657   6.723  21.819  1.00  0.00     0.161 HD
ENDBRANCH  30  32
ENDBRANCH  28  30
ENDBRANCH  15  26
BRANCH  18  37
HETATM   37  C26 UNL     1      16.189   3.989  20.322  1.00  0.00     0.037 C 
BRANCH  37  38
HETATM   38  C27 UNL     1      16.470   4.146  21.782  1.00  0.00    -0.020 C 
HETATM   39  C28 UNL     1      17.338   5.348  22.064  1.00  0.00     0.009 C 
HETATM   40  C29 UNL     1      15.178   4.255  22.584  1.00  0.00     0.009 C 
ENDBRANCH  37  38
ENDBRANCH  18  37
BRANCH  21  41
HETATM   41  O6  UNL     1      18.441   6.170  16.831  1.00  0.00    -0.345 OA
ATOM     42  H6  UNL     1      19.276   6.582  17.021  1.00  0.00     0.219 HD
ENDBRANCH  21  41
BRANCH  22  43
HETATM   43  C32 UNL     1      19.418   2.717  17.246  1.00  0.00     0.032 C 
HETATM   44  C33 UNL     1      18.580   2.006  16.161  1.00  0.00     0.016 C 
HETATM   45  C34 UNL     1      18.955   2.205  18.550  1.00  0.00     0.016 C 
ENDBRANCH  22  43
BRANCH   6  46
HETATM   46  C9  UNL     1      13.959   6.202  14.541  1.00  0.00     0.038 C 
BRANCH  46  47
HETATM   47  C10 UNL     1      12.636   6.715  14.945  1.00  0.00    -0.020 C 
HETATM   48  C11 UNL     1      12.073   6.211  16.244  1.00  0.00     0.009 C 
HETATM   49  C12 UNL     1      11.556   6.395  13.895  1.00  0.00     0.009 C 
ENDBRANCH  46  47
ENDBRANCH   6  46
BRANCH  25  50
HETATM   50  O7  UNL     1      19.664   6.226  14.155  1.00  0.00    -0.348 OA
ATOM     51  H7  UNL     1      20.556   6.272  14.479  1.00  0.00     0.219 HD
ENDBRANCH  25  50
BRANCH   1  52
HETATM   52  C5  UNL     1      17.681   3.868  13.078  1.00  0.00     0.009 C 
BRANCH  52  53
HETATM   53  C3  UNL     1      18.471   3.826  11.848  1.00  0.00    -0.086 C 
HETATM   54  C4  UNL     1      19.628   2.851  11.810  1.00  0.00     0.043 C 
BRANCH  53  55
HETATM   55  C2  UNL     1      17.782   3.894  10.530  1.00  0.00     0.029 C 
HETATM   56  C1  UNL     1      18.543   2.932   9.592  1.00  0.00     0.010 C 
ENDBRANCH  53  55
ENDBRANCH  52  53
ENDBRANCH   1  52
TORSDOF 13
ENDMDL
