MODEL 1
REMARK VINA RESULT: -5.716779148      0.000      0.000
REMARK  6 active torsions:
REMARK  status: ('A' for Active; 'I' for Inactive)
REMARK    1  A    between atoms: N1_1  and  C1_5 
REMARK    2  A    between atoms: C1_5  and  C2_6 
REMARK    3  A    between atoms: C1_5  and  C5_13 
REMARK    4  A    between atoms: C5_13  and  O1_14 
REMARK    5  A    between atoms: C5_13  and  C6_16 
REMARK    6  A    between atoms: C6_16  and  N4_17 
ROOT
HETATM    1  C1  UNL     1      46.004  42.560  59.006  1.00  0.00     0.249 C 
ENDROOT
BRANCH   1   2
HETATM    2  N1  UNL     1      44.664  42.701  59.507  1.00  0.00    -0.068 N 
ATOM      3  H13 UNL     1      44.585  42.320  60.450  1.00  0.00     0.275 HD
ATOM      4  H12 UNL     1      44.451  43.679  59.704  1.00  0.00     0.275 HD
ATOM      5  H11 UNL     1      43.963  42.293  58.889  1.00  0.00     0.275 HD
ENDBRANCH   1   2
BRANCH   1   6
HETATM    6  C2  UNL     1      47.035  42.918  60.004  1.00  0.00     0.008 A 
HETATM    7  C3  UNL     1      48.327  42.383  60.065  1.00  0.00     0.117 A 
HETATM    8  N2  UNL     1      48.945  42.951  61.088  1.00  0.00    -0.312 N 
HETATM    9  N3  UNL     1      48.138  43.811  61.684  1.00  0.00    -0.312 N 
ATOM     10  H2  UNL     1      49.904  42.754  61.374  1.00  0.00     0.186 HD
HETATM   11  C4  UNL     1      46.960  43.812  61.040  1.00  0.00     0.117 A 
ATOM     12  H3  UNL     1      48.372  44.380  62.498  1.00  0.00     0.186 HD
ENDBRANCH   1   6
BRANCH   1  13
HETATM   13  C5  UNL     1      46.294  41.234  58.397  1.00  0.00     0.181 C 
BRANCH  13  14
HETATM   14  O1  UNL     1      46.840  41.363  57.106  1.00  0.00    -0.391 OA
ATOM     15  H1  UNL     1      47.707  40.978  57.052  1.00  0.00     0.210 HD
ENDBRANCH  13  14
BRANCH  13  16
HETATM   16  C6  UNL     1      45.095  40.326  58.332  1.00  0.00     0.306 C 
BRANCH  16  17
HETATM   17  N4  UNL     1      45.481  39.130  57.636  1.00  0.00     0.094 N 
HETATM   18  C7  UNL     1      44.745  38.680  56.488  1.00  0.00     0.302 A 
HETATM   19  C8  UNL     1      44.511  37.984  57.732  1.00  0.00     0.302 A 
ENDBRANCH  16  17
ENDBRANCH  13  16
ENDBRANCH   1  13
TORSDOF 6
ENDMDL
MODEL 2
REMARK VINA RESULT: -5.657983942      0.056      1.009
REMARK  6 active torsions:
REMARK  status: ('A' for Active; 'I' for Inactive)
REMARK    1  A    between atoms: N1_1  and  C1_5 
REMARK    2  A    between atoms: C1_5  and  C2_6 
REMARK    3  A    between atoms: C1_5  and  C5_13 
REMARK    4  A    between atoms: C5_13  and  O1_14 
REMARK    5  A    between atoms: C5_13  and  C6_16 
REMARK    6  A    between atoms: C6_16  and  N4_17 
ROOT
HETATM    1  C1  UNL     1      46.020  42.512  58.993  1.00  0.00     0.249 C 
ENDROOT
BRANCH   1   2
HETATM    2  N1  UNL     1      44.695  42.647  59.534  1.00  0.00    -0.068 N 
ATOM      3  H13 UNL     1      44.520  41.941  60.249  1.00  0.00     0.275 HD
ATOM      4  H12 UNL     1      44.620  43.487  60.107  1.00  0.00     0.275 HD
ATOM      5  H11 UNL     1      43.969  42.629  58.818  1.00  0.00     0.275 HD
ENDBRANCH   1   2
BRANCH   1   6
HETATM    6  C2  UNL     1      47.079  42.867  59.962  1.00  0.00     0.008 A 
HETATM    7  C3  UNL     1      46.944  43.779  61.015  1.00  0.00     0.117 A 
HETATM    8  N2  UNL     1      48.100  43.824  61.655  1.00  0.00    -0.312 N 
HETATM    9  N3  UNL     1      48.965  43.004  61.085  1.00  0.00    -0.312 N 
ATOM     10  H2  UNL     1      48.296  44.406  62.470  1.00  0.00     0.186 HD
HETATM   11  C4  UNL     1      48.366  42.403  60.044  1.00  0.00     0.117 A 
ATOM     12  H3  UNL     1      49.929  42.852  61.385  1.00  0.00     0.186 HD
ENDBRANCH   1   6
BRANCH   1  13
HETATM   13  C5  UNL     1      46.296  41.190  58.368  1.00  0.00     0.181 C 
BRANCH  13  14
HETATM   14  O1  UNL     1      46.850  41.329  57.082  1.00  0.00    -0.391 OA
ATOM     15  H1  UNL     1      46.938  40.490  56.645  1.00  0.00     0.210 HD
ENDBRANCH  13  14
BRANCH  13  16
HETATM   16  C6  UNL     1      45.084  40.300  58.285  1.00  0.00     0.306 C 
BRANCH  16  17
HETATM   17  N4  UNL     1      45.462  39.102  57.587  1.00  0.00     0.094 N 
HETATM   18  C7  UNL     1      44.694  38.632  56.468  1.00  0.00     0.302 A 
HETATM   19  C8  UNL     1      44.509  37.946  57.725  1.00  0.00     0.302 A 
ENDBRANCH  16  17
ENDBRANCH  13  16
ENDBRANCH   1  13
TORSDOF 6
ENDMDL
MODEL 3
REMARK VINA RESULT: -5.456958742      1.369      1.796
REMARK  6 active torsions:
REMARK  status: ('A' for Active; 'I' for Inactive)
REMARK    1  A    between atoms: N1_1  and  C1_5 
REMARK    2  A    between atoms: C1_5  and  C2_6 
REMARK    3  A    between atoms: C1_5  and  C5_13 
REMARK    4  A    between atoms: C5_13  and  O1_14 
REMARK    5  A    between atoms: C5_13  and  C6_16 
REMARK    6  A    between atoms: C6_16  and  N4_17 
ROOT
HETATM    1  C1  UNL     1      45.744  43.042  59.188  1.00  0.00     0.249 C 
ENDROOT
BRANCH   1   2
HETATM    2  N1  UNL     1      44.988  44.206  59.560  1.00  0.00    -0.068 N 
ATOM      3  H13 UNL     1      45.033  44.918  58.831  1.00  0.00     0.275 HD
ATOM      4  H12 UNL     1      43.987  44.011  59.543  1.00  0.00     0.275 HD
ATOM      5  H11 UNL     1      45.268  44.592  60.462  1.00  0.00     0.275 HD
ENDBRANCH   1   2
BRANCH   1   6
HETATM    6  C2  UNL     1      46.915  42.810  60.060  1.00  0.00     0.008 A 
HETATM    7  C3  UNL     1      47.085  43.331  61.349  1.00  0.00     0.117 A 
HETATM    8  N2  UNL     1      48.250  42.900  61.803  1.00  0.00    -0.312 N 
HETATM    9  N3  UNL     1      48.837  42.140  60.895  1.00  0.00    -0.312 N 
ATOM     10  H2  UNL     1      48.638  43.122  62.720  1.00  0.00     0.186 HD
HETATM   11  C4  UNL     1      48.041  42.067  59.816  1.00  0.00     0.117 A 
ATOM     12  H3  UNL     1      49.744  41.685  60.997  1.00  0.00     0.186 HD
ENDBRANCH   1   6
BRANCH   1  13
HETATM   13  C5  UNL     1      44.933  41.802  59.050  1.00  0.00     0.181 C 
BRANCH  13  14
HETATM   14  O1  UNL     1      44.501  41.322  60.300  1.00  0.00    -0.391 OA
ATOM     15  H1  UNL     1      45.185  40.836  60.745  1.00  0.00     0.210 HD
ENDBRANCH  13  14
BRANCH  13  16
HETATM   16  C6  UNL     1      45.645  40.695  58.320  1.00  0.00     0.306 C 
BRANCH  16  17
HETATM   17  N4  UNL     1      44.656  39.765  57.849  1.00  0.00     0.094 N 
HETATM   18  C7  UNL     1      44.890  38.350  57.916  1.00  0.00     0.302 A 
HETATM   19  C8  UNL     1      45.038  38.980  56.625  1.00  0.00     0.302 A 
ENDBRANCH  16  17
ENDBRANCH  13  16
ENDBRANCH   1  13
TORSDOF 6
ENDMDL
MODEL 4
REMARK VINA RESULT: -5.302915811      1.720      2.162
REMARK  6 active torsions:
REMARK  status: ('A' for Active; 'I' for Inactive)
REMARK    1  A    between atoms: N1_1  and  C1_5 
REMARK    2  A    between atoms: C1_5  and  C2_6 
REMARK    3  A    between atoms: C1_5  and  C5_13 
REMARK    4  A    between atoms: C5_13  and  O1_14 
REMARK    5  A    between atoms: C5_13  and  C6_16 
REMARK    6  A    between atoms: C6_16  and  N4_17 
ROOT
HETATM    1  C1  UNL     1      46.444  41.406  58.895  1.00  0.00     0.249 C 
ENDROOT
BRANCH   1   2
HETATM    2  N1  UNL     1      47.443  41.552  57.872  1.00  0.00    -0.068 N 
ATOM      3  H13 UNL     1      48.360  41.263  58.213  1.00  0.00     0.275 HD
ATOM      4  H12 UNL     1      47.313  40.860  57.135  1.00  0.00     0.275 HD
ATOM      5  H11 UNL     1      47.480  42.495  57.483  1.00  0.00     0.275 HD
ENDBRANCH   1   2
BRANCH   1   6
HETATM    6  C2  UNL     1      46.233  42.642  59.678  1.00  0.00     0.008 A 
HETATM    7  C3  UNL     1      47.041  43.084  60.731  1.00  0.00     0.117 A 
HETATM    8  N2  UNL     1      46.532  44.223  61.174  1.00  0.00    -0.312 N 
HETATM    9  N3  UNL     1      45.455  44.538  60.476  1.00  0.00    -0.312 N 
ATOM     10  H2  UNL     1      46.915  44.775  61.941  1.00  0.00     0.186 HD
HETATM   11  C4  UNL     1      45.248  43.587  59.552  1.00  0.00     0.117 A 
ATOM     12  H3  UNL     1      44.877  45.367  60.617  1.00  0.00     0.186 HD
ENDBRANCH   1   6
BRANCH   1  13
HETATM   13  C5  UNL     1      45.148  40.857  58.412  1.00  0.00     0.181 C 
BRANCH  13  14
HETATM   14  O1  UNL     1      44.345  40.407  59.476  1.00  0.00    -0.391 OA
ATOM     15  H1  UNL     1      43.594  40.973  59.612  1.00  0.00     0.210 HD
ENDBRANCH  13  14
BRANCH  13  16
HETATM   16  C6  UNL     1      45.302  39.742  57.411  1.00  0.00     0.306 C 
BRANCH  16  17
HETATM   17  N4  UNL     1      44.516  38.628  57.863  1.00  0.00     0.094 N 
HETATM   18  C7  UNL     1      45.134  37.366  58.157  1.00  0.00     0.302 A 
HETATM   19  C8  UNL     1      44.422  37.472  56.905  1.00  0.00     0.302 A 
ENDBRANCH  16  17
ENDBRANCH  13  16
ENDBRANCH   1  13
TORSDOF 6
ENDMDL
MODEL 5
REMARK VINA RESULT: -5.186424046      1.250      1.718
REMARK  6 active torsions:
REMARK  status: ('A' for Active; 'I' for Inactive)
REMARK    1  A    between atoms: N1_1  and  C1_5 
REMARK    2  A    between atoms: C1_5  and  C2_6 
REMARK    3  A    between atoms: C1_5  and  C5_13 
REMARK    4  A    between atoms: C5_13  and  O1_14 
REMARK    5  A    between atoms: C5_13  and  C6_16 
REMARK    6  A    between atoms: C6_16  and  N4_17 
ROOT
HETATM    1  C1  UNL     1      44.817  41.907  58.573  1.00  0.00     0.249 C 
ENDROOT
BRANCH   1   2
HETATM    2  N1  UNL     1      43.441  41.831  58.981  1.00  0.00    -0.068 N 
ATOM      3  H13 UNL     1      43.096  40.872  58.925  1.00  0.00     0.275 HD
ATOM      4  H12 UNL     1      43.351  41.982  59.986  1.00  0.00     0.275 HD
ATOM      5  H11 UNL     1      42.835  42.467  58.462  1.00  0.00     0.275 HD
ENDBRANCH   1   2
BRANCH   1   6
HETATM    6  C2  UNL     1      45.659  42.670  59.519  1.00  0.00     0.008 A 
HETATM    7  C3  UNL     1      45.397  43.966  59.977  1.00  0.00     0.117 A 
HETATM    8  N2  UNL     1      46.372  44.301  60.806  1.00  0.00    -0.312 N 
HETATM    9  N3  UNL     1      47.238  43.309  60.910  1.00  0.00    -0.312 N 
ATOM     10  H2  UNL     1      46.443  45.194  61.294  1.00  0.00     0.186 HD
HETATM   11  C4  UNL     1      46.827  42.295  60.132  1.00  0.00     0.117 A 
ATOM     12  H3  UNL     1      48.081  43.313  61.485  1.00  0.00     0.186 HD
ENDBRANCH   1   6
BRANCH   1  13
HETATM   13  C5  UNL     1      45.435  40.592  58.254  1.00  0.00     0.181 C 
BRANCH  13  14
HETATM   14  O1  UNL     1      46.255  40.665  57.113  1.00  0.00    -0.391 OA
ATOM     15  H1  UNL     1      46.554  39.806  56.840  1.00  0.00     0.210 HD
ENDBRANCH  13  14
BRANCH  13  16
HETATM   16  C6  UNL     1      44.432  39.485  58.065  1.00  0.00     0.306 C 
BRANCH  16  17
HETATM   17  N4  UNL     1      45.147  38.239  58.030  1.00  0.00     0.094 N 
HETATM   18  C7  UNL     1      45.148  37.427  56.846  1.00  0.00     0.302 A 
HETATM   19  C8  UNL     1      44.292  37.006  57.930  1.00  0.00     0.302 A 
ENDBRANCH  16  17
ENDBRANCH  13  16
ENDBRANCH   1  13
TORSDOF 6
ENDMDL
