MODEL 1
REMARK VINA RESULT: -5.933976279      0.000      0.000
REMARK  5 active torsions:
REMARK  status: ('A' for Active; 'I' for Inactive)
REMARK    1  A    between atoms: C2_2  and  C3_3 
REMARK    2  A    between atoms: C3_3  and  N1_4 
REMARK    3  A    between atoms: C6_8  and  C7_9 
REMARK    4  A    between atoms: C7_9  and  O1_10 
REMARK    5  A    between atoms: O1_10  and  N2_11 
ROOT
HETATM    1  N1  UNL     1      45.507  39.480  58.026  1.00  0.00    -0.373 N 
ATOM      2  H1  UNL     1      46.443  39.093  57.902  1.00  0.00     0.161 HD
HETATM    3  C4  UNL     1      45.383  40.656  58.492  1.00  0.00     0.103 A 
HETATM    4  C5  UNL     1      46.520  41.378  58.818  1.00  0.00     0.075 A 
HETATM    5  C6  UNL     1      46.443  42.660  59.328  1.00  0.00     0.040 A 
HETATM    6  N3  UNL     1      45.219  43.183  59.499  1.00  0.00    -0.354 N 
ATOM      7  H3  UNL     1      45.141  44.128  59.875  1.00  0.00     0.166 HD
HETATM    8  C8  UNL     1      44.090  42.514  59.194  1.00  0.00     0.182 A 
HETATM    9  N4  UNL     1      44.201  41.268  58.699  1.00  0.00    -0.339 N 
ATOM     10  H4  UNL     1      43.347  40.761  58.469  1.00  0.00     0.168 HD
ENDROOT
BRANCH   1  11
HETATM   11  C3  UNL     1      44.359  38.673  57.666  1.00  0.00     0.147 C 
BRANCH  11  12
HETATM   12  C2  UNL     1      44.817  37.246  57.707  1.00  0.00    -0.018 C 
HETATM   13  C1  UNL     1      43.949  36.310  57.997  1.00  0.00     0.008 C 
ENDBRANCH  11  12
ENDBRANCH   1  11
BRANCH   5  14
HETATM   14  C7  UNL     1      47.699  43.387  59.660  1.00  0.00     0.257 C 
BRANCH  14  15
HETATM   15  O1  UNL     1      47.530  44.172  60.797  1.00  0.00    -0.281 OA
BRANCH  15  16
HETATM   16  N2  UNL     1      48.482  43.762  61.695  1.00  0.00    -0.311 N 
ATOM     17  H22 UNL     1      49.492  43.819  61.566  1.00  0.00     0.184 HD
ATOM     18  H21 UNL     1      47.977  43.395  62.502  1.00  0.00     0.184 HD
ENDBRANCH  15  16
ENDBRANCH  14  15
ENDBRANCH   5  14
TORSDOF 5
ENDMDL
MODEL 2
REMARK VINA RESULT: -5.901454340      1.421      1.876
REMARK  5 active torsions:
REMARK  status: ('A' for Active; 'I' for Inactive)
REMARK    1  A    between atoms: C2_2  and  C3_3 
REMARK    2  A    between atoms: C3_3  and  N1_4 
REMARK    3  A    between atoms: C6_8  and  C7_9 
REMARK    4  A    between atoms: C7_9  and  O1_10 
REMARK    5  A    between atoms: O1_10  and  N2_11 
ROOT
HETATM    1  N1  UNL     1      44.653  40.555  58.498  1.00  0.00    -0.373 N 
ATOM      2  H1  UNL     1      43.859  40.669  59.127  1.00  0.00     0.161 HD
HETATM    3  C4  UNL     1      45.669  41.306  58.644  1.00  0.00     0.103 A 
HETATM    4  C5  UNL     1      45.667  42.257  59.651  1.00  0.00     0.075 A 
HETATM    5  C6  UNL     1      46.743  43.100  59.855  1.00  0.00     0.040 A 
HETATM    6  N3  UNL     1      47.796  42.963  59.034  1.00  0.00    -0.354 N 
ATOM      7  H3  UNL     1      48.601  43.576  59.167  1.00  0.00     0.166 HD
HETATM    8  C8  UNL     1      47.837  42.051  58.043  1.00  0.00     0.182 A 
HETATM    9  N4  UNL     1      46.771  41.246  57.873  1.00  0.00    -0.339 N 
ATOM     10  H4  UNL     1      46.801  40.556  57.123  1.00  0.00     0.168 HD
ENDROOT
BRANCH   1  11
HETATM   11  C3  UNL     1      44.592  39.541  57.464  1.00  0.00     0.147 C 
BRANCH  11  12
HETATM   12  C2  UNL     1      44.897  38.236  58.136  1.00  0.00    -0.018 C 
HETATM   13  C1  UNL     1      44.507  37.124  57.566  1.00  0.00     0.008 C 
ENDBRANCH  11  12
ENDBRANCH   1  11
BRANCH   5  14
HETATM   14  C7  UNL     1      46.685  44.102  60.953  1.00  0.00     0.257 C 
BRANCH  14  15
HETATM   15  O1  UNL     1      46.729  43.476  62.196  1.00  0.00    -0.281 OA
BRANCH  15  16
HETATM   16  N2  UNL     1      48.034  43.103  62.394  1.00  0.00    -0.311 N 
ATOM     17  H22 UNL     1      48.825  43.346  61.798  1.00  0.00     0.184 HD
ATOM     18  H21 UNL     1      48.047  42.542  63.246  1.00  0.00     0.184 HD
ENDBRANCH  15  16
ENDBRANCH  14  15
ENDBRANCH   5  14
TORSDOF 5
ENDMDL
MODEL 3
REMARK VINA RESULT: -5.694573275      2.535      5.426
REMARK  5 active torsions:
REMARK  status: ('A' for Active; 'I' for Inactive)
REMARK    1  A    between atoms: C2_2  and  C3_3 
REMARK    2  A    between atoms: C3_3  and  N1_4 
REMARK    3  A    between atoms: C6_8  and  C7_9 
REMARK    4  A    between atoms: C7_9  and  O1_10 
REMARK    5  A    between atoms: O1_10  and  N2_11 
ROOT
HETATM    1  N1  UNL     1      47.503  41.964  59.055  1.00  0.00    -0.373 N 
ATOM      2  H1  UNL     1      48.252  41.318  58.803  1.00  0.00     0.161 HD
HETATM    3  C4  UNL     1      46.295  41.602  58.889  1.00  0.00     0.103 A 
HETATM    4  C5  UNL     1      46.031  40.344  58.373  1.00  0.00     0.075 A 
HETATM    5  C6  UNL     1      44.738  39.899  58.173  1.00  0.00     0.040 A 
HETATM    6  N3  UNL     1      43.741  40.737  58.498  1.00  0.00    -0.354 N 
ATOM      7  H3  UNL     1      42.779  40.429  58.357  1.00  0.00     0.166 HD
HETATM    8  C8  UNL     1      43.957  41.967  59.002  1.00  0.00     0.182 A 
HETATM    9  N4  UNL     1      45.229  42.368  59.185  1.00  0.00    -0.339 N 
ATOM     10  H4  UNL     1      45.393  43.300  59.566  1.00  0.00     0.168 HD
ENDROOT
BRANCH   1  11
HETATM   11  C3  UNL     1      47.847  43.265  59.590  1.00  0.00     0.147 C 
BRANCH  11  12
HETATM   12  C2  UNL     1      48.260  43.040  61.013  1.00  0.00    -0.018 C 
HETATM   13  C1  UNL     1      47.434  43.371  61.973  1.00  0.00     0.008 C 
ENDBRANCH  11  12
ENDBRANCH   1  11
BRANCH   5  14
HETATM   14  C7  UNL     1      44.515  38.538  57.615  1.00  0.00     0.257 C 
BRANCH  14  15
HETATM   15  O1  UNL     1      45.134  37.573  58.405  1.00  0.00    -0.281 OA
BRANCH  15  16
HETATM   16  N2  UNL     1      44.243  36.537  58.519  1.00  0.00    -0.311 N 
ATOM     17  H22 UNL     1      43.227  36.622  58.571  1.00  0.00     0.184 HD
ATOM     18  H21 UNL     1      44.797  35.681  58.541  1.00  0.00     0.184 HD
ENDBRANCH  15  16
ENDBRANCH  14  15
ENDBRANCH   5  14
TORSDOF 5
ENDMDL
MODEL 4
REMARK VINA RESULT: -5.672715974      0.742      1.044
REMARK  5 active torsions:
REMARK  status: ('A' for Active; 'I' for Inactive)
REMARK    1  A    between atoms: C2_2  and  C3_3 
REMARK    2  A    between atoms: C3_3  and  N1_4 
REMARK    3  A    between atoms: C6_8  and  C7_9 
REMARK    4  A    between atoms: C7_9  and  O1_10 
REMARK    5  A    between atoms: O1_10  and  N2_11 
ROOT
HETATM    1  N1  UNL     1      45.686  39.266  58.533  1.00  0.00    -0.373 N 
ATOM      2  H1  UNL     1      46.643  38.912  58.528  1.00  0.00     0.161 HD
HETATM    3  C4  UNL     1      45.481  40.489  58.814  1.00  0.00     0.103 A 
HETATM    4  C5  UNL     1      46.562  41.305  59.106  1.00  0.00     0.075 A 
HETATM    5  C6  UNL     1      46.397  42.641  59.418  1.00  0.00     0.040 A 
HETATM    6  N3  UNL     1      45.144  43.122  59.430  1.00  0.00    -0.354 N 
ATOM      7  H3  UNL     1      45.001  44.105  59.659  1.00  0.00     0.166 HD
HETATM    8  C8  UNL     1      44.068  42.361  59.152  1.00  0.00     0.182 A 
HETATM    9  N4  UNL     1      44.264  41.063  58.851  1.00  0.00    -0.339 N 
ATOM     10  H4  UNL     1      43.450  40.487  58.641  1.00  0.00     0.168 HD
ENDROOT
BRANCH   1  11
HETATM   11  C3  UNL     1      44.600  38.359  58.219  1.00  0.00     0.147 C 
BRANCH  11  12
HETATM   12  C2  UNL     1      44.809  37.928  56.798  1.00  0.00    -0.018 C 
HETATM   13  C1  UNL     1      44.802  38.834  55.853  1.00  0.00     0.008 C 
ENDBRANCH  11  12
ENDBRANCH   1  11
BRANCH   5  14
HETATM   14  C7  UNL     1      47.595  43.470  59.723  1.00  0.00     0.257 C 
BRANCH  14  15
HETATM   15  O1  UNL     1      47.420  44.174  60.911  1.00  0.00    -0.281 OA
BRANCH  15  16
HETATM   16  N2  UNL     1      48.456  43.808  61.732  1.00  0.00    -0.311 N 
ATOM     17  H22 UNL     1      48.876  44.385  62.461  1.00  0.00     0.184 HD
ATOM     18  H21 UNL     1      48.712  42.858  61.466  1.00  0.00     0.184 HD
ENDBRANCH  15  16
ENDBRANCH  14  15
ENDBRANCH   5  14
TORSDOF 5
ENDMDL
MODEL 5
REMARK VINA RESULT: -5.548846420      1.141      1.144
REMARK  5 active torsions:
REMARK  status: ('A' for Active; 'I' for Inactive)
REMARK    1  A    between atoms: C2_2  and  C3_3 
REMARK    2  A    between atoms: C3_3  and  N1_4 
REMARK    3  A    between atoms: C6_8  and  C7_9 
REMARK    4  A    between atoms: C7_9  and  O1_10 
REMARK    5  A    between atoms: O1_10  and  N2_11 
ROOT
HETATM    1  N1  UNL     1      45.453  39.098  57.723  1.00  0.00    -0.373 N 
ATOM      2  H1  UNL     1      46.427  38.821  57.844  1.00  0.00     0.161 HD
HETATM    3  C4  UNL     1      45.056  40.195  58.228  1.00  0.00     0.103 A 
HETATM    4  C5  UNL     1      45.957  40.982  58.928  1.00  0.00     0.075 A 
HETATM    5  C6  UNL     1      45.580  42.183  59.498  1.00  0.00     0.040 A 
HETATM    6  N3  UNL     1      44.301  42.562  59.348  1.00  0.00    -0.354 N 
ATOM      7  H3  UNL     1      44.002  43.445  59.761  1.00  0.00     0.166 HD
HETATM    8  C8  UNL     1      43.395  41.826  58.675  1.00  0.00     0.182 A 
HETATM    9  N4  UNL     1      43.796  40.661  58.132  1.00  0.00    -0.339 N 
ATOM     10  H4  UNL     1      43.112  40.103  57.623  1.00  0.00     0.168 HD
ENDROOT
BRANCH   1  11
HETATM   11  C3  UNL     1      44.562  38.230  56.980  1.00  0.00     0.147 C 
BRANCH  11  12
HETATM   12  C2  UNL     1      44.381  36.998  57.814  1.00  0.00    -0.018 C 
HETATM   13  C1  UNL     1      43.962  35.899  57.240  1.00  0.00     0.008 C 
ENDBRANCH  11  12
ENDBRANCH   1  11
BRANCH   5  14
HETATM   14  C7  UNL     1      46.591  42.986  60.238  1.00  0.00     0.257 C 
BRANCH  14  15
HETATM   15  O1  UNL     1      47.125  43.981  59.423  1.00  0.00    -0.281 OA
BRANCH  15  16
HETATM   16  N2  UNL     1      48.445  43.661  59.237  1.00  0.00    -0.311 N 
ATOM     17  H22 UNL     1      49.229  44.002  59.793  1.00  0.00     0.184 HD
ATOM     18  H21 UNL     1      48.477  43.024  58.441  1.00  0.00     0.184 HD
ENDBRANCH  15  16
ENDBRANCH  14  15
ENDBRANCH   5  14
TORSDOF 5
ENDMDL
