MODEL 1
REMARK VINA RESULT: -8.475415493      0.000      0.000
REMARK  9 active torsions:
REMARK  status: ('A' for Active; 'I' for Inactive)
REMARK    1  A    between atoms: O1_1  and  N1_3 
REMARK    2  A    between atoms: N1_3  and  C1_5 
REMARK    3  A    between atoms: C3_7  and  N2_8 
REMARK    4  A    between atoms: N2_8  and  S1_10 
REMARK    5  A    between atoms: S1_10  and  C4_13 
REMARK    6  A    between atoms: C7_16  and  O4_17 
REMARK    7  A    between atoms: C8_19  and  N3_20 
REMARK    8  A    between atoms: N3_20  and  C9_22 
REMARK    9  A    between atoms: C13_26  and  S2_27 
ROOT
HETATM    1  C4  UNL     1      30.306 -26.460 -41.212  1.00  0.00     0.151 A 
HETATM    2  C5  UNL     1      31.586 -26.737 -41.651  1.00  0.00     0.046 A 
HETATM    3  C6  UNL     1      32.097 -28.016 -41.532  1.00  0.00     0.043 A 
HETATM    4  C7  UNL     1      31.340 -29.024 -40.976  1.00  0.00     0.109 A 
HETATM    5  C8  UNL     1      30.066 -28.720 -40.546  1.00  0.00     0.137 A 
HETATM    6  N6  UNL     1      29.600 -27.465 -40.678  1.00  0.00    -0.330 N 
ATOM      7  H6  UNL     1      28.654 -27.267 -40.352  1.00  0.00     0.168 HD
ENDROOT
BRANCH   1   8
HETATM    8  S1  UNL     1      29.646 -24.826 -41.363  1.00  0.00     0.280 S 
HETATM    9  O2  UNL     1      30.612 -24.028 -42.193  1.00  0.00    -0.199 OA
HETATM   10  O3  UNL     1      28.377 -24.959 -42.154  1.00  0.00    -0.199 OA
BRANCH   8  11
HETATM   11  N2  UNL     1      29.407 -24.175 -39.810  1.00  0.00    -0.264 N 
ATOM     12  H2  UNL     1      28.464 -24.227 -39.424  1.00  0.00     0.180 HD
BRANCH  11  13
HETATM   13  C3  UNL     1      30.297 -23.632 -39.090  1.00  0.00     0.120 A 
HETATM   14  C2  UNL     1      30.381 -23.970 -37.759  1.00  0.00     0.099 A 
HETATM   15  C1  UNL     1      31.347 -23.383 -36.969  1.00  0.00     0.130 A 
HETATM   16  N8  UNL     1      32.163 -22.495 -37.568  1.00  0.00    -0.318 N 
HETATM   17  C17 UNL     1      32.082 -22.165 -38.864  1.00  0.00     0.179 A 
ATOM     18  H8  UNL     1      32.885 -22.048 -37.003  1.00  0.00     0.170 HD
HETATM   19  N7  UNL     1      31.141 -22.738 -39.630  1.00  0.00    -0.319 N 
HETATM   20  S3  UNL     1      33.100 -21.077 -39.552  1.00  0.00    -0.040 SA
ATOM     21  H7  UNL     1      31.068 -22.496 -40.619  1.00  0.00     0.170 HD
BRANCH  15  22
HETATM   22  N1  UNL     1      31.483 -23.692 -35.589  1.00  0.00    -0.253 N 
ATOM     23  H1  UNL     1      31.097 -24.571 -35.246  1.00  0.00     0.196 HD
BRANCH  22  24
HETATM   24  O1  UNL     1      32.056 -22.934 -34.775  1.00  0.00    -0.288 OA
ATOM     25  H1  UNL     1      31.878 -22.949 -33.842  1.00  0.00     0.244 HD
ENDBRANCH  22  24
ENDBRANCH  15  22
ENDBRANCH  11  13
ENDBRANCH   8  11
ENDBRANCH   1   8
BRANCH   5  26
HETATM   26  N3  UNL     1      29.223 -29.703 -39.967  1.00  0.00    -0.354 N 
ATOM     27  H3  UNL     1      28.920 -30.468 -40.570  1.00  0.00     0.163 HD
BRANCH  26  28
HETATM   28  C9  UNL     1      28.763 -29.715 -38.623  1.00  0.00     0.202 C 
HETATM   29  C10 UNL     1      29.814 -29.438 -37.579  1.00  0.00     0.085 C 
HETATM   30  C11 UNL     1      30.748 -30.584 -37.558  1.00  0.00    -0.026 A 
HETATM   31  C12 UNL     1      32.110 -30.443 -37.375  1.00  0.00     0.035 A 
HETATM   32  C16 UNL     1      30.204 -31.851 -37.732  1.00  0.00     0.051 A 
HETATM   33  C13 UNL     1      32.964 -31.527 -37.357  1.00  0.00     0.081 A 
HETATM   34  C14 UNL     1      32.424 -32.783 -37.530  1.00  0.00     0.028 A 
HETATM   35  C15 UNL     1      31.064 -32.922 -37.713  1.00  0.00     0.032 A 
HETATM   36  N4  UNL     1      28.811 -31.965 -37.917  1.00  0.00    -0.302 N 
HETATM   37  N5  UNL     1      28.019 -30.909 -38.369  1.00  0.00    -0.115 NA
ATOM     38  H4  UNL     1      28.362 -32.857 -37.712  1.00  0.00     0.182 HD
BRANCH  33  39
HETATM   39  S2  UNL     1      34.702 -31.306 -37.121  1.00  0.00     0.137 S 
HETATM   40  O5  UNL     1      34.955 -29.892 -36.763  1.00  0.00    -0.591 OA
HETATM   41  O6  UNL     1      35.470 -31.732 -38.336  1.00  0.00    -0.591 OA
HETATM   42  O7  UNL     1      35.214 -32.290 -35.849  1.00  0.00    -0.591 OA
ENDBRANCH  33  39
ENDBRANCH  26  28
ENDBRANCH   5  26
BRANCH   4  43
HETATM   43  O4  UNL     1      31.860 -30.323 -40.854  1.00  0.00    -0.357 OA
ATOM     44  H4  UNL     1      31.386 -31.067 -41.205  1.00  0.00     0.218 HD
ENDBRANCH   4  43
TORSDOF 9
ENDMDL
MODEL 2
REMARK VINA RESULT: -8.323191534      3.170      7.837
REMARK  9 active torsions:
REMARK  status: ('A' for Active; 'I' for Inactive)
REMARK    1  A    between atoms: O1_1  and  N1_3 
REMARK    2  A    between atoms: N1_3  and  C1_5 
REMARK    3  A    between atoms: C3_7  and  N2_8 
REMARK    4  A    between atoms: N2_8  and  S1_10 
REMARK    5  A    between atoms: S1_10  and  C4_13 
REMARK    6  A    between atoms: C7_16  and  O4_17 
REMARK    7  A    between atoms: C8_19  and  N3_20 
REMARK    8  A    between atoms: N3_20  and  C9_22 
REMARK    9  A    between atoms: C13_26  and  S2_27 
ROOT
HETATM    1  C4  UNL     1      33.789 -31.262 -40.109  1.00  0.00     0.151 A 
HETATM    2  C5  UNL     1      34.005 -32.172 -41.125  1.00  0.00     0.046 A 
HETATM    3  C6  UNL     1      33.516 -31.923 -42.393  1.00  0.00     0.043 A 
HETATM    4  C7  UNL     1      32.809 -30.770 -42.657  1.00  0.00     0.109 A 
HETATM    5  C8  UNL     1      32.607 -29.879 -41.625  1.00  0.00     0.137 A 
HETATM    6  N6  UNL     1      33.098 -30.153 -40.403  1.00  0.00    -0.330 N 
ATOM      7  H6  UNL     1      32.935 -29.477 -39.657  1.00  0.00     0.168 HD
ENDROOT
BRANCH   1   8
HETATM    8  S1  UNL     1      34.413 -31.575 -38.483  1.00  0.00     0.280 S 
HETATM    9  O2  UNL     1      35.155 -32.881 -38.533  1.00  0.00    -0.199 OA
HETATM   10  O3  UNL     1      35.420 -30.496 -38.207  1.00  0.00    -0.199 OA
BRANCH   8  11
HETATM   11  N2  UNL     1      33.119 -31.587 -37.380  1.00  0.00    -0.264 N 
ATOM     12  H2  UNL     1      33.133 -30.887 -36.639  1.00  0.00     0.180 HD
BRANCH  11  13
HETATM   13  C3  UNL     1      32.138 -32.389 -37.399  1.00  0.00     0.120 A 
HETATM   14  C2  UNL     1      30.892 -31.916 -37.743  1.00  0.00     0.099 A 
HETATM   15  C1  UNL     1      29.820 -32.784 -37.765  1.00  0.00     0.130 A 
HETATM   16  N8  UNL     1      30.069 -34.066 -37.440  1.00  0.00    -0.318 N 
HETATM   17  C17 UNL     1      31.282 -34.526 -37.105  1.00  0.00     0.179 A 
ATOM     18  H8  UNL     1      29.291 -34.724 -37.449  1.00  0.00     0.170 HD
HETATM   19  N7  UNL     1      32.323 -33.681 -37.084  1.00  0.00    -0.319 N 
HETATM   20  S3  UNL     1      31.540 -36.100 -36.715  1.00  0.00    -0.040 SA
ATOM     21  H7  UNL     1      33.253 -34.018 -36.831  1.00  0.00     0.170 HD
BRANCH  15  22
HETATM   22  N1  UNL     1      28.510 -32.355 -38.112  1.00  0.00    -0.253 N 
ATOM     23  H1  UNL     1      27.761 -32.471 -37.429  1.00  0.00     0.196 HD
BRANCH  22  24
HETATM   24  O1  UNL     1      28.234 -31.840 -39.218  1.00  0.00    -0.288 OA
ATOM     25  H1  UNL     1      28.616 -31.024 -39.518  1.00  0.00     0.244 HD
ENDBRANCH  22  24
ENDBRANCH  15  22
ENDBRANCH  11  13
ENDBRANCH   8  11
ENDBRANCH   1   8
BRANCH   5  26
HETATM   26  N3  UNL     1      31.894 -28.669 -41.817  1.00  0.00    -0.354 N 
ATOM     27  H3  UNL     1      32.442 -27.811 -41.879  1.00  0.00     0.163 HD
BRANCH  26  28
HETATM   28  C9  UNL     1      30.483 -28.545 -41.930  1.00  0.00     0.202 C 
HETATM   29  C10 UNL     1      29.920 -27.203 -41.542  1.00  0.00     0.085 C 
HETATM   30  C11 UNL     1      30.091 -27.042 -40.082  1.00  0.00    -0.026 A 
HETATM   31  C12 UNL     1      30.419 -25.838 -39.490  1.00  0.00     0.035 A 
HETATM   32  C16 UNL     1      29.906 -28.171 -39.293  1.00  0.00     0.051 A 
HETATM   33  C13 UNL     1      30.573 -25.711 -38.124  1.00  0.00     0.081 A 
HETATM   34  C14 UNL     1      30.390 -26.831 -37.341  1.00  0.00     0.028 A 
HETATM   35  C15 UNL     1      30.062 -28.031 -37.935  1.00  0.00     0.032 A 
HETATM   36  N4  UNL     1      29.571 -29.386 -39.925  1.00  0.00    -0.302 N 
HETATM   37  N5  UNL     1      29.839 -29.637 -41.271  1.00  0.00    -0.115 NA
ATOM     38  H4  UNL     1      29.114 -30.113 -39.375  1.00  0.00     0.182 HD
BRANCH  33  39
HETATM   39  S2  UNL     1      30.995 -24.153 -37.402  1.00  0.00     0.137 S 
HETATM   40  O5  UNL     1      32.322 -23.740 -37.913  1.00  0.00    -0.591 OA
HETATM   41  O6  UNL     1      30.957 -24.224 -35.905  1.00  0.00    -0.591 OA
HETATM   42  O7  UNL     1      29.851 -23.003 -37.866  1.00  0.00    -0.591 OA
ENDBRANCH  33  39
ENDBRANCH  26  28
ENDBRANCH   5  26
BRANCH   4  43
HETATM   43  O4  UNL     1      32.311 -30.517 -43.946  1.00  0.00    -0.357 OA
ATOM     44  H4  UNL     1      32.230 -29.627 -44.266  1.00  0.00     0.218 HD
ENDBRANCH   4  43
TORSDOF 9
ENDMDL
MODEL 3
REMARK VINA RESULT: -8.320893441      2.458      7.626
REMARK  9 active torsions:
REMARK  status: ('A' for Active; 'I' for Inactive)
REMARK    1  A    between atoms: O1_1  and  N1_3 
REMARK    2  A    between atoms: N1_3  and  C1_5 
REMARK    3  A    between atoms: C3_7  and  N2_8 
REMARK    4  A    between atoms: N2_8  and  S1_10 
REMARK    5  A    between atoms: S1_10  and  C4_13 
REMARK    6  A    between atoms: C7_16  and  O4_17 
REMARK    7  A    between atoms: C8_19  and  N3_20 
REMARK    8  A    between atoms: N3_20  and  C9_22 
REMARK    9  A    between atoms: C13_26  and  S2_27 
ROOT
HETATM    1  C4  UNL     1      32.105 -28.632 -39.826  1.00  0.00     0.151 A 
HETATM    2  C5  UNL     1      31.557 -29.427 -40.813  1.00  0.00     0.046 A 
HETATM    3  C6  UNL     1      30.615 -28.906 -41.679  1.00  0.00     0.043 A 
HETATM    4  C7  UNL     1      30.212 -27.593 -41.568  1.00  0.00     0.109 A 
HETATM    5  C8  UNL     1      30.775 -26.821 -40.574  1.00  0.00     0.137 A 
HETATM    6  N6  UNL     1      31.690 -27.361 -39.749  1.00  0.00    -0.330 N 
ATOM      7  H6  UNL     1      32.090 -26.768 -39.022  1.00  0.00     0.168 HD
ENDROOT
BRANCH   1   8
HETATM    8  S1  UNL     1      33.312 -29.294 -38.715  1.00  0.00     0.280 S 
HETATM    9  O2  UNL     1      34.182 -30.230 -39.506  1.00  0.00    -0.199 OA
HETATM   10  O3  UNL     1      34.168 -28.136 -38.290  1.00  0.00    -0.199 OA
BRANCH   8  11
HETATM   11  N2  UNL     1      32.519 -30.057 -37.419  1.00  0.00    -0.264 N 
ATOM     12  H2  UNL     1      32.548 -29.587 -36.514  1.00  0.00     0.180 HD
BRANCH  11  13
HETATM   13  C3  UNL     1      31.896 -31.158 -37.478  1.00  0.00     0.120 A 
HETATM   14  C2  UNL     1      30.539 -31.149 -37.711  1.00  0.00     0.099 A 
HETATM   15  C1  UNL     1      29.854 -32.344 -37.777  1.00  0.00     0.130 A 
HETATM   16  N8  UNL     1      30.575 -33.468 -37.603  1.00  0.00    -0.318 N 
HETATM   17  C17 UNL     1      31.895 -33.477 -37.375  1.00  0.00     0.179 A 
ATOM     18  H8  UNL     1      30.089 -34.363 -37.647  1.00  0.00     0.170 HD
HETATM   19  N7  UNL     1      32.560 -32.313 -37.312  1.00  0.00    -0.319 N 
HETATM   20  S3  UNL     1      32.735 -34.873 -37.168  1.00  0.00    -0.040 SA
ATOM     21  H7  UNL     1      33.565 -32.306 -37.139  1.00  0.00     0.170 HD
BRANCH  15  22
HETATM   22  N1  UNL     1      28.454 -32.399 -38.015  1.00  0.00    -0.253 N 
ATOM     23  H1  UNL     1      27.845 -32.733 -37.269  1.00  0.00     0.196 HD
BRANCH  22  24
HETATM   24  O1  UNL     1      27.935 -32.054 -39.100  1.00  0.00    -0.288 OA
ATOM     25  H1  UNL     1      27.030 -31.777 -39.174  1.00  0.00     0.244 HD
ENDBRANCH  22  24
ENDBRANCH  15  22
ENDBRANCH  11  13
ENDBRANCH   8  11
ENDBRANCH   1   8
BRANCH   5  26
HETATM   26  N3  UNL     1      30.416 -25.460 -40.397  1.00  0.00    -0.354 N 
ATOM     27  H3  UNL     1      30.986 -24.764 -40.878  1.00  0.00     0.163 HD
BRANCH  26  28
HETATM   28  C9  UNL     1      29.335 -24.981 -39.609  1.00  0.00     0.202 C 
HETATM   29  C10 UNL     1      29.612 -23.720 -38.833  1.00  0.00     0.085 C 
HETATM   30  C11 UNL     1      30.596 -24.042 -37.778  1.00  0.00    -0.026 A 
HETATM   31  C12 UNL     1      31.606 -23.179 -37.400  1.00  0.00     0.035 A 
HETATM   32  C16 UNL     1      30.476 -25.277 -37.151  1.00  0.00     0.051 A 
HETATM   33  C13 UNL     1      32.514 -23.500 -36.411  1.00  0.00     0.081 A 
HETATM   34  C14 UNL     1      32.394 -24.725 -35.791  1.00  0.00     0.028 A 
HETATM   35  C15 UNL     1      31.385 -25.585 -36.169  1.00  0.00     0.032 A 
HETATM   36  N4  UNL     1      29.435 -26.138 -37.557  1.00  0.00    -0.302 N 
HETATM   37  N5  UNL     1      28.811 -26.036 -38.800  1.00  0.00    -0.115 NA
ATOM     38  H4  UNL     1      29.125 -26.866 -36.914  1.00  0.00     0.182 HD
BRANCH  33  39
HETATM   39  S2  UNL     1      33.795 -22.368 -35.956  1.00  0.00     0.137 S 
HETATM   40  O5  UNL     1      33.753 -22.172 -34.489  1.00  0.00    -0.591 OA
HETATM   41  O6  UNL     1      33.666 -21.077 -36.708  1.00  0.00    -0.591 OA
HETATM   42  O7  UNL     1      35.289 -23.031 -36.375  1.00  0.00    -0.591 OA
ENDBRANCH  33  39
ENDBRANCH  26  28
ENDBRANCH   5  26
BRANCH   4  43
HETATM   43  O4  UNL     1      29.254 -27.063 -42.447  1.00  0.00    -0.357 OA
ATOM     44  H4  UNL     1      28.327 -27.194 -42.287  1.00  0.00     0.218 HD
ENDBRANCH   4  43
TORSDOF 9
ENDMDL
MODEL 4
REMARK VINA RESULT: -8.133896893      1.750      2.117
REMARK  9 active torsions:
REMARK  status: ('A' for Active; 'I' for Inactive)
REMARK    1  A    between atoms: O1_1  and  N1_3 
REMARK    2  A    between atoms: N1_3  and  C1_5 
REMARK    3  A    between atoms: C3_7  and  N2_8 
REMARK    4  A    between atoms: N2_8  and  S1_10 
REMARK    5  A    between atoms: S1_10  and  C4_13 
REMARK    6  A    between atoms: C7_16  and  O4_17 
REMARK    7  A    between atoms: C8_19  and  N3_20 
REMARK    8  A    between atoms: N3_20  and  C9_22 
REMARK    9  A    between atoms: C13_26  and  S2_27 
ROOT
HETATM    1  C4  UNL     1      30.259 -26.446 -41.376  1.00  0.00     0.151 A 
HETATM    2  C5  UNL     1      31.533 -26.659 -41.863  1.00  0.00     0.046 A 
HETATM    3  C6  UNL     1      32.106 -27.914 -41.781  1.00  0.00     0.043 A 
HETATM    4  C7  UNL     1      31.415 -28.962 -41.213  1.00  0.00     0.109 A 
HETATM    5  C8  UNL     1      30.145 -28.723 -40.734  1.00  0.00     0.137 A 
HETATM    6  N6  UNL     1      29.619 -27.489 -40.831  1.00  0.00    -0.330 N 
ATOM      7  H6  UNL     1      28.677 -27.338 -40.469  1.00  0.00     0.168 HD
ENDROOT
BRANCH   1   8
HETATM    8  S1  UNL     1      29.521 -24.841 -41.480  1.00  0.00     0.280 S 
HETATM    9  O2  UNL     1      30.474 -23.959 -42.235  1.00  0.00    -0.199 OA
HETATM   10  O3  UNL     1      28.290 -25.001 -42.324  1.00  0.00    -0.199 OA
BRANCH   8  11
HETATM   11  N2  UNL     1      29.193 -24.275 -39.910  1.00  0.00    -0.264 N 
ATOM     12  H2  UNL     1      28.212 -24.206 -39.636  1.00  0.00     0.180 HD
BRANCH  11  13
HETATM   13  C3  UNL     1      30.057 -23.933 -39.050  1.00  0.00     0.120 A 
HETATM   14  C2  UNL     1      30.247 -24.722 -37.938  1.00  0.00     0.099 A 
HETATM   15  C1  UNL     1      31.188 -24.355 -36.999  1.00  0.00     0.130 A 
HETATM   16  N8  UNL     1      31.873 -23.221 -37.236  1.00  0.00    -0.318 N 
HETATM   17  C17 UNL     1      31.689 -22.453 -38.317  1.00  0.00     0.179 A 
ATOM     18  H8  UNL     1      32.573 -22.931 -36.554  1.00  0.00     0.170 HD
HETATM   19  N7  UNL     1      30.774 -22.812 -39.231  1.00  0.00    -0.319 N 
HETATM   20  S3  UNL     1      32.549 -21.077 -38.567  1.00  0.00    -0.040 SA
ATOM     21  H7  UNL     1      30.623 -22.236 -40.059  1.00  0.00     0.170 HD
BRANCH  15  22
HETATM   22  N1  UNL     1      31.429 -25.130 -35.831  1.00  0.00    -0.253 N 
ATOM     23  H1  UNL     1      30.654 -25.657 -35.428  1.00  0.00     0.196 HD
BRANCH  22  24
HETATM   24  O1  UNL     1      32.548 -25.193 -35.277  1.00  0.00    -0.288 OA
ATOM     25  H1  UNL     1      32.677 -25.016 -34.352  1.00  0.00     0.244 HD
ENDBRANCH  22  24
ENDBRANCH  15  22
ENDBRANCH  11  13
ENDBRANCH   8  11
ENDBRANCH   1   8
BRANCH   5  26
HETATM   26  N3  UNL     1      29.369 -29.750 -40.140  1.00  0.00    -0.354 N 
ATOM     27  H3  UNL     1      29.084 -30.524 -40.741  1.00  0.00     0.163 HD
BRANCH  26  28
HETATM   28  C9  UNL     1      28.952 -29.796 -38.782  1.00  0.00     0.202 C 
HETATM   29  C10 UNL     1      29.545 -28.739 -37.889  1.00  0.00     0.085 C 
HETATM   30  C11 UNL     1      30.988 -29.026 -37.740  1.00  0.00    -0.026 A 
HETATM   31  C12 UNL     1      31.952 -28.038 -37.691  1.00  0.00     0.035 A 
HETATM   32  C16 UNL     1      31.364 -30.361 -37.647  1.00  0.00     0.051 A 
HETATM   33  C13 UNL     1      33.294 -28.329 -37.551  1.00  0.00     0.081 A 
HETATM   34  C14 UNL     1      33.667 -29.653 -37.458  1.00  0.00     0.028 A 
HETATM   35  C15 UNL     1      32.702 -30.638 -37.508  1.00  0.00     0.032 A 
HETATM   36  N4  UNL     1      30.359 -31.348 -37.700  1.00  0.00    -0.302 N 
HETATM   37  N5  UNL     1      29.105 -31.120 -38.266  1.00  0.00    -0.115 NA
ATOM     38  H4  UNL     1      30.556 -32.268 -37.307  1.00  0.00     0.182 HD
BRANCH  33  39
HETATM   39  S2  UNL     1      34.500 -27.036 -37.493  1.00  0.00     0.137 S 
HETATM   40  O5  UNL     1      35.046 -26.961 -36.119  1.00  0.00    -0.591 OA
HETATM   41  O6  UNL     1      33.915 -25.733 -37.946  1.00  0.00    -0.591 OA
HETATM   42  O7  UNL     1      35.754 -27.406 -38.559  1.00  0.00    -0.591 OA
ENDBRANCH  33  39
ENDBRANCH  26  28
ENDBRANCH   5  26
BRANCH   4  43
HETATM   43  O4  UNL     1      31.997 -30.238 -41.128  1.00  0.00    -0.357 OA
ATOM     44  H4  UNL     1      31.910 -30.857 -41.844  1.00  0.00     0.218 HD
ENDBRANCH   4  43
TORSDOF 9
ENDMDL
MODEL 5
REMARK VINA RESULT: -8.063333644      1.164      1.675
REMARK  9 active torsions:
REMARK  status: ('A' for Active; 'I' for Inactive)
REMARK    1  A    between atoms: O1_1  and  N1_3 
REMARK    2  A    between atoms: N1_3  and  C1_5 
REMARK    3  A    between atoms: C3_7  and  N2_8 
REMARK    4  A    between atoms: N2_8  and  S1_10 
REMARK    5  A    between atoms: S1_10  and  C4_13 
REMARK    6  A    between atoms: C7_16  and  O4_17 
REMARK    7  A    between atoms: C8_19  and  N3_20 
REMARK    8  A    between atoms: N3_20  and  C9_22 
REMARK    9  A    between atoms: C13_26  and  S2_27 
ROOT
HETATM    1  C4  UNL     1      30.387 -26.641 -41.088  1.00  0.00     0.151 A 
HETATM    2  C5  UNL     1      31.569 -27.014 -41.697  1.00  0.00     0.046 A 
HETATM    3  C6  UNL     1      31.941 -28.344 -41.732  1.00  0.00     0.043 A 
HETATM    4  C7  UNL     1      31.140 -29.310 -41.161  1.00  0.00     0.109 A 
HETATM    5  C8  UNL     1      29.966 -28.911 -40.560  1.00  0.00     0.137 A 
HETATM    6  N6  UNL     1      29.635 -27.607 -40.545  1.00  0.00    -0.330 N 
ATOM      7  H6  UNL     1      28.761 -27.339 -40.094  1.00  0.00     0.168 HD
ENDROOT
BRANCH   1   8
HETATM    8  S1  UNL     1      29.906 -24.939 -41.042  1.00  0.00     0.280 S 
HETATM    9  O2  UNL     1      30.939 -24.161 -41.806  1.00  0.00    -0.199 OA
HETATM   10  O3  UNL     1      28.617 -24.848 -41.806  1.00  0.00    -0.199 OA
BRANCH   8  11
HETATM   11  N2  UNL     1      29.764 -24.443 -39.421  1.00  0.00    -0.264 N 
ATOM     12  H2  UNL     1      28.873 -24.040 -39.135  1.00  0.00     0.180 HD
BRANCH  11  13
HETATM   13  C3  UNL     1      30.668 -24.532 -38.538  1.00  0.00     0.120 A 
HETATM   14  C2  UNL     1      30.867 -23.480 -37.673  1.00  0.00     0.099 A 
HETATM   15  C1  UNL     1      31.849 -23.570 -36.709  1.00  0.00     0.130 A 
HETATM   16  N8  UNL     1      32.567 -24.708 -36.678  1.00  0.00    -0.318 N 
HETATM   17  C17 UNL     1      32.375 -25.732 -37.520  1.00  0.00     0.179 A 
ATOM     18  H8  UNL     1      33.299 -24.795 -35.974  1.00  0.00     0.170 HD
HETATM   19  N7  UNL     1      31.418 -25.643 -38.457  1.00  0.00    -0.319 N 
HETATM   20  S3  UNL     1      33.275 -27.103 -37.446  1.00  0.00    -0.040 SA
ATOM     21  H7  UNL     1      31.261 -26.415 -39.104  1.00  0.00     0.170 HD
BRANCH  15  22
HETATM   22  N1  UNL     1      32.100 -22.517 -35.788  1.00  0.00    -0.253 N 
ATOM     23  H1  UNL     1      32.223 -21.571 -36.151  1.00  0.00     0.196 HD
BRANCH  22  24
HETATM   24  O1  UNL     1      32.177 -22.697 -34.553  1.00  0.00    -0.288 OA
ATOM     25  H1  UNL     1      33.002 -22.814 -34.099  1.00  0.00     0.244 HD
ENDBRANCH  22  24
ENDBRANCH  15  22
ENDBRANCH  11  13
ENDBRANCH   8  11
ENDBRANCH   1   8
BRANCH   5  26
HETATM   26  N3  UNL     1      29.086 -29.844 -39.955  1.00  0.00    -0.354 N 
ATOM     27  H3  UNL     1      28.742 -30.605 -40.540  1.00  0.00     0.163 HD
BRANCH  26  28
HETATM   28  C9  UNL     1      28.642 -29.813 -38.605  1.00  0.00     0.202 C 
HETATM   29  C10 UNL     1      29.717 -29.570 -37.578  1.00  0.00     0.085 C 
HETATM   30  C11 UNL     1      30.596 -30.759 -37.548  1.00  0.00    -0.026 A 
HETATM   31  C12 UNL     1      31.964 -30.681 -37.382  1.00  0.00     0.035 A 
HETATM   32  C16 UNL     1      29.989 -32.001 -37.695  1.00  0.00     0.051 A 
HETATM   33  C13 UNL     1      32.765 -31.805 -37.356  1.00  0.00     0.081 A 
HETATM   34  C14 UNL     1      32.164 -33.036 -37.502  1.00  0.00     0.028 A 
HETATM   35  C15 UNL     1      30.797 -33.112 -37.668  1.00  0.00     0.032 A 
HETATM   36  N4  UNL     1      28.590 -32.051 -37.863  1.00  0.00    -0.302 N 
HETATM   37  N5  UNL     1      27.845 -30.965 -38.323  1.00  0.00    -0.115 NA
ATOM     38  H4  UNL     1      28.101 -32.917 -37.638  1.00  0.00     0.182 HD
BRANCH  33  39
HETATM   39  S2  UNL     1      34.515 -31.665 -37.143  1.00  0.00     0.137 S 
HETATM   40  O5  UNL     1      34.940 -32.615 -36.090  1.00  0.00    -0.591 OA
HETATM   41  O6  UNL     1      34.909 -30.253 -36.829  1.00  0.00    -0.591 OA
HETATM   42  O7  UNL     1      35.281 -32.076 -38.589  1.00  0.00    -0.591 OA
ENDBRANCH  33  39
ENDBRANCH  26  28
ENDBRANCH   5  26
BRANCH   4  43
HETATM   43  O4  UNL     1      31.518 -30.662 -41.196  1.00  0.00    -0.357 OA
ATOM     44  H4  UNL     1      32.403 -30.910 -41.435  1.00  0.00     0.218 HD
ENDBRANCH   4  43
TORSDOF 9
ENDMDL
