MODEL 1
REMARK VINA RESULT: -5.466628617      0.000      0.000
REMARK  6 active torsions:
REMARK  status: ('A' for Active; 'I' for Inactive)
REMARK    1  A    between atoms: S1_2  and  C2_4 
REMARK    2  A    between atoms: C2_4  and  N1_5 
REMARK    3  A    between atoms: N1_5  and  C3_7 
REMARK    4  A    between atoms: C3_7  and  C4_8 
REMARK    5  A    between atoms: C4_8  and  C5_9 
REMARK    6  A    between atoms: C6_12  and  N4_13 
ROOT
HETATM    1  C5  UNL     1      24.840  -4.383  10.213  1.00  0.00     0.144 C 
HETATM    2  N2  UNL     1      25.256  -4.577   8.825  1.00  0.00    -0.138 NA
HETATM    3  N3  UNL     1      25.348  -3.158   8.767  1.00  0.00    -0.113 NA
HETATM    4  C6  UNL     1      25.862  -3.243  10.130  1.00  0.00     0.311 C 
ENDROOT
BRANCH   1   5
HETATM    5  C4  UNL     1      25.293  -5.434  11.181  1.00  0.00     0.045 C 
BRANCH   5   6
HETATM    6  C3  UNL     1      24.356  -5.569  12.345  1.00  0.00     0.116 C 
BRANCH   6   7
HETATM    7  N1  UNL     1      24.379  -4.418  13.185  1.00  0.00    -0.411 N 
ATOM      8  H1  UNL     1      23.551  -3.844  13.346  1.00  0.00     0.154 HD
BRANCH   7   9
HETATM    9  C2  UNL     1      25.643  -4.126  13.786  1.00  0.00     0.222 C 
BRANCH   9  10
HETATM   10  S1  UNL     1      25.800  -4.866  15.394  1.00  0.00     0.028 S 
HETATM   11  C1  UNL     1      26.440  -6.536  15.260  1.00  0.00     0.129 C 
HETATM   12  O1  UNL     1      24.271  -5.013  16.113  1.00  0.00    -0.257 OA
ENDBRANCH   9  10
ENDBRANCH   7   9
ENDBRANCH   6   7
ENDBRANCH   5   6
ENDBRANCH   1   5
BRANCH   4  13
HETATM   13  N4  UNL     1      27.220  -3.779  10.102  1.00  0.00    -0.058 N 
ATOM     14  H43 UNL     1      27.262  -4.682   9.628  1.00  0.00     0.276 HD
ATOM     15  H42 UNL     1      27.824  -3.250   9.473  1.00  0.00     0.276 HD
ATOM     16  H41 UNL     1      27.602  -3.827  11.046  1.00  0.00     0.276 HD
ENDBRANCH   4  13
TORSDOF 6
ENDMDL
MODEL 2
REMARK VINA RESULT: -5.456549864      1.264      1.621
REMARK  6 active torsions:
REMARK  status: ('A' for Active; 'I' for Inactive)
REMARK    1  A    between atoms: S1_2  and  C2_4 
REMARK    2  A    between atoms: C2_4  and  N1_5 
REMARK    3  A    between atoms: N1_5  and  C3_7 
REMARK    4  A    between atoms: C3_7  and  C4_8 
REMARK    5  A    between atoms: C4_8  and  C5_9 
REMARK    6  A    between atoms: C6_12  and  N4_13 
ROOT
HETATM    1  C5  UNL     1      26.198  -3.017  10.442  1.00  0.00     0.144 C 
HETATM    2  N2  UNL     1      24.775  -2.921  10.120  1.00  0.00    -0.138 NA
HETATM    3  N3  UNL     1      25.185  -3.019   8.761  1.00  0.00    -0.113 NA
HETATM    4  C6  UNL     1      26.180  -3.972   9.243  1.00  0.00     0.311 C 
ENDROOT
BRANCH   1   5
HETATM    5  C4  UNL     1      26.531  -3.754  11.704  1.00  0.00     0.045 C 
BRANCH   5   6
HETATM    6  C3  UNL     1      25.586  -3.416  12.820  1.00  0.00     0.116 C 
BRANCH   6   7
HETATM    7  N1  UNL     1      24.512  -4.350  12.911  1.00  0.00    -0.411 N 
ATOM      8  H1  UNL     1      23.551  -4.101  12.676  1.00  0.00     0.154 HD
BRANCH   7   9
HETATM    9  C2  UNL     1      24.879  -5.659  13.353  1.00  0.00     0.222 C 
BRANCH   9  10
HETATM   10  S1  UNL     1      25.493  -5.650  15.020  1.00  0.00     0.028 S 
HETATM   11  C1  UNL     1      25.697  -7.326  15.625  1.00  0.00     0.129 C 
HETATM   12  O1  UNL     1      24.359  -4.922  16.049  1.00  0.00    -0.257 OA
ENDBRANCH   9  10
ENDBRANCH   7   9
ENDBRANCH   6   7
ENDBRANCH   5   6
ENDBRANCH   1   5
BRANCH   4  13
HETATM   13  N4  UNL     1      25.516  -5.223   9.600  1.00  0.00    -0.058 N 
ATOM     14  H43 UNL     1      26.153  -5.874  10.060  1.00  0.00     0.276 HD
ATOM     15  H42 UNL     1      24.852  -5.096  10.365  1.00  0.00     0.276 HD
ATOM     16  H41 UNL     1      25.075  -5.638   8.779  1.00  0.00     0.276 HD
ENDBRANCH   4  13
TORSDOF 6
ENDMDL
MODEL 3
REMARK VINA RESULT: -5.337416774      3.277      5.573
REMARK  6 active torsions:
REMARK  status: ('A' for Active; 'I' for Inactive)
REMARK    1  A    between atoms: S1_2  and  C2_4 
REMARK    2  A    between atoms: C2_4  and  N1_5 
REMARK    3  A    between atoms: N1_5  and  C3_7 
REMARK    4  A    between atoms: C3_7  and  C4_8 
REMARK    5  A    between atoms: C4_8  and  C5_9 
REMARK    6  A    between atoms: C6_12  and  N4_13 
ROOT
HETATM    1  C5  UNL     1      25.423  -6.667  15.547  1.00  0.00     0.144 C 
HETATM    2  N2  UNL     1      26.204  -5.726  16.347  1.00  0.00    -0.138 NA
HETATM    3  N3  UNL     1      26.632  -6.869  17.079  1.00  0.00    -0.113 NA
HETATM    4  C6  UNL     1      26.650  -7.553  15.790  1.00  0.00     0.311 C 
ENDROOT
BRANCH   1   5
HETATM    5  C4  UNL     1      25.290  -6.329  14.092  1.00  0.00     0.045 C 
BRANCH   5   6
HETATM    6  C3  UNL     1      25.214  -4.848  13.862  1.00  0.00     0.116 C 
BRANCH   6   7
HETATM    7  N1  UNL     1      24.102  -4.492  13.045  1.00  0.00    -0.411 N 
ATOM      8  H1  UNL     1      23.276  -4.025  13.421  1.00  0.00     0.154 HD
BRANCH   7   9
HETATM    9  C2  UNL     1      24.225  -4.835  11.663  1.00  0.00     0.222 C 
BRANCH   9  10
HETATM   10  S1  UNL     1      24.719  -3.443  10.675  1.00  0.00     0.028 S 
HETATM   11  C1  UNL     1      26.493  -3.198  10.775  1.00  0.00     0.129 C 
HETATM   12  O1  UNL     1      24.021  -2.024  11.288  1.00  0.00    -0.257 OA
ENDBRANCH   9  10
ENDBRANCH   7   9
ENDBRANCH   6   7
ENDBRANCH   5   6
ENDBRANCH   1   5
BRANCH   4  13
HETATM   13  N4  UNL     1      27.785  -7.074  15.005  1.00  0.00    -0.058 N 
ATOM     14  H43 UNL     1      28.061  -6.129  15.273  1.00  0.00     0.276 HD
ATOM     15  H42 UNL     1      28.648  -7.559  15.251  1.00  0.00     0.276 HD
ATOM     16  H41 UNL     1      27.582  -7.143  14.008  1.00  0.00     0.276 HD
ENDBRANCH   4  13
TORSDOF 6
ENDMDL
MODEL 4
REMARK VINA RESULT: -5.249392936      3.543      5.321
REMARK  6 active torsions:
REMARK  status: ('A' for Active; 'I' for Inactive)
REMARK    1  A    between atoms: S1_2  and  C2_4 
REMARK    2  A    between atoms: C2_4  and  N1_5 
REMARK    3  A    between atoms: N1_5  and  C3_7 
REMARK    4  A    between atoms: C3_7  and  C4_8 
REMARK    5  A    between atoms: C4_8  and  C5_9 
REMARK    6  A    between atoms: C6_12  and  N4_13 
ROOT
HETATM    1  C5  UNL     1      25.608  -4.828  14.060  1.00  0.00     0.144 C 
HETATM    2  N2  UNL     1      26.743  -5.396  14.784  1.00  0.00    -0.138 NA
HETATM    3  N3  UNL     1      26.404  -4.481  15.819  1.00  0.00    -0.113 NA
HETATM    4  C6  UNL     1      25.016  -4.771  15.473  1.00  0.00     0.311 C 
ENDROOT
BRANCH   1   5
HETATM    5  C4  UNL     1      24.839  -5.786  13.200  1.00  0.00     0.045 C 
BRANCH   5   6
HETATM    6  C3  UNL     1      24.676  -5.277  11.798  1.00  0.00     0.116 C 
BRANCH   6   7
HETATM    7  N1  UNL     1      23.862  -4.108  11.746  1.00  0.00    -0.411 N 
ATOM      8  H1  UNL     1      22.944  -4.061  12.187  1.00  0.00     0.154 HD
BRANCH   7   9
HETATM    9  C2  UNL     1      24.426  -3.004  11.032  1.00  0.00     0.222 C 
BRANCH   9  10
HETATM   10  S1  UNL     1      25.591  -3.536   9.800  1.00  0.00     0.028 S 
HETATM   11  C1  UNL     1      27.252  -3.022  10.241  1.00  0.00     0.129 C 
HETATM   12  O1  UNL     1      25.251  -2.780   8.321  1.00  0.00    -0.257 OA
ENDBRANCH   9  10
ENDBRANCH   7   9
ENDBRANCH   6   7
ENDBRANCH   5   6
ENDBRANCH   1   5
BRANCH   4  13
HETATM   13  N4  UNL     1      24.674  -6.113  15.935  1.00  0.00    -0.058 N 
ATOM     14  H43 UNL     1      23.781  -6.429  15.557  1.00  0.00     0.276 HD
ATOM     15  H42 UNL     1      25.275  -6.824  15.516  1.00  0.00     0.276 HD
ATOM     16  H41 UNL     1      24.692  -6.153  16.954  1.00  0.00     0.276 HD
ENDBRANCH   4  13
TORSDOF 6
ENDMDL
MODEL 5
REMARK VINA RESULT: -5.236353914      2.731      4.991
REMARK  6 active torsions:
REMARK  status: ('A' for Active; 'I' for Inactive)
REMARK    1  A    between atoms: S1_2  and  C2_4 
REMARK    2  A    between atoms: C2_4  and  N1_5 
REMARK    3  A    between atoms: N1_5  and  C3_7 
REMARK    4  A    between atoms: C3_7  and  C4_8 
REMARK    5  A    between atoms: C4_8  and  C5_9 
REMARK    6  A    between atoms: C6_12  and  N4_13 
ROOT
HETATM    1  C5  UNL     1      26.045  -6.267  14.818  1.00  0.00     0.144 C 
HETATM    2  N2  UNL     1      25.349  -6.223  16.103  1.00  0.00    -0.138 NA
HETATM    3  N3  UNL     1      26.097  -5.038  16.346  1.00  0.00    -0.113 NA
HETATM    4  C6  UNL     1      25.891  -4.746  14.931  1.00  0.00     0.311 C 
ENDROOT
BRANCH   1   5
HETATM    5  C4  UNL     1      25.247  -6.798  13.664  1.00  0.00     0.045 C 
BRANCH   5   6
HETATM    6  C3  UNL     1      26.109  -7.091  12.472  1.00  0.00     0.116 C 
BRANCH   6   7
HETATM    7  N1  UNL     1      26.364  -5.921  11.697  1.00  0.00    -0.411 N 
ATOM      8  H1  UNL     1      27.157  -5.307  11.881  1.00  0.00     0.154 HD
BRANCH   7   9
HETATM    9  C2  UNL     1      25.429  -5.671  10.645  1.00  0.00     0.222 C 
BRANCH   9  10
HETATM   10  S1  UNL     1      24.495  -4.186  10.925  1.00  0.00     0.028 S 
HETATM   11  C1  UNL     1      25.554  -2.888  11.567  1.00  0.00     0.129 C 
HETATM   12  O1  UNL     1      23.323  -4.459  12.120  1.00  0.00    -0.257 OA
ENDBRANCH   9  10
ENDBRANCH   7   9
ENDBRANCH   6   7
ENDBRANCH   5   6
ENDBRANCH   1   5
BRANCH   4  13
HETATM   13  N4  UNL     1      24.499  -4.359  14.717  1.00  0.00    -0.058 N 
ATOM     14  H43 UNL     1      23.887  -4.720  15.448  1.00  0.00     0.276 HD
ATOM     15  H42 UNL     1      24.353  -3.362  14.876  1.00  0.00     0.276 HD
ATOM     16  H41 UNL     1      24.191  -4.644  13.787  1.00  0.00     0.276 HD
ENDBRANCH   4  13
TORSDOF 6
ENDMDL
