MODEL 1
REMARK VINA RESULT: -5.366438673      0.000      0.000
REMARK  7 active torsions:
REMARK  status: ('A' for Active; 'I' for Inactive)
REMARK    1  A    between atoms: N1_1  and  C1_5 
REMARK    2  A    between atoms: C1_5  and  C2_6 
REMARK    3  A    between atoms: C2_6  and  O1_7 
REMARK    4  A    between atoms: O1_7  and  C3_8 
REMARK    5  A    between atoms: C3_8  and  C4_9 
REMARK    6  A    between atoms: C4_9  and  N2_10 
REMARK    7  A    between atoms: N2_10  and  C5_12 
ROOT
HETATM    1  C5  UNL     1      26.295  -6.785  11.970  1.00  0.00     0.182 C 
HETATM    2  C6  UNL     1      24.938  -6.696  12.635  1.00  0.00     0.107 C 
HETATM    3  C7  UNL     1      24.457  -5.372  12.152  1.00  0.00     0.057 A 
HETATM    4  N3  UNL     1      23.381  -4.606  11.902  1.00  0.00    -0.303 N 
ATOM      5  H3  UNL     1      22.412  -4.899  12.033  1.00  0.00     0.186 HD
HETATM    6  N4  UNL     1      23.764  -3.408  11.458  1.00  0.00    -0.309 N 
ATOM      7  H4  UNL     1      23.153  -2.635  11.193  1.00  0.00     0.186 HD
HETATM    8  C8  UNL     1      25.120  -3.409  11.423  1.00  0.00     0.138 A 
HETATM    9  C9  UNL     1      25.597  -4.625  11.851  1.00  0.00     0.071 A 
HETATM   10  N5  UNL     1      26.752  -5.422  12.104  1.00  0.00    -0.366 N 
ATOM     11  H5  UNL     1      27.694  -5.101  12.329  1.00  0.00     0.162 HD
ENDROOT
BRANCH   1  12
HETATM   12  N2  UNL     1      27.142  -7.770  12.559  1.00  0.00    -0.399 N 
ATOM     13  H2  UNL     1      27.963  -8.139  12.079  1.00  0.00     0.155 HD
BRANCH  12  14
HETATM   14  C4  UNL     1      26.766  -8.200  13.858  1.00  0.00     0.142 C 
BRANCH  14  15
HETATM   15  C3  UNL     1      27.843  -7.709  14.834  1.00  0.00     0.186 C 
BRANCH  15  16
HETATM   16  O1  UNL     1      27.617  -6.388  15.180  1.00  0.00    -0.388 OA
BRANCH  16  17
HETATM   17  C2  UNL     1      26.385  -6.208  15.800  1.00  0.00     0.195 C 
BRANCH  17  18
HETATM   18  C1  UNL     1      25.883  -4.792  15.580  1.00  0.00     0.255 C 
BRANCH  18  19
HETATM   19  N1  UNL     1      24.476  -4.745  15.892  1.00  0.00    -0.077 N 
ATOM     20  H13 UNL     1      24.075  -3.819  15.747  1.00  0.00     0.274 HD
ATOM     21  H12 UNL     1      23.909  -5.253  15.212  1.00  0.00     0.274 HD
ATOM     22  H11 UNL     1      24.339  -5.085  16.844  1.00  0.00     0.274 HD
ENDBRANCH  18  19
ENDBRANCH  17  18
ENDBRANCH  16  17
ENDBRANCH  15  16
ENDBRANCH  14  15
ENDBRANCH  12  14
ENDBRANCH   1  12
TORSDOF 7
ENDMDL
MODEL 2
REMARK VINA RESULT: -5.314683375      2.294      5.303
REMARK  7 active torsions:
REMARK  status: ('A' for Active; 'I' for Inactive)
REMARK    1  A    between atoms: N1_1  and  C1_5 
REMARK    2  A    between atoms: C1_5  and  C2_6 
REMARK    3  A    between atoms: C2_6  and  O1_7 
REMARK    4  A    between atoms: O1_7  and  C3_8 
REMARK    5  A    between atoms: C3_8  and  C4_9 
REMARK    6  A    between atoms: C4_9  and  N2_10 
REMARK    7  A    between atoms: N2_10  and  C5_12 
ROOT
HETATM    1  C5  UNL     1      25.072  -6.796  15.606  1.00  0.00     0.182 C 
HETATM    2  C6  UNL     1      25.000  -7.590  14.319  1.00  0.00     0.107 C 
HETATM    3  C7  UNL     1      25.713  -8.840  14.702  1.00  0.00     0.057 A 
HETATM    4  N3  UNL     1      25.874 -10.149  14.441  1.00  0.00    -0.303 N 
ATOM      5  H3  UNL     1      25.372 -10.668  13.720  1.00  0.00     0.186 HD
HETATM    6  N4  UNL     1      26.788 -10.671  15.262  1.00  0.00    -0.309 N 
ATOM      7  H4  UNL     1      27.103 -11.641  15.282  1.00  0.00     0.186 HD
HETATM    8  C8  UNL     1      27.220  -9.669  16.068  1.00  0.00     0.138 A 
HETATM    9  C9  UNL     1      26.570  -8.500  15.750  1.00  0.00     0.071 A 
HETATM   10  N5  UNL     1      26.410  -7.114  16.047  1.00  0.00    -0.366 N 
ATOM     11  H5  UNL     1      27.090  -6.487  16.476  1.00  0.00     0.162 HD
ENDROOT
BRANCH   1  12
HETATM   12  N2  UNL     1      24.809  -5.407  15.421  1.00  0.00    -0.399 N 
ATOM     13  H2  UNL     1      23.884  -5.003  15.569  1.00  0.00     0.155 HD
BRANCH  12  14
HETATM   14  C4  UNL     1      25.923  -4.624  15.018  1.00  0.00     0.142 C 
BRANCH  14  15
HETATM   15  C3  UNL     1      25.588  -4.021  13.648  1.00  0.00     0.186 C 
BRANCH  15  16
HETATM   16  O1  UNL     1      24.282  -4.317  13.295  1.00  0.00    -0.388 OA
BRANCH  16  17
HETATM   17  C2  UNL     1      24.142  -4.546  11.930  1.00  0.00     0.195 C 
BRANCH  17  18
HETATM   18  C1  UNL     1      24.601  -3.333  11.140  1.00  0.00     0.255 C 
BRANCH  18  19
HETATM   19  N1  UNL     1      23.533  -2.364  11.119  1.00  0.00    -0.077 N 
ATOM     20  H13 UNL     1      23.605  -1.722  10.329  1.00  0.00     0.274 HD
ATOM     21  H12 UNL     1      22.633  -2.781  10.881  1.00  0.00     0.274 HD
ATOM     22  H11 UNL     1      23.513  -1.878  12.015  1.00  0.00     0.274 HD
ENDBRANCH  18  19
ENDBRANCH  17  18
ENDBRANCH  16  17
ENDBRANCH  15  16
ENDBRANCH  14  15
ENDBRANCH  12  14
ENDBRANCH   1  12
TORSDOF 7
ENDMDL
MODEL 3
REMARK VINA RESULT: -5.219362001      2.718      5.016
REMARK  7 active torsions:
REMARK  status: ('A' for Active; 'I' for Inactive)
REMARK    1  A    between atoms: N1_1  and  C1_5 
REMARK    2  A    between atoms: C1_5  and  C2_6 
REMARK    3  A    between atoms: C2_6  and  O1_7 
REMARK    4  A    between atoms: O1_7  and  C3_8 
REMARK    5  A    between atoms: C3_8  and  C4_9 
REMARK    6  A    between atoms: C4_9  and  N2_10 
REMARK    7  A    between atoms: N2_10  and  C5_12 
ROOT
HETATM    1  C5  UNL     1      24.090  -4.965  12.184  1.00  0.00     0.182 C 
HETATM    2  C6  UNL     1      24.962  -6.178  12.424  1.00  0.00     0.107 C 
HETATM    3  C7  UNL     1      25.245  -6.058  13.881  1.00  0.00     0.057 A 
HETATM    4  N3  UNL     1      25.584  -6.716  15.003  1.00  0.00    -0.303 N 
ATOM      5  H3  UNL     1      25.744  -7.721  15.065  1.00  0.00     0.186 HD
HETATM    6  N4  UNL     1      25.680  -5.861  16.024  1.00  0.00    -0.309 N 
ATOM      7  H4  UNL     1      25.923  -6.092  16.987  1.00  0.00     0.186 HD
HETATM    8  C8  UNL     1      25.395  -4.627  15.539  1.00  0.00     0.138 A 
HETATM    9  C9  UNL     1      25.115  -4.704  14.196  1.00  0.00     0.071 A 
HETATM   10  N5  UNL     1      24.749  -3.988  13.018  1.00  0.00    -0.366 N 
ATOM     11  H5  UNL     1      24.917  -3.003  12.812  1.00  0.00     0.162 HD
ENDROOT
BRANCH   1  12
HETATM   12  N2  UNL     1      23.987  -4.613  10.806  1.00  0.00    -0.399 N 
ATOM     13  H2  UNL     1      23.142  -4.199  10.411  1.00  0.00     0.155 HD
BRANCH  12  14
HETATM   14  C4  UNL     1      25.140  -4.879  10.021  1.00  0.00     0.142 C 
BRANCH  14  15
HETATM   15  C3  UNL     1      25.612  -3.543   9.433  1.00  0.00     0.186 C 
BRANCH  15  16
HETATM   16  O1  UNL     1      26.235  -2.780  10.406  1.00  0.00    -0.388 OA
BRANCH  16  17
HETATM   17  C2  UNL     1      27.487  -3.279  10.748  1.00  0.00     0.195 C 
BRANCH  17  18
HETATM   18  C1  UNL     1      28.560  -2.670   9.864  1.00  0.00     0.255 C 
BRANCH  18  19
HETATM   19  N1  UNL     1      28.422  -1.235   9.890  1.00  0.00    -0.077 N 
ATOM     20  H13 UNL     1      27.454  -0.934   9.777  1.00  0.00     0.274 HD
ATOM     21  H12 UNL     1      28.585  -0.844  10.818  1.00  0.00     0.274 HD
ATOM     22  H11 UNL     1      29.040  -0.833   9.184  1.00  0.00     0.274 HD
ENDBRANCH  18  19
ENDBRANCH  17  18
ENDBRANCH  16  17
ENDBRANCH  15  16
ENDBRANCH  14  15
ENDBRANCH  12  14
ENDBRANCH   1  12
TORSDOF 7
ENDMDL
MODEL 4
REMARK VINA RESULT: -5.109979086      2.939      4.108
REMARK  7 active torsions:
REMARK  status: ('A' for Active; 'I' for Inactive)
REMARK    1  A    between atoms: N1_1  and  C1_5 
REMARK    2  A    between atoms: C1_5  and  C2_6 
REMARK    3  A    between atoms: C2_6  and  O1_7 
REMARK    4  A    between atoms: O1_7  and  C3_8 
REMARK    5  A    between atoms: C3_8  and  C4_9 
REMARK    6  A    between atoms: C4_9  and  N2_10 
REMARK    7  A    between atoms: N2_10  and  C5_12 
ROOT
HETATM    1  C5  UNL     1      26.568  -4.633   9.931  1.00  0.00     0.182 C 
HETATM    2  C6  UNL     1      26.211  -3.162   9.971  1.00  0.00     0.107 C 
HETATM    3  C7  UNL     1      27.558  -2.533  10.058  1.00  0.00     0.057 A 
HETATM    4  N3  UNL     1      28.282  -1.425   9.824  1.00  0.00    -0.303 N 
ATOM      5  H3  UNL     1      27.919  -0.566   9.409  1.00  0.00     0.186 HD
HETATM    6  N4  UNL     1      29.545  -1.611  10.214  1.00  0.00    -0.309 N 
ATOM      7  H4  UNL     1      30.305  -0.934  10.151  1.00  0.00     0.186 HD
HETATM    8  C8  UNL     1      29.628  -2.871  10.709  1.00  0.00     0.138 A 
HETATM    9  C9  UNL     1      28.402  -3.486  10.630  1.00  0.00     0.071 A 
HETATM   10  N5  UNL     1      27.654  -4.674  10.882  1.00  0.00    -0.366 N 
ATOM     11  H5  UNL     1      27.845  -5.394  11.579  1.00  0.00     0.162 HD
ENDROOT
BRANCH   1  12
HETATM   12  N2  UNL     1      25.464  -5.484  10.235  1.00  0.00    -0.399 N 
ATOM     13  H2  UNL     1      25.441  -6.465   9.958  1.00  0.00     0.155 HD
BRANCH  12  14
HETATM   14  C4  UNL     1      24.401  -4.872  10.949  1.00  0.00     0.142 C 
BRANCH  14  15
HETATM   15  C3  UNL     1      24.387  -5.476  12.359  1.00  0.00     0.186 C 
BRANCH  15  16
HETATM   16  O1  UNL     1      24.278  -4.477  13.311  1.00  0.00    -0.388 OA
BRANCH  16  17
HETATM   17  C2  UNL     1      25.519  -4.049  13.771  1.00  0.00     0.195 C 
BRANCH  17  18
HETATM   18  C1  UNL     1      25.821  -4.660  15.128  1.00  0.00     0.255 C 
BRANCH  18  19
HETATM   19  N1  UNL     1      24.598  -4.724  15.890  1.00  0.00    -0.077 N 
ATOM     20  H13 UNL     1      24.590  -5.503  16.548  1.00  0.00     0.274 HD
ATOM     21  H12 UNL     1      24.520  -3.965  16.566  1.00  0.00     0.274 HD
ATOM     22  H11 UNL     1      23.810  -4.752  15.243  1.00  0.00     0.274 HD
ENDBRANCH  18  19
ENDBRANCH  17  18
ENDBRANCH  16  17
ENDBRANCH  15  16
ENDBRANCH  14  15
ENDBRANCH  12  14
ENDBRANCH   1  12
TORSDOF 7
ENDMDL
MODEL 5
REMARK VINA RESULT: -5.042230556      1.880      3.909
REMARK  7 active torsions:
REMARK  status: ('A' for Active; 'I' for Inactive)
REMARK    1  A    between atoms: N1_1  and  C1_5 
REMARK    2  A    between atoms: C1_5  and  C2_6 
REMARK    3  A    between atoms: C2_6  and  O1_7 
REMARK    4  A    between atoms: O1_7  and  C3_8 
REMARK    5  A    between atoms: C3_8  and  C4_9 
REMARK    6  A    between atoms: C4_9  and  N2_10 
REMARK    7  A    between atoms: N2_10  and  C5_12 
ROOT
HETATM    1  C5  UNL     1      25.945  -7.101  12.692  1.00  0.00     0.182 C 
HETATM    2  C6  UNL     1      25.642  -7.783  14.009  1.00  0.00     0.107 C 
HETATM    3  C7  UNL     1      25.235  -6.627  14.854  1.00  0.00     0.057 A 
HETATM    4  N3  UNL     1      24.534  -6.233  15.932  1.00  0.00    -0.303 N 
ATOM      5  H3  UNL     1      23.985  -6.852  16.530  1.00  0.00     0.186 HD
HETATM    6  N4  UNL     1      24.661  -4.916  16.105  1.00  0.00    -0.309 N 
ATOM      7  H4  UNL     1      24.234  -4.358  16.845  1.00  0.00     0.186 HD
HETATM    8  C8  UNL     1      25.463  -4.458  15.112  1.00  0.00     0.138 A 
HETATM    9  C9  UNL     1      25.847  -5.501  14.303  1.00  0.00     0.071 A 
HETATM   10  N5  UNL     1      26.592  -5.896  13.153  1.00  0.00    -0.366 N 
ATOM     11  H5  UNL     1      27.403  -5.429  12.746  1.00  0.00     0.162 HD
ENDROOT
BRANCH   1  12
HETATM   12  N2  UNL     1      26.724  -7.908  11.811  1.00  0.00    -0.399 N 
ATOM     13  H2  UNL     1      26.775  -8.923  11.903  1.00  0.00     0.155 HD
BRANCH  12  14
HETATM   14  C4  UNL     1      27.424  -7.203  10.797  1.00  0.00     0.142 C 
BRANCH  14  15
HETATM   15  C3  UNL     1      26.377  -6.597   9.853  1.00  0.00     0.186 C 
BRANCH  15  16
HETATM   16  O1  UNL     1      26.209  -5.249  10.120  1.00  0.00    -0.388 OA
BRANCH  16  17
HETATM   17  C2  UNL     1      24.892  -4.836   9.947  1.00  0.00     0.195 C 
BRANCH  17  18
HETATM   18  C1  UNL     1      24.438  -4.002  11.131  1.00  0.00     0.255 C 
BRANCH  18  19
HETATM   19  N1  UNL     1      23.362  -4.692  11.798  1.00  0.00    -0.077 N 
ATOM     20  H13 UNL     1      22.717  -5.133  11.143  1.00  0.00     0.274 HD
ATOM     21  H12 UNL     1      23.677  -5.535  12.277  1.00  0.00     0.274 HD
ATOM     22  H11 UNL     1      22.893  -4.039  12.426  1.00  0.00     0.274 HD
ENDBRANCH  18  19
ENDBRANCH  17  18
ENDBRANCH  16  17
ENDBRANCH  15  16
ENDBRANCH  14  15
ENDBRANCH  12  14
ENDBRANCH   1  12
TORSDOF 7
ENDMDL
