MODEL 1
REMARK VINA RESULT: -5.497551922      0.000      0.000
REMARK  7 active torsions:
REMARK  status: ('A' for Active; 'I' for Inactive)
REMARK    1  A    between atoms: O1_2  and  C2_3 
REMARK    2  A    between atoms: C4_5  and  N1_6 
REMARK    3  A    between atoms: N1_6  and  C5_8 
REMARK    4  A    between atoms: C5_8  and  C6_9 
REMARK    5  A    between atoms: C6_9  and  C7_10 
REMARK    6  A    between atoms: C7_10  and  N2_11 
REMARK    7  A    between atoms: C8_17  and  N4_18 
ROOT
HETATM    1  C2  UNL     1      25.521  -4.409  10.034  1.00  0.00     0.160 A 
HETATM    2  C3  UNL     1      25.125  -5.439  10.855  1.00  0.00     0.105 A 
HETATM    3  C4  UNL     1      24.741  -5.192  12.160  1.00  0.00     0.120 A 
HETATM    4  N3  UNL     1      24.773  -3.921  12.576  1.00  0.00    -0.177 N 
ATOM      5  H3  UNL     1      24.491  -3.723  13.537  1.00  0.00     0.185 HD
HETATM    6  C8  UNL     1      25.154  -2.890  11.804  1.00  0.00     0.679 A 
HETATM    7  N5  UNL     1      25.522  -3.160  10.539  1.00  0.00    -0.171 N 
ATOM      8  H5  UNL     1      25.813  -2.389   9.938  1.00  0.00     0.186 HD
ENDROOT
BRANCH   3   9
HETATM    9  N1  UNL     1      24.366  -6.166  12.938  1.00  0.00    -0.376 N 
ATOM     10  H1  UNL     1      23.379  -6.359  13.103  1.00  0.00     0.161 HD
BRANCH   9  11
HETATM   11  C5  UNL     1      25.401  -6.967  13.561  1.00  0.00     0.123 C 
BRANCH  11  12
HETATM   12  C6  UNL     1      25.104  -6.987  15.062  1.00  0.00     0.047 C 
BRANCH  12  13
HETATM   13  C7  UNL     1      25.682  -5.694  15.618  1.00  0.00     0.231 C 
BRANCH  13  14
HETATM   14  N2  UNL     1      24.664  -4.759  15.998  1.00  0.00    -0.079 N 
ATOM     15  H23 UNL     1      24.833  -3.843  15.581  1.00  0.00     0.274 HD
ATOM     16  H22 UNL     1      23.775  -4.981  15.550  1.00  0.00     0.274 HD
ATOM     17  H21 UNL     1      24.558  -4.689  17.011  1.00  0.00     0.274 HD
ENDBRANCH  13  14
ENDBRANCH  12  13
ENDBRANCH  11  12
ENDBRANCH   9  11
ENDBRANCH   3   9
BRANCH   1  18
HETATM   18  O1  UNL     1      25.898  -4.698   8.737  1.00  0.00    -0.340 OA
HETATM   19  C1  UNL     1      26.597  -5.874   8.450  1.00  0.00     0.211 C 
ENDBRANCH   1  18
BRANCH   6  20
HETATM   20  N4  UNL     1      25.176  -1.670  12.231  1.00  0.00    -0.234 N 
ATOM     21  H42 UNL     1      25.349  -1.483  13.219  1.00  0.00     0.174 HD
ATOM     22  H41 UNL     1      25.026  -0.869  11.618  1.00  0.00     0.174 HD
ENDBRANCH   6  20
TORSDOF 7
ENDMDL
MODEL 2
REMARK VINA RESULT: -5.448411052      2.509      4.822
REMARK  7 active torsions:
REMARK  status: ('A' for Active; 'I' for Inactive)
REMARK    1  A    between atoms: O1_2  and  C2_3 
REMARK    2  A    between atoms: C4_5  and  N1_6 
REMARK    3  A    between atoms: N1_6  and  C5_8 
REMARK    4  A    between atoms: C5_8  and  C6_9 
REMARK    5  A    between atoms: C6_9  and  C7_10 
REMARK    6  A    between atoms: C7_10  and  N2_11 
REMARK    7  A    between atoms: C8_17  and  N4_18 
ROOT
HETATM    1  C2  UNL     1      27.299  -6.231  14.568  1.00  0.00     0.160 A 
HETATM    2  C3  UNL     1      26.897  -6.326  13.256  1.00  0.00     0.105 A 
HETATM    3  C4  UNL     1      25.654  -5.862  12.864  1.00  0.00     0.120 A 
HETATM    4  N3  UNL     1      24.876  -5.324  13.812  1.00  0.00    -0.177 N 
ATOM      5  H3  UNL     1      23.957  -4.977  13.538  1.00  0.00     0.185 HD
HETATM    6  C8  UNL     1      25.235  -5.216  15.102  1.00  0.00     0.679 A 
HETATM    7  N5  UNL     1      26.449  -5.675  15.453  1.00  0.00    -0.171 N 
ATOM      8  H5  UNL     1      26.738  -5.600  16.428  1.00  0.00     0.186 HD
ENDROOT
BRANCH   3   9
HETATM    9  N1  UNL     1      25.272  -5.951  11.624  1.00  0.00    -0.376 N 
ATOM     10  H1  UNL     1      25.681  -6.641  10.994  1.00  0.00     0.161 HD
BRANCH   9  11
HETATM   11  C5  UNL     1      24.246  -5.035  11.167  1.00  0.00     0.123 C 
BRANCH  11  12
HETATM   12  C6  UNL     1      24.956  -3.919  10.397  1.00  0.00     0.047 C 
BRANCH  12  13
HETATM   13  C7  UNL     1      24.766  -2.657  11.223  1.00  0.00     0.231 C 
BRANCH  13  14
HETATM   14  N2  UNL     1      23.453  -2.100  11.078  1.00  0.00    -0.079 N 
ATOM     15  H23 UNL     1      22.820  -2.763  10.632  1.00  0.00     0.274 HD
ATOM     16  H22 UNL     1      22.989  -2.014  11.983  1.00  0.00     0.274 HD
ATOM     17  H21 UNL     1      23.461  -1.207  10.583  1.00  0.00     0.274 HD
ENDBRANCH  13  14
ENDBRANCH  12  13
ENDBRANCH  11  12
ENDBRANCH   9  11
ENDBRANCH   3   9
BRANCH   1  18
HETATM   18  O1  UNL     1      28.548  -6.707  14.917  1.00  0.00    -0.340 OA
HETATM   19  C1  UNL     1      28.713  -8.039  15.305  1.00  0.00     0.211 C 
ENDBRANCH   1  18
BRANCH   6  20
HETATM   20  N4  UNL     1      24.464  -4.693  15.998  1.00  0.00    -0.234 N 
ATOM     21  H42 UNL     1      24.579  -3.712  16.253  1.00  0.00     0.174 HD
ATOM     22  H41 UNL     1      23.732  -5.222  16.470  1.00  0.00     0.174 HD
ENDBRANCH   6  20
TORSDOF 7
ENDMDL
MODEL 3
REMARK VINA RESULT: -5.419907534      2.425      4.776
REMARK  7 active torsions:
REMARK  status: ('A' for Active; 'I' for Inactive)
REMARK    1  A    between atoms: O1_2  and  C2_3 
REMARK    2  A    between atoms: C4_5  and  N1_6 
REMARK    3  A    between atoms: N1_6  and  C5_8 
REMARK    4  A    between atoms: C5_8  and  C6_9 
REMARK    5  A    between atoms: C6_9  and  C7_10 
REMARK    6  A    between atoms: C7_10  and  N2_11 
REMARK    7  A    between atoms: C8_17  and  N4_18 
ROOT
HETATM    1  C2  UNL     1      27.077  -6.073  14.137  1.00  0.00     0.160 A 
HETATM    2  C3  UNL     1      27.155  -5.121  13.147  1.00  0.00     0.105 A 
HETATM    3  C4  UNL     1      26.310  -4.027  13.154  1.00  0.00     0.120 A 
HETATM    4  N3  UNL     1      25.426  -3.943  14.156  1.00  0.00    -0.177 N 
ATOM      5  H3  UNL     1      24.796  -3.141  14.175  1.00  0.00     0.185 HD
HETATM    6  C8  UNL     1      25.320  -4.854  15.138  1.00  0.00     0.679 A 
HETATM    7  N5  UNL     1      26.156  -5.907  15.106  1.00  0.00    -0.171 N 
ATOM      8  H5  UNL     1      26.090  -6.607  15.844  1.00  0.00     0.186 HD
ENDROOT
BRANCH   3   9
HETATM    9  N1  UNL     1      26.383  -3.124  12.219  1.00  0.00    -0.376 N 
ATOM     10  H1  UNL     1      27.265  -2.666  11.996  1.00  0.00     0.161 HD
BRANCH   9  11
HETATM   11  C5  UNL     1      25.165  -2.794  11.505  1.00  0.00     0.123 C 
BRANCH  11  12
HETATM   12  C6  UNL     1      25.137  -3.665  10.247  1.00  0.00     0.047 C 
BRANCH  12  13
HETATM   13  C7  UNL     1      24.326  -4.899  10.613  1.00  0.00     0.231 C 
BRANCH  13  14
HETATM   14  N2  UNL     1      23.260  -4.603  11.524  1.00  0.00    -0.079 N 
ATOM     15  H23 UNL     1      23.181  -3.599  11.683  1.00  0.00     0.274 HD
ATOM     16  H22 UNL     1      22.351  -4.772  11.092  1.00  0.00     0.274 HD
ATOM     17  H21 UNL     1      23.348  -5.110  12.405  1.00  0.00     0.274 HD
ENDBRANCH  13  14
ENDBRANCH  12  13
ENDBRANCH  11  12
ENDBRANCH   9  11
ENDBRANCH   3   9
BRANCH   1  18
HETATM   18  O1  UNL     1      27.940  -7.151  14.093  1.00  0.00    -0.340 OA
HETATM   19  C1  UNL     1      28.312  -7.806  15.269  1.00  0.00     0.211 C 
ENDBRANCH   1  18
BRANCH   6  20
HETATM   20  N4  UNL     1      24.457  -4.749  16.094  1.00  0.00    -0.234 N 
ATOM     21  H42 UNL     1      24.312  -3.848  16.548  1.00  0.00     0.174 HD
ATOM     22  H41 UNL     1      23.903  -5.540  16.424  1.00  0.00     0.174 HD
ENDBRANCH   6  20
TORSDOF 7
ENDMDL
MODEL 4
REMARK VINA RESULT: -5.234855867      1.616      1.726
REMARK  7 active torsions:
REMARK  status: ('A' for Active; 'I' for Inactive)
REMARK    1  A    between atoms: O1_2  and  C2_3 
REMARK    2  A    between atoms: C4_5  and  N1_6 
REMARK    3  A    between atoms: N1_6  and  C5_8 
REMARK    4  A    between atoms: C5_8  and  C6_9 
REMARK    5  A    between atoms: C6_9  and  C7_10 
REMARK    6  A    between atoms: C7_10  and  N2_11 
REMARK    7  A    between atoms: C8_17  and  N4_18 
ROOT
HETATM    1  C2  UNL     1      26.704  -3.651  11.377  1.00  0.00     0.160 A 
HETATM    2  C3  UNL     1      26.321  -4.833  11.968  1.00  0.00     0.105 A 
HETATM    3  C4  UNL     1      24.988  -5.086  12.236  1.00  0.00     0.120 A 
HETATM    4  N3  UNL     1      24.105  -4.140  11.896  1.00  0.00    -0.177 N 
ATOM      5  H3  UNL     1      23.118  -4.313  12.086  1.00  0.00     0.185 HD
HETATM    6  C8  UNL     1      24.442  -2.974  11.319  1.00  0.00     0.679 A 
HETATM    7  N5  UNL     1      25.746  -2.755  11.070  1.00  0.00    -0.171 N 
ATOM      8  H5  UNL     1      26.020  -1.877  10.631  1.00  0.00     0.186 HD
ENDROOT
BRANCH   3   9
HETATM    9  N1  UNL     1      24.624  -6.204  12.795  1.00  0.00    -0.376 N 
ATOM     10  H1  UNL     1      23.669  -6.551  12.707  1.00  0.00     0.161 HD
BRANCH   9  11
HETATM   11  C5  UNL     1      25.622  -6.938  13.547  1.00  0.00     0.123 C 
BRANCH  11  12
HETATM   12  C6  UNL     1      25.143  -6.978  15.000  1.00  0.00     0.047 C 
BRANCH  12  13
HETATM   13  C7  UNL     1      25.680  -5.713  15.651  1.00  0.00     0.231 C 
BRANCH  13  14
HETATM   14  N2  UNL     1      24.649  -4.753  15.917  1.00  0.00    -0.079 N 
ATOM     15  H23 UNL     1      24.124  -4.534  15.070  1.00  0.00     0.274 HD
ATOM     16  H22 UNL     1      23.899  -5.165  16.472  1.00  0.00     0.274 HD
ATOM     17  H21 UNL     1      25.009  -3.906  16.357  1.00  0.00     0.274 HD
ENDBRANCH  13  14
ENDBRANCH  12  13
ENDBRANCH  11  12
ENDBRANCH   9  11
ENDBRANCH   3   9
BRANCH   1  18
HETATM   18  O1  UNL     1      28.046  -3.436  11.127  1.00  0.00    -0.340 OA
HETATM   19  C1  UNL     1      28.446  -2.660  10.037  1.00  0.00     0.211 C 
ENDBRANCH   1  18
BRANCH   6  20
HETATM   20  N4  UNL     1      23.570  -2.076  11.000  1.00  0.00    -0.234 N 
ATOM     21  H42 UNL     1      23.200  -1.453  11.718  1.00  0.00     0.174 HD
ATOM     22  H41 UNL     1      23.225  -1.957  10.048  1.00  0.00     0.174 HD
ENDBRANCH   6  20
TORSDOF 7
ENDMDL
MODEL 5
REMARK VINA RESULT: -5.189629793      3.006      5.401
REMARK  7 active torsions:
REMARK  status: ('A' for Active; 'I' for Inactive)
REMARK    1  A    between atoms: O1_2  and  C2_3 
REMARK    2  A    between atoms: C4_5  and  N1_6 
REMARK    3  A    between atoms: N1_6  and  C5_8 
REMARK    4  A    between atoms: C5_8  and  C6_9 
REMARK    5  A    between atoms: C6_9  and  C7_10 
REMARK    6  A    between atoms: C7_10  and  N2_11 
REMARK    7  A    between atoms: C8_17  and  N4_18 
ROOT
HETATM    1  C2  UNL     1      26.886  -7.345  15.921  1.00  0.00     0.160 A 
HETATM    2  C3  UNL     1      27.135  -7.421  14.570  1.00  0.00     0.105 A 
HETATM    3  C4  UNL     1      26.486  -6.579  13.686  1.00  0.00     0.120 A 
HETATM    4  N3  UNL     1      25.617  -5.702  14.203  1.00  0.00    -0.177 N 
ATOM      5  H3  UNL     1      25.131  -5.074  13.562  1.00  0.00     0.185 HD
HETATM    6  C8  UNL     1      25.347  -5.600  15.515  1.00  0.00     0.679 A 
HETATM    7  N5  UNL     1      25.994  -6.431  16.351  1.00  0.00    -0.171 N 
ATOM      8  H5  UNL     1      25.802  -6.367  17.351  1.00  0.00     0.186 HD
ENDROOT
BRANCH   3   9
HETATM    9  N1  UNL     1      26.721  -6.649  12.408  1.00  0.00    -0.376 N 
ATOM     10  H1  UNL     1      26.997  -7.528  11.970  1.00  0.00     0.161 HD
BRANCH   9  11
HETATM   11  C5  UNL     1      26.578  -5.435  11.629  1.00  0.00     0.123 C 
BRANCH  11  12
HETATM   12  C6  UNL     1      25.348  -5.622  10.737  1.00  0.00     0.047 C 
BRANCH  12  13
HETATM   13  C7  UNL     1      24.455  -4.420  11.002  1.00  0.00     0.231 C 
BRANCH  13  14
HETATM   14  N2  UNL     1      23.326  -4.746  11.822  1.00  0.00    -0.079 N 
ATOM     15  H23 UNL     1      22.751  -3.923  12.001  1.00  0.00     0.274 HD
ATOM     16  H22 UNL     1      22.649  -5.310  11.307  1.00  0.00     0.274 HD
ATOM     17  H21 UNL     1      23.596  -5.203  12.694  1.00  0.00     0.274 HD
ENDBRANCH  13  14
ENDBRANCH  12  13
ENDBRANCH  11  12
ENDBRANCH   9  11
ENDBRANCH   3   9
BRANCH   1  18
HETATM   18  O1  UNL     1      27.555  -8.204  16.771  1.00  0.00    -0.340 OA
HETATM   19  C1  UNL     1      27.506  -9.585  16.561  1.00  0.00     0.211 C 
ENDBRANCH   1  18
BRANCH   6  20
HETATM   20  N4  UNL     1      24.503  -4.744  15.988  1.00  0.00    -0.234 N 
ATOM     21  H42 UNL     1      23.984  -4.962  16.838  1.00  0.00     0.174 HD
ATOM     22  H41 UNL     1      24.326  -3.843  15.545  1.00  0.00     0.174 HD
ENDBRANCH   6  20
TORSDOF 7
ENDMDL
