MODEL 1
REMARK VINA RESULT: -11.845818894      0.000      0.000
REMARK  17 active torsions:
REMARK  status: ('A' for Active; 'I' for Inactive)
REMARK    1  A    between atoms: S1_2  and  C2_3 
REMARK    2  A    between atoms: C7_8  and  N1_9 
REMARK       I    between atoms: N1_9  and  C8_11 
REMARK    3  A    between atoms: C8_11  and  C9_13 
REMARK    4  A    between atoms: C9_13  and  N2_14 
REMARK    5  A    between atoms: C9_13  and  C29_51 
REMARK    6  A    between atoms: N2_14  and  C10_16 
REMARK    7  A    between atoms: C10_16  and  O2_17 
REMARK    8  A    between atoms: C10_16  and  C11_19 
REMARK    9  A    between atoms: C11_19  and  N3_20 
REMARK       I    between atoms: N3_20  and  C12_22 
REMARK   10  A    between atoms: C12_22  and  C13_24 
REMARK   11  A    between atoms: C16_27  and  N4_28 
REMARK   12  A    between atoms: N4_28  and  N5_30 
REMARK   13  A    between atoms: C17_33  and  C18_34 
REMARK   14  A    between atoms: C21_37  and  N7_38 
REMARK   15  A    between atoms: C24_45  and  S2_46 
REMARK   16  A    between atoms: C29_51  and  O6_52 
REMARK   17  A    between atoms: N9_54  and  O7_56 
ROOT
HETATM    1  N3  UNL     1      14.897  -2.409  -5.230  1.00  0.00    -0.329 N 
ATOM      2  H3  UNL     1      14.810  -1.822  -6.060  1.00  0.00     0.168 HD
HETATM    3  C12 UNL     1      14.678  -1.544  -4.267  1.00  0.00     0.256 C 
HETATM    4  O3  UNL     1      14.719  -1.888  -3.031  1.00  0.00    -0.267 OA
ENDROOT
BRANCH   3   5
HETATM    5  C13 UNL     1      14.365  -0.101  -4.429  1.00  0.00     0.038 A 
HETATM    6  C14 UNL     1      13.243   0.295  -5.120  1.00  0.00     0.020 A 
HETATM    7  C15 UNL     1      12.935   1.643  -5.261  1.00  0.00     0.032 A 
HETATM    8  C16 UNL     1      13.733   2.614  -4.720  1.00  0.00     0.050 A 
HETATM    9  C26 UNL     1      14.854   2.231  -4.030  1.00  0.00     0.038 A 
HETATM   10  C27 UNL     1      15.158   0.889  -3.892  1.00  0.00    -0.044 A 
HETATM   11  C28 UNL     1      16.413   0.540  -3.125  1.00  0.00     0.049 C 
BRANCH   8  12
HETATM   12  N4  UNL     1      13.389   3.979  -4.877  1.00  0.00    -0.278 N 
ATOM     13  H4  UNL     1      13.109   4.523  -4.061  1.00  0.00     0.189 HD
BRANCH  12  14
HETATM   14  N5  UNL     1      13.427   4.596  -6.141  1.00  0.00    -0.171 N 
HETATM   15  N6  UNL     1      12.584   5.498  -6.594  1.00  0.00    -0.261 N 
HETATM   16  C17 UNL     1      12.908   5.899  -7.830  1.00  0.00     0.134 A 
ATOM     17  H6  UNL     1      11.783   5.850  -6.069  1.00  0.00     0.191 HD
HETATM   18  N8  UNL     1      13.997   5.225  -8.177  1.00  0.00    -0.318 N 
HETATM   19  C24 UNL     1      14.315   4.417  -7.123  1.00  0.00     0.184 A 
ATOM     20  H8  UNL     1      14.500   5.296  -9.061  1.00  0.00     0.169 HD
BRANCH  16  21
HETATM   21  C18 UNL     1      12.136   6.908  -8.600  1.00  0.00     0.009 A 
HETATM   22  C19 UNL     1      12.216   6.918  -9.972  1.00  0.00     0.018 A 
HETATM   23  C20 UNL     1      11.521   7.819 -10.707  1.00  0.00     0.037 A 
HETATM   24  C21 UNL     1      10.716   8.746 -10.069  1.00  0.00     0.102 A 
HETATM   25  C22 UNL     1      10.621   8.750  -8.685  1.00  0.00     0.037 A 
HETATM   26  C23 UNL     1      11.337   7.824  -7.955  1.00  0.00     0.018 A 
BRANCH  24  27
HETATM   27  N7  UNL     1      10.007   9.668 -10.870  1.00  0.00    -0.116 N 
HETATM   28  O4  UNL     1       9.603  10.722 -10.362  1.00  0.00    -0.532 OA
HETATM   29  O5  UNL     1       9.771   9.407 -12.179  1.00  0.00    -0.532 OA
ENDBRANCH  24  27
ENDBRANCH  16  21
BRANCH  19  30
HETATM   30  S2  UNL     1      15.710   3.288  -7.079  1.00  0.00    -0.095 SA
HETATM   31  C25 UNL     1      16.182   2.768  -8.741  1.00  0.00     0.099 C 
ENDBRANCH  19  30
ENDBRANCH  12  14
ENDBRANCH   8  12
ENDBRANCH   3   5
BRANCH   1  32
HETATM   32  C11 UNL     1      15.139  -3.481  -5.714  1.00  0.00     0.146 C 
BRANCH  32  33
HETATM   33  C10 UNL     1      15.966  -4.599  -5.322  1.00  0.00     0.152 C 
BRANCH  33  34
HETATM   34  N2  UNL     1      15.979  -5.263  -4.087  1.00  0.00    -0.350 N 
ATOM     35  H2  UNL     1      15.105  -5.436  -3.591  1.00  0.00     0.163 HD
BRANCH  34  36
HETATM   36  C9  UNL     1      17.267  -5.715  -3.502  1.00  0.00     0.253 C 
BRANCH  36  37
HETATM   37  C8  UNL     1      16.925  -6.755  -2.462  1.00  0.00     0.253 C 
HETATM   38  N1  UNL     1      15.679  -6.638  -1.818  1.00  0.00    -0.324 N 
ATOM     39  H1  UNL     1      15.092  -5.853  -2.099  1.00  0.00     0.169 HD
HETATM   40  O1  UNL     1      17.750  -7.633  -2.241  1.00  0.00    -0.270 OA
BRANCH  38  41
HETATM   41  C7  UNL     1      15.155  -7.494  -0.822  1.00  0.00     0.051 A 
HETATM   42  C2  UNL     1      14.041  -8.270  -1.168  1.00  0.00     0.026 A 
HETATM   43  C3  UNL     1      13.511  -9.119  -0.255  1.00  0.00     0.021 A 
HETATM   44  C4  UNL     1      14.032  -9.247   1.011  1.00  0.00     0.002 A 
HETATM   45  C5  UNL     1      15.119  -8.495   1.357  1.00  0.00     0.002 A 
HETATM   46  C6  UNL     1      15.695  -7.612   0.453  1.00  0.00     0.031 A 
BRANCH  42  47
HETATM   47  S1  UNL     1      13.331  -8.101  -2.787  1.00  0.00    -0.132 SA
HETATM   48  C1  UNL     1      14.325  -8.889  -4.070  1.00  0.00     0.095 C 
ENDBRANCH  42  47
ENDBRANCH  38  41
ENDBRANCH  36  37
BRANCH  36  49
HETATM   49  C29 UNL     1      17.897  -4.576  -2.826  1.00  0.00     0.168 C 
HETATM   50  N9  UNL     1      17.292  -3.759  -2.110  1.00  0.00    -0.249 N 
ATOM     51  H9  UNL     1      17.841  -3.009  -1.691  1.00  0.00     0.196 HD
BRANCH  49  52
HETATM   52  O6  UNL     1      19.281  -4.410  -3.013  1.00  0.00    -0.346 OA
ATOM     53  H6  UNL     1      19.700  -4.980  -3.646  1.00  0.00     0.219 HD
ENDBRANCH  49  52
BRANCH  50  54
HETATM   54  O7  UNL     1      15.969  -3.781  -1.839  1.00  0.00    -0.288 OA
ATOM     55  H7  UNL     1      15.474  -3.072  -1.445  1.00  0.00     0.244 HD
ENDBRANCH  50  54
ENDBRANCH  36  49
ENDBRANCH  34  36
ENDBRANCH  33  34
BRANCH  33  56
HETATM   56  O2  UNL     1      16.799  -5.055  -6.210  1.00  0.00    -0.345 OA
ATOM     57  H2  UNL     1      17.153  -5.919  -6.031  1.00  0.00     0.219 HD
ENDBRANCH  33  56
ENDBRANCH  32  33
ENDBRANCH   1  32
TORSDOF 17
ENDMDL
MODEL 2
REMARK VINA RESULT: -11.564445329      3.674      6.147
REMARK  17 active torsions:
REMARK  status: ('A' for Active; 'I' for Inactive)
REMARK    1  A    between atoms: S1_2  and  C2_3 
REMARK    2  A    between atoms: C7_8  and  N1_9 
REMARK       I    between atoms: N1_9  and  C8_11 
REMARK    3  A    between atoms: C8_11  and  C9_13 
REMARK    4  A    between atoms: C9_13  and  N2_14 
REMARK    5  A    between atoms: C9_13  and  C29_51 
REMARK    6  A    between atoms: N2_14  and  C10_16 
REMARK    7  A    between atoms: C10_16  and  O2_17 
REMARK    8  A    between atoms: C10_16  and  C11_19 
REMARK    9  A    between atoms: C11_19  and  N3_20 
REMARK       I    between atoms: N3_20  and  C12_22 
REMARK   10  A    between atoms: C12_22  and  C13_24 
REMARK   11  A    between atoms: C16_27  and  N4_28 
REMARK   12  A    between atoms: N4_28  and  N5_30 
REMARK   13  A    between atoms: C17_33  and  C18_34 
REMARK   14  A    between atoms: C21_37  and  N7_38 
REMARK   15  A    between atoms: C24_45  and  S2_46 
REMARK   16  A    between atoms: C29_51  and  O6_52 
REMARK   17  A    between atoms: N9_54  and  O7_56 
ROOT
HETATM    1  N3  UNL     1      15.337   2.400  -5.692  1.00  0.00    -0.329 N 
ATOM      2  H3  UNL     1      14.347   2.318  -5.459  1.00  0.00     0.168 HD
HETATM    3  C12 UNL     1      15.285   2.844  -6.927  1.00  0.00     0.256 C 
HETATM    4  O3  UNL     1      16.350   3.066  -7.608  1.00  0.00    -0.267 OA
ENDROOT
BRANCH   3   5
HETATM    5  C13 UNL     1      14.057   3.146  -7.706  1.00  0.00     0.038 A 
HETATM    6  C14 UNL     1      13.480   4.394  -7.642  1.00  0.00     0.020 A 
HETATM    7  C15 UNL     1      12.341   4.688  -8.381  1.00  0.00     0.032 A 
HETATM    8  C16 UNL     1      11.759   3.753  -9.192  1.00  0.00     0.050 A 
HETATM    9  C26 UNL     1      12.325   2.506  -9.264  1.00  0.00     0.038 A 
HETATM   10  C27 UNL     1      13.458   2.215  -8.526  1.00  0.00    -0.044 A 
HETATM   11  C28 UNL     1      14.024   0.819  -8.649  1.00  0.00     0.049 C 
BRANCH   8  12
HETATM   12  N4  UNL     1      10.601   4.086  -9.937  1.00  0.00    -0.278 N 
ATOM     13  H4  UNL     1       9.718   3.622  -9.725  1.00  0.00     0.189 HD
BRANCH  12  14
HETATM   14  N5  UNL     1      10.651   5.046 -10.965  1.00  0.00    -0.171 N 
HETATM   15  N6  UNL     1      10.261   6.299 -10.880  1.00  0.00    -0.261 N 
HETATM   16  C17 UNL     1      10.457   6.955 -12.031  1.00  0.00     0.134 A 
ATOM     17  H6  UNL     1       9.860   6.720 -10.042  1.00  0.00     0.191 HD
HETATM   18  N8  UNL     1      10.989   6.085 -12.880  1.00  0.00    -0.318 N 
HETATM   19  C24 UNL     1      11.107   4.900 -12.211  1.00  0.00     0.184 A 
ATOM     20  H8  UNL     1      11.259   6.267 -13.847  1.00  0.00     0.169 HD
BRANCH  16  21
HETATM   21  C18 UNL     1      10.110   8.384 -12.237  1.00  0.00     0.009 A 
HETATM   22  C19 UNL     1       9.526   8.775 -13.417  1.00  0.00     0.018 A 
HETATM   23  C20 UNL     1       9.189  10.070 -13.636  1.00  0.00     0.037 A 
HETATM   24  C21 UNL     1       9.436  11.015 -12.658  1.00  0.00     0.102 A 
HETATM   25  C22 UNL     1      10.024  10.639 -11.459  1.00  0.00     0.037 A 
HETATM   26  C23 UNL     1      10.359   9.317 -11.255  1.00  0.00     0.018 A 
BRANCH  24  27
HETATM   27  N7  UNL     1       9.071  12.353 -12.923  1.00  0.00    -0.116 N 
HETATM   28  O4  UNL     1       8.337  12.949 -12.124  1.00  0.00    -0.532 OA
HETATM   29  O5  UNL     1       9.517  12.982 -14.039  1.00  0.00    -0.532 OA
ENDBRANCH  24  27
ENDBRANCH  16  21
BRANCH  19  30
HETATM   30  S2  UNL     1      11.770   3.387 -12.913  1.00  0.00    -0.095 SA
HETATM   31  C25 UNL     1      10.531   2.076 -12.929  1.00  0.00     0.099 C 
ENDBRANCH  19  30
ENDBRANCH  12  14
ENDBRANCH   8  12
ENDBRANCH   3   5
BRANCH   1  32
HETATM   32  C11 UNL     1      15.859   2.035  -4.675  1.00  0.00     0.146 C 
BRANCH  32  33
HETATM   33  C10 UNL     1      15.401   1.313  -3.511  1.00  0.00     0.152 C 
BRANCH  33  34
HETATM   34  N2  UNL     1      14.079   1.001  -3.162  1.00  0.00    -0.350 N 
ATOM     35  H2  UNL     1      13.423   1.746  -2.928  1.00  0.00     0.163 HD
BRANCH  34  36
HETATM   36  C9  UNL     1      13.635  -0.415  -3.132  1.00  0.00     0.253 C 
BRANCH  36  37
HETATM   37  C8  UNL     1      13.826  -0.955  -4.530  1.00  0.00     0.253 C 
HETATM   38  N1  UNL     1      14.444  -2.213  -4.658  1.00  0.00    -0.324 N 
ATOM     39  H1  UNL     1      14.722  -2.674  -3.791  1.00  0.00     0.169 HD
HETATM   40  O1  UNL     1      13.437  -0.266  -5.465  1.00  0.00    -0.270 OA
BRANCH  38  41
HETATM   41  C7  UNL     1      14.719  -2.905  -5.859  1.00  0.00     0.051 A 
HETATM   42  C2  UNL     1      15.637  -3.960  -5.793  1.00  0.00     0.026 A 
HETATM   43  C3  UNL     1      15.923  -4.667  -6.913  1.00  0.00     0.021 A 
HETATM   44  C4  UNL     1      15.339  -4.381  -8.125  1.00  0.00     0.002 A 
HETATM   45  C5  UNL     1      14.442  -3.353  -8.199  1.00  0.00     0.002 A 
HETATM   46  C6  UNL     1      14.118  -2.603  -7.075  1.00  0.00     0.031 A 
BRANCH  42  47
HETATM   47  S1  UNL     1      16.428  -4.331  -4.246  1.00  0.00    -0.132 SA
HETATM   48  C1  UNL     1      16.251  -6.062  -3.770  1.00  0.00     0.095 C 
ENDBRANCH  42  47
ENDBRANCH  38  41
ENDBRANCH  36  37
BRANCH  36  49
HETATM   49  C29 UNL     1      12.203  -0.449  -2.817  1.00  0.00     0.168 C 
HETATM   50  N9  UNL     1      11.721  -0.189  -1.700  1.00  0.00    -0.249 N 
ATOM     51  H9  UNL     1      10.707  -0.246  -1.606  1.00  0.00     0.196 HD
BRANCH  49  52
HETATM   52  O6  UNL     1      11.330  -0.804  -3.860  1.00  0.00    -0.346 OA
ATOM     53  H6  UNL     1      10.400  -0.713  -3.692  1.00  0.00     0.219 HD
ENDBRANCH  49  52
BRANCH  50  54
HETATM   54  O7  UNL     1      12.426   0.162  -0.603  1.00  0.00    -0.288 OA
ATOM     55  H7  UNL     1      12.060   0.333   0.256  1.00  0.00     0.244 HD
ENDBRANCH  50  54
ENDBRANCH  36  49
ENDBRANCH  34  36
ENDBRANCH  33  34
BRANCH  33  56
HETATM   56  O2  UNL     1      16.310   0.894  -2.682  1.00  0.00    -0.345 OA
ATOM     57  H2  UNL     1      17.206   0.964  -2.990  1.00  0.00     0.219 HD
ENDBRANCH  33  56
ENDBRANCH  32  33
ENDBRANCH   1  32
TORSDOF 17
ENDMDL
MODEL 3
REMARK VINA RESULT: -11.310983310      3.686      6.154
REMARK  17 active torsions:
REMARK  status: ('A' for Active; 'I' for Inactive)
REMARK    1  A    between atoms: S1_2  and  C2_3 
REMARK    2  A    between atoms: C7_8  and  N1_9 
REMARK       I    between atoms: N1_9  and  C8_11 
REMARK    3  A    between atoms: C8_11  and  C9_13 
REMARK    4  A    between atoms: C9_13  and  N2_14 
REMARK    5  A    between atoms: C9_13  and  C29_51 
REMARK    6  A    between atoms: N2_14  and  C10_16 
REMARK    7  A    between atoms: C10_16  and  O2_17 
REMARK    8  A    between atoms: C10_16  and  C11_19 
REMARK    9  A    between atoms: C11_19  and  N3_20 
REMARK       I    between atoms: N3_20  and  C12_22 
REMARK   10  A    between atoms: C12_22  and  C13_24 
REMARK   11  A    between atoms: C16_27  and  N4_28 
REMARK   12  A    between atoms: N4_28  and  N5_30 
REMARK   13  A    between atoms: C17_33  and  C18_34 
REMARK   14  A    between atoms: C21_37  and  N7_38 
REMARK   15  A    between atoms: C24_45  and  S2_46 
REMARK   16  A    between atoms: C29_51  and  O6_52 
REMARK   17  A    between atoms: N9_54  and  O7_56 
ROOT
HETATM    1  N3  UNL     1      15.425   2.355  -5.705  1.00  0.00    -0.329 N 
ATOM      2  H3  UNL     1      14.431   2.283  -5.486  1.00  0.00     0.168 HD
HETATM    3  C12 UNL     1      15.395   2.811  -6.936  1.00  0.00     0.256 C 
HETATM    4  O3  UNL     1      16.471   3.026  -7.601  1.00  0.00    -0.267 OA
ENDROOT
BRANCH   3   5
HETATM    5  C13 UNL     1      14.181   3.135  -7.728  1.00  0.00     0.038 A 
HETATM    6  C14 UNL     1      13.821   2.356  -8.804  1.00  0.00     0.020 A 
HETATM    7  C15 UNL     1      12.678   2.645  -9.539  1.00  0.00     0.032 A 
HETATM    8  C16 UNL     1      11.876   3.705  -9.218  1.00  0.00     0.050 A 
HETATM    9  C26 UNL     1      12.224   4.488  -8.148  1.00  0.00     0.038 A 
HETATM   10  C27 UNL     1      13.364   4.200  -7.419  1.00  0.00    -0.044 A 
HETATM   11  C28 UNL     1      13.689   5.110  -6.257  1.00  0.00     0.049 C 
BRANCH   8  12
HETATM   12  N4  UNL     1      10.714   3.969  -9.983  1.00  0.00    -0.278 N 
ATOM     13  H4  UNL     1       9.852   3.464  -9.778  1.00  0.00     0.189 HD
BRANCH  12  14
HETATM   14  N5  UNL     1      10.730   4.917 -11.023  1.00  0.00    -0.171 N 
HETATM   15  N6  UNL     1      10.332   6.169 -10.943  1.00  0.00    -0.261 N 
HETATM   16  C17 UNL     1      10.494   6.812 -12.107  1.00  0.00     0.134 A 
ATOM     17  H6  UNL     1       9.949   6.597 -10.101  1.00  0.00     0.191 HD
HETATM   18  N8  UNL     1      11.013   5.936 -12.959  1.00  0.00    -0.318 N 
HETATM   19  C24 UNL     1      11.157   4.760 -12.279  1.00  0.00     0.184 A 
ATOM     20  H8  UNL     1      11.257   6.108 -13.934  1.00  0.00     0.169 HD
BRANCH  16  21
HETATM   21  C18 UNL     1      10.130   8.236 -12.321  1.00  0.00     0.009 A 
HETATM   22  C19 UNL     1      10.345   9.147 -11.315  1.00  0.00     0.018 A 
HETATM   23  C20 UNL     1      10.032  10.455 -11.477  1.00  0.00     0.037 A 
HETATM   24  C21 UNL     1       9.487  10.884 -12.673  1.00  0.00     0.102 A 
HETATM   25  C22 UNL     1       9.264   9.980 -13.701  1.00  0.00     0.037 A 
HETATM   26  C23 UNL     1       9.590   8.652 -13.517  1.00  0.00     0.018 A 
BRANCH  24  27
HETATM   27  N7  UNL     1       9.175  12.256 -12.804  1.00  0.00    -0.116 N 
HETATM   28  O4  UNL     1      10.048  13.039 -13.200  1.00  0.00    -0.532 OA
HETATM   29  O5  UNL     1       7.935  12.712 -12.501  1.00  0.00    -0.532 OA
ENDBRANCH  24  27
ENDBRANCH  16  21
BRANCH  19  30
HETATM   30  S2  UNL     1      11.815   3.244 -12.979  1.00  0.00    -0.095 SA
HETATM   31  C25 UNL     1      10.635   1.887 -12.824  1.00  0.00     0.099 C 
ENDBRANCH  19  30
ENDBRANCH  12  14
ENDBRANCH   8  12
ENDBRANCH   3   5
BRANCH   1  32
HETATM   32  C11 UNL     1      15.929   1.974  -4.684  1.00  0.00     0.146 C 
BRANCH  32  33
HETATM   33  C10 UNL     1      15.435   1.291  -3.511  1.00  0.00     0.152 C 
BRANCH  33  34
HETATM   34  N2  UNL     1      14.103   0.991  -3.192  1.00  0.00    -0.350 N 
ATOM     35  H2  UNL     1      13.448   1.742  -2.977  1.00  0.00     0.163 HD
BRANCH  34  36
HETATM   36  C9  UNL     1      13.647  -0.422  -3.167  1.00  0.00     0.253 C 
BRANCH  36  37
HETATM   37  C8  UNL     1      13.855  -0.965  -4.562  1.00  0.00     0.253 C 
HETATM   38  N1  UNL     1      14.444  -2.238  -4.677  1.00  0.00    -0.324 N 
ATOM     39  H1  UNL     1      14.692  -2.706  -3.806  1.00  0.00     0.169 HD
HETATM   40  O1  UNL     1      13.502  -0.266  -5.504  1.00  0.00    -0.270 OA
BRANCH  38  41
HETATM   41  C7  UNL     1      14.728  -2.936  -5.873  1.00  0.00     0.051 A 
HETATM   42  C2  UNL     1      15.649  -3.987  -5.797  1.00  0.00     0.026 A 
HETATM   43  C3  UNL     1      15.944  -4.699  -6.911  1.00  0.00     0.021 A 
HETATM   44  C4  UNL     1      15.365  -4.422  -8.127  1.00  0.00     0.002 A 
HETATM   45  C5  UNL     1      14.464  -3.399  -8.212  1.00  0.00     0.002 A 
HETATM   46  C6  UNL     1      14.132  -2.643  -7.094  1.00  0.00     0.031 A 
BRANCH  42  47
HETATM   47  S1  UNL     1      16.434  -4.346  -4.243  1.00  0.00    -0.132 SA
HETATM   48  C1  UNL     1      16.271  -6.077  -3.764  1.00  0.00     0.095 C 
ENDBRANCH  42  47
ENDBRANCH  38  41
ENDBRANCH  36  37
BRANCH  36  49
HETATM   49  C29 UNL     1      12.210  -0.444  -2.873  1.00  0.00     0.168 C 
HETATM   50  N9  UNL     1      11.714  -0.177  -1.765  1.00  0.00    -0.249 N 
ATOM     51  H9  UNL     1      10.698  -0.225  -1.685  1.00  0.00     0.196 HD
BRANCH  49  52
HETATM   52  O6  UNL     1      11.350  -0.795  -3.929  1.00  0.00    -0.346 OA
ATOM     53  H6  UNL     1      10.494  -0.385  -3.940  1.00  0.00     0.219 HD
ENDBRANCH  49  52
BRANCH  50  54
HETATM   54  O7  UNL     1      12.404   0.172  -0.658  1.00  0.00    -0.288 OA
ATOM     55  H7  UNL     1      13.344   0.092  -0.546  1.00  0.00     0.244 HD
ENDBRANCH  50  54
ENDBRANCH  36  49
ENDBRANCH  34  36
ENDBRANCH  33  34
BRANCH  33  56
HETATM   56  O2  UNL     1      16.319   0.899  -2.642  1.00  0.00    -0.345 OA
ATOM     57  H2  UNL     1      16.613   0.001  -2.736  1.00  0.00     0.219 HD
ENDBRANCH  33  56
ENDBRANCH  32  33
ENDBRANCH   1  32
TORSDOF 17
ENDMDL
MODEL 4
REMARK VINA RESULT: -11.076961681      6.049     10.542
REMARK  17 active torsions:
REMARK  status: ('A' for Active; 'I' for Inactive)
REMARK    1  A    between atoms: S1_2  and  C2_3 
REMARK    2  A    between atoms: C7_8  and  N1_9 
REMARK       I    between atoms: N1_9  and  C8_11 
REMARK    3  A    between atoms: C8_11  and  C9_13 
REMARK    4  A    between atoms: C9_13  and  N2_14 
REMARK    5  A    between atoms: C9_13  and  C29_51 
REMARK    6  A    between atoms: N2_14  and  C10_16 
REMARK    7  A    between atoms: C10_16  and  O2_17 
REMARK    8  A    between atoms: C10_16  and  C11_19 
REMARK    9  A    between atoms: C11_19  and  N3_20 
REMARK       I    between atoms: N3_20  and  C12_22 
REMARK   10  A    between atoms: C12_22  and  C13_24 
REMARK   11  A    between atoms: C16_27  and  N4_28 
REMARK   12  A    between atoms: N4_28  and  N5_30 
REMARK   13  A    between atoms: C17_33  and  C18_34 
REMARK   14  A    between atoms: C21_37  and  N7_38 
REMARK   15  A    between atoms: C24_45  and  S2_46 
REMARK   16  A    between atoms: C29_51  and  O6_52 
REMARK   17  A    between atoms: N9_54  and  O7_56 
ROOT
HETATM    1  N3  UNL     1      11.536   5.062  -9.204  1.00  0.00    -0.329 N 
ATOM      2  H3  UNL     1      12.443   4.709  -9.511  1.00  0.00     0.168 HD
HETATM    3  C12 UNL     1      10.719   4.456 -10.035  1.00  0.00     0.256 C 
HETATM    4  O3  UNL     1       9.451   4.651  -9.994  1.00  0.00    -0.267 OA
ENDROOT
BRANCH   3   5
HETATM    5  C13 UNL     1      11.097   3.498 -11.105  1.00  0.00     0.038 A 
HETATM    6  C14 UNL     1      11.462   3.952 -12.351  1.00  0.00     0.020 A 
HETATM    7  C15 UNL     1      11.833   3.061 -13.351  1.00  0.00     0.032 A 
HETATM    8  C16 UNL     1      11.849   1.711 -13.129  1.00  0.00     0.050 A 
HETATM    9  C26 UNL     1      11.488   1.247 -11.891  1.00  0.00     0.038 A 
HETATM   10  C27 UNL     1      11.117   2.136 -10.898  1.00  0.00    -0.044 A 
HETATM   11  C28 UNL     1      10.725   1.553  -9.560  1.00  0.00     0.049 C 
BRANCH   8  12
HETATM   12  N4  UNL     1      12.237   0.830 -14.168  1.00  0.00    -0.278 N 
ATOM     13  H4  UNL     1      11.589   0.108 -14.482  1.00  0.00     0.189 HD
BRANCH  12  14
HETATM   14  N5  UNL     1      13.503   0.935 -14.773  1.00  0.00    -0.171 N 
HETATM   15  N6  UNL     1      14.460   1.773 -14.439  1.00  0.00    -0.261 N 
HETATM   16  C17 UNL     1      15.549   1.606 -15.201  1.00  0.00     0.134 A 
ATOM     17  H6  UNL     1      14.383   2.464 -13.693  1.00  0.00     0.191 HD
HETATM   18  N8  UNL     1      15.274   0.626 -16.052  1.00  0.00    -0.318 N 
HETATM   19  C24 UNL     1      14.000   0.213 -15.781  1.00  0.00     0.184 A 
ATOM     20  H8  UNL     1      15.894   0.252 -16.770  1.00  0.00     0.169 HD
BRANCH  16  21
HETATM   21  C18 UNL     1      16.788   2.413 -15.058  1.00  0.00     0.009 A 
HETATM   22  C19 UNL     1      17.611   2.203 -13.978  1.00  0.00     0.018 A 
HETATM   23  C20 UNL     1      18.753   2.915 -13.819  1.00  0.00     0.037 A 
HETATM   24  C21 UNL     1      19.098   3.870 -14.757  1.00  0.00     0.102 A 
HETATM   25  C22 UNL     1      18.281   4.096 -15.855  1.00  0.00     0.037 A 
HETATM   26  C23 UNL     1      17.123   3.360 -16.000  1.00  0.00     0.018 A 
BRANCH  24  27
HETATM   27  N7  UNL     1      20.296   4.592 -14.557  1.00  0.00    -0.116 N 
HETATM   28  O4  UNL     1      20.476   5.647 -15.177  1.00  0.00    -0.532 OA
HETATM   29  O5  UNL     1      21.239   4.137 -13.695  1.00  0.00    -0.532 OA
ENDBRANCH  24  27
ENDBRANCH  16  21
BRANCH  19  30
HETATM   30  S2  UNL     1      13.138  -1.097 -16.656  1.00  0.00    -0.095 SA
HETATM   31  C25 UNL     1      12.650  -0.566 -18.310  1.00  0.00     0.099 C 
ENDBRANCH  19  30
ENDBRANCH  12  14
ENDBRANCH   8  12
ENDBRANCH   3   5
BRANCH   1  32
HETATM   32  C11 UNL     1      11.849   5.784  -8.298  1.00  0.00     0.146 C 
BRANCH  32  33
HETATM   33  C10 UNL     1      12.462   5.572  -7.007  1.00  0.00     0.152 C 
BRANCH  33  34
HETATM   34  N2  UNL     1      12.990   4.378  -6.495  1.00  0.00    -0.350 N 
ATOM     35  H2  UNL     1      12.369   3.600  -6.272  1.00  0.00     0.163 HD
BRANCH  34  36
HETATM   36  C9  UNL     1      14.452   4.248  -6.276  1.00  0.00     0.253 C 
BRANCH  36  37
HETATM   37  C8  UNL     1      14.989   3.442  -7.436  1.00  0.00     0.253 C 
HETATM   38  N1  UNL     1      14.119   2.511  -8.032  1.00  0.00    -0.324 N 
ATOM     39  H1  UNL     1      13.182   2.444  -7.636  1.00  0.00     0.169 HD
HETATM   40  O1  UNL     1      16.146   3.645  -7.783  1.00  0.00    -0.270 OA
BRANCH  38  41
HETATM   41  C7  UNL     1      14.407   1.659  -9.123  1.00  0.00     0.051 A 
HETATM   42  C2  UNL     1      14.100   0.301  -8.971  1.00  0.00     0.026 A 
HETATM   43  C3  UNL     1      14.341  -0.556  -9.993  1.00  0.00     0.021 A 
HETATM   44  C4  UNL     1      14.883  -0.135 -11.185  1.00  0.00     0.002 A 
HETATM   45  C5  UNL     1      15.186   1.188 -11.342  1.00  0.00     0.002 A 
HETATM   46  C6  UNL     1      14.954   2.101 -10.321  1.00  0.00     0.031 A 
BRANCH  42  47
HETATM   47  S1  UNL     1      13.427  -0.273  -7.430  1.00  0.00    -0.132 SA
HETATM   48  C1  UNL     1      13.769  -2.018  -7.127  1.00  0.00     0.095 C 
ENDBRANCH  42  47
ENDBRANCH  38  41
ENDBRANCH  36  37
BRANCH  36  49
HETATM   49  C29 UNL     1      14.674   3.485  -5.043  1.00  0.00     0.168 C 
HETATM   50  N9  UNL     1      14.136   3.740  -3.951  1.00  0.00    -0.249 N 
ATOM     51  H9  UNL     1      14.369   3.134  -3.164  1.00  0.00     0.196 HD
BRANCH  49  52
HETATM   52  O6  UNL     1      15.560   2.396  -5.118  1.00  0.00    -0.346 OA
ATOM     53  H6  UNL     1      15.847   2.018  -4.296  1.00  0.00     0.219 HD
ENDBRANCH  49  52
BRANCH  50  54
HETATM   54  O7  UNL     1      13.269   4.749  -3.718  1.00  0.00    -0.288 OA
ATOM     55  H7  UNL     1      12.684   4.814  -2.973  1.00  0.00     0.244 HD
ENDBRANCH  50  54
ENDBRANCH  36  49
ENDBRANCH  34  36
ENDBRANCH  33  34
BRANCH  33  56
HETATM   56  O2  UNL     1      12.545   6.602  -6.218  1.00  0.00    -0.345 OA
ATOM     57  H2  UNL     1      11.905   7.287  -6.373  1.00  0.00     0.219 HD
ENDBRANCH  33  56
ENDBRANCH  32  33
ENDBRANCH   1  32
TORSDOF 17
ENDMDL
MODEL 5
REMARK VINA RESULT: -10.991531001      4.346      6.450
REMARK  17 active torsions:
REMARK  status: ('A' for Active; 'I' for Inactive)
REMARK    1  A    between atoms: S1_2  and  C2_3 
REMARK    2  A    between atoms: C7_8  and  N1_9 
REMARK       I    between atoms: N1_9  and  C8_11 
REMARK    3  A    between atoms: C8_11  and  C9_13 
REMARK    4  A    between atoms: C9_13  and  N2_14 
REMARK    5  A    between atoms: C9_13  and  C29_51 
REMARK    6  A    between atoms: N2_14  and  C10_16 
REMARK    7  A    between atoms: C10_16  and  O2_17 
REMARK    8  A    between atoms: C10_16  and  C11_19 
REMARK    9  A    between atoms: C11_19  and  N3_20 
REMARK       I    between atoms: N3_20  and  C12_22 
REMARK   10  A    between atoms: C12_22  and  C13_24 
REMARK   11  A    between atoms: C16_27  and  N4_28 
REMARK   12  A    between atoms: N4_28  and  N5_30 
REMARK   13  A    between atoms: C17_33  and  C18_34 
REMARK   14  A    between atoms: C21_37  and  N7_38 
REMARK   15  A    between atoms: C24_45  and  S2_46 
REMARK   16  A    between atoms: C29_51  and  O6_52 
REMARK   17  A    between atoms: N9_54  and  O7_56 
ROOT
HETATM    1  N3  UNL     1      15.461   2.662  -5.811  1.00  0.00    -0.329 N 
ATOM      2  H3  UNL     1      14.500   2.332  -5.716  1.00  0.00     0.168 HD
HETATM    3  C12 UNL     1      15.391   3.378  -6.909  1.00  0.00     0.256 C 
HETATM    4  O3  UNL     1      16.423   3.965  -7.398  1.00  0.00    -0.267 OA
ENDROOT
BRANCH   3   5
HETATM    5  C13 UNL     1      14.177   3.618  -7.731  1.00  0.00     0.038 A 
HETATM    6  C14 UNL     1      14.007   2.967  -8.931  1.00  0.00     0.020 A 
HETATM    7  C15 UNL     1      12.866   3.175  -9.696  1.00  0.00     0.032 A 
HETATM    8  C16 UNL     1      11.879   4.027  -9.282  1.00  0.00     0.050 A 
HETATM    9  C26 UNL     1      12.037   4.681  -8.088  1.00  0.00     0.038 A 
HETATM   10  C27 UNL     1      13.175   4.474  -7.329  1.00  0.00    -0.044 A 
HETATM   11  C28 UNL     1      13.285   5.233  -6.027  1.00  0.00     0.049 C 
BRANCH   8  12
HETATM   12  N4  UNL     1      10.725   4.213 -10.083  1.00  0.00    -0.278 N 
ATOM     13  H4  UNL     1       9.891   3.655  -9.899  1.00  0.00     0.189 HD
BRANCH  12  14
HETATM   14  N5  UNL     1      10.711   5.155 -11.128  1.00  0.00    -0.171 N 
HETATM   15  N6  UNL     1      10.299   6.401 -11.048  1.00  0.00    -0.261 N 
HETATM   16  C17 UNL     1      10.432   7.040 -12.218  1.00  0.00     0.134 A 
ATOM     17  H6  UNL     1       9.924   6.829 -10.202  1.00  0.00     0.191 HD
HETATM   18  N8  UNL     1      10.947   6.166 -13.074  1.00  0.00    -0.318 N 
HETATM   19  C24 UNL     1      11.118   4.996 -12.390  1.00  0.00     0.184 A 
ATOM     20  H8  UNL     1      11.172   6.336 -14.054  1.00  0.00     0.169 HD
BRANCH  16  21
HETATM   21  C18 UNL     1      10.046   8.458 -12.433  1.00  0.00     0.009 A 
HETATM   22  C19 UNL     1      10.360   9.396 -11.480  1.00  0.00     0.018 A 
HETATM   23  C20 UNL     1      10.029  10.700 -11.645  1.00  0.00     0.037 A 
HETATM   24  C21 UNL     1       9.366  11.096 -12.792  1.00  0.00     0.102 A 
HETATM   25  C22 UNL     1       9.042  10.164 -13.767  1.00  0.00     0.037 A 
HETATM   26  C23 UNL     1       9.387   8.842 -13.580  1.00  0.00     0.018 A 
BRANCH  24  27
HETATM   27  N7  UNL     1       9.039  12.464 -12.929  1.00  0.00    -0.116 N 
HETATM   28  O4  UNL     1       8.446  13.038 -12.006  1.00  0.00    -0.532 OA
HETATM   29  O5  UNL     1       9.371  13.143 -14.054  1.00  0.00    -0.532 OA
ENDBRANCH  24  27
ENDBRANCH  16  21
BRANCH  19  30
HETATM   30  S2  UNL     1      11.784   3.485 -13.093  1.00  0.00    -0.095 SA
HETATM   31  C25 UNL     1      10.633   2.109 -12.893  1.00  0.00     0.099 C 
ENDBRANCH  19  30
ENDBRANCH  12  14
ENDBRANCH   8  12
ENDBRANCH   3   5
BRANCH   1  32
HETATM   32  C11 UNL     1      15.986   2.165  -4.852  1.00  0.00     0.146 C 
BRANCH  32  33
HETATM   33  C10 UNL     1      15.509   1.381  -3.736  1.00  0.00     0.152 C 
BRANCH  33  34
HETATM   34  N2  UNL     1      14.179   1.113  -3.384  1.00  0.00    -0.350 N 
ATOM     35  H2  UNL     1      13.448   1.792  -3.595  1.00  0.00     0.163 HD
BRANCH  34  36
HETATM   36  C9  UNL     1      13.835  -0.160  -2.703  1.00  0.00     0.253 C 
BRANCH  36  37
HETATM   37  C8  UNL     1      14.365  -1.272  -3.578  1.00  0.00     0.253 C 
HETATM   38  N1  UNL     1      13.970  -1.274  -4.929  1.00  0.00    -0.324 N 
ATOM     39  H1  UNL     1      13.349  -0.520  -5.223  1.00  0.00     0.169 HD
HETATM   40  O1  UNL     1      15.101  -2.104  -3.060  1.00  0.00    -0.270 OA
BRANCH  38  41
HETATM   41  C7  UNL     1      14.344  -2.209  -5.921  1.00  0.00     0.051 A 
HETATM   42  C2  UNL     1      13.939  -1.943  -7.235  1.00  0.00     0.026 A 
HETATM   43  C3  UNL     1      14.286  -2.800  -8.226  1.00  0.00     0.021 A 
HETATM   44  C4  UNL     1      15.028  -3.932  -7.984  1.00  0.00     0.002 A 
HETATM   45  C5  UNL     1      15.428  -4.200  -6.706  1.00  0.00     0.002 A 
HETATM   46  C6  UNL     1      15.096  -3.348  -5.659  1.00  0.00     0.031 A 
BRANCH  42  47
HETATM   47  S1  UNL     1      12.955  -0.502  -7.568  1.00  0.00    -0.132 SA
HETATM   48  C1  UNL     1      12.512  -0.348  -9.310  1.00  0.00     0.095 C 
ENDBRANCH  42  47
ENDBRANCH  38  41
ENDBRANCH  36  37
BRANCH  36  49
HETATM   49  C29 UNL     1      12.374  -0.278  -2.642  1.00  0.00     0.168 C 
HETATM   50  N9  UNL     1      11.713  -0.307  -1.589  1.00  0.00    -0.249 N 
ATOM     51  H9  UNL     1      10.700  -0.390  -1.677  1.00  0.00     0.196 HD
BRANCH  49  52
HETATM   52  O6  UNL     1      11.691  -0.364  -3.868  1.00  0.00    -0.346 OA
ATOM     53  H6  UNL     1      12.061  -0.939  -4.527  1.00  0.00     0.219 HD
ENDBRANCH  49  52
BRANCH  50  54
HETATM   54  O7  UNL     1      12.222  -0.239  -0.340  1.00  0.00    -0.288 OA
ATOM     55  H7  UNL     1      11.946   0.368   0.336  1.00  0.00     0.244 HD
ENDBRANCH  50  54
ENDBRANCH  36  49
ENDBRANCH  34  36
ENDBRANCH  33  34
BRANCH  33  56
HETATM   56  O2  UNL     1      16.409   0.854  -2.960  1.00  0.00    -0.345 OA
ATOM     57  H2  UNL     1      17.310   1.049  -3.189  1.00  0.00     0.219 HD
ENDBRANCH  33  56
ENDBRANCH  32  33
ENDBRANCH   1  32
TORSDOF 17
ENDMDL
