MODEL 1
REMARK VINA RESULT: -7.313132484      0.000      0.000
REMARK  6 active torsions:
REMARK  status: ('A' for Active; 'I' for Inactive)
REMARK    1  A    between atoms: N1_1  and  C1_4 
REMARK    2  A    between atoms: C2_5  and  C3_6 
REMARK    3  A    between atoms: N2_10  and  C6_11 
REMARK    4  A    between atoms: C6_11  and  C7_12 
REMARK    5  A    between atoms: C7_12  and  C8_13 
REMARK       I    between atoms: C8_13  and  N3_15 
REMARK    6  A    between atoms: N3_15  and  C9_17 
ROOT
HETATM    1  C3  UNL     1      -4.288  -0.280  11.654  1.00  0.00     0.190 C 
HETATM    2  F1  UNL     1      -5.561  -0.390  11.117  1.00  0.00    -0.227 F 
HETATM    3  C4  UNL     1      -4.428   0.180  13.067  1.00  0.00     0.079 C 
HETATM    4  C5  UNL     1      -4.901   1.594  13.077  1.00  0.00     0.126 C 
HETATM    5  N2  UNL     1      -3.905   2.418  12.430  1.00  0.00    -0.391 N 
HETATM    6  C15 UNL     1      -3.660   2.088  11.086  1.00  0.00     0.082 C 
HETATM    7  C16 UNL     1      -3.483   0.639  10.781  1.00  0.00     0.172 C 
HETATM    8 CL1  UNL     1      -1.782   0.134  10.877  1.00  0.00    -0.115 Cl
ENDROOT
BRANCH   5   9
HETATM    9  C6  UNL     1      -2.806   2.734  13.266  1.00  0.00     0.131 C 
BRANCH   9  10
HETATM   10  C7  UNL     1      -3.087   3.681  14.400  1.00  0.00     0.122 C 
BRANCH  10  11
HETATM   11  C8  UNL     1      -3.533   5.007  13.931  1.00  0.00     0.219 C 
HETATM   12  O1  UNL     1      -2.736   5.819  13.412  1.00  0.00    -0.274 OA
HETATM   13  N3  UNL     1      -4.893   5.370  14.069  1.00  0.00    -0.356 N 
ATOM     14  H3  UNL     1      -5.546   4.710  14.492  1.00  0.00     0.162 HD
BRANCH  13  15
HETATM   15  C9  UNL     1      -5.372   6.654  13.625  1.00  0.00     0.084 C 
HETATM   16  C10 UNL     1      -5.512   7.541  14.839  1.00  0.00     0.025 C 
HETATM   17  C11 UNL     1      -6.859   7.356  15.497  1.00  0.00     0.002 C 
HETATM   18  C12 UNL     1      -7.997   7.728  14.582  1.00  0.00     0.000 C 
HETATM   19  C13 UNL     1      -7.604   7.683  13.127  1.00  0.00     0.002 C 
HETATM   20  C14 UNL     1      -6.637   6.560  12.834  1.00  0.00     0.025 C 
ENDBRANCH  13  15
ENDBRANCH  10  11
ENDBRANCH   9  10
ENDBRANCH   5   9
BRANCH   1  21
HETATM   21  C2  UNL     1      -3.693  -1.619  11.604  1.00  0.00    -0.038 C 
HETATM   22  C1  UNL     1      -3.221  -2.730  11.560  1.00  0.00     0.006 C 
BRANCH  22  23
HETATM   23  N1  UNL     1      -2.696  -4.027  11.512  1.00  0.00    -0.359 N 
ATOM     24  H12 UNL     1      -2.627  -3.156  10.986  1.00  0.00     0.166 HD
ATOM     25  H11 UNL     1      -2.323  -4.977  11.492  1.00  0.00     0.166 HD
ENDBRANCH  22  23
ENDBRANCH   1  21
TORSDOF 6
ENDMDL
MODEL 2
REMARK VINA RESULT: -6.924005728      2.325      3.231
REMARK  6 active torsions:
REMARK  status: ('A' for Active; 'I' for Inactive)
REMARK    1  A    between atoms: N1_1  and  C1_4 
REMARK    2  A    between atoms: C2_5  and  C3_6 
REMARK    3  A    between atoms: N2_10  and  C6_11 
REMARK    4  A    between atoms: C6_11  and  C7_12 
REMARK    5  A    between atoms: C7_12  and  C8_13 
REMARK       I    between atoms: C8_13  and  N3_15 
REMARK    6  A    between atoms: N3_15  and  C9_17 
ROOT
HETATM    1  C3  UNL     1      -4.336  -0.070  11.674  1.00  0.00     0.190 C 
HETATM    2  F1  UNL     1      -5.620  -0.224  11.177  1.00  0.00    -0.227 F 
HETATM    3  C4  UNL     1      -4.447   0.403  13.085  1.00  0.00     0.079 C 
HETATM    4  C5  UNL     1      -4.961   1.803  13.093  1.00  0.00     0.126 C 
HETATM    5  N2  UNL     1      -4.011   2.649  12.406  1.00  0.00    -0.391 N 
HETATM    6  C15 UNL     1      -3.798   2.309  11.059  1.00  0.00     0.082 C 
HETATM    7  C16 UNL     1      -3.586   0.862  10.766  1.00  0.00     0.172 C 
HETATM    8 CL1  UNL     1      -1.869   0.410  10.814  1.00  0.00    -0.115 Cl
ENDROOT
BRANCH   5   9
HETATM    9  C6  UNL     1      -2.897   3.008  13.205  1.00  0.00     0.131 C 
BRANCH   9  10
HETATM   10  C7  UNL     1      -3.209   3.542  14.575  1.00  0.00     0.122 C 
BRANCH  10  11
HETATM   11  C8  UNL     1      -3.429   5.001  14.576  1.00  0.00     0.219 C 
HETATM   12  O1  UNL     1      -4.581   5.488  14.616  1.00  0.00    -0.274 OA
HETATM   13  N3  UNL     1      -2.315   5.870  14.530  1.00  0.00    -0.356 N 
ATOM     14  H3  UNL     1      -1.375   5.476  14.497  1.00  0.00     0.162 HD
BRANCH  13  15
HETATM   15  C9  UNL     1      -2.484   7.300  14.529  1.00  0.00     0.084 C 
HETATM   16  C10 UNL     1      -1.711   7.857  13.357  1.00  0.00     0.025 C 
HETATM   17  C11 UNL     1      -0.268   8.108  13.725  1.00  0.00     0.002 C 
HETATM   18  C12 UNL     1      -0.129   9.125  14.829  1.00  0.00     0.000 C 
HETATM   19  C13 UNL     1      -1.385   9.256  15.651  1.00  0.00     0.002 C 
HETATM   20  C14 UNL     1      -2.092   7.932  15.826  1.00  0.00     0.025 C 
ENDBRANCH  13  15
ENDBRANCH  10  11
ENDBRANCH   9  10
ENDBRANCH   5   9
BRANCH   1  21
HETATM   21  C2  UNL     1      -3.702  -1.390  11.620  1.00  0.00    -0.038 C 
HETATM   22  C1  UNL     1      -3.198  -2.487  11.569  1.00  0.00     0.006 C 
BRANCH  22  23
HETATM   23  N1  UNL     1      -2.635  -3.768  11.508  1.00  0.00    -0.359 N 
ATOM     24  H12 UNL     1      -3.292  -3.196  10.976  1.00  0.00     0.166 HD
ATOM     25  H11 UNL     1      -2.216  -4.697  11.477  1.00  0.00     0.166 HD
ENDBRANCH  22  23
ENDBRANCH   1  21
TORSDOF 6
ENDMDL
MODEL 3
REMARK VINA RESULT: -6.855227265      1.022      1.402
REMARK  6 active torsions:
REMARK  status: ('A' for Active; 'I' for Inactive)
REMARK    1  A    between atoms: N1_1  and  C1_4 
REMARK    2  A    between atoms: C2_5  and  C3_6 
REMARK    3  A    between atoms: N2_10  and  C6_11 
REMARK    4  A    between atoms: C6_11  and  C7_12 
REMARK    5  A    between atoms: C7_12  and  C8_13 
REMARK       I    between atoms: C8_13  and  N3_15 
REMARK    6  A    between atoms: N3_15  and  C9_17 
ROOT
HETATM    1  C3  UNL     1      -4.267  -0.427  11.571  1.00  0.00     0.190 C 
HETATM    2  F1  UNL     1      -5.565  -0.506  11.092  1.00  0.00    -0.227 F 
HETATM    3  C4  UNL     1      -4.324   0.137  12.952  1.00  0.00     0.079 C 
HETATM    4  C5  UNL     1      -4.724   1.572  12.878  1.00  0.00     0.126 C 
HETATM    5  N2  UNL     1      -3.716   2.295  12.136  1.00  0.00    -0.391 N 
HETATM    6  C15 UNL     1      -3.545   1.859  10.811  1.00  0.00     0.082 C 
HETATM    7  C16 UNL     1      -3.455   0.385  10.604  1.00  0.00     0.172 C 
HETATM    8 CL1  UNL     1      -1.779  -0.201  10.669  1.00  0.00    -0.115 Cl
ENDROOT
BRANCH   5   9
HETATM    9  C6  UNL     1      -2.569   2.609  12.904  1.00  0.00     0.131 C 
BRANCH   9  10
HETATM   10  C7  UNL     1      -2.497   4.010  13.446  1.00  0.00     0.122 C 
BRANCH  10  11
HETATM   11  C8  UNL     1      -3.590   4.307  14.392  1.00  0.00     0.219 C 
HETATM   12  O1  UNL     1      -3.861   3.537  15.340  1.00  0.00    -0.274 OA
HETATM   13  N3  UNL     1      -4.350   5.487  14.225  1.00  0.00    -0.356 N 
ATOM     14  H3  UNL     1      -4.132   6.117  13.453  1.00  0.00     0.162 HD
BRANCH  13  15
HETATM   15  C9  UNL     1      -5.425   5.816  15.125  1.00  0.00     0.084 C 
HETATM   16  C10 UNL     1      -6.704   5.263  14.541  1.00  0.00     0.025 C 
HETATM   17  C11 UNL     1      -7.326   6.237  13.568  1.00  0.00     0.002 C 
HETATM   18  C12 UNL     1      -7.705   7.538  14.229  1.00  0.00     0.000 C 
HETATM   19  C13 UNL     1      -6.936   7.782  15.502  1.00  0.00     0.002 C 
HETATM   20  C14 UNL     1      -5.514   7.280  15.413  1.00  0.00     0.025 C 
ENDBRANCH  13  15
ENDBRANCH  10  11
ENDBRANCH   9  10
ENDBRANCH   5   9
BRANCH   1  21
HETATM   21  C2  UNL     1      -3.743  -1.795  11.593  1.00  0.00    -0.038 C 
HETATM   22  C1  UNL     1      -3.309  -2.923  11.591  1.00  0.00     0.006 C 
BRANCH  22  23
HETATM   23  N1  UNL     1      -2.809  -4.231  11.566  1.00  0.00    -0.359 N 
ATOM     24  H12 UNL     1      -3.048  -3.491  10.904  1.00  0.00     0.166 HD
ATOM     25  H11 UNL     1      -2.446  -5.184  11.564  1.00  0.00     0.166 HD
ENDBRANCH  22  23
ENDBRANCH   1  21
TORSDOF 6
ENDMDL
MODEL 4
REMARK VINA RESULT: -6.748694486      3.320      6.607
REMARK  6 active torsions:
REMARK  status: ('A' for Active; 'I' for Inactive)
REMARK    1  A    between atoms: N1_1  and  C1_4 
REMARK    2  A    between atoms: C2_5  and  C3_6 
REMARK    3  A    between atoms: N2_10  and  C6_11 
REMARK    4  A    between atoms: C6_11  and  C7_12 
REMARK    5  A    between atoms: C7_12  and  C8_13 
REMARK       I    between atoms: C8_13  and  N3_15 
REMARK    6  A    between atoms: N3_15  and  C9_17 
ROOT
HETATM    1  C3  UNL     1      -5.216   2.614  14.990  1.00  0.00     0.190 C 
HETATM    2  F1  UNL     1      -6.294   3.482  15.070  1.00  0.00    -0.227 F 
HETATM    3  C4  UNL     1      -3.985   3.383  15.337  1.00  0.00     0.079 C 
HETATM    4  C5  UNL     1      -3.692   4.356  14.245  1.00  0.00     0.126 C 
HETATM    5  N2  UNL     1      -3.437   3.621  13.027  1.00  0.00    -0.391 N 
HETATM    6  C15 UNL     1      -4.516   2.837  12.585  1.00  0.00     0.082 C 
HETATM    7  C16 UNL     1      -5.199   2.006  13.617  1.00  0.00     0.172 C 
HETATM    8 CL1  UNL     1      -4.493   0.381  13.747  1.00  0.00    -0.115 Cl
ENDROOT
BRANCH   5   9
HETATM    9  C6  UNL     1      -2.129   3.083  12.958  1.00  0.00     0.131 C 
BRANCH   9  10
HETATM   10  C7  UNL     1      -1.473   3.108  11.605  1.00  0.00     0.122 C 
BRANCH  10  11
HETATM   11  C8  UNL     1      -1.542   1.803  10.920  1.00  0.00     0.219 C 
HETATM   12  O1  UNL     1      -1.031   1.629   9.792  1.00  0.00    -0.274 OA
HETATM   13  N3  UNL     1      -2.199   0.723  11.551  1.00  0.00    -0.356 N 
ATOM     14  H3  UNL     1      -2.617   0.861  12.471  1.00  0.00     0.162 HD
BRANCH  13  15
HETATM   15  C9  UNL     1      -2.290  -0.568  10.919  1.00  0.00     0.084 C 
HETATM   16  C10 UNL     1      -3.590  -0.618  10.152  1.00  0.00     0.025 C 
HETATM   17  C11 UNL     1      -4.731  -1.061  11.038  1.00  0.00     0.002 C 
HETATM   18  C12 UNL     1      -4.522  -2.450  11.584  1.00  0.00     0.000 C 
HETATM   19  C13 UNL     1      -3.071  -2.858  11.578  1.00  0.00     0.002 C 
HETATM   20  C14 UNL     1      -2.153  -1.700  11.887  1.00  0.00     0.025 C 
ENDBRANCH  13  15
ENDBRANCH  10  11
ENDBRANCH   9  10
ENDBRANCH   5   9
BRANCH   1  21
HETATM   21  C2  UNL     1      -5.456   1.553  15.972  1.00  0.00    -0.038 C 
HETATM   22  C1  UNL     1      -5.657   0.693  16.797  1.00  0.00     0.006 C 
BRANCH  22  23
HETATM   23  N1  UNL     1      -5.888  -0.287  17.769  1.00  0.00    -0.359 N 
ATOM     24  H12 UNL     1      -6.138   0.686  17.591  1.00  0.00     0.166 HD
ATOM     25  H11 UNL     1      -6.047  -1.013  18.468  1.00  0.00     0.166 HD
ENDBRANCH  22  23
ENDBRANCH   1  21
TORSDOF 6
ENDMDL
MODEL 5
REMARK VINA RESULT: -6.670433755      2.872      5.118
REMARK  6 active torsions:
REMARK  status: ('A' for Active; 'I' for Inactive)
REMARK    1  A    between atoms: N1_1  and  C1_4 
REMARK    2  A    between atoms: C2_5  and  C3_6 
REMARK    3  A    between atoms: N2_10  and  C6_11 
REMARK    4  A    between atoms: C6_11  and  C7_12 
REMARK    5  A    between atoms: C7_12  and  C8_13 
REMARK       I    between atoms: C8_13  and  N3_15 
REMARK    6  A    between atoms: N3_15  and  C9_17 
ROOT
HETATM    1  C3  UNL     1      -4.269  -0.001  11.803  1.00  0.00     0.190 C 
HETATM    2  F1  UNL     1      -5.533  -0.074  11.242  1.00  0.00    -0.227 F 
HETATM    3  C4  UNL     1      -4.428   0.383  13.237  1.00  0.00     0.079 C 
HETATM    4  C5  UNL     1      -4.895   1.797  13.316  1.00  0.00     0.126 C 
HETATM    5  N2  UNL     1      -3.885   2.650  12.729  1.00  0.00    -0.391 N 
HETATM    6  C15 UNL     1      -3.622   2.391  11.373  1.00  0.00     0.082 C 
HETATM    7  C16 UNL     1      -3.447   0.960  10.993  1.00  0.00     0.172 C 
HETATM    8 CL1  UNL     1      -1.750   0.442  11.087  1.00  0.00    -0.115 Cl
ENDROOT
BRANCH   5   9
HETATM    9  C6  UNL     1      -2.798   2.914  13.598  1.00  0.00     0.131 C 
BRANCH   9  10
HETATM   10  C7  UNL     1      -2.567   4.358  13.950  1.00  0.00     0.122 C 
BRANCH  10  11
HETATM   11  C8  UNL     1      -1.658   5.032  13.004  1.00  0.00     0.219 C 
HETATM   12  O1  UNL     1      -1.816   6.232  12.688  1.00  0.00    -0.274 OA
HETATM   13  N3  UNL     1      -0.584   4.308  12.439  1.00  0.00    -0.356 N 
ATOM     14  H3  UNL     1      -0.452   3.329  12.694  1.00  0.00     0.162 HD
BRANCH  13  15
HETATM   15  C9  UNL     1       0.328   4.926  11.511  1.00  0.00     0.084 C 
HETATM   16  C10 UNL     1      -0.107   4.551  10.114  1.00  0.00     0.025 C 
HETATM   17  C11 UNL     1       0.488   3.228   9.694  1.00  0.00     0.002 C 
HETATM   18  C12 UNL     1       1.994   3.266   9.658  1.00  0.00     0.000 C 
HETATM   19  C13 UNL     1       2.562   4.366  10.519  1.00  0.00     0.002 C 
HETATM   20  C14 UNL     1       1.756   4.575  11.779  1.00  0.00     0.025 C 
ENDBRANCH  13  15
ENDBRANCH  10  11
ENDBRANCH   9  10
ENDBRANCH   5   9
BRANCH   1  21
HETATM   21  C2  UNL     1      -3.679  -1.338  11.689  1.00  0.00    -0.038 C 
HETATM   22  C1  UNL     1      -3.212  -2.448  11.598  1.00  0.00     0.006 C 
BRANCH  22  23
HETATM   23  N1  UNL     1      -2.691  -3.744  11.500  1.00  0.00    -0.359 N 
ATOM     24  H12 UNL     1      -3.218  -3.181  12.168  1.00  0.00     0.166 HD
ATOM     25  H11 UNL     1      -2.305  -4.684  11.413  1.00  0.00     0.166 HD
ENDBRANCH  22  23
ENDBRANCH   1  21
TORSDOF 6
ENDMDL
